data_image0
_cell_length_a       35.9096
_cell_length_b       35.9096
_cell_length_c       51.3533
_cell_angle_alpha    90
_cell_angle_beta     90
_cell_angle_gamma    90

_symmetry_space_group_name_H-M    "P 1"
_symmetry_int_tables_number       1

loop_
  _symmetry_equiv_pos_as_xyz
  'x, y, z'

loop_
  _atom_site_label
  _atom_site_occupancy
  _atom_site_fract_x
  _atom_site_fract_y
  _atom_site_fract_z
  _atom_site_thermal_displace_type
  _atom_site_B_iso_or_equiv
  _atom_site_type_symbol
  Zn1      1.0000 0.91608  0.13276  0.39014  Biso   1.000  Zn
  Zn2      1.0000 0.88789  0.17682  0.35366  Biso   1.000  Zn
  O1       1.0000 0.94175  0.09911  0.41974  Biso   1.000  O
  H1       1.0000 0.92940  0.08010  0.42190  Biso   1.000  H
  O2       1.0000 0.86475  0.21152  0.32397  Biso   1.000  O
  H2       1.0000 0.84340  0.20470  0.32070  Biso   1.000  H
  O3       1.0000 0.72551  0.09627  0.47271  Biso   1.000  O
  O4       1.0000 0.86695  0.13827  0.40666  Biso   1.000  O
  O5       1.0000 0.78637  0.08453  0.47307  Biso   1.000  O
  O6       1.0000 0.84242  0.17294  0.37482  Biso   1.000  O
  C1       1.0000 0.73264  0.14274  0.43001  Biso   1.000  C
  H3       1.0000 0.70900  0.13970  0.43710  Biso   1.000  H
  C2       1.0000 0.76346  0.12566  0.44100  Biso   1.000  C
  C3       1.0000 0.75759  0.09949  0.46408  Biso   1.000  C
  C4       1.0000 0.79890  0.13035  0.43054  Biso   1.000  C
  H4       1.0000 0.81940  0.11910  0.43840  Biso   1.000  H
  N1       1.0000 0.70601  0.18089  0.39542  Biso   1.000  N
  C5       1.0000 0.80342  0.15200  0.40824  Biso   1.000  C
  C6       1.0000 0.84104  0.15444  0.39477  Biso   1.000  C
  C7       1.0000 0.77265  0.16916  0.39679  Biso   1.000  C
  H5       1.0000 0.77540  0.18350  0.38180  Biso   1.000  H
  C8       1.0000 0.73821  0.16447  0.40810  Biso   1.000  C
  C9       1.0000 0.67137  0.16826  0.39490  Biso   1.000  C
  H6       1.0000 0.66230  0.14660  0.40250  Biso   1.000  H
  N2       1.0000 0.70935  0.21459  0.38378  Biso   1.000  N
  C10      1.0000 0.65216  0.19376  0.38094  Biso   1.000  C
  C11      1.0000 0.61299  0.19537  0.37300  Biso   1.000  C
  N3       1.0000 0.67609  0.22199  0.37511  Biso   1.000  N
  C12      1.0000 0.59208  0.16494  0.37445  Biso   1.000  C
  H7       1.0000 0.60240  0.14330  0.38120  Biso   1.000  H
  C13      1.0000 0.59629  0.22800  0.36555  Biso   1.000  C
  H8       1.0000 0.60910  0.25050  0.36600  Biso   1.000  H
  C14      1.0000 0.55961  0.22620  0.35728  Biso   1.000  C
  H9       1.0000 0.54840  0.24810  0.35160  Biso   1.000  H
  C15      1.0000 0.55515  0.16450  0.36607  Biso   1.000  C
  H10      1.0000 0.54160  0.14250  0.36690  Biso   1.000  H
  C16      1.0000 0.53920  0.19480  0.35699  Biso   1.000  C
  N4       1.0000 0.50096  0.19555  0.34915  Biso   1.000  N
  C17      1.0000 0.49024  0.21600  0.32718  Biso   1.000  C
  C18      1.0000 0.51081  0.22050  0.30684  Biso   1.000  C
  H11      1.0000 0.53420  0.20930  0.30700  Biso   1.000  H
  C19      1.0000 0.45909  0.23600  0.32770  Biso   1.000  C
  H12      1.0000 0.44370  0.23530  0.34220  Biso   1.000  H
  C20      1.0000 0.47486  0.17320  0.36231  Biso   1.000  C
  C21      1.0000 0.44448  0.16230  0.35237  Biso   1.000  C
  H13      1.0000 0.43910  0.17020  0.33550  Biso   1.000  H
  C22      1.0000 0.50128  0.24055  0.28459  Biso   1.000  C
  H14      1.0000 0.51730  0.24120  0.27040  Biso   1.000  H
  C23      1.0000 0.47033  0.25800  0.28398  Biso   1.000  C
  C24      1.0000 0.44949  0.25840  0.30607  Biso   1.000  C
  H15      1.0000 0.42860  0.27360  0.30700  Biso   1.000  H
  C25      1.0000 0.42180  0.13060  0.38851  Biso   1.000  C
  C26      1.0000 0.41790  0.13900  0.36481  Biso   1.000  C
  H16      1.0000 0.39760  0.12990  0.35550  Biso   1.000  H
  C27      1.0000 0.44821  0.15110  0.40325  Biso   1.000  C
  H17      1.0000 0.44700  0.15270  0.42130  Biso   1.000  H
  C28      1.0000 0.47675  0.16930  0.38851  Biso   1.000  C
  H18      1.0000 0.49730  0.17880  0.39730  Biso   1.000  H
  N5       1.0000 0.45571  0.31126  0.22565  Biso   1.000  N
  C29      1.0000 0.47778  0.29141  0.24020  Biso   1.000  C
  H19      1.0000 0.50230  0.28540  0.23620  Biso   1.000  H
  C30      1.0000 0.46015  0.28120  0.26141  Biso   1.000  C
  N6       1.0000 0.34570  0.07812  0.41558  Biso   1.000  N
  C31      1.0000 0.35887  0.09842  0.39647  Biso   1.000  C
  H20      1.0000 0.34590  0.10560  0.38160  Biso   1.000  H
  N7       1.0000 0.37042  0.07851  0.43605  Biso   1.000  N
  N8       1.0000 0.40023  0.09680  0.42730  Biso   1.000  N
  C32      1.0000 0.39330  0.10690  0.40186  Biso   1.000  C
  N9       1.0000 0.42505  0.31700  0.23890  Biso   1.000  N
  N10      1.0000 0.42718  0.29850  0.26039  Biso   1.000  N
  C33      1.0000 0.50001  0.34656  0.16549  Biso   1.000  C
  C34      1.0000 0.49564  0.32914  0.18984  Biso   1.000  C
  H21      1.0000 0.51580  0.31810  0.19820  Biso   1.000  H
  C35      1.0000 0.43010  0.34464  0.18920  Biso   1.000  C
  H22      1.0000 0.40670  0.34330  0.19700  Biso   1.000  H
  C36      1.0000 0.46036  0.32883  0.20106  Biso   1.000  C
  C37      1.0000 0.23930  0.03748  0.43141  Biso   1.000  C
  H23      1.0000 0.21540  0.02980  0.43590  Biso   1.000  H
  C38      1.0000 0.24450  0.06255  0.41146  Biso   1.000  C
  C39      1.0000 0.27019  0.02360  0.44490  Biso   1.000  C
  C40      1.0000 0.27950  0.07572  0.40577  Biso   1.000  C
  H24      1.0000 0.28300  0.09290  0.39240  Biso   1.000  H
  C41      1.0000 0.30497  0.03642  0.43926  Biso   1.000  C
  H25      1.0000 0.32550  0.02720  0.44830  Biso   1.000  H
  C42      1.0000 0.30968  0.06289  0.42028  Biso   1.000  C
  C43      1.0000 0.40108  0.37895  0.15198  Biso   1.000  C
  C44      1.0000 0.53688  0.34587  0.15170  Biso   1.000  C
  C45      1.0000 0.46951  0.36334  0.15403  Biso   1.000  C
  H26      1.0000 0.47240  0.37540  0.13810  Biso   1.000  H
  C46      1.0000 0.43451  0.36260  0.16569  Biso   1.000  C
  C47      1.0000 0.21112  0.07598  0.39629  Biso   1.000  C
  C48      1.0000 0.26418  0.99394  0.46578  Biso   1.000  C
  O7       1.0000 0.53995  0.36580  0.13224  Biso   1.000  O
  O8       1.0000 0.40817  0.39561  0.13110  Biso   1.000  O
  O9       1.0000 0.56226  0.32668  0.16167  Biso   1.000  O
  O10      1.0000 0.37066  0.37440  0.16279  Biso   1.000  O
  O11      1.0000 0.17973  0.06860  0.40553  Biso   1.000  O
  O12      1.0000 0.21716  0.09485  0.37622  Biso   1.000  O
  O13      1.0000 0.23155  0.99026  0.47299  Biso   1.000  O
  O14      1.0000 0.29292  0.97833  0.47344  Biso   1.000  O
  Zn3      1.0000 0.41608  0.63276  0.89014  Biso   1.000  Zn
  Zn4      1.0000 0.38789  0.67682  0.85366  Biso   1.000  Zn
  O15      1.0000 0.44175  0.59911  0.91974  Biso   1.000  O
  H27      1.0000 0.42940  0.58010  0.92190  Biso   1.000  H
  O16      1.0000 0.36475  0.71152  0.82397  Biso   1.000  O
  H28      1.0000 0.34340  0.70470  0.82070  Biso   1.000  H
  O17      1.0000 0.22551  0.59627  0.97271  Biso   1.000  O
  O18      1.0000 0.36695  0.63827  0.90666  Biso   1.000  O
  O19      1.0000 0.28637  0.58453  0.97307  Biso   1.000  O
  O20      1.0000 0.34242  0.67294  0.87482  Biso   1.000  O
  C49      1.0000 0.23264  0.64274  0.93001  Biso   1.000  C
  H29      1.0000 0.20900  0.63970  0.93710  Biso   1.000  H
  C50      1.0000 0.26346  0.62566  0.94100  Biso   1.000  C
  C51      1.0000 0.25759  0.59949  0.96408  Biso   1.000  C
  C52      1.0000 0.29890  0.63035  0.93054  Biso   1.000  C
  H30      1.0000 0.31940  0.61910  0.93840  Biso   1.000  H
  N11      1.0000 0.20601  0.68089  0.89542  Biso   1.000  N
  C53      1.0000 0.30342  0.65200  0.90824  Biso   1.000  C
  C54      1.0000 0.34104  0.65444  0.89477  Biso   1.000  C
  C55      1.0000 0.27265  0.66916  0.89679  Biso   1.000  C
  H31      1.0000 0.27540  0.68350  0.88180  Biso   1.000  H
  C56      1.0000 0.23821  0.66447  0.90810  Biso   1.000  C
  C57      1.0000 0.17137  0.66826  0.89490  Biso   1.000  C
  H32      1.0000 0.16230  0.64660  0.90250  Biso   1.000  H
  N12      1.0000 0.20935  0.71459  0.88378  Biso   1.000  N
  C58      1.0000 0.15216  0.69376  0.88094  Biso   1.000  C
  C59      1.0000 0.11299  0.69537  0.87300  Biso   1.000  C
  N13      1.0000 0.17609  0.72199  0.87511  Biso   1.000  N
  C60      1.0000 0.09208  0.66494  0.87445  Biso   1.000  C
  H33      1.0000 0.10240  0.64330  0.88120  Biso   1.000  H
  C61      1.0000 0.09629  0.72800  0.86555  Biso   1.000  C
  H34      1.0000 0.10910  0.75050  0.86600  Biso   1.000  H
  C62      1.0000 0.05961  0.72620  0.85728  Biso   1.000  C
  H35      1.0000 0.04840  0.74810  0.85160  Biso   1.000  H
  C63      1.0000 0.05515  0.66450  0.86607  Biso   1.000  C
  H36      1.0000 0.04160  0.64250  0.86690  Biso   1.000  H
  C64      1.0000 0.03920  0.69480  0.85699  Biso   1.000  C
  N14      1.0000 0.00096  0.69555  0.84915  Biso   1.000  N
  C65      1.0000 0.99024  0.71600  0.82718  Biso   1.000  C
  C66      1.0000 0.01081  0.72050  0.80684  Biso   1.000  C
  H37      1.0000 0.03420  0.70930  0.80700  Biso   1.000  H
  C67      1.0000 0.95909  0.73600  0.82770  Biso   1.000  C
  H38      1.0000 0.94370  0.73530  0.84220  Biso   1.000  H
  C68      1.0000 0.97486  0.67320  0.86231  Biso   1.000  C
  C69      1.0000 0.94448  0.66230  0.85237  Biso   1.000  C
  H39      1.0000 0.93910  0.67020  0.83550  Biso   1.000  H
  C70      1.0000 0.00128  0.74055  0.78459  Biso   1.000  C
  H40      1.0000 0.01730  0.74120  0.77040  Biso   1.000  H
  C71      1.0000 0.97033  0.75800  0.78398  Biso   1.000  C
  C72      1.0000 0.94949  0.75840  0.80607  Biso   1.000  C
  H41      1.0000 0.92860  0.77360  0.80700  Biso   1.000  H
  C73      1.0000 0.92180  0.63060  0.88851  Biso   1.000  C
  C74      1.0000 0.91790  0.63900  0.86481  Biso   1.000  C
  H42      1.0000 0.89760  0.62990  0.85550  Biso   1.000  H
  C75      1.0000 0.94821  0.65110  0.90325  Biso   1.000  C
  H43      1.0000 0.94700  0.65270  0.92130  Biso   1.000  H
  C76      1.0000 0.97675  0.66930  0.88851  Biso   1.000  C
  H44      1.0000 0.99730  0.67880  0.89730  Biso   1.000  H
  N15      1.0000 0.95571  0.81126  0.72565  Biso   1.000  N
  C77      1.0000 0.97778  0.79141  0.74020  Biso   1.000  C
  H45      1.0000 0.00230  0.78540  0.73620  Biso   1.000  H
  C78      1.0000 0.96015  0.78120  0.76141  Biso   1.000  C
  N16      1.0000 0.84570  0.57812  0.91558  Biso   1.000  N
  C79      1.0000 0.85887  0.59842  0.89647  Biso   1.000  C
  H46      1.0000 0.84590  0.60560  0.88160  Biso   1.000  H
  N17      1.0000 0.87042  0.57851  0.93605  Biso   1.000  N
  N18      1.0000 0.90023  0.59680  0.92730  Biso   1.000  N
  C80      1.0000 0.89330  0.60690  0.90186  Biso   1.000  C
  N19      1.0000 0.92505  0.81700  0.73890  Biso   1.000  N
  N20      1.0000 0.92718  0.79850  0.76039  Biso   1.000  N
  C81      1.0000 0.00001  0.84656  0.66549  Biso   1.000  C
  C82      1.0000 0.99564  0.82914  0.68984  Biso   1.000  C
  H47      1.0000 0.01580  0.81810  0.69820  Biso   1.000  H
  C83      1.0000 0.93010  0.84464  0.68920  Biso   1.000  C
  H48      1.0000 0.90670  0.84330  0.69700  Biso   1.000  H
  C84      1.0000 0.96036  0.82883  0.70106  Biso   1.000  C
  C85      1.0000 0.73930  0.53748  0.93141  Biso   1.000  C
  H49      1.0000 0.71540  0.52980  0.93590  Biso   1.000  H
  C86      1.0000 0.74450  0.56255  0.91146  Biso   1.000  C
  C87      1.0000 0.77019  0.52360  0.94490  Biso   1.000  C
  C88      1.0000 0.77950  0.57572  0.90577  Biso   1.000  C
  H50      1.0000 0.78300  0.59290  0.89240  Biso   1.000  H
  C89      1.0000 0.80497  0.53642  0.93926  Biso   1.000  C
  H51      1.0000 0.82550  0.52720  0.94830  Biso   1.000  H
  C90      1.0000 0.80968  0.56289  0.92028  Biso   1.000  C
  C91      1.0000 0.90108  0.87895  0.65198  Biso   1.000  C
  C92      1.0000 0.03688  0.84587  0.65170  Biso   1.000  C
  C93      1.0000 0.96951  0.86334  0.65403  Biso   1.000  C
  H52      1.0000 0.97240  0.87540  0.63810  Biso   1.000  H
  C94      1.0000 0.93451  0.86260  0.66569  Biso   1.000  C
  C95      1.0000 0.71112  0.57598  0.89629  Biso   1.000  C
  C96      1.0000 0.76418  0.49394  0.96578  Biso   1.000  C
  O21      1.0000 0.03995  0.86580  0.63224  Biso   1.000  O
  O22      1.0000 0.90817  0.89561  0.63110  Biso   1.000  O
  O23      1.0000 0.06226  0.82668  0.66167  Biso   1.000  O
  O24      1.0000 0.87066  0.87440  0.66279  Biso   1.000  O
  O25      1.0000 0.67973  0.56860  0.90553  Biso   1.000  O
  O26      1.0000 0.71716  0.59485  0.87622  Biso   1.000  O
  O27      1.0000 0.73155  0.49026  0.97299  Biso   1.000  O
  O28      1.0000 0.79292  0.47833  0.97344  Biso   1.000  O
  Zn5      1.0000 0.08392  0.86724  0.39014  Biso   1.000  Zn
  Zn6      1.0000 0.11211  0.82318  0.35366  Biso   1.000  Zn
  O29      1.0000 0.05825  0.90089  0.41974  Biso   1.000  O
  H53      1.0000 0.07060  0.91990  0.42190  Biso   1.000  H
  O30      1.0000 0.13525  0.78848  0.32397  Biso   1.000  O
  H54      1.0000 0.15660  0.79530  0.32070  Biso   1.000  H
  O31      1.0000 0.27449  0.90373  0.47271  Biso   1.000  O
  O32      1.0000 0.13305  0.86173  0.40666  Biso   1.000  O
  O33      1.0000 0.21363  0.91547  0.47307  Biso   1.000  O
  O34      1.0000 0.15758  0.82706  0.37482  Biso   1.000  O
  C97      1.0000 0.26736  0.85726  0.43001  Biso   1.000  C
  H55      1.0000 0.29100  0.86030  0.43710  Biso   1.000  H
  C98      1.0000 0.23654  0.87434  0.44100  Biso   1.000  C
  C99      1.0000 0.24241  0.90051  0.46408  Biso   1.000  C
  C100     1.0000 0.20110  0.86965  0.43054  Biso   1.000  C
  H56      1.0000 0.18060  0.88090  0.43840  Biso   1.000  H
  N21      1.0000 0.29399  0.81911  0.39542  Biso   1.000  N
  C101     1.0000 0.19658  0.84800  0.40824  Biso   1.000  C
  C102     1.0000 0.15896  0.84556  0.39477  Biso   1.000  C
  C103     1.0000 0.22735  0.83084  0.39679  Biso   1.000  C
  H57      1.0000 0.22460  0.81650  0.38180  Biso   1.000  H
  C104     1.0000 0.26179  0.83553  0.40810  Biso   1.000  C
  C105     1.0000 0.32863  0.83174  0.39490  Biso   1.000  C
  H58      1.0000 0.33770  0.85340  0.40250  Biso   1.000  H
  N22      1.0000 0.29065  0.78541  0.38378  Biso   1.000  N
  C106     1.0000 0.34784  0.80624  0.38094  Biso   1.000  C
  C107     1.0000 0.38701  0.80463  0.37300  Biso   1.000  C
  N23      1.0000 0.32391  0.77801  0.37511  Biso   1.000  N
  C108     1.0000 0.40792  0.83506  0.37445  Biso   1.000  C
  H59      1.0000 0.39760  0.85670  0.38120  Biso   1.000  H
  C109     1.0000 0.40371  0.77200  0.36555  Biso   1.000  C
  H60      1.0000 0.39090  0.74950  0.36600  Biso   1.000  H
  C110     1.0000 0.44039  0.77380  0.35728  Biso   1.000  C
  H61      1.0000 0.45160  0.75190  0.35160  Biso   1.000  H
  C111     1.0000 0.44485  0.83550  0.36607  Biso   1.000  C
  H62      1.0000 0.45840  0.85750  0.36690  Biso   1.000  H
  C112     1.0000 0.46080  0.80520  0.35699  Biso   1.000  C
  N24      1.0000 0.49904  0.80445  0.34915  Biso   1.000  N
  C113     1.0000 0.50976  0.78400  0.32718  Biso   1.000  C
  C114     1.0000 0.48919  0.77950  0.30684  Biso   1.000  C
  H63      1.0000 0.46580  0.79070  0.30700  Biso   1.000  H
  C115     1.0000 0.54091  0.76400  0.32770  Biso   1.000  C
  H64      1.0000 0.55630  0.76470  0.34220  Biso   1.000  H
  C116     1.0000 0.52514  0.82680  0.36231  Biso   1.000  C
  C117     1.0000 0.55552  0.83770  0.35237  Biso   1.000  C
  H65      1.0000 0.56090  0.82980  0.33550  Biso   1.000  H
  C118     1.0000 0.49872  0.75945  0.28459  Biso   1.000  C
  H66      1.0000 0.48270  0.75880  0.27040  Biso   1.000  H
  C119     1.0000 0.52967  0.74200  0.28398  Biso   1.000  C
  C120     1.0000 0.55051  0.74160  0.30607  Biso   1.000  C
  H67      1.0000 0.57140  0.72640  0.30700  Biso   1.000  H
  C121     1.0000 0.57820  0.86940  0.38851  Biso   1.000  C
  C122     1.0000 0.58210  0.86100  0.36481  Biso   1.000  C
  H68      1.0000 0.60240  0.87010  0.35550  Biso   1.000  H
  C123     1.0000 0.55179  0.84890  0.40325  Biso   1.000  C
  H69      1.0000 0.55300  0.84730  0.42130  Biso   1.000  H
  C124     1.0000 0.52325  0.83070  0.38851  Biso   1.000  C
  H70      1.0000 0.50270  0.82120  0.39730  Biso   1.000  H
  N25      1.0000 0.54429  0.68874  0.22565  Biso   1.000  N
  C125     1.0000 0.52222  0.70859  0.24020  Biso   1.000  C
  H71      1.0000 0.49770  0.71460  0.23620  Biso   1.000  H
  C126     1.0000 0.53985  0.71880  0.26141  Biso   1.000  C
  N26      1.0000 0.65430  0.92188  0.41558  Biso   1.000  N
  C127     1.0000 0.64113  0.90158  0.39647  Biso   1.000  C
  H72      1.0000 0.65410  0.89440  0.38160  Biso   1.000  H
  N27      1.0000 0.62958  0.92149  0.43605  Biso   1.000  N
  N28      1.0000 0.59977  0.90320  0.42730  Biso   1.000  N
  C128     1.0000 0.60670  0.89310  0.40186  Biso   1.000  C
  N29      1.0000 0.57495  0.68300  0.23890  Biso   1.000  N
  N30      1.0000 0.57282  0.70150  0.26039  Biso   1.000  N
  C129     1.0000 0.49999  0.65344  0.16549  Biso   1.000  C
  C130     1.0000 0.50436  0.67086  0.18984  Biso   1.000  C
  H73      1.0000 0.48420  0.68190  0.19820  Biso   1.000  H
  C131     1.0000 0.56990  0.65536  0.18920  Biso   1.000  C
  H74      1.0000 0.59330  0.65670  0.19700  Biso   1.000  H
  C132     1.0000 0.53964  0.67117  0.20106  Biso   1.000  C
  C133     1.0000 0.76070  0.96252  0.43141  Biso   1.000  C
  H75      1.0000 0.78460  0.97020  0.43590  Biso   1.000  H
  C134     1.0000 0.75550  0.93745  0.41146  Biso   1.000  C
  C135     1.0000 0.72981  0.97640  0.44490  Biso   1.000  C
  C136     1.0000 0.72050  0.92428  0.40577  Biso   1.000  C
  H76      1.0000 0.71700  0.90710  0.39240  Biso   1.000  H
  C137     1.0000 0.69503  0.96358  0.43926  Biso   1.000  C
  H77      1.0000 0.67450  0.97280  0.44830  Biso   1.000  H
  C138     1.0000 0.69032  0.93711  0.42028  Biso   1.000  C
  C139     1.0000 0.59892  0.62105  0.15198  Biso   1.000  C
  C140     1.0000 0.46312  0.65413  0.15170  Biso   1.000  C
  C141     1.0000 0.53049  0.63666  0.15403  Biso   1.000  C
  H78      1.0000 0.52760  0.62460  0.13810  Biso   1.000  H
  C142     1.0000 0.56549  0.63740  0.16569  Biso   1.000  C
  C143     1.0000 0.78888  0.92402  0.39629  Biso   1.000  C
  C144     1.0000 0.73582  0.00606  0.46578  Biso   1.000  C
  O35      1.0000 0.46005  0.63420  0.13224  Biso   1.000  O
  O36      1.0000 0.59183  0.60439  0.13110  Biso   1.000  O
  O37      1.0000 0.43774  0.67332  0.16167  Biso   1.000  O
  O38      1.0000 0.62934  0.62560  0.16279  Biso   1.000  O
  O39      1.0000 0.82027  0.93140  0.40553  Biso   1.000  O
  O40      1.0000 0.78284  0.90515  0.37622  Biso   1.000  O
  O41      1.0000 0.76845  0.00974  0.47299  Biso   1.000  O
  O42      1.0000 0.70708  0.02167  0.47344  Biso   1.000  O
  Zn7      1.0000 0.58392  0.36724  0.89014  Biso   1.000  Zn
  Zn8      1.0000 0.61211  0.32318  0.85366  Biso   1.000  Zn
  O43      1.0000 0.55825  0.40089  0.91974  Biso   1.000  O
  H79      1.0000 0.57060  0.41990  0.92190  Biso   1.000  H
  O44      1.0000 0.63525  0.28848  0.82397  Biso   1.000  O
  H80      1.0000 0.65660  0.29530  0.82070  Biso   1.000  H
  O45      1.0000 0.77449  0.40373  0.97271  Biso   1.000  O
  O46      1.0000 0.63305  0.36173  0.90666  Biso   1.000  O
  O47      1.0000 0.71363  0.41547  0.97307  Biso   1.000  O
  O48      1.0000 0.65758  0.32706  0.87482  Biso   1.000  O
  C145     1.0000 0.76736  0.35726  0.93001  Biso   1.000  C
  H81      1.0000 0.79100  0.36030  0.93710  Biso   1.000  H
  C146     1.0000 0.73654  0.37434  0.94100  Biso   1.000  C
  C147     1.0000 0.74241  0.40051  0.96408  Biso   1.000  C
  C148     1.0000 0.70110  0.36965  0.93054  Biso   1.000  C
  H82      1.0000 0.68060  0.38090  0.93840  Biso   1.000  H
  N31      1.0000 0.79399  0.31911  0.89542  Biso   1.000  N
  C149     1.0000 0.69658  0.34800  0.90824  Biso   1.000  C
  C150     1.0000 0.65896  0.34556  0.89477  Biso   1.000  C
  C151     1.0000 0.72735  0.33084  0.89679  Biso   1.000  C
  H83      1.0000 0.72460  0.31650  0.88180  Biso   1.000  H
  C152     1.0000 0.76179  0.33553  0.90810  Biso   1.000  C
  C153     1.0000 0.82863  0.33174  0.89490  Biso   1.000  C
  H84      1.0000 0.83770  0.35340  0.90250  Biso   1.000  H
  N32      1.0000 0.79065  0.28541  0.88378  Biso   1.000  N
  C154     1.0000 0.84784  0.30624  0.88094  Biso   1.000  C
  C155     1.0000 0.88701  0.30463  0.87300  Biso   1.000  C
  N33      1.0000 0.82391  0.27801  0.87511  Biso   1.000  N
  C156     1.0000 0.90792  0.33506  0.87445  Biso   1.000  C
  H85      1.0000 0.89760  0.35670  0.88120  Biso   1.000  H
  C157     1.0000 0.90371  0.27200  0.86555  Biso   1.000  C
  H86      1.0000 0.89090  0.24950  0.86600  Biso   1.000  H
  C158     1.0000 0.94039  0.27380  0.85728  Biso   1.000  C
  H87      1.0000 0.95160  0.25190  0.85160  Biso   1.000  H
  C159     1.0000 0.94485  0.33550  0.86607  Biso   1.000  C
  H88      1.0000 0.95840  0.35750  0.86690  Biso   1.000  H
  C160     1.0000 0.96080  0.30520  0.85699  Biso   1.000  C
  N34      1.0000 0.99904  0.30445  0.84915  Biso   1.000  N
  C161     1.0000 0.00976  0.28400  0.82718  Biso   1.000  C
  C162     1.0000 0.98919  0.27950  0.80684  Biso   1.000  C
  H89      1.0000 0.96580  0.29070  0.80700  Biso   1.000  H
  C163     1.0000 0.04091  0.26400  0.82770  Biso   1.000  C
  H90      1.0000 0.05630  0.26470  0.84220  Biso   1.000  H
  C164     1.0000 0.02514  0.32680  0.86231  Biso   1.000  C
  C165     1.0000 0.05552  0.33770  0.85237  Biso   1.000  C
  H91      1.0000 0.06090  0.32980  0.83550  Biso   1.000  H
  C166     1.0000 0.99872  0.25945  0.78459  Biso   1.000  C
  H92      1.0000 0.98270  0.25880  0.77040  Biso   1.000  H
  C167     1.0000 0.02967  0.24200  0.78398  Biso   1.000  C
  C168     1.0000 0.05051  0.24160  0.80607  Biso   1.000  C
  H93      1.0000 0.07140  0.22640  0.80700  Biso   1.000  H
  C169     1.0000 0.07820  0.36940  0.88851  Biso   1.000  C
  C170     1.0000 0.08210  0.36100  0.86481  Biso   1.000  C
  H94      1.0000 0.10240  0.37010  0.85550  Biso   1.000  H
  C171     1.0000 0.05179  0.34890  0.90325  Biso   1.000  C
  H95      1.0000 0.05300  0.34730  0.92130  Biso   1.000  H
  C172     1.0000 0.02325  0.33070  0.88851  Biso   1.000  C
  H96      1.0000 0.00270  0.32120  0.89730  Biso   1.000  H
  N35      1.0000 0.04429  0.18874  0.72565  Biso   1.000  N
  C173     1.0000 0.02222  0.20859  0.74020  Biso   1.000  C
  H97      1.0000 0.99770  0.21460  0.73620  Biso   1.000  H
  C174     1.0000 0.03985  0.21880  0.76141  Biso   1.000  C
  N36      1.0000 0.15430  0.42188  0.91558  Biso   1.000  N
  C175     1.0000 0.14113  0.40158  0.89647  Biso   1.000  C
  H98      1.0000 0.15410  0.39440  0.88160  Biso   1.000  H
  N37      1.0000 0.12958  0.42149  0.93605  Biso   1.000  N
  N38      1.0000 0.09977  0.40320  0.92730  Biso   1.000  N
  C176     1.0000 0.10670  0.39310  0.90186  Biso   1.000  C
  N39      1.0000 0.07495  0.18300  0.73890  Biso   1.000  N
  N40      1.0000 0.07282  0.20150  0.76039  Biso   1.000  N
  C177     1.0000 0.99999  0.15344  0.66549  Biso   1.000  C
  C178     1.0000 0.00436  0.17086  0.68984  Biso   1.000  C
  H99      1.0000 0.98420  0.18190  0.69820  Biso   1.000  H
  C179     1.0000 0.06990  0.15536  0.68920  Biso   1.000  C
  H100     1.0000 0.09330  0.15670  0.69700  Biso   1.000  H
  C180     1.0000 0.03964  0.17117  0.70106  Biso   1.000  C
  C181     1.0000 0.26070  0.46252  0.93141  Biso   1.000  C
  H101     1.0000 0.28460  0.47020  0.93590  Biso   1.000  H
  C182     1.0000 0.25550  0.43745  0.91146  Biso   1.000  C
  C183     1.0000 0.22981  0.47640  0.94490  Biso   1.000  C
  C184     1.0000 0.22050  0.42428  0.90577  Biso   1.000  C
  H102     1.0000 0.21700  0.40710  0.89240  Biso   1.000  H
  C185     1.0000 0.19503  0.46358  0.93926  Biso   1.000  C
  H103     1.0000 0.17450  0.47280  0.94830  Biso   1.000  H
  C186     1.0000 0.19032  0.43711  0.92028  Biso   1.000  C
  C187     1.0000 0.09892  0.12105  0.65198  Biso   1.000  C
  C188     1.0000 0.96312  0.15413  0.65170  Biso   1.000  C
  C189     1.0000 0.03049  0.13666  0.65403  Biso   1.000  C
  H104     1.0000 0.02760  0.12460  0.63810  Biso   1.000  H
  C190     1.0000 0.06549  0.13740  0.66569  Biso   1.000  C
  C191     1.0000 0.28888  0.42402  0.89629  Biso   1.000  C
  C192     1.0000 0.23582  0.50606  0.96578  Biso   1.000  C
  O49      1.0000 0.96005  0.13420  0.63224  Biso   1.000  O
  O50      1.0000 0.09183  0.10439  0.63110  Biso   1.000  O
  O51      1.0000 0.93774  0.17332  0.66167  Biso   1.000  O
  O52      1.0000 0.12934  0.12560  0.66279  Biso   1.000  O
  O53      1.0000 0.32027  0.43140  0.90553  Biso   1.000  O
  O54      1.0000 0.28284  0.40515  0.87622  Biso   1.000  O
  O55      1.0000 0.26845  0.50974  0.97299  Biso   1.000  O
  O56      1.0000 0.20708  0.52167  0.97344  Biso   1.000  O
  Zn9      1.0000 0.86724  0.91608  0.39014  Biso   1.000  Zn
  Zn10     1.0000 0.82318  0.88789  0.35366  Biso   1.000  Zn
  O57      1.0000 0.90089  0.94175  0.41974  Biso   1.000  O
  H105     1.0000 0.91990  0.92940  0.42190  Biso   1.000  H
  O58      1.0000 0.78848  0.86475  0.32397  Biso   1.000  O
  H106     1.0000 0.79530  0.84340  0.32070  Biso   1.000  H
  O59      1.0000 0.90373  0.72551  0.47271  Biso   1.000  O
  O60      1.0000 0.86173  0.86695  0.40666  Biso   1.000  O
  O61      1.0000 0.91547  0.78637  0.47307  Biso   1.000  O
  O62      1.0000 0.82706  0.84242  0.37482  Biso   1.000  O
  C193     1.0000 0.85726  0.73264  0.43001  Biso   1.000  C
  H107     1.0000 0.86030  0.70900  0.43710  Biso   1.000  H
  C194     1.0000 0.87434  0.76346  0.44100  Biso   1.000  C
  C195     1.0000 0.90051  0.75759  0.46408  Biso   1.000  C
  C196     1.0000 0.86965  0.79890  0.43054  Biso   1.000  C
  H108     1.0000 0.88090  0.81940  0.43840  Biso   1.000  H
  N41      1.0000 0.81911  0.70601  0.39542  Biso   1.000  N
  C197     1.0000 0.84800  0.80342  0.40824  Biso   1.000  C
  C198     1.0000 0.84556  0.84104  0.39477  Biso   1.000  C
  C199     1.0000 0.83084  0.77265  0.39679  Biso   1.000  C
  H109     1.0000 0.81650  0.77540  0.38180  Biso   1.000  H
  C200     1.0000 0.83553  0.73821  0.40810  Biso   1.000  C
  C201     1.0000 0.83174  0.67137  0.39490  Biso   1.000  C
  H110     1.0000 0.85340  0.66230  0.40250  Biso   1.000  H
  N42      1.0000 0.78541  0.70935  0.38378  Biso   1.000  N
  C202     1.0000 0.80624  0.65216  0.38094  Biso   1.000  C
  C203     1.0000 0.80463  0.61299  0.37300  Biso   1.000  C
  N43      1.0000 0.77801  0.67609  0.37511  Biso   1.000  N
  C204     1.0000 0.83506  0.59208  0.37445  Biso   1.000  C
  H111     1.0000 0.85670  0.60240  0.38120  Biso   1.000  H
  C205     1.0000 0.77200  0.59629  0.36555  Biso   1.000  C
  H112     1.0000 0.74950  0.60910  0.36600  Biso   1.000  H
  C206     1.0000 0.77380  0.55961  0.35728  Biso   1.000  C
  H113     1.0000 0.75190  0.54840  0.35160  Biso   1.000  H
  C207     1.0000 0.83550  0.55515  0.36607  Biso   1.000  C
  H114     1.0000 0.85750  0.54160  0.36690  Biso   1.000  H
  C208     1.0000 0.80520  0.53920  0.35699  Biso   1.000  C
  N44      1.0000 0.80445  0.50096  0.34915  Biso   1.000  N
  C209     1.0000 0.78400  0.49024  0.32718  Biso   1.000  C
  C210     1.0000 0.77950  0.51081  0.30684  Biso   1.000  C
  H115     1.0000 0.79070  0.53420  0.30700  Biso   1.000  H
  C211     1.0000 0.76400  0.45909  0.32770  Biso   1.000  C
  H116     1.0000 0.76470  0.44370  0.34220  Biso   1.000  H
  C212     1.0000 0.82680  0.47486  0.36231  Biso   1.000  C
  C213     1.0000 0.83770  0.44448  0.35237  Biso   1.000  C
  H117     1.0000 0.82980  0.43910  0.33550  Biso   1.000  H
  C214     1.0000 0.75945  0.50128  0.28459  Biso   1.000  C
  H118     1.0000 0.75880  0.51730  0.27040  Biso   1.000  H
  C215     1.0000 0.74200  0.47033  0.28398  Biso   1.000  C
  C216     1.0000 0.74160  0.44949  0.30607  Biso   1.000  C
  H119     1.0000 0.72640  0.42860  0.30700  Biso   1.000  H
  C217     1.0000 0.86940  0.42180  0.38851  Biso   1.000  C
  C218     1.0000 0.86100  0.41790  0.36481  Biso   1.000  C
  H120     1.0000 0.87010  0.39760  0.35550  Biso   1.000  H
  C219     1.0000 0.84890  0.44821  0.40325  Biso   1.000  C
  H121     1.0000 0.84730  0.44700  0.42130  Biso   1.000  H
  C220     1.0000 0.83070  0.47675  0.38851  Biso   1.000  C
  H122     1.0000 0.82120  0.49730  0.39730  Biso   1.000  H
  N45      1.0000 0.68874  0.45571  0.22565  Biso   1.000  N
  C221     1.0000 0.70859  0.47778  0.24020  Biso   1.000  C
  H123     1.0000 0.71460  0.50230  0.23620  Biso   1.000  H
  C222     1.0000 0.71880  0.46015  0.26141  Biso   1.000  C
  N46      1.0000 0.92188  0.34570  0.41558  Biso   1.000  N
  C223     1.0000 0.90158  0.35887  0.39647  Biso   1.000  C
  H124     1.0000 0.89440  0.34590  0.38160  Biso   1.000  H
  N47      1.0000 0.92149  0.37042  0.43605  Biso   1.000  N
  N48      1.0000 0.90320  0.40023  0.42730  Biso   1.000  N
  C224     1.0000 0.89310  0.39330  0.40186  Biso   1.000  C
  N49      1.0000 0.68300  0.42505  0.23890  Biso   1.000  N
  N50      1.0000 0.70150  0.42718  0.26039  Biso   1.000  N
  C225     1.0000 0.65344  0.50001  0.16549  Biso   1.000  C
  C226     1.0000 0.67086  0.49564  0.18984  Biso   1.000  C
  H125     1.0000 0.68190  0.51580  0.19820  Biso   1.000  H
  C227     1.0000 0.65536  0.43010  0.18920  Biso   1.000  C
  H126     1.0000 0.65670  0.40670  0.19700  Biso   1.000  H
  C228     1.0000 0.67117  0.46036  0.20106  Biso   1.000  C
  C229     1.0000 0.96252  0.23930  0.43141  Biso   1.000  C
  H127     1.0000 0.97020  0.21540  0.43590  Biso   1.000  H
  C230     1.0000 0.93745  0.24450  0.41146  Biso   1.000  C
  C231     1.0000 0.97640  0.27019  0.44490  Biso   1.000  C
  C232     1.0000 0.92428  0.27950  0.40577  Biso   1.000  C
  H128     1.0000 0.90710  0.28300  0.39240  Biso   1.000  H
  C233     1.0000 0.96358  0.30497  0.43926  Biso   1.000  C
  H129     1.0000 0.97280  0.32550  0.44830  Biso   1.000  H
  C234     1.0000 0.93711  0.30968  0.42028  Biso   1.000  C
  C235     1.0000 0.62105  0.40108  0.15198  Biso   1.000  C
  C236     1.0000 0.65413  0.53688  0.15170  Biso   1.000  C
  C237     1.0000 0.63666  0.46951  0.15403  Biso   1.000  C
  H130     1.0000 0.62460  0.47240  0.13810  Biso   1.000  H
  C238     1.0000 0.63740  0.43451  0.16569  Biso   1.000  C
  C239     1.0000 0.92402  0.21112  0.39629  Biso   1.000  C
  C240     1.0000 0.00606  0.26418  0.46578  Biso   1.000  C
  O63      1.0000 0.63420  0.53995  0.13224  Biso   1.000  O
  O64      1.0000 0.60439  0.40817  0.13110  Biso   1.000  O
  O65      1.0000 0.67332  0.56226  0.16167  Biso   1.000  O
  O66      1.0000 0.62560  0.37066  0.16279  Biso   1.000  O
  O67      1.0000 0.93140  0.17973  0.40553  Biso   1.000  O
  O68      1.0000 0.90515  0.21716  0.37622  Biso   1.000  O
  O69      1.0000 0.00974  0.23155  0.47299  Biso   1.000  O
  O70      1.0000 0.02167  0.29292  0.47344  Biso   1.000  O
  Zn11     1.0000 0.36724  0.41608  0.89014  Biso   1.000  Zn
  Zn12     1.0000 0.32318  0.38789  0.85366  Biso   1.000  Zn
  O71      1.0000 0.40089  0.44175  0.91974  Biso   1.000  O
  H131     1.0000 0.41990  0.42940  0.92190  Biso   1.000  H
  O72      1.0000 0.28848  0.36475  0.82397  Biso   1.000  O
  H132     1.0000 0.29530  0.34340  0.82070  Biso   1.000  H
  O73      1.0000 0.40373  0.22551  0.97271  Biso   1.000  O
  O74      1.0000 0.36173  0.36695  0.90666  Biso   1.000  O
  O75      1.0000 0.41547  0.28637  0.97307  Biso   1.000  O
  O76      1.0000 0.32706  0.34242  0.87482  Biso   1.000  O
  C241     1.0000 0.35726  0.23264  0.93001  Biso   1.000  C
  H133     1.0000 0.36030  0.20900  0.93710  Biso   1.000  H
  C242     1.0000 0.37434  0.26346  0.94100  Biso   1.000  C
  C243     1.0000 0.40051  0.25759  0.96408  Biso   1.000  C
  C244     1.0000 0.36965  0.29890  0.93054  Biso   1.000  C
  H134     1.0000 0.38090  0.31940  0.93840  Biso   1.000  H
  N51      1.0000 0.31911  0.20601  0.89542  Biso   1.000  N
  C245     1.0000 0.34800  0.30342  0.90824  Biso   1.000  C
  C246     1.0000 0.34556  0.34104  0.89477  Biso   1.000  C
  C247     1.0000 0.33084  0.27265  0.89679  Biso   1.000  C
  H135     1.0000 0.31650  0.27540  0.88180  Biso   1.000  H
  C248     1.0000 0.33553  0.23821  0.90810  Biso   1.000  C
  C249     1.0000 0.33174  0.17137  0.89490  Biso   1.000  C
  H136     1.0000 0.35340  0.16230  0.90250  Biso   1.000  H
  N52      1.0000 0.28541  0.20935  0.88378  Biso   1.000  N
  C250     1.0000 0.30624  0.15216  0.88094  Biso   1.000  C
  C251     1.0000 0.30463  0.11299  0.87300  Biso   1.000  C
  N53      1.0000 0.27801  0.17609  0.87511  Biso   1.000  N
  C252     1.0000 0.33506  0.09208  0.87445  Biso   1.000  C
  H137     1.0000 0.35670  0.10240  0.88120  Biso   1.000  H
  C253     1.0000 0.27200  0.09629  0.86555  Biso   1.000  C
  H138     1.0000 0.24950  0.10910  0.86600  Biso   1.000  H
  C254     1.0000 0.27380  0.05961  0.85728  Biso   1.000  C
  H139     1.0000 0.25190  0.04840  0.85160  Biso   1.000  H
  C255     1.0000 0.33550  0.05515  0.86607  Biso   1.000  C
  H140     1.0000 0.35750  0.04160  0.86690  Biso   1.000  H
  C256     1.0000 0.30520  0.03920  0.85699  Biso   1.000  C
  N54      1.0000 0.30445  0.00096  0.84915  Biso   1.000  N
  C257     1.0000 0.28400  0.99024  0.82718  Biso   1.000  C
  C258     1.0000 0.27950  0.01081  0.80684  Biso   1.000  C
  H141     1.0000 0.29070  0.03420  0.80700  Biso   1.000  H
  C259     1.0000 0.26400  0.95909  0.82770  Biso   1.000  C
  H142     1.0000 0.26470  0.94370  0.84220  Biso   1.000  H
  C260     1.0000 0.32680  0.97486  0.86231  Biso   1.000  C
  C261     1.0000 0.33770  0.94448  0.85237  Biso   1.000  C
  H143     1.0000 0.32980  0.93910  0.83550  Biso   1.000  H
  C262     1.0000 0.25945  0.00128  0.78459  Biso   1.000  C
  H144     1.0000 0.25880  0.01730  0.77040  Biso   1.000  H
  C263     1.0000 0.24200  0.97033  0.78398  Biso   1.000  C
  C264     1.0000 0.24160  0.94949  0.80607  Biso   1.000  C
  H145     1.0000 0.22640  0.92860  0.80700  Biso   1.000  H
  C265     1.0000 0.36940  0.92180  0.88851  Biso   1.000  C
  C266     1.0000 0.36100  0.91790  0.86481  Biso   1.000  C
  H146     1.0000 0.37010  0.89760  0.85550  Biso   1.000  H
  C267     1.0000 0.34890  0.94821  0.90325  Biso   1.000  C
  H147     1.0000 0.34730  0.94700  0.92130  Biso   1.000  H
  C268     1.0000 0.33070  0.97675  0.88851  Biso   1.000  C
  H148     1.0000 0.32120  0.99730  0.89730  Biso   1.000  H
  N55      1.0000 0.18874  0.95571  0.72565  Biso   1.000  N
  C269     1.0000 0.20859  0.97778  0.74020  Biso   1.000  C
  H149     1.0000 0.21460  0.00230  0.73620  Biso   1.000  H
  C270     1.0000 0.21880  0.96015  0.76141  Biso   1.000  C
  N56      1.0000 0.42188  0.84570  0.91558  Biso   1.000  N
  C271     1.0000 0.40158  0.85887  0.89647  Biso   1.000  C
  H150     1.0000 0.39440  0.84590  0.88160  Biso   1.000  H
  N57      1.0000 0.42149  0.87042  0.93605  Biso   1.000  N
  N58      1.0000 0.40320  0.90023  0.92730  Biso   1.000  N
  C272     1.0000 0.39310  0.89330  0.90186  Biso   1.000  C
  N59      1.0000 0.18300  0.92505  0.73890  Biso   1.000  N
  N60      1.0000 0.20150  0.92718  0.76039  Biso   1.000  N
  C273     1.0000 0.15344  0.00001  0.66549  Biso   1.000  C
  C274     1.0000 0.17086  0.99564  0.68984  Biso   1.000  C
  H151     1.0000 0.18190  0.01580  0.69820  Biso   1.000  H
  C275     1.0000 0.15536  0.93010  0.68920  Biso   1.000  C
  H152     1.0000 0.15670  0.90670  0.69700  Biso   1.000  H
  C276     1.0000 0.17117  0.96036  0.70106  Biso   1.000  C
  C277     1.0000 0.46252  0.73930  0.93141  Biso   1.000  C
  H153     1.0000 0.47020  0.71540  0.93590  Biso   1.000  H
  C278     1.0000 0.43745  0.74450  0.91146  Biso   1.000  C
  C279     1.0000 0.47640  0.77019  0.94490  Biso   1.000  C
  C280     1.0000 0.42428  0.77950  0.90577  Biso   1.000  C
  H154     1.0000 0.40710  0.78300  0.89240  Biso   1.000  H
  C281     1.0000 0.46358  0.80497  0.93926  Biso   1.000  C
  H155     1.0000 0.47280  0.82550  0.94830  Biso   1.000  H
  C282     1.0000 0.43711  0.80968  0.92028  Biso   1.000  C
  C283     1.0000 0.12105  0.90108  0.65198  Biso   1.000  C
  C284     1.0000 0.15413  0.03688  0.65170  Biso   1.000  C
  C285     1.0000 0.13666  0.96951  0.65403  Biso   1.000  C
  H156     1.0000 0.12460  0.97240  0.63810  Biso   1.000  H
  C286     1.0000 0.13740  0.93451  0.66569  Biso   1.000  C
  C287     1.0000 0.42402  0.71112  0.89629  Biso   1.000  C
  C288     1.0000 0.50606  0.76418  0.96578  Biso   1.000  C
  O77      1.0000 0.13420  0.03995  0.63224  Biso   1.000  O
  O78      1.0000 0.10439  0.90817  0.63110  Biso   1.000  O
  O79      1.0000 0.17332  0.06226  0.66167  Biso   1.000  O
  O80      1.0000 0.12560  0.87066  0.66279  Biso   1.000  O
  O81      1.0000 0.43140  0.67973  0.90553  Biso   1.000  O
  O82      1.0000 0.40515  0.71716  0.87622  Biso   1.000  O
  O83      1.0000 0.50974  0.73155  0.97299  Biso   1.000  O
  O84      1.0000 0.52167  0.79292  0.97344  Biso   1.000  O
  Zn13     1.0000 0.13276  0.08392  0.39014  Biso   1.000  Zn
  Zn14     1.0000 0.17682  0.11211  0.35366  Biso   1.000  Zn
  O85      1.0000 0.09911  0.05825  0.41974  Biso   1.000  O
  H157     1.0000 0.08010  0.07060  0.42190  Biso   1.000  H
  O86      1.0000 0.21152  0.13525  0.32397  Biso   1.000  O
  H158     1.0000 0.20470  0.15660  0.32070  Biso   1.000  H
  O87      1.0000 0.09627  0.27449  0.47271  Biso   1.000  O
  O88      1.0000 0.13827  0.13305  0.40666  Biso   1.000  O
  O89      1.0000 0.08453  0.21363  0.47307  Biso   1.000  O
  O90      1.0000 0.17294  0.15758  0.37482  Biso   1.000  O
  C289     1.0000 0.14274  0.26736  0.43001  Biso   1.000  C
  H159     1.0000 0.13970  0.29100  0.43710  Biso   1.000  H
  C290     1.0000 0.12566  0.23654  0.44100  Biso   1.000  C
  C291     1.0000 0.09949  0.24241  0.46408  Biso   1.000  C
  C292     1.0000 0.13035  0.20110  0.43054  Biso   1.000  C
  H160     1.0000 0.11910  0.18060  0.43840  Biso   1.000  H
  N61      1.0000 0.18089  0.29399  0.39542  Biso   1.000  N
  C293     1.0000 0.15200  0.19658  0.40824  Biso   1.000  C
  C294     1.0000 0.15444  0.15896  0.39477  Biso   1.000  C
  C295     1.0000 0.16916  0.22735  0.39679  Biso   1.000  C
  H161     1.0000 0.18350  0.22460  0.38180  Biso   1.000  H
  C296     1.0000 0.16447  0.26179  0.40810  Biso   1.000  C
  C297     1.0000 0.16826  0.32863  0.39490  Biso   1.000  C
  H162     1.0000 0.14660  0.33770  0.40250  Biso   1.000  H
  N62      1.0000 0.21459  0.29065  0.38378  Biso   1.000  N
  C298     1.0000 0.19376  0.34784  0.38094  Biso   1.000  C
  C299     1.0000 0.19537  0.38701  0.37300  Biso   1.000  C
  N63      1.0000 0.22199  0.32391  0.37511  Biso   1.000  N
  C300     1.0000 0.16494  0.40792  0.37445  Biso   1.000  C
  H163     1.0000 0.14330  0.39760  0.38120  Biso   1.000  H
  C301     1.0000 0.22800  0.40371  0.36555  Biso   1.000  C
  H164     1.0000 0.25050  0.39090  0.36600  Biso   1.000  H
  C302     1.0000 0.22620  0.44039  0.35728  Biso   1.000  C
  H165     1.0000 0.24810  0.45160  0.35160  Biso   1.000  H
  C303     1.0000 0.16450  0.44485  0.36607  Biso   1.000  C
  H166     1.0000 0.14250  0.45840  0.36690  Biso   1.000  H
  C304     1.0000 0.19480  0.46080  0.35699  Biso   1.000  C
  N64      1.0000 0.19555  0.49904  0.34915  Biso   1.000  N
  C305     1.0000 0.21600  0.50976  0.32718  Biso   1.000  C
  C306     1.0000 0.22050  0.48919  0.30684  Biso   1.000  C
  H167     1.0000 0.20930  0.46580  0.30700  Biso   1.000  H
  C307     1.0000 0.23600  0.54091  0.32770  Biso   1.000  C
  H168     1.0000 0.23530  0.55630  0.34220  Biso   1.000  H
  C308     1.0000 0.17320  0.52514  0.36231  Biso   1.000  C
  C309     1.0000 0.16230  0.55552  0.35237  Biso   1.000  C
  H169     1.0000 0.17020  0.56090  0.33550  Biso   1.000  H
  C310     1.0000 0.24055  0.49872  0.28459  Biso   1.000  C
  H170     1.0000 0.24120  0.48270  0.27040  Biso   1.000  H
  C311     1.0000 0.25800  0.52967  0.28398  Biso   1.000  C
  C312     1.0000 0.25840  0.55051  0.30607  Biso   1.000  C
  H171     1.0000 0.27360  0.57140  0.30700  Biso   1.000  H
  C313     1.0000 0.13060  0.57820  0.38851  Biso   1.000  C
  C314     1.0000 0.13900  0.58210  0.36481  Biso   1.000  C
  H172     1.0000 0.12990  0.60240  0.35550  Biso   1.000  H
  C315     1.0000 0.15110  0.55179  0.40325  Biso   1.000  C
  H173     1.0000 0.15270  0.55300  0.42130  Biso   1.000  H
  C316     1.0000 0.16930  0.52325  0.38851  Biso   1.000  C
  H174     1.0000 0.17880  0.50270  0.39730  Biso   1.000  H
  N65      1.0000 0.31126  0.54429  0.22565  Biso   1.000  N
  C317     1.0000 0.29141  0.52222  0.24020  Biso   1.000  C
  H175     1.0000 0.28540  0.49770  0.23620  Biso   1.000  H
  C318     1.0000 0.28120  0.53985  0.26141  Biso   1.000  C
  N66      1.0000 0.07812  0.65430  0.41558  Biso   1.000  N
  C319     1.0000 0.09842  0.64113  0.39647  Biso   1.000  C
  H176     1.0000 0.10560  0.65410  0.38160  Biso   1.000  H
  N67      1.0000 0.07851  0.62958  0.43605  Biso   1.000  N
  N68      1.0000 0.09680  0.59977  0.42730  Biso   1.000  N
  C320     1.0000 0.10690  0.60670  0.40186  Biso   1.000  C
  N69      1.0000 0.31700  0.57495  0.23890  Biso   1.000  N
  N70      1.0000 0.29850  0.57282  0.26039  Biso   1.000  N
  C321     1.0000 0.34656  0.49999  0.16549  Biso   1.000  C
  C322     1.0000 0.32914  0.50436  0.18984  Biso   1.000  C
  H177     1.0000 0.31810  0.48420  0.19820  Biso   1.000  H
  C323     1.0000 0.34464  0.56990  0.18920  Biso   1.000  C
  H178     1.0000 0.34330  0.59330  0.19700  Biso   1.000  H
  C324     1.0000 0.32883  0.53964  0.20106  Biso   1.000  C
  C325     1.0000 0.03748  0.76070  0.43141  Biso   1.000  C
  H179     1.0000 0.02980  0.78460  0.43590  Biso   1.000  H
  C326     1.0000 0.06255  0.75550  0.41146  Biso   1.000  C
  C327     1.0000 0.02360  0.72981  0.44490  Biso   1.000  C
  C328     1.0000 0.07572  0.72050  0.40577  Biso   1.000  C
  H180     1.0000 0.09290  0.71700  0.39240  Biso   1.000  H
  C329     1.0000 0.03642  0.69503  0.43926  Biso   1.000  C
  H181     1.0000 0.02720  0.67450  0.44830  Biso   1.000  H
  C330     1.0000 0.06289  0.69032  0.42028  Biso   1.000  C
  C331     1.0000 0.37895  0.59892  0.15198  Biso   1.000  C
  C332     1.0000 0.34587  0.46312  0.15170  Biso   1.000  C
  C333     1.0000 0.36334  0.53049  0.15403  Biso   1.000  C
  H182     1.0000 0.37540  0.52760  0.13810  Biso   1.000  H
  C334     1.0000 0.36260  0.56549  0.16569  Biso   1.000  C
  C335     1.0000 0.07598  0.78888  0.39629  Biso   1.000  C
  C336     1.0000 0.99394  0.73582  0.46578  Biso   1.000  C
  O91      1.0000 0.36580  0.46005  0.13224  Biso   1.000  O
  O92      1.0000 0.39561  0.59183  0.13110  Biso   1.000  O
  O93      1.0000 0.32668  0.43774  0.16167  Biso   1.000  O
  O94      1.0000 0.37440  0.62934  0.16279  Biso   1.000  O
  O95      1.0000 0.06860  0.82027  0.40553  Biso   1.000  O
  O96      1.0000 0.09485  0.78284  0.37622  Biso   1.000  O
  O97      1.0000 0.99026  0.76845  0.47299  Biso   1.000  O
  O98      1.0000 0.97833  0.70708  0.47344  Biso   1.000  O
  Zn15     1.0000 0.63276  0.58392  0.89014  Biso   1.000  Zn
  Zn16     1.0000 0.67682  0.61211  0.85366  Biso   1.000  Zn
  O99      1.0000 0.59911  0.55825  0.91974  Biso   1.000  O
  H183     1.0000 0.58010  0.57060  0.92190  Biso   1.000  H
  O100     1.0000 0.71152  0.63525  0.82397  Biso   1.000  O
  H184     1.0000 0.70470  0.65660  0.82070  Biso   1.000  H
  O101     1.0000 0.59627  0.77449  0.97271  Biso   1.000  O
  O102     1.0000 0.63827  0.63305  0.90666  Biso   1.000  O
  O103     1.0000 0.58453  0.71363  0.97307  Biso   1.000  O
  O104     1.0000 0.67294  0.65758  0.87482  Biso   1.000  O
  C337     1.0000 0.64274  0.76736  0.93001  Biso   1.000  C
  H185     1.0000 0.63970  0.79100  0.93710  Biso   1.000  H
  C338     1.0000 0.62566  0.73654  0.94100  Biso   1.000  C
  C339     1.0000 0.59949  0.74241  0.96408  Biso   1.000  C
  C340     1.0000 0.63035  0.70110  0.93054  Biso   1.000  C
  H186     1.0000 0.61910  0.68060  0.93840  Biso   1.000  H
  N71      1.0000 0.68089  0.79399  0.89542  Biso   1.000  N
  C341     1.0000 0.65200  0.69658  0.90824  Biso   1.000  C
  C342     1.0000 0.65444  0.65896  0.89477  Biso   1.000  C
  C343     1.0000 0.66916  0.72735  0.89679  Biso   1.000  C
  H187     1.0000 0.68350  0.72460  0.88180  Biso   1.000  H
  C344     1.0000 0.66447  0.76179  0.90810  Biso   1.000  C
  C345     1.0000 0.66826  0.82863  0.89490  Biso   1.000  C
  H188     1.0000 0.64660  0.83770  0.90250  Biso   1.000  H
  N72      1.0000 0.71459  0.79065  0.88378  Biso   1.000  N
  C346     1.0000 0.69376  0.84784  0.88094  Biso   1.000  C
  C347     1.0000 0.69537  0.88701  0.87300  Biso   1.000  C
  N73      1.0000 0.72199  0.82391  0.87511  Biso   1.000  N
  C348     1.0000 0.66494  0.90792  0.87445  Biso   1.000  C
  H189     1.0000 0.64330  0.89760  0.88120  Biso   1.000  H
  C349     1.0000 0.72800  0.90371  0.86555  Biso   1.000  C
  H190     1.0000 0.75050  0.89090  0.86600  Biso   1.000  H
  C350     1.0000 0.72620  0.94039  0.85728  Biso   1.000  C
  H191     1.0000 0.74810  0.95160  0.85160  Biso   1.000  H
  C351     1.0000 0.66450  0.94485  0.86607  Biso   1.000  C
  H192     1.0000 0.64250  0.95840  0.86690  Biso   1.000  H
  C352     1.0000 0.69480  0.96080  0.85699  Biso   1.000  C
  N74      1.0000 0.69555  0.99904  0.84915  Biso   1.000  N
  C353     1.0000 0.71600  0.00976  0.82718  Biso   1.000  C
  C354     1.0000 0.72050  0.98919  0.80684  Biso   1.000  C
  H193     1.0000 0.70930  0.96580  0.80700  Biso   1.000  H
  C355     1.0000 0.73600  0.04091  0.82770  Biso   1.000  C
  H194     1.0000 0.73530  0.05630  0.84220  Biso   1.000  H
  C356     1.0000 0.67320  0.02514  0.86231  Biso   1.000  C
  C357     1.0000 0.66230  0.05552  0.85237  Biso   1.000  C
  H195     1.0000 0.67020  0.06090  0.83550  Biso   1.000  H
  C358     1.0000 0.74055  0.99872  0.78459  Biso   1.000  C
  H196     1.0000 0.74120  0.98270  0.77040  Biso   1.000  H
  C359     1.0000 0.75800  0.02967  0.78398  Biso   1.000  C
  C360     1.0000 0.75840  0.05051  0.80607  Biso   1.000  C
  H197     1.0000 0.77360  0.07140  0.80700  Biso   1.000  H
  C361     1.0000 0.63060  0.07820  0.88851  Biso   1.000  C
  C362     1.0000 0.63900  0.08210  0.86481  Biso   1.000  C
  H198     1.0000 0.62990  0.10240  0.85550  Biso   1.000  H
  C363     1.0000 0.65110  0.05179  0.90325  Biso   1.000  C
  H199     1.0000 0.65270  0.05300  0.92130  Biso   1.000  H
  C364     1.0000 0.66930  0.02325  0.88851  Biso   1.000  C
  H200     1.0000 0.67880  0.00270  0.89730  Biso   1.000  H
  N75      1.0000 0.81126  0.04429  0.72565  Biso   1.000  N
  C365     1.0000 0.79141  0.02222  0.74020  Biso   1.000  C
  H201     1.0000 0.78540  0.99770  0.73620  Biso   1.000  H
  C366     1.0000 0.78120  0.03985  0.76141  Biso   1.000  C
  N76      1.0000 0.57812  0.15430  0.91558  Biso   1.000  N
  C367     1.0000 0.59842  0.14113  0.89647  Biso   1.000  C
  H202     1.0000 0.60560  0.15410  0.88160  Biso   1.000  H
  N77      1.0000 0.57851  0.12958  0.93605  Biso   1.000  N
  N78      1.0000 0.59680  0.09977  0.92730  Biso   1.000  N
  C368     1.0000 0.60690  0.10670  0.90186  Biso   1.000  C
  N79      1.0000 0.81700  0.07495  0.73890  Biso   1.000  N
  N80      1.0000 0.79850  0.07282  0.76039  Biso   1.000  N
  C369     1.0000 0.84656  0.99999  0.66549  Biso   1.000  C
  C370     1.0000 0.82914  0.00436  0.68984  Biso   1.000  C
  H203     1.0000 0.81810  0.98420  0.69820  Biso   1.000  H
  C371     1.0000 0.84464  0.06990  0.68920  Biso   1.000  C
  H204     1.0000 0.84330  0.09330  0.69700  Biso   1.000  H
  C372     1.0000 0.82883  0.03964  0.70106  Biso   1.000  C
  C373     1.0000 0.53748  0.26070  0.93141  Biso   1.000  C
  H205     1.0000 0.52980  0.28460  0.93590  Biso   1.000  H
  C374     1.0000 0.56255  0.25550  0.91146  Biso   1.000  C
  C375     1.0000 0.52360  0.22981  0.94490  Biso   1.000  C
  C376     1.0000 0.57572  0.22050  0.90577  Biso   1.000  C
  H206     1.0000 0.59290  0.21700  0.89240  Biso   1.000  H
  C377     1.0000 0.53642  0.19503  0.93926  Biso   1.000  C
  H207     1.0000 0.52720  0.17450  0.94830  Biso   1.000  H
  C378     1.0000 0.56289  0.19032  0.92028  Biso   1.000  C
  C379     1.0000 0.87895  0.09892  0.65198  Biso   1.000  C
  C380     1.0000 0.84587  0.96312  0.65170  Biso   1.000  C
  C381     1.0000 0.86334  0.03049  0.65403  Biso   1.000  C
  H208     1.0000 0.87540  0.02760  0.63810  Biso   1.000  H
  C382     1.0000 0.86260  0.06549  0.66569  Biso   1.000  C
  C383     1.0000 0.57598  0.28888  0.89629  Biso   1.000  C
  C384     1.0000 0.49394  0.23582  0.96578  Biso   1.000  C
  O105     1.0000 0.86580  0.96005  0.63224  Biso   1.000  O
  O106     1.0000 0.89561  0.09183  0.63110  Biso   1.000  O
  O107     1.0000 0.82668  0.93774  0.66167  Biso   1.000  O
  O108     1.0000 0.87440  0.12934  0.66279  Biso   1.000  O
  O109     1.0000 0.56860  0.32027  0.90553  Biso   1.000  O
  O110     1.0000 0.59485  0.28284  0.87622  Biso   1.000  O
  O111     1.0000 0.49026  0.26845  0.97299  Biso   1.000  O
  O112     1.0000 0.47833  0.20708  0.97344  Biso   1.000  O
  Zn17     1.0000 0.08392  0.86724  0.60986  Biso   1.000  Zn
  Zn18     1.0000 0.11211  0.82318  0.64634  Biso   1.000  Zn
  O113     1.0000 0.05825  0.90089  0.58026  Biso   1.000  O
  H209     1.0000 0.07060  0.91990  0.57810  Biso   1.000  H
  O114     1.0000 0.13525  0.78848  0.67603  Biso   1.000  O
  H210     1.0000 0.15660  0.79530  0.67930  Biso   1.000  H
  O115     1.0000 0.27449  0.90373  0.52729  Biso   1.000  O
  O116     1.0000 0.13305  0.86173  0.59334  Biso   1.000  O
  O117     1.0000 0.21363  0.91547  0.52693  Biso   1.000  O
  O118     1.0000 0.15758  0.82706  0.62518  Biso   1.000  O
  C385     1.0000 0.26736  0.85726  0.56999  Biso   1.000  C
  H211     1.0000 0.29100  0.86030  0.56290  Biso   1.000  H
  C386     1.0000 0.23654  0.87434  0.55900  Biso   1.000  C
  C387     1.0000 0.24241  0.90051  0.53592  Biso   1.000  C
  C388     1.0000 0.20110  0.86965  0.56946  Biso   1.000  C
  H212     1.0000 0.18060  0.88090  0.56160  Biso   1.000  H
  N81      1.0000 0.29399  0.81911  0.60458  Biso   1.000  N
  C389     1.0000 0.19658  0.84800  0.59176  Biso   1.000  C
  C390     1.0000 0.15896  0.84556  0.60523  Biso   1.000  C
  C391     1.0000 0.22735  0.83084  0.60321  Biso   1.000  C
  H213     1.0000 0.22460  0.81650  0.61820  Biso   1.000  H
  C392     1.0000 0.26179  0.83553  0.59190  Biso   1.000  C
  C393     1.0000 0.32863  0.83174  0.60510  Biso   1.000  C
  H214     1.0000 0.33770  0.85340  0.59750  Biso   1.000  H
  N82      1.0000 0.29065  0.78541  0.61622  Biso   1.000  N
  C394     1.0000 0.34784  0.80624  0.61906  Biso   1.000  C
  C395     1.0000 0.38701  0.80463  0.62700  Biso   1.000  C
  N83      1.0000 0.32391  0.77801  0.62489  Biso   1.000  N
  C396     1.0000 0.40792  0.83506  0.62555  Biso   1.000  C
  H215     1.0000 0.39760  0.85670  0.61880  Biso   1.000  H
  C397     1.0000 0.40371  0.77200  0.63445  Biso   1.000  C
  H216     1.0000 0.39090  0.74950  0.63400  Biso   1.000  H
  C398     1.0000 0.44039  0.77380  0.64272  Biso   1.000  C
  H217     1.0000 0.45160  0.75190  0.64840  Biso   1.000  H
  C399     1.0000 0.44485  0.83550  0.63393  Biso   1.000  C
  H218     1.0000 0.45840  0.85750  0.63310  Biso   1.000  H
  C400     1.0000 0.46080  0.80520  0.64301  Biso   1.000  C
  N84      1.0000 0.49904  0.80445  0.65085  Biso   1.000  N
  C401     1.0000 0.50976  0.78400  0.67282  Biso   1.000  C
  C402     1.0000 0.48919  0.77950  0.69316  Biso   1.000  C
  H219     1.0000 0.46580  0.79070  0.69300  Biso   1.000  H
  C403     1.0000 0.54091  0.76400  0.67230  Biso   1.000  C
  H220     1.0000 0.55630  0.76470  0.65780  Biso   1.000  H
  C404     1.0000 0.52514  0.82680  0.63769  Biso   1.000  C
  C405     1.0000 0.55552  0.83770  0.64763  Biso   1.000  C
  H221     1.0000 0.56090  0.82980  0.66450  Biso   1.000  H
  C406     1.0000 0.49872  0.75945  0.71541  Biso   1.000  C
  H222     1.0000 0.48270  0.75880  0.72960  Biso   1.000  H
  C407     1.0000 0.52967  0.74200  0.71602  Biso   1.000  C
  C408     1.0000 0.55051  0.74160  0.69393  Biso   1.000  C
  H223     1.0000 0.57140  0.72640  0.69300  Biso   1.000  H
  C409     1.0000 0.57820  0.86940  0.61149  Biso   1.000  C
  C410     1.0000 0.58210  0.86100  0.63519  Biso   1.000  C
  H224     1.0000 0.60240  0.87010  0.64450  Biso   1.000  H
  C411     1.0000 0.55179  0.84890  0.59675  Biso   1.000  C
  H225     1.0000 0.55300  0.84730  0.57870  Biso   1.000  H
  C412     1.0000 0.52325  0.83070  0.61149  Biso   1.000  C
  H226     1.0000 0.50270  0.82120  0.60270  Biso   1.000  H
  N85      1.0000 0.54429  0.68874  0.77435  Biso   1.000  N
  C413     1.0000 0.52222  0.70859  0.75980  Biso   1.000  C
  H227     1.0000 0.49770  0.71460  0.76380  Biso   1.000  H
  C414     1.0000 0.53985  0.71880  0.73859  Biso   1.000  C
  N86      1.0000 0.65430  0.92188  0.58442  Biso   1.000  N
  C415     1.0000 0.64113  0.90158  0.60353  Biso   1.000  C
  H228     1.0000 0.65410  0.89440  0.61840  Biso   1.000  H
  N87      1.0000 0.62958  0.92149  0.56395  Biso   1.000  N
  N88      1.0000 0.59977  0.90320  0.57270  Biso   1.000  N
  C416     1.0000 0.60670  0.89310  0.59814  Biso   1.000  C
  N89      1.0000 0.57495  0.68300  0.76110  Biso   1.000  N
  N90      1.0000 0.57282  0.70150  0.73961  Biso   1.000  N
  C417     1.0000 0.49999  0.65344  0.83451  Biso   1.000  C
  C418     1.0000 0.50436  0.67086  0.81016  Biso   1.000  C
  H229     1.0000 0.48420  0.68190  0.80180  Biso   1.000  H
  C419     1.0000 0.56990  0.65536  0.81080  Biso   1.000  C
  H230     1.0000 0.59330  0.65670  0.80300  Biso   1.000  H
  C420     1.0000 0.53964  0.67117  0.79894  Biso   1.000  C
  C421     1.0000 0.76070  0.96252  0.56859  Biso   1.000  C
  H231     1.0000 0.78460  0.97020  0.56410  Biso   1.000  H
  C422     1.0000 0.75550  0.93745  0.58854  Biso   1.000  C
  C423     1.0000 0.72981  0.97640  0.55510  Biso   1.000  C
  C424     1.0000 0.72050  0.92428  0.59423  Biso   1.000  C
  H232     1.0000 0.71700  0.90710  0.60760  Biso   1.000  H
  C425     1.0000 0.69503  0.96358  0.56074  Biso   1.000  C
  H233     1.0000 0.67450  0.97280  0.55170  Biso   1.000  H
  C426     1.0000 0.69032  0.93711  0.57972  Biso   1.000  C
  C427     1.0000 0.59892  0.62105  0.84802  Biso   1.000  C
  C428     1.0000 0.46312  0.65413  0.84830  Biso   1.000  C
  C429     1.0000 0.53049  0.63666  0.84597  Biso   1.000  C
  H234     1.0000 0.52760  0.62460  0.86190  Biso   1.000  H
  C430     1.0000 0.56549  0.63740  0.83431  Biso   1.000  C
  C431     1.0000 0.78888  0.92402  0.60371  Biso   1.000  C
  C432     1.0000 0.73582  0.00606  0.53422  Biso   1.000  C
  O119     1.0000 0.46005  0.63420  0.86776  Biso   1.000  O
  O120     1.0000 0.59183  0.60439  0.86890  Biso   1.000  O
  O121     1.0000 0.43774  0.67332  0.83833  Biso   1.000  O
  O122     1.0000 0.62934  0.62560  0.83721  Biso   1.000  O
  O123     1.0000 0.82027  0.93140  0.59447  Biso   1.000  O
  O124     1.0000 0.78284  0.90515  0.62378  Biso   1.000  O
  O125     1.0000 0.76845  0.00974  0.52701  Biso   1.000  O
  O126     1.0000 0.70708  0.02167  0.52656  Biso   1.000  O
  Zn19     1.0000 0.58392  0.36724  0.10986  Biso   1.000  Zn
  Zn20     1.0000 0.61211  0.32318  0.14634  Biso   1.000  Zn
  O127     1.0000 0.55825  0.40089  0.08026  Biso   1.000  O
  H235     1.0000 0.57060  0.41990  0.07810  Biso   1.000  H
  O128     1.0000 0.63525  0.28848  0.17603  Biso   1.000  O
  H236     1.0000 0.65660  0.29530  0.17930  Biso   1.000  H
  O129     1.0000 0.77449  0.40373  0.02729  Biso   1.000  O
  O130     1.0000 0.63305  0.36173  0.09334  Biso   1.000  O
  O131     1.0000 0.71363  0.41547  0.02693  Biso   1.000  O
  O132     1.0000 0.65758  0.32706  0.12518  Biso   1.000  O
  C433     1.0000 0.76736  0.35726  0.06999  Biso   1.000  C
  H237     1.0000 0.79100  0.36030  0.06290  Biso   1.000  H
  C434     1.0000 0.73654  0.37434  0.05900  Biso   1.000  C
  C435     1.0000 0.74241  0.40051  0.03592  Biso   1.000  C
  C436     1.0000 0.70110  0.36965  0.06946  Biso   1.000  C
  H238     1.0000 0.68060  0.38090  0.06160  Biso   1.000  H
  N91      1.0000 0.79399  0.31911  0.10458  Biso   1.000  N
  C437     1.0000 0.69658  0.34800  0.09176  Biso   1.000  C
  C438     1.0000 0.65896  0.34556  0.10523  Biso   1.000  C
  C439     1.0000 0.72735  0.33084  0.10321  Biso   1.000  C
  H239     1.0000 0.72460  0.31650  0.11820  Biso   1.000  H
  C440     1.0000 0.76179  0.33553  0.09190  Biso   1.000  C
  C441     1.0000 0.82863  0.33174  0.10510  Biso   1.000  C
  H240     1.0000 0.83770  0.35340  0.09750  Biso   1.000  H
  N92      1.0000 0.79065  0.28541  0.11622  Biso   1.000  N
  C442     1.0000 0.84784  0.30624  0.11906  Biso   1.000  C
  C443     1.0000 0.88701  0.30463  0.12700  Biso   1.000  C
  N93      1.0000 0.82391  0.27801  0.12489  Biso   1.000  N
  C444     1.0000 0.90792  0.33506  0.12555  Biso   1.000  C
  H241     1.0000 0.89760  0.35670  0.11880  Biso   1.000  H
  C445     1.0000 0.90371  0.27200  0.13445  Biso   1.000  C
  H242     1.0000 0.89090  0.24950  0.13400  Biso   1.000  H
  C446     1.0000 0.94039  0.27380  0.14272  Biso   1.000  C
  H243     1.0000 0.95160  0.25190  0.14840  Biso   1.000  H
  C447     1.0000 0.94485  0.33550  0.13393  Biso   1.000  C
  H244     1.0000 0.95840  0.35750  0.13310  Biso   1.000  H
  C448     1.0000 0.96080  0.30520  0.14301  Biso   1.000  C
  N94      1.0000 0.99904  0.30445  0.15085  Biso   1.000  N
  C449     1.0000 0.00976  0.28400  0.17282  Biso   1.000  C
  C450     1.0000 0.98919  0.27950  0.19316  Biso   1.000  C
  H245     1.0000 0.96580  0.29070  0.19300  Biso   1.000  H
  C451     1.0000 0.04091  0.26400  0.17230  Biso   1.000  C
  H246     1.0000 0.05630  0.26470  0.15780  Biso   1.000  H
  C452     1.0000 0.02514  0.32680  0.13769  Biso   1.000  C
  C453     1.0000 0.05552  0.33770  0.14763  Biso   1.000  C
  H247     1.0000 0.06090  0.32980  0.16450  Biso   1.000  H
  C454     1.0000 0.99872  0.25945  0.21541  Biso   1.000  C
  H248     1.0000 0.98270  0.25880  0.22960  Biso   1.000  H
  C455     1.0000 0.02967  0.24200  0.21602  Biso   1.000  C
  C456     1.0000 0.05051  0.24160  0.19393  Biso   1.000  C
  H249     1.0000 0.07140  0.22640  0.19300  Biso   1.000  H
  C457     1.0000 0.07820  0.36940  0.11149  Biso   1.000  C
  C458     1.0000 0.08210  0.36100  0.13519  Biso   1.000  C
  H250     1.0000 0.10240  0.37010  0.14450  Biso   1.000  H
  C459     1.0000 0.05179  0.34890  0.09675  Biso   1.000  C
  H251     1.0000 0.05300  0.34730  0.07870  Biso   1.000  H
  C460     1.0000 0.02325  0.33070  0.11149  Biso   1.000  C
  H252     1.0000 0.00270  0.32120  0.10270  Biso   1.000  H
  N95      1.0000 0.04429  0.18874  0.27435  Biso   1.000  N
  C461     1.0000 0.02222  0.20859  0.25980  Biso   1.000  C
  H253     1.0000 0.99770  0.21460  0.26380  Biso   1.000  H
  C462     1.0000 0.03985  0.21880  0.23859  Biso   1.000  C
  N96      1.0000 0.15430  0.42188  0.08442  Biso   1.000  N
  C463     1.0000 0.14113  0.40158  0.10353  Biso   1.000  C
  H254     1.0000 0.15410  0.39440  0.11840  Biso   1.000  H
  N97      1.0000 0.12958  0.42149  0.06395  Biso   1.000  N
  N98      1.0000 0.09977  0.40320  0.07270  Biso   1.000  N
  C464     1.0000 0.10670  0.39310  0.09814  Biso   1.000  C
  N99      1.0000 0.07495  0.18300  0.26110  Biso   1.000  N
  N100     1.0000 0.07282  0.20150  0.23961  Biso   1.000  N
  C465     1.0000 0.99999  0.15344  0.33451  Biso   1.000  C
  C466     1.0000 0.00436  0.17086  0.31016  Biso   1.000  C
  H255     1.0000 0.98420  0.18190  0.30180  Biso   1.000  H
  C467     1.0000 0.06990  0.15536  0.31080  Biso   1.000  C
  H256     1.0000 0.09330  0.15670  0.30300  Biso   1.000  H
  C468     1.0000 0.03964  0.17117  0.29894  Biso   1.000  C
  C469     1.0000 0.26070  0.46252  0.06859  Biso   1.000  C
  H257     1.0000 0.28460  0.47020  0.06410  Biso   1.000  H
  C470     1.0000 0.25550  0.43745  0.08854  Biso   1.000  C
  C471     1.0000 0.22981  0.47640  0.05510  Biso   1.000  C
  C472     1.0000 0.22050  0.42428  0.09423  Biso   1.000  C
  H258     1.0000 0.21700  0.40710  0.10760  Biso   1.000  H
  C473     1.0000 0.19503  0.46358  0.06074  Biso   1.000  C
  H259     1.0000 0.17450  0.47280  0.05170  Biso   1.000  H
  C474     1.0000 0.19032  0.43711  0.07972  Biso   1.000  C
  C475     1.0000 0.09892  0.12105  0.34802  Biso   1.000  C
  C476     1.0000 0.96312  0.15413  0.34830  Biso   1.000  C
  C477     1.0000 0.03049  0.13666  0.34597  Biso   1.000  C
  H260     1.0000 0.02760  0.12460  0.36190  Biso   1.000  H
  C478     1.0000 0.06549  0.13740  0.33431  Biso   1.000  C
  C479     1.0000 0.28888  0.42402  0.10371  Biso   1.000  C
  C480     1.0000 0.23582  0.50606  0.03422  Biso   1.000  C
  O133     1.0000 0.96005  0.13420  0.36776  Biso   1.000  O
  O134     1.0000 0.09183  0.10439  0.36890  Biso   1.000  O
  O135     1.0000 0.93774  0.17332  0.33833  Biso   1.000  O
  O136     1.0000 0.12934  0.12560  0.33721  Biso   1.000  O
  O137     1.0000 0.32027  0.43140  0.09447  Biso   1.000  O
  O138     1.0000 0.28284  0.40515  0.12378  Biso   1.000  O
  O139     1.0000 0.26845  0.50974  0.02701  Biso   1.000  O
  O140     1.0000 0.20708  0.52167  0.02656  Biso   1.000  O
  Zn21     1.0000 0.91608  0.13276  0.60986  Biso   1.000  Zn
  Zn22     1.0000 0.88789  0.17682  0.64634  Biso   1.000  Zn
  O141     1.0000 0.94175  0.09911  0.58026  Biso   1.000  O
  H261     1.0000 0.92940  0.08010  0.57810  Biso   1.000  H
  O142     1.0000 0.86475  0.21152  0.67603  Biso   1.000  O
  H262     1.0000 0.84340  0.20470  0.67930  Biso   1.000  H
  O143     1.0000 0.72551  0.09627  0.52729  Biso   1.000  O
  O144     1.0000 0.86695  0.13827  0.59334  Biso   1.000  O
  O145     1.0000 0.78637  0.08453  0.52693  Biso   1.000  O
  O146     1.0000 0.84242  0.17294  0.62518  Biso   1.000  O
  C481     1.0000 0.73264  0.14274  0.56999  Biso   1.000  C
  H263     1.0000 0.70900  0.13970  0.56290  Biso   1.000  H
  C482     1.0000 0.76346  0.12566  0.55900  Biso   1.000  C
  C483     1.0000 0.75759  0.09949  0.53592  Biso   1.000  C
  C484     1.0000 0.79890  0.13035  0.56946  Biso   1.000  C
  H264     1.0000 0.81940  0.11910  0.56160  Biso   1.000  H
  N101     1.0000 0.70601  0.18089  0.60458  Biso   1.000  N
  C485     1.0000 0.80342  0.15200  0.59176  Biso   1.000  C
  C486     1.0000 0.84104  0.15444  0.60523  Biso   1.000  C
  C487     1.0000 0.77265  0.16916  0.60321  Biso   1.000  C
  H265     1.0000 0.77540  0.18350  0.61820  Biso   1.000  H
  C488     1.0000 0.73821  0.16447  0.59190  Biso   1.000  C
  C489     1.0000 0.67137  0.16826  0.60510  Biso   1.000  C
  H266     1.0000 0.66230  0.14660  0.59750  Biso   1.000  H
  N102     1.0000 0.70935  0.21459  0.61622  Biso   1.000  N
  C490     1.0000 0.65216  0.19376  0.61906  Biso   1.000  C
  C491     1.0000 0.61299  0.19537  0.62700  Biso   1.000  C
  N103     1.0000 0.67609  0.22199  0.62489  Biso   1.000  N
  C492     1.0000 0.59208  0.16494  0.62555  Biso   1.000  C
  H267     1.0000 0.60240  0.14330  0.61880  Biso   1.000  H
  C493     1.0000 0.59629  0.22800  0.63445  Biso   1.000  C
  H268     1.0000 0.60910  0.25050  0.63400  Biso   1.000  H
  C494     1.0000 0.55961  0.22620  0.64272  Biso   1.000  C
  H269     1.0000 0.54840  0.24810  0.64840  Biso   1.000  H
  C495     1.0000 0.55515  0.16450  0.63393  Biso   1.000  C
  H270     1.0000 0.54160  0.14250  0.63310  Biso   1.000  H
  C496     1.0000 0.53920  0.19480  0.64301  Biso   1.000  C
  N104     1.0000 0.50096  0.19555  0.65085  Biso   1.000  N
  C497     1.0000 0.49024  0.21600  0.67282  Biso   1.000  C
  C498     1.0000 0.51081  0.22050  0.69316  Biso   1.000  C
  H271     1.0000 0.53420  0.20930  0.69300  Biso   1.000  H
  C499     1.0000 0.45909  0.23600  0.67230  Biso   1.000  C
  H272     1.0000 0.44370  0.23530  0.65780  Biso   1.000  H
  C500     1.0000 0.47486  0.17320  0.63769  Biso   1.000  C
  C501     1.0000 0.44448  0.16230  0.64763  Biso   1.000  C
  H273     1.0000 0.43910  0.17020  0.66450  Biso   1.000  H
  C502     1.0000 0.50128  0.24055  0.71541  Biso   1.000  C
  H274     1.0000 0.51730  0.24120  0.72960  Biso   1.000  H
  C503     1.0000 0.47033  0.25800  0.71602  Biso   1.000  C
  C504     1.0000 0.44949  0.25840  0.69393  Biso   1.000  C
  H275     1.0000 0.42860  0.27360  0.69300  Biso   1.000  H
  C505     1.0000 0.42180  0.13060  0.61149  Biso   1.000  C
  C506     1.0000 0.41790  0.13900  0.63519  Biso   1.000  C
  H276     1.0000 0.39760  0.12990  0.64450  Biso   1.000  H
  C507     1.0000 0.44821  0.15110  0.59675  Biso   1.000  C
  H277     1.0000 0.44700  0.15270  0.57870  Biso   1.000  H
  C508     1.0000 0.47675  0.16930  0.61149  Biso   1.000  C
  H278     1.0000 0.49730  0.17880  0.60270  Biso   1.000  H
  N105     1.0000 0.45571  0.31126  0.77435  Biso   1.000  N
  C509     1.0000 0.47778  0.29141  0.75980  Biso   1.000  C
  H279     1.0000 0.50230  0.28540  0.76380  Biso   1.000  H
  C510     1.0000 0.46015  0.28120  0.73859  Biso   1.000  C
  N106     1.0000 0.34570  0.07812  0.58442  Biso   1.000  N
  C511     1.0000 0.35887  0.09842  0.60353  Biso   1.000  C
  H280     1.0000 0.34590  0.10560  0.61840  Biso   1.000  H
  N107     1.0000 0.37042  0.07851  0.56395  Biso   1.000  N
  N108     1.0000 0.40023  0.09680  0.57270  Biso   1.000  N
  C512     1.0000 0.39330  0.10690  0.59814  Biso   1.000  C
  N109     1.0000 0.42505  0.31700  0.76110  Biso   1.000  N
  N110     1.0000 0.42718  0.29850  0.73961  Biso   1.000  N
  C513     1.0000 0.50001  0.34656  0.83451  Biso   1.000  C
  C514     1.0000 0.49564  0.32914  0.81016  Biso   1.000  C
  H281     1.0000 0.51580  0.31810  0.80180  Biso   1.000  H
  C515     1.0000 0.43010  0.34464  0.81080  Biso   1.000  C
  H282     1.0000 0.40670  0.34330  0.80300  Biso   1.000  H
  C516     1.0000 0.46036  0.32883  0.79894  Biso   1.000  C
  C517     1.0000 0.23930  0.03748  0.56859  Biso   1.000  C
  H283     1.0000 0.21540  0.02980  0.56410  Biso   1.000  H
  C518     1.0000 0.24450  0.06255  0.58854  Biso   1.000  C
  C519     1.0000 0.27019  0.02360  0.55510  Biso   1.000  C
  C520     1.0000 0.27950  0.07572  0.59423  Biso   1.000  C
  H284     1.0000 0.28300  0.09290  0.60760  Biso   1.000  H
  C521     1.0000 0.30497  0.03642  0.56074  Biso   1.000  C
  H285     1.0000 0.32550  0.02720  0.55170  Biso   1.000  H
  C522     1.0000 0.30968  0.06289  0.57972  Biso   1.000  C
  C523     1.0000 0.40108  0.37895  0.84802  Biso   1.000  C
  C524     1.0000 0.53688  0.34587  0.84830  Biso   1.000  C
  C525     1.0000 0.46951  0.36334  0.84597  Biso   1.000  C
  H286     1.0000 0.47240  0.37540  0.86190  Biso   1.000  H
  C526     1.0000 0.43451  0.36260  0.83431  Biso   1.000  C
  C527     1.0000 0.21112  0.07598  0.60371  Biso   1.000  C
  C528     1.0000 0.26418  0.99394  0.53422  Biso   1.000  C
  O147     1.0000 0.53995  0.36580  0.86776  Biso   1.000  O
  O148     1.0000 0.40817  0.39561  0.86890  Biso   1.000  O
  O149     1.0000 0.56226  0.32668  0.83833  Biso   1.000  O
  O150     1.0000 0.37066  0.37440  0.83721  Biso   1.000  O
  O151     1.0000 0.17973  0.06860  0.59447  Biso   1.000  O
  O152     1.0000 0.21716  0.09485  0.62378  Biso   1.000  O
  O153     1.0000 0.23155  0.99026  0.52701  Biso   1.000  O
  O154     1.0000 0.29292  0.97833  0.52656  Biso   1.000  O
  Zn23     1.0000 0.41608  0.63276  0.10986  Biso   1.000  Zn
  Zn24     1.0000 0.38789  0.67682  0.14634  Biso   1.000  Zn
  O155     1.0000 0.44175  0.59911  0.08026  Biso   1.000  O
  H287     1.0000 0.42940  0.58010  0.07810  Biso   1.000  H
  O156     1.0000 0.36475  0.71152  0.17603  Biso   1.000  O
  H288     1.0000 0.34340  0.70470  0.17930  Biso   1.000  H
  O157     1.0000 0.22551  0.59627  0.02729  Biso   1.000  O
  O158     1.0000 0.36695  0.63827  0.09334  Biso   1.000  O
  O159     1.0000 0.28637  0.58453  0.02693  Biso   1.000  O
  O160     1.0000 0.34242  0.67294  0.12518  Biso   1.000  O
  C529     1.0000 0.23264  0.64274  0.06999  Biso   1.000  C
  H289     1.0000 0.20900  0.63970  0.06290  Biso   1.000  H
  C530     1.0000 0.26346  0.62566  0.05900  Biso   1.000  C
  C531     1.0000 0.25759  0.59949  0.03592  Biso   1.000  C
  C532     1.0000 0.29890  0.63035  0.06946  Biso   1.000  C
  H290     1.0000 0.31940  0.61910  0.06160  Biso   1.000  H
  N111     1.0000 0.20601  0.68089  0.10458  Biso   1.000  N
  C533     1.0000 0.30342  0.65200  0.09176  Biso   1.000  C
  C534     1.0000 0.34104  0.65444  0.10523  Biso   1.000  C
  C535     1.0000 0.27265  0.66916  0.10321  Biso   1.000  C
  H291     1.0000 0.27540  0.68350  0.11820  Biso   1.000  H
  C536     1.0000 0.23821  0.66447  0.09190  Biso   1.000  C
  C537     1.0000 0.17137  0.66826  0.10510  Biso   1.000  C
  H292     1.0000 0.16230  0.64660  0.09750  Biso   1.000  H
  N112     1.0000 0.20935  0.71459  0.11622  Biso   1.000  N
  C538     1.0000 0.15216  0.69376  0.11906  Biso   1.000  C
  C539     1.0000 0.11299  0.69537  0.12700  Biso   1.000  C
  N113     1.0000 0.17609  0.72199  0.12489  Biso   1.000  N
  C540     1.0000 0.09208  0.66494  0.12555  Biso   1.000  C
  H293     1.0000 0.10240  0.64330  0.11880  Biso   1.000  H
  C541     1.0000 0.09629  0.72800  0.13445  Biso   1.000  C
  H294     1.0000 0.10910  0.75050  0.13400  Biso   1.000  H
  C542     1.0000 0.05961  0.72620  0.14272  Biso   1.000  C
  H295     1.0000 0.04840  0.74810  0.14840  Biso   1.000  H
  C543     1.0000 0.05515  0.66450  0.13393  Biso   1.000  C
  H296     1.0000 0.04160  0.64250  0.13310  Biso   1.000  H
  C544     1.0000 0.03920  0.69480  0.14301  Biso   1.000  C
  N114     1.0000 0.00096  0.69555  0.15085  Biso   1.000  N
  C545     1.0000 0.99024  0.71600  0.17282  Biso   1.000  C
  C546     1.0000 0.01081  0.72050  0.19316  Biso   1.000  C
  H297     1.0000 0.03420  0.70930  0.19300  Biso   1.000  H
  C547     1.0000 0.95909  0.73600  0.17230  Biso   1.000  C
  H298     1.0000 0.94370  0.73530  0.15780  Biso   1.000  H
  C548     1.0000 0.97486  0.67320  0.13769  Biso   1.000  C
  C549     1.0000 0.94448  0.66230  0.14763  Biso   1.000  C
  H299     1.0000 0.93910  0.67020  0.16450  Biso   1.000  H
  C550     1.0000 0.00128  0.74055  0.21541  Biso   1.000  C
  H300     1.0000 0.01730  0.74120  0.22960  Biso   1.000  H
  C551     1.0000 0.97033  0.75800  0.21602  Biso   1.000  C
  C552     1.0000 0.94949  0.75840  0.19393  Biso   1.000  C
  H301     1.0000 0.92860  0.77360  0.19300  Biso   1.000  H
  C553     1.0000 0.92180  0.63060  0.11149  Biso   1.000  C
  C554     1.0000 0.91790  0.63900  0.13519  Biso   1.000  C
  H302     1.0000 0.89760  0.62990  0.14450  Biso   1.000  H
  C555     1.0000 0.94821  0.65110  0.09675  Biso   1.000  C
  H303     1.0000 0.94700  0.65270  0.07870  Biso   1.000  H
  C556     1.0000 0.97675  0.66930  0.11149  Biso   1.000  C
  H304     1.0000 0.99730  0.67880  0.10270  Biso   1.000  H
  N115     1.0000 0.95571  0.81126  0.27435  Biso   1.000  N
  C557     1.0000 0.97778  0.79141  0.25980  Biso   1.000  C
  H305     1.0000 0.00230  0.78540  0.26380  Biso   1.000  H
  C558     1.0000 0.96015  0.78120  0.23859  Biso   1.000  C
  N116     1.0000 0.84570  0.57812  0.08442  Biso   1.000  N
  C559     1.0000 0.85887  0.59842  0.10353  Biso   1.000  C
  H306     1.0000 0.84590  0.60560  0.11840  Biso   1.000  H
  N117     1.0000 0.87042  0.57851  0.06395  Biso   1.000  N
  N118     1.0000 0.90023  0.59680  0.07270  Biso   1.000  N
  C560     1.0000 0.89330  0.60690  0.09814  Biso   1.000  C
  N119     1.0000 0.92505  0.81700  0.26110  Biso   1.000  N
  N120     1.0000 0.92718  0.79850  0.23961  Biso   1.000  N
  C561     1.0000 0.00001  0.84656  0.33451  Biso   1.000  C
  C562     1.0000 0.99564  0.82914  0.31016  Biso   1.000  C
  H307     1.0000 0.01580  0.81810  0.30180  Biso   1.000  H
  C563     1.0000 0.93010  0.84464  0.31080  Biso   1.000  C
  H308     1.0000 0.90670  0.84330  0.30300  Biso   1.000  H
  C564     1.0000 0.96036  0.82883  0.29894  Biso   1.000  C
  C565     1.0000 0.73930  0.53748  0.06859  Biso   1.000  C
  H309     1.0000 0.71540  0.52980  0.06410  Biso   1.000  H
  C566     1.0000 0.74450  0.56255  0.08854  Biso   1.000  C
  C567     1.0000 0.77019  0.52360  0.05510  Biso   1.000  C
  C568     1.0000 0.77950  0.57572  0.09423  Biso   1.000  C
  H310     1.0000 0.78300  0.59290  0.10760  Biso   1.000  H
  C569     1.0000 0.80497  0.53642  0.06074  Biso   1.000  C
  H311     1.0000 0.82550  0.52720  0.05170  Biso   1.000  H
  C570     1.0000 0.80968  0.56289  0.07972  Biso   1.000  C
  C571     1.0000 0.90108  0.87895  0.34802  Biso   1.000  C
  C572     1.0000 0.03688  0.84587  0.34830  Biso   1.000  C
  C573     1.0000 0.96951  0.86334  0.34597  Biso   1.000  C
  H312     1.0000 0.97240  0.87540  0.36190  Biso   1.000  H
  C574     1.0000 0.93451  0.86260  0.33431  Biso   1.000  C
  C575     1.0000 0.71112  0.57598  0.10371  Biso   1.000  C
  C576     1.0000 0.76418  0.49394  0.03422  Biso   1.000  C
  O161     1.0000 0.03995  0.86580  0.36776  Biso   1.000  O
  O162     1.0000 0.90817  0.89561  0.36890  Biso   1.000  O
  O163     1.0000 0.06226  0.82668  0.33833  Biso   1.000  O
  O164     1.0000 0.87066  0.87440  0.33721  Biso   1.000  O
  O165     1.0000 0.67973  0.56860  0.09447  Biso   1.000  O
  O166     1.0000 0.71716  0.59485  0.12378  Biso   1.000  O
  O167     1.0000 0.73155  0.49026  0.02701  Biso   1.000  O
  O168     1.0000 0.79292  0.47833  0.02656  Biso   1.000  O
  Zn25     1.0000 0.13276  0.08392  0.60986  Biso   1.000  Zn
  Zn26     1.0000 0.17682  0.11211  0.64634  Biso   1.000  Zn
  O169     1.0000 0.09911  0.05825  0.58026  Biso   1.000  O
  H313     1.0000 0.08010  0.07060  0.57810  Biso   1.000  H
  O170     1.0000 0.21152  0.13525  0.67603  Biso   1.000  O
  H314     1.0000 0.20470  0.15660  0.67930  Biso   1.000  H
  O171     1.0000 0.09627  0.27449  0.52729  Biso   1.000  O
  O172     1.0000 0.13827  0.13305  0.59334  Biso   1.000  O
  O173     1.0000 0.08453  0.21363  0.52693  Biso   1.000  O
  O174     1.0000 0.17294  0.15758  0.62518  Biso   1.000  O
  C577     1.0000 0.14274  0.26736  0.56999  Biso   1.000  C
  H315     1.0000 0.13970  0.29100  0.56290  Biso   1.000  H
  C578     1.0000 0.12566  0.23654  0.55900  Biso   1.000  C
  C579     1.0000 0.09949  0.24241  0.53592  Biso   1.000  C
  C580     1.0000 0.13035  0.20110  0.56946  Biso   1.000  C
  H316     1.0000 0.11910  0.18060  0.56160  Biso   1.000  H
  N121     1.0000 0.18089  0.29399  0.60458  Biso   1.000  N
  C581     1.0000 0.15200  0.19658  0.59176  Biso   1.000  C
  C582     1.0000 0.15444  0.15896  0.60523  Biso   1.000  C
  C583     1.0000 0.16916  0.22735  0.60321  Biso   1.000  C
  H317     1.0000 0.18350  0.22460  0.61820  Biso   1.000  H
  C584     1.0000 0.16447  0.26179  0.59190  Biso   1.000  C
  C585     1.0000 0.16826  0.32863  0.60510  Biso   1.000  C
  H318     1.0000 0.14660  0.33770  0.59750  Biso   1.000  H
  N122     1.0000 0.21459  0.29065  0.61622  Biso   1.000  N
  C586     1.0000 0.19376  0.34784  0.61906  Biso   1.000  C
  C587     1.0000 0.19537  0.38701  0.62700  Biso   1.000  C
  N123     1.0000 0.22199  0.32391  0.62489  Biso   1.000  N
  C588     1.0000 0.16494  0.40792  0.62555  Biso   1.000  C
  H319     1.0000 0.14330  0.39760  0.61880  Biso   1.000  H
  C589     1.0000 0.22800  0.40371  0.63445  Biso   1.000  C
  H320     1.0000 0.25050  0.39090  0.63400  Biso   1.000  H
  C590     1.0000 0.22620  0.44039  0.64272  Biso   1.000  C
  H321     1.0000 0.24810  0.45160  0.64840  Biso   1.000  H
  C591     1.0000 0.16450  0.44485  0.63393  Biso   1.000  C
  H322     1.0000 0.14250  0.45840  0.63310  Biso   1.000  H
  C592     1.0000 0.19480  0.46080  0.64301  Biso   1.000  C
  N124     1.0000 0.19555  0.49904  0.65085  Biso   1.000  N
  C593     1.0000 0.21600  0.50976  0.67282  Biso   1.000  C
  C594     1.0000 0.22050  0.48919  0.69316  Biso   1.000  C
  H323     1.0000 0.20930  0.46580  0.69300  Biso   1.000  H
  C595     1.0000 0.23600  0.54091  0.67230  Biso   1.000  C
  H324     1.0000 0.23530  0.55630  0.65780  Biso   1.000  H
  C596     1.0000 0.17320  0.52514  0.63769  Biso   1.000  C
  C597     1.0000 0.16230  0.55552  0.64763  Biso   1.000  C
  H325     1.0000 0.17020  0.56090  0.66450  Biso   1.000  H
  C598     1.0000 0.24055  0.49872  0.71541  Biso   1.000  C
  H326     1.0000 0.24120  0.48270  0.72960  Biso   1.000  H
  C599     1.0000 0.25800  0.52967  0.71602  Biso   1.000  C
  C600     1.0000 0.25840  0.55051  0.69393  Biso   1.000  C
  H327     1.0000 0.27360  0.57140  0.69300  Biso   1.000  H
  C601     1.0000 0.13060  0.57820  0.61149  Biso   1.000  C
  C602     1.0000 0.13900  0.58210  0.63519  Biso   1.000  C
  H328     1.0000 0.12990  0.60240  0.64450  Biso   1.000  H
  C603     1.0000 0.15110  0.55179  0.59675  Biso   1.000  C
  H329     1.0000 0.15270  0.55300  0.57870  Biso   1.000  H
  C604     1.0000 0.16930  0.52325  0.61149  Biso   1.000  C
  H330     1.0000 0.17880  0.50270  0.60270  Biso   1.000  H
  N125     1.0000 0.31126  0.54429  0.77435  Biso   1.000  N
  C605     1.0000 0.29141  0.52222  0.75980  Biso   1.000  C
  H331     1.0000 0.28540  0.49770  0.76380  Biso   1.000  H
  C606     1.0000 0.28120  0.53985  0.73859  Biso   1.000  C
  N126     1.0000 0.07812  0.65430  0.58442  Biso   1.000  N
  C607     1.0000 0.09842  0.64113  0.60353  Biso   1.000  C
  H332     1.0000 0.10560  0.65410  0.61840  Biso   1.000  H
  N127     1.0000 0.07851  0.62958  0.56395  Biso   1.000  N
  N128     1.0000 0.09680  0.59977  0.57270  Biso   1.000  N
  C608     1.0000 0.10690  0.60670  0.59814  Biso   1.000  C
  N129     1.0000 0.31700  0.57495  0.76110  Biso   1.000  N
  N130     1.0000 0.29850  0.57282  0.73961  Biso   1.000  N
  C609     1.0000 0.34656  0.49999  0.83451  Biso   1.000  C
  C610     1.0000 0.32914  0.50436  0.81016  Biso   1.000  C
  H333     1.0000 0.31810  0.48420  0.80180  Biso   1.000  H
  C611     1.0000 0.34464  0.56990  0.81080  Biso   1.000  C
  H334     1.0000 0.34330  0.59330  0.80300  Biso   1.000  H
  C612     1.0000 0.32883  0.53964  0.79894  Biso   1.000  C
  C613     1.0000 0.03748  0.76070  0.56859  Biso   1.000  C
  H335     1.0000 0.02980  0.78460  0.56410  Biso   1.000  H
  C614     1.0000 0.06255  0.75550  0.58854  Biso   1.000  C
  C615     1.0000 0.02360  0.72981  0.55510  Biso   1.000  C
  C616     1.0000 0.07572  0.72050  0.59423  Biso   1.000  C
  H336     1.0000 0.09290  0.71700  0.60760  Biso   1.000  H
  C617     1.0000 0.03642  0.69503  0.56074  Biso   1.000  C
  H337     1.0000 0.02720  0.67450  0.55170  Biso   1.000  H
  C618     1.0000 0.06289  0.69032  0.57972  Biso   1.000  C
  C619     1.0000 0.37895  0.59892  0.84802  Biso   1.000  C
  C620     1.0000 0.34587  0.46312  0.84830  Biso   1.000  C
  C621     1.0000 0.36334  0.53049  0.84597  Biso   1.000  C
  H338     1.0000 0.37540  0.52760  0.86190  Biso   1.000  H
  C622     1.0000 0.36260  0.56549  0.83431  Biso   1.000  C
  C623     1.0000 0.07598  0.78888  0.60371  Biso   1.000  C
  C624     1.0000 0.99394  0.73582  0.53422  Biso   1.000  C
  O175     1.0000 0.36580  0.46005  0.86776  Biso   1.000  O
  O176     1.0000 0.39561  0.59183  0.86890  Biso   1.000  O
  O177     1.0000 0.32668  0.43774  0.83833  Biso   1.000  O
  O178     1.0000 0.37440  0.62934  0.83721  Biso   1.000  O
  O179     1.0000 0.06860  0.82027  0.59447  Biso   1.000  O
  O180     1.0000 0.09485  0.78284  0.62378  Biso   1.000  O
  O181     1.0000 0.99026  0.76845  0.52701  Biso   1.000  O
  O182     1.0000 0.97833  0.70708  0.52656  Biso   1.000  O
  Zn27     1.0000 0.63276  0.58392  0.10986  Biso   1.000  Zn
  Zn28     1.0000 0.67682  0.61211  0.14634  Biso   1.000  Zn
  O183     1.0000 0.59911  0.55825  0.08026  Biso   1.000  O
  H339     1.0000 0.58010  0.57060  0.07810  Biso   1.000  H
  O184     1.0000 0.71152  0.63525  0.17603  Biso   1.000  O
  H340     1.0000 0.70470  0.65660  0.17930  Biso   1.000  H
  O185     1.0000 0.59627  0.77449  0.02729  Biso   1.000  O
  O186     1.0000 0.63827  0.63305  0.09334  Biso   1.000  O
  O187     1.0000 0.58453  0.71363  0.02693  Biso   1.000  O
  O188     1.0000 0.67294  0.65758  0.12518  Biso   1.000  O
  C625     1.0000 0.64274  0.76736  0.06999  Biso   1.000  C
  H341     1.0000 0.63970  0.79100  0.06290  Biso   1.000  H
  C626     1.0000 0.62566  0.73654  0.05900  Biso   1.000  C
  C627     1.0000 0.59949  0.74241  0.03592  Biso   1.000  C
  C628     1.0000 0.63035  0.70110  0.06946  Biso   1.000  C
  H342     1.0000 0.61910  0.68060  0.06160  Biso   1.000  H
  N131     1.0000 0.68089  0.79399  0.10458  Biso   1.000  N
  C629     1.0000 0.65200  0.69658  0.09176  Biso   1.000  C
  C630     1.0000 0.65444  0.65896  0.10523  Biso   1.000  C
  C631     1.0000 0.66916  0.72735  0.10321  Biso   1.000  C
  H343     1.0000 0.68350  0.72460  0.11820  Biso   1.000  H
  C632     1.0000 0.66447  0.76179  0.09190  Biso   1.000  C
  C633     1.0000 0.66826  0.82863  0.10510  Biso   1.000  C
  H344     1.0000 0.64660  0.83770  0.09750  Biso   1.000  H
  N132     1.0000 0.71459  0.79065  0.11622  Biso   1.000  N
  C634     1.0000 0.69376  0.84784  0.11906  Biso   1.000  C
  C635     1.0000 0.69537  0.88701  0.12700  Biso   1.000  C
  N133     1.0000 0.72199  0.82391  0.12489  Biso   1.000  N
  C636     1.0000 0.66494  0.90792  0.12555  Biso   1.000  C
  H345     1.0000 0.64330  0.89760  0.11880  Biso   1.000  H
  C637     1.0000 0.72800  0.90371  0.13445  Biso   1.000  C
  H346     1.0000 0.75050  0.89090  0.13400  Biso   1.000  H
  C638     1.0000 0.72620  0.94039  0.14272  Biso   1.000  C
  H347     1.0000 0.74810  0.95160  0.14840  Biso   1.000  H
  C639     1.0000 0.66450  0.94485  0.13393  Biso   1.000  C
  H348     1.0000 0.64250  0.95840  0.13310  Biso   1.000  H
  C640     1.0000 0.69480  0.96080  0.14301  Biso   1.000  C
  N134     1.0000 0.69555  0.99904  0.15085  Biso   1.000  N
  C641     1.0000 0.71600  0.00976  0.17282  Biso   1.000  C
  C642     1.0000 0.72050  0.98919  0.19316  Biso   1.000  C
  H349     1.0000 0.70930  0.96580  0.19300  Biso   1.000  H
  C643     1.0000 0.73600  0.04091  0.17230  Biso   1.000  C
  H350     1.0000 0.73530  0.05630  0.15780  Biso   1.000  H
  C644     1.0000 0.67320  0.02514  0.13769  Biso   1.000  C
  C645     1.0000 0.66230  0.05552  0.14763  Biso   1.000  C
  H351     1.0000 0.67020  0.06090  0.16450  Biso   1.000  H
  C646     1.0000 0.74055  0.99872  0.21541  Biso   1.000  C
  H352     1.0000 0.74120  0.98270  0.22960  Biso   1.000  H
  C647     1.0000 0.75800  0.02967  0.21602  Biso   1.000  C
  C648     1.0000 0.75840  0.05051  0.19393  Biso   1.000  C
  H353     1.0000 0.77360  0.07140  0.19300  Biso   1.000  H
  C649     1.0000 0.63060  0.07820  0.11149  Biso   1.000  C
  C650     1.0000 0.63900  0.08210  0.13519  Biso   1.000  C
  H354     1.0000 0.62990  0.10240  0.14450  Biso   1.000  H
  C651     1.0000 0.65110  0.05179  0.09675  Biso   1.000  C
  H355     1.0000 0.65270  0.05300  0.07870  Biso   1.000  H
  C652     1.0000 0.66930  0.02325  0.11149  Biso   1.000  C
  H356     1.0000 0.67880  0.00270  0.10270  Biso   1.000  H
  N135     1.0000 0.81126  0.04429  0.27435  Biso   1.000  N
  C653     1.0000 0.79141  0.02222  0.25980  Biso   1.000  C
  H357     1.0000 0.78540  0.99770  0.26380  Biso   1.000  H
  C654     1.0000 0.78120  0.03985  0.23859  Biso   1.000  C
  N136     1.0000 0.57812  0.15430  0.08442  Biso   1.000  N
  C655     1.0000 0.59842  0.14113  0.10353  Biso   1.000  C
  H358     1.0000 0.60560  0.15410  0.11840  Biso   1.000  H
  N137     1.0000 0.57851  0.12958  0.06395  Biso   1.000  N
  N138     1.0000 0.59680  0.09977  0.07270  Biso   1.000  N
  C656     1.0000 0.60690  0.10670  0.09814  Biso   1.000  C
  N139     1.0000 0.81700  0.07495  0.26110  Biso   1.000  N
  N140     1.0000 0.79850  0.07282  0.23961  Biso   1.000  N
  C657     1.0000 0.84656  0.99999  0.33451  Biso   1.000  C
  C658     1.0000 0.82914  0.00436  0.31016  Biso   1.000  C
  H359     1.0000 0.81810  0.98420  0.30180  Biso   1.000  H
  C659     1.0000 0.84464  0.06990  0.31080  Biso   1.000  C
  H360     1.0000 0.84330  0.09330  0.30300  Biso   1.000  H
  C660     1.0000 0.82883  0.03964  0.29894  Biso   1.000  C
  C661     1.0000 0.53748  0.26070  0.06859  Biso   1.000  C
  H361     1.0000 0.52980  0.28460  0.06410  Biso   1.000  H
  C662     1.0000 0.56255  0.25550  0.08854  Biso   1.000  C
  C663     1.0000 0.52360  0.22981  0.05510  Biso   1.000  C
  C664     1.0000 0.57572  0.22050  0.09423  Biso   1.000  C
  H362     1.0000 0.59290  0.21700  0.10760  Biso   1.000  H
  C665     1.0000 0.53642  0.19503  0.06074  Biso   1.000  C
  H363     1.0000 0.52720  0.17450  0.05170  Biso   1.000  H
  C666     1.0000 0.56289  0.19032  0.07972  Biso   1.000  C
  C667     1.0000 0.87895  0.09892  0.34802  Biso   1.000  C
  C668     1.0000 0.84587  0.96312  0.34830  Biso   1.000  C
  C669     1.0000 0.86334  0.03049  0.34597  Biso   1.000  C
  H364     1.0000 0.87540  0.02760  0.36190  Biso   1.000  H
  C670     1.0000 0.86260  0.06549  0.33431  Biso   1.000  C
  C671     1.0000 0.57598  0.28888  0.10371  Biso   1.000  C
  C672     1.0000 0.49394  0.23582  0.03422  Biso   1.000  C
  O189     1.0000 0.86580  0.96005  0.36776  Biso   1.000  O
  O190     1.0000 0.89561  0.09183  0.36890  Biso   1.000  O
  O191     1.0000 0.82668  0.93774  0.33833  Biso   1.000  O
  O192     1.0000 0.87440  0.12934  0.33721  Biso   1.000  O
  O193     1.0000 0.56860  0.32027  0.09447  Biso   1.000  O
  O194     1.0000 0.59485  0.28284  0.12378  Biso   1.000  O
  O195     1.0000 0.49026  0.26845  0.02701  Biso   1.000  O
  O196     1.0000 0.47833  0.20708  0.02656  Biso   1.000  O
  Zn29     1.0000 0.86724  0.91608  0.60986  Biso   1.000  Zn
  Zn30     1.0000 0.82318  0.88789  0.64634  Biso   1.000  Zn
  O197     1.0000 0.90089  0.94175  0.58026  Biso   1.000  O
  H365     1.0000 0.91990  0.92940  0.57810  Biso   1.000  H
  O198     1.0000 0.78848  0.86475  0.67603  Biso   1.000  O
  H366     1.0000 0.79530  0.84340  0.67930  Biso   1.000  H
  O199     1.0000 0.90373  0.72551  0.52729  Biso   1.000  O
  O200     1.0000 0.86173  0.86695  0.59334  Biso   1.000  O
  O201     1.0000 0.91547  0.78637  0.52693  Biso   1.000  O
  O202     1.0000 0.82706  0.84242  0.62518  Biso   1.000  O
  C673     1.0000 0.85726  0.73264  0.56999  Biso   1.000  C
  H367     1.0000 0.86030  0.70900  0.56290  Biso   1.000  H
  C674     1.0000 0.87434  0.76346  0.55900  Biso   1.000  C
  C675     1.0000 0.90051  0.75759  0.53592  Biso   1.000  C
  C676     1.0000 0.86965  0.79890  0.56946  Biso   1.000  C
  H368     1.0000 0.88090  0.81940  0.56160  Biso   1.000  H
  N141     1.0000 0.81911  0.70601  0.60458  Biso   1.000  N
  C677     1.0000 0.84800  0.80342  0.59176  Biso   1.000  C
  C678     1.0000 0.84556  0.84104  0.60523  Biso   1.000  C
  C679     1.0000 0.83084  0.77265  0.60321  Biso   1.000  C
  H369     1.0000 0.81650  0.77540  0.61820  Biso   1.000  H
  C680     1.0000 0.83553  0.73821  0.59190  Biso   1.000  C
  C681     1.0000 0.83174  0.67137  0.60510  Biso   1.000  C
  H370     1.0000 0.85340  0.66230  0.59750  Biso   1.000  H
  N142     1.0000 0.78541  0.70935  0.61622  Biso   1.000  N
  C682     1.0000 0.80624  0.65216  0.61906  Biso   1.000  C
  C683     1.0000 0.80463  0.61299  0.62700  Biso   1.000  C
  N143     1.0000 0.77801  0.67609  0.62489  Biso   1.000  N
  C684     1.0000 0.83506  0.59208  0.62555  Biso   1.000  C
  H371     1.0000 0.85670  0.60240  0.61880  Biso   1.000  H
  C685     1.0000 0.77200  0.59629  0.63445  Biso   1.000  C
  H372     1.0000 0.74950  0.60910  0.63400  Biso   1.000  H
  C686     1.0000 0.77380  0.55961  0.64272  Biso   1.000  C
  H373     1.0000 0.75190  0.54840  0.64840  Biso   1.000  H
  C687     1.0000 0.83550  0.55515  0.63393  Biso   1.000  C
  H374     1.0000 0.85750  0.54160  0.63310  Biso   1.000  H
  C688     1.0000 0.80520  0.53920  0.64301  Biso   1.000  C
  N144     1.0000 0.80445  0.50096  0.65085  Biso   1.000  N
  C689     1.0000 0.78400  0.49024  0.67282  Biso   1.000  C
  C690     1.0000 0.77950  0.51081  0.69316  Biso   1.000  C
  H375     1.0000 0.79070  0.53420  0.69300  Biso   1.000  H
  C691     1.0000 0.76400  0.45909  0.67230  Biso   1.000  C
  H376     1.0000 0.76470  0.44370  0.65780  Biso   1.000  H
  C692     1.0000 0.82680  0.47486  0.63769  Biso   1.000  C
  C693     1.0000 0.83770  0.44448  0.64763  Biso   1.000  C
  H377     1.0000 0.82980  0.43910  0.66450  Biso   1.000  H
  C694     1.0000 0.75945  0.50128  0.71541  Biso   1.000  C
  H378     1.0000 0.75880  0.51730  0.72960  Biso   1.000  H
  C695     1.0000 0.74200  0.47033  0.71602  Biso   1.000  C
  C696     1.0000 0.74160  0.44949  0.69393  Biso   1.000  C
  H379     1.0000 0.72640  0.42860  0.69300  Biso   1.000  H
  C697     1.0000 0.86940  0.42180  0.61149  Biso   1.000  C
  C698     1.0000 0.86100  0.41790  0.63519  Biso   1.000  C
  H380     1.0000 0.87010  0.39760  0.64450  Biso   1.000  H
  C699     1.0000 0.84890  0.44821  0.59675  Biso   1.000  C
  H381     1.0000 0.84730  0.44700  0.57870  Biso   1.000  H
  C700     1.0000 0.83070  0.47675  0.61149  Biso   1.000  C
  H382     1.0000 0.82120  0.49730  0.60270  Biso   1.000  H
  N145     1.0000 0.68874  0.45571  0.77435  Biso   1.000  N
  C701     1.0000 0.70859  0.47778  0.75980  Biso   1.000  C
  H383     1.0000 0.71460  0.50230  0.76380  Biso   1.000  H
  C702     1.0000 0.71880  0.46015  0.73859  Biso   1.000  C
  N146     1.0000 0.92188  0.34570  0.58442  Biso   1.000  N
  C703     1.0000 0.90158  0.35887  0.60353  Biso   1.000  C
  H384     1.0000 0.89440  0.34590  0.61840  Biso   1.000  H
  N147     1.0000 0.92149  0.37042  0.56395  Biso   1.000  N
  N148     1.0000 0.90320  0.40023  0.57270  Biso   1.000  N
  C704     1.0000 0.89310  0.39330  0.59814  Biso   1.000  C
  N149     1.0000 0.68300  0.42505  0.76110  Biso   1.000  N
  N150     1.0000 0.70150  0.42718  0.73961  Biso   1.000  N
  C705     1.0000 0.65344  0.50001  0.83451  Biso   1.000  C
  C706     1.0000 0.67086  0.49564  0.81016  Biso   1.000  C
  H385     1.0000 0.68190  0.51580  0.80180  Biso   1.000  H
  C707     1.0000 0.65536  0.43010  0.81080  Biso   1.000  C
  H386     1.0000 0.65670  0.40670  0.80300  Biso   1.000  H
  C708     1.0000 0.67117  0.46036  0.79894  Biso   1.000  C
  C709     1.0000 0.96252  0.23930  0.56859  Biso   1.000  C
  H387     1.0000 0.97020  0.21540  0.56410  Biso   1.000  H
  C710     1.0000 0.93745  0.24450  0.58854  Biso   1.000  C
  C711     1.0000 0.97640  0.27019  0.55510  Biso   1.000  C
  C712     1.0000 0.92428  0.27950  0.59423  Biso   1.000  C
  H388     1.0000 0.90710  0.28300  0.60760  Biso   1.000  H
  C713     1.0000 0.96358  0.30497  0.56074  Biso   1.000  C
  H389     1.0000 0.97280  0.32550  0.55170  Biso   1.000  H
  C714     1.0000 0.93711  0.30968  0.57972  Biso   1.000  C
  C715     1.0000 0.62105  0.40108  0.84802  Biso   1.000  C
  C716     1.0000 0.65413  0.53688  0.84830  Biso   1.000  C
  C717     1.0000 0.63666  0.46951  0.84597  Biso   1.000  C
  H390     1.0000 0.62460  0.47240  0.86190  Biso   1.000  H
  C718     1.0000 0.63740  0.43451  0.83431  Biso   1.000  C
  C719     1.0000 0.92402  0.21112  0.60371  Biso   1.000  C
  C720     1.0000 0.00606  0.26418  0.53422  Biso   1.000  C
  O203     1.0000 0.63420  0.53995  0.86776  Biso   1.000  O
  O204     1.0000 0.60439  0.40817  0.86890  Biso   1.000  O
  O205     1.0000 0.67332  0.56226  0.83833  Biso   1.000  O
  O206     1.0000 0.62560  0.37066  0.83721  Biso   1.000  O
  O207     1.0000 0.93140  0.17973  0.59447  Biso   1.000  O
  O208     1.0000 0.90515  0.21716  0.62378  Biso   1.000  O
  O209     1.0000 0.00974  0.23155  0.52701  Biso   1.000  O
  O210     1.0000 0.02167  0.29292  0.52656  Biso   1.000  O
  Zn31     1.0000 0.36724  0.41608  0.10986  Biso   1.000  Zn
  Zn32     1.0000 0.32318  0.38789  0.14634  Biso   1.000  Zn
  O211     1.0000 0.40089  0.44175  0.08026  Biso   1.000  O
  H391     1.0000 0.41990  0.42940  0.07810  Biso   1.000  H
  O212     1.0000 0.28848  0.36475  0.17603  Biso   1.000  O
  H392     1.0000 0.29530  0.34340  0.17930  Biso   1.000  H
  O213     1.0000 0.40373  0.22551  0.02729  Biso   1.000  O
  O214     1.0000 0.36173  0.36695  0.09334  Biso   1.000  O
  O215     1.0000 0.41547  0.28637  0.02693  Biso   1.000  O
  O216     1.0000 0.32706  0.34242  0.12518  Biso   1.000  O
  C721     1.0000 0.35726  0.23264  0.06999  Biso   1.000  C
  H393     1.0000 0.36030  0.20900  0.06290  Biso   1.000  H
  C722     1.0000 0.37434  0.26346  0.05900  Biso   1.000  C
  C723     1.0000 0.40051  0.25759  0.03592  Biso   1.000  C
  C724     1.0000 0.36965  0.29890  0.06946  Biso   1.000  C
  H394     1.0000 0.38090  0.31940  0.06160  Biso   1.000  H
  N151     1.0000 0.31911  0.20601  0.10458  Biso   1.000  N
  C725     1.0000 0.34800  0.30342  0.09176  Biso   1.000  C
  C726     1.0000 0.34556  0.34104  0.10523  Biso   1.000  C
  C727     1.0000 0.33084  0.27265  0.10321  Biso   1.000  C
  H395     1.0000 0.31650  0.27540  0.11820  Biso   1.000  H
  C728     1.0000 0.33553  0.23821  0.09190  Biso   1.000  C
  C729     1.0000 0.33174  0.17137  0.10510  Biso   1.000  C
  H396     1.0000 0.35340  0.16230  0.09750  Biso   1.000  H
  N152     1.0000 0.28541  0.20935  0.11622  Biso   1.000  N
  C730     1.0000 0.30624  0.15216  0.11906  Biso   1.000  C
  C731     1.0000 0.30463  0.11299  0.12700  Biso   1.000  C
  N153     1.0000 0.27801  0.17609  0.12489  Biso   1.000  N
  C732     1.0000 0.33506  0.09208  0.12555  Biso   1.000  C
  H397     1.0000 0.35670  0.10240  0.11880  Biso   1.000  H
  C733     1.0000 0.27200  0.09629  0.13445  Biso   1.000  C
  H398     1.0000 0.24950  0.10910  0.13400  Biso   1.000  H
  C734     1.0000 0.27380  0.05961  0.14272  Biso   1.000  C
  H399     1.0000 0.25190  0.04840  0.14840  Biso   1.000  H
  C735     1.0000 0.33550  0.05515  0.13393  Biso   1.000  C
  H400     1.0000 0.35750  0.04160  0.13310  Biso   1.000  H
  C736     1.0000 0.30520  0.03920  0.14301  Biso   1.000  C
  N154     1.0000 0.30445  0.00096  0.15085  Biso   1.000  N
  C737     1.0000 0.28400  0.99024  0.17282  Biso   1.000  C
  C738     1.0000 0.27950  0.01081  0.19316  Biso   1.000  C
  H401     1.0000 0.29070  0.03420  0.19300  Biso   1.000  H
  C739     1.0000 0.26400  0.95909  0.17230  Biso   1.000  C
  H402     1.0000 0.26470  0.94370  0.15780  Biso   1.000  H
  C740     1.0000 0.32680  0.97486  0.13769  Biso   1.000  C
  C741     1.0000 0.33770  0.94448  0.14763  Biso   1.000  C
  H403     1.0000 0.32980  0.93910  0.16450  Biso   1.000  H
  C742     1.0000 0.25945  0.00128  0.21541  Biso   1.000  C
  H404     1.0000 0.25880  0.01730  0.22960  Biso   1.000  H
  C743     1.0000 0.24200  0.97033  0.21602  Biso   1.000  C
  C744     1.0000 0.24160  0.94949  0.19393  Biso   1.000  C
  H405     1.0000 0.22640  0.92860  0.19300  Biso   1.000  H
  C745     1.0000 0.36940  0.92180  0.11149  Biso   1.000  C
  C746     1.0000 0.36100  0.91790  0.13519  Biso   1.000  C
  H406     1.0000 0.37010  0.89760  0.14450  Biso   1.000  H
  C747     1.0000 0.34890  0.94821  0.09675  Biso   1.000  C
  H407     1.0000 0.34730  0.94700  0.07870  Biso   1.000  H
  C748     1.0000 0.33070  0.97675  0.11149  Biso   1.000  C
  H408     1.0000 0.32120  0.99730  0.10270  Biso   1.000  H
  N155     1.0000 0.18874  0.95571  0.27435  Biso   1.000  N
  C749     1.0000 0.20859  0.97778  0.25980  Biso   1.000  C
  H409     1.0000 0.21460  0.00230  0.26380  Biso   1.000  H
  C750     1.0000 0.21880  0.96015  0.23859  Biso   1.000  C
  N156     1.0000 0.42188  0.84570  0.08442  Biso   1.000  N
  C751     1.0000 0.40158  0.85887  0.10353  Biso   1.000  C
  H410     1.0000 0.39440  0.84590  0.11840  Biso   1.000  H
  N157     1.0000 0.42149  0.87042  0.06395  Biso   1.000  N
  N158     1.0000 0.40320  0.90023  0.07270  Biso   1.000  N
  C752     1.0000 0.39310  0.89330  0.09814  Biso   1.000  C
  N159     1.0000 0.18300  0.92505  0.26110  Biso   1.000  N
  N160     1.0000 0.20150  0.92718  0.23961  Biso   1.000  N
  C753     1.0000 0.15344  0.00001  0.33451  Biso   1.000  C
  C754     1.0000 0.17086  0.99564  0.31016  Biso   1.000  C
  H411     1.0000 0.18190  0.01580  0.30180  Biso   1.000  H
  C755     1.0000 0.15536  0.93010  0.31080  Biso   1.000  C
  H412     1.0000 0.15670  0.90670  0.30300  Biso   1.000  H
  C756     1.0000 0.17117  0.96036  0.29894  Biso   1.000  C
  C757     1.0000 0.46252  0.73930  0.06859  Biso   1.000  C
  H413     1.0000 0.47020  0.71540  0.06410  Biso   1.000  H
  C758     1.0000 0.43745  0.74450  0.08854  Biso   1.000  C
  C759     1.0000 0.47640  0.77019  0.05510  Biso   1.000  C
  C760     1.0000 0.42428  0.77950  0.09423  Biso   1.000  C
  H414     1.0000 0.40710  0.78300  0.10760  Biso   1.000  H
  C761     1.0000 0.46358  0.80497  0.06074  Biso   1.000  C
  H415     1.0000 0.47280  0.82550  0.05170  Biso   1.000  H
  C762     1.0000 0.43711  0.80968  0.07972  Biso   1.000  C
  C763     1.0000 0.12105  0.90108  0.34802  Biso   1.000  C
  C764     1.0000 0.15413  0.03688  0.34830  Biso   1.000  C
  C765     1.0000 0.13666  0.96951  0.34597  Biso   1.000  C
  H416     1.0000 0.12460  0.97240  0.36190  Biso   1.000  H
  C766     1.0000 0.13740  0.93451  0.33431  Biso   1.000  C
  C767     1.0000 0.42402  0.71112  0.10371  Biso   1.000  C
  C768     1.0000 0.50606  0.76418  0.03422  Biso   1.000  C
  O217     1.0000 0.13420  0.03995  0.36776  Biso   1.000  O
  O218     1.0000 0.10439  0.90817  0.36890  Biso   1.000  O
  O219     1.0000 0.17332  0.06226  0.33833  Biso   1.000  O
  O220     1.0000 0.12560  0.87066  0.33721  Biso   1.000  O
  O221     1.0000 0.43140  0.67973  0.09447  Biso   1.000  O
  O222     1.0000 0.40515  0.71716  0.12378  Biso   1.000  O
  O223     1.0000 0.50974  0.73155  0.02701  Biso   1.000  O
  O224     1.0000 0.52167  0.79292  0.02656  Biso   1.000  O
  Zn33     1.0000 0.78322  0.04638  0.50000  Biso   1.000  Zn
  Zn34     1.0000 0.71078  0.06146  0.50000  Biso   1.000  Zn
  Zn35     1.0000 0.28322  0.54638  0.00000  Biso   1.000  Zn
  Zn36     1.0000 0.21078  0.56146  0.00000  Biso   1.000  Zn
  Zn37     1.0000 0.21678  0.95362  0.50000  Biso   1.000  Zn
  Zn38     1.0000 0.28922  0.93854  0.50000  Biso   1.000  Zn
  Zn39     1.0000 0.71678  0.45362  0.00000  Biso   1.000  Zn
  Zn40     1.0000 0.78922  0.43854  0.00000  Biso   1.000  Zn
  Zn41     1.0000 0.95362  0.78322  0.50000  Biso   1.000  Zn
  Zn42     1.0000 0.93854  0.71078  0.50000  Biso   1.000  Zn
  Zn43     1.0000 0.45362  0.28322  0.00000  Biso   1.000  Zn
  Zn44     1.0000 0.43854  0.21078  0.00000  Biso   1.000  Zn
  Zn45     1.0000 0.04638  0.21678  0.50000  Biso   1.000  Zn
  Zn46     1.0000 0.06146  0.28922  0.50000  Biso   1.000  Zn
  Zn47     1.0000 0.54638  0.71678  0.00000  Biso   1.000  Zn
  Zn48     1.0000 0.56146  0.78922  0.00000  Biso   1.000  Zn
