data_image0
_cell_length_a       51.363
_cell_length_b       51.363
_cell_length_c       51.363
_cell_angle_alpha    90
_cell_angle_beta     90
_cell_angle_gamma    90

_symmetry_space_group_name_H-M    "P 1"
_symmetry_int_tables_number       1

loop_
  _symmetry_equiv_pos_as_xyz
  'x, y, z'

loop_
  _atom_site_label
  _atom_site_occupancy
  _atom_site_fract_x
  _atom_site_fract_y
  _atom_site_fract_z
  _atom_site_thermal_displace_type
  _atom_site_B_iso_or_equiv
  _atom_site_type_symbol
  Al1      1.0000 0.13380  0.32990  0.28050  Biso   1.000  Al
  Al2      1.0000 0.03840  0.35580  0.31120  Biso   1.000  Al
  Al3      1.0000 0.09530  0.36160  0.22240  Biso   1.000  Al
  P1       1.0000 0.08880  0.37040  0.28110  Biso   1.000  P
  P2       1.0000 0.13470  0.31620  0.22080  Biso   1.000  P
  P3       1.0000 0.04600  0.35170  0.18830  Biso   1.000  P
  O1       1.0000 0.08090  0.37390  0.25040  Biso   1.000  O
  O2       1.0000 0.11410  0.38730  0.28700  Biso   1.000  O
  O3       1.0000 0.10170  0.34090  0.28130  Biso   1.000  O
  O4       1.0000 0.06590  0.37120  0.29880  Biso   1.000  O
  O5       1.0000 0.13510  0.30930  0.25320  Biso   1.000  O
  O6       1.0000 0.13460  0.29710  0.19960  Biso   1.000  O
  O7       1.0000 0.15730  0.33650  0.21810  Biso   1.000  O
  O8       1.0000 0.02830  0.33680  0.28590  Biso   1.000  O
  O9       1.0000 0.05540  0.33040  0.16780  Biso   1.000  O
  O10      1.0000 0.02660  0.38200  0.33000  Biso   1.000  O
  O11      1.0000 0.10650  0.32950  0.21710  Biso   1.000  O
  O12      1.0000 0.07340  0.36610  0.19960  Biso   1.000  O
  O13      1.0000 0.03050  0.34130  0.21170  Biso   1.000  O
  O14      1.0000 0.02790  0.37250  0.17830  Biso   1.000  O
  Al4      1.0000 0.13380  0.82990  0.78050  Biso   1.000  Al
  Al5      1.0000 0.03840  0.85580  0.81120  Biso   1.000  Al
  Al6      1.0000 0.09530  0.86160  0.72240  Biso   1.000  Al
  P4       1.0000 0.08880  0.87040  0.78110  Biso   1.000  P
  P5       1.0000 0.13470  0.81620  0.72080  Biso   1.000  P
  P6       1.0000 0.04600  0.85170  0.68830  Biso   1.000  P
  O15      1.0000 0.08090  0.87390  0.75040  Biso   1.000  O
  O16      1.0000 0.11410  0.88730  0.78700  Biso   1.000  O
  O17      1.0000 0.10170  0.84090  0.78130  Biso   1.000  O
  O18      1.0000 0.06590  0.87120  0.79880  Biso   1.000  O
  O19      1.0000 0.13510  0.80930  0.75320  Biso   1.000  O
  O20      1.0000 0.13460  0.79710  0.69960  Biso   1.000  O
  O21      1.0000 0.15730  0.83650  0.71810  Biso   1.000  O
  O22      1.0000 0.02830  0.83680  0.78590  Biso   1.000  O
  O23      1.0000 0.05540  0.83040  0.66780  Biso   1.000  O
  O24      1.0000 0.02660  0.88200  0.83000  Biso   1.000  O
  O25      1.0000 0.10650  0.82950  0.71710  Biso   1.000  O
  O26      1.0000 0.07340  0.86610  0.69960  Biso   1.000  O
  O27      1.0000 0.03050  0.84130  0.71170  Biso   1.000  O
  O28      1.0000 0.02790  0.87250  0.67830  Biso   1.000  O
  Al7      1.0000 0.63380  0.32990  0.78050  Biso   1.000  Al
  Al8      1.0000 0.53840  0.35580  0.81120  Biso   1.000  Al
  Al9      1.0000 0.59530  0.36160  0.72240  Biso   1.000  Al
  P7       1.0000 0.58880  0.37040  0.78110  Biso   1.000  P
  P8       1.0000 0.63470  0.31620  0.72080  Biso   1.000  P
  P9       1.0000 0.54600  0.35170  0.68830  Biso   1.000  P
  O29      1.0000 0.58090  0.37390  0.75040  Biso   1.000  O
  O30      1.0000 0.61410  0.38730  0.78700  Biso   1.000  O
  O31      1.0000 0.60170  0.34090  0.78130  Biso   1.000  O
  O32      1.0000 0.56590  0.37120  0.79880  Biso   1.000  O
  O33      1.0000 0.63510  0.30930  0.75320  Biso   1.000  O
  O34      1.0000 0.63460  0.29710  0.69960  Biso   1.000  O
  O35      1.0000 0.65730  0.33650  0.71810  Biso   1.000  O
  O36      1.0000 0.52830  0.33680  0.78590  Biso   1.000  O
  O37      1.0000 0.55540  0.33040  0.66780  Biso   1.000  O
  O38      1.0000 0.52660  0.38200  0.83000  Biso   1.000  O
  O39      1.0000 0.60650  0.32950  0.71710  Biso   1.000  O
  O40      1.0000 0.57340  0.36610  0.69960  Biso   1.000  O
  O41      1.0000 0.53050  0.34130  0.71170  Biso   1.000  O
  O42      1.0000 0.52790  0.37250  0.67830  Biso   1.000  O
  Al10     1.0000 0.63380  0.82990  0.28050  Biso   1.000  Al
  Al11     1.0000 0.53840  0.85580  0.31120  Biso   1.000  Al
  Al12     1.0000 0.59530  0.86160  0.22240  Biso   1.000  Al
  P10      1.0000 0.58880  0.87040  0.28110  Biso   1.000  P
  P11      1.0000 0.63470  0.81620  0.22080  Biso   1.000  P
  P12      1.0000 0.54600  0.85170  0.18830  Biso   1.000  P
  O43      1.0000 0.58090  0.87390  0.25040  Biso   1.000  O
  O44      1.0000 0.61410  0.88730  0.28700  Biso   1.000  O
  O45      1.0000 0.60170  0.84090  0.28130  Biso   1.000  O
  O46      1.0000 0.56590  0.87120  0.29880  Biso   1.000  O
  O47      1.0000 0.63510  0.80930  0.25320  Biso   1.000  O
  O48      1.0000 0.63460  0.79710  0.19960  Biso   1.000  O
  O49      1.0000 0.65730  0.83650  0.21810  Biso   1.000  O
  O50      1.0000 0.52830  0.83680  0.28590  Biso   1.000  O
  O51      1.0000 0.55540  0.83040  0.16780  Biso   1.000  O
  O52      1.0000 0.52660  0.88200  0.33000  Biso   1.000  O
  O53      1.0000 0.60650  0.82950  0.21710  Biso   1.000  O
  O54      1.0000 0.57340  0.86610  0.19960  Biso   1.000  O
  O55      1.0000 0.53050  0.84130  0.21170  Biso   1.000  O
  O56      1.0000 0.52790  0.87250  0.17830  Biso   1.000  O
  Al13     1.0000 0.86620  0.67010  0.28050  Biso   1.000  Al
  Al14     1.0000 0.96160  0.64420  0.31120  Biso   1.000  Al
  Al15     1.0000 0.90470  0.63840  0.22240  Biso   1.000  Al
  P13      1.0000 0.91120  0.62960  0.28110  Biso   1.000  P
  P14      1.0000 0.86530  0.68380  0.22080  Biso   1.000  P
  P15      1.0000 0.95400  0.64830  0.18830  Biso   1.000  P
  O57      1.0000 0.91910  0.62610  0.25040  Biso   1.000  O
  O58      1.0000 0.88590  0.61270  0.28700  Biso   1.000  O
  O59      1.0000 0.89830  0.65910  0.28130  Biso   1.000  O
  O60      1.0000 0.93410  0.62880  0.29880  Biso   1.000  O
  O61      1.0000 0.86490  0.69070  0.25320  Biso   1.000  O
  O62      1.0000 0.86540  0.70290  0.19960  Biso   1.000  O
  O63      1.0000 0.84270  0.66350  0.21810  Biso   1.000  O
  O64      1.0000 0.97170  0.66320  0.28590  Biso   1.000  O
  O65      1.0000 0.94460  0.66960  0.16780  Biso   1.000  O
  O66      1.0000 0.97340  0.61800  0.33000  Biso   1.000  O
  O67      1.0000 0.89350  0.67050  0.21710  Biso   1.000  O
  O68      1.0000 0.92660  0.63390  0.19960  Biso   1.000  O
  O69      1.0000 0.96950  0.65870  0.21170  Biso   1.000  O
  O70      1.0000 0.97210  0.62750  0.17830  Biso   1.000  O
  Al16     1.0000 0.86620  0.17010  0.78050  Biso   1.000  Al
  Al17     1.0000 0.96160  0.14420  0.81120  Biso   1.000  Al
  Al18     1.0000 0.90470  0.13840  0.72240  Biso   1.000  Al
  P16      1.0000 0.91120  0.12960  0.78110  Biso   1.000  P
  P17      1.0000 0.86530  0.18380  0.72080  Biso   1.000  P
  P18      1.0000 0.95400  0.14830  0.68830  Biso   1.000  P
  O71      1.0000 0.91910  0.12610  0.75040  Biso   1.000  O
  O72      1.0000 0.88590  0.11270  0.78700  Biso   1.000  O
  O73      1.0000 0.89830  0.15910  0.78130  Biso   1.000  O
  O74      1.0000 0.93410  0.12880  0.79880  Biso   1.000  O
  O75      1.0000 0.86490  0.19070  0.75320  Biso   1.000  O
  O76      1.0000 0.86540  0.20290  0.69960  Biso   1.000  O
  O77      1.0000 0.84270  0.16350  0.71810  Biso   1.000  O
  O78      1.0000 0.97170  0.16320  0.78590  Biso   1.000  O
  O79      1.0000 0.94460  0.16960  0.66780  Biso   1.000  O
  O80      1.0000 0.97340  0.11800  0.83000  Biso   1.000  O
  O81      1.0000 0.89350  0.17050  0.71710  Biso   1.000  O
  O82      1.0000 0.92660  0.13390  0.69960  Biso   1.000  O
  O83      1.0000 0.96950  0.15870  0.71170  Biso   1.000  O
  O84      1.0000 0.97210  0.12750  0.67830  Biso   1.000  O
  Al19     1.0000 0.36620  0.67010  0.78050  Biso   1.000  Al
  Al20     1.0000 0.46160  0.64420  0.81120  Biso   1.000  Al
  Al21     1.0000 0.40470  0.63840  0.72240  Biso   1.000  Al
  P19      1.0000 0.41120  0.62960  0.78110  Biso   1.000  P
  P20      1.0000 0.36530  0.68380  0.72080  Biso   1.000  P
  P21      1.0000 0.45400  0.64830  0.68830  Biso   1.000  P
  O85      1.0000 0.41910  0.62610  0.75040  Biso   1.000  O
  O86      1.0000 0.38590  0.61270  0.78700  Biso   1.000  O
  O87      1.0000 0.39830  0.65910  0.78130  Biso   1.000  O
  O88      1.0000 0.43410  0.62880  0.79880  Biso   1.000  O
  O89      1.0000 0.36490  0.69070  0.75320  Biso   1.000  O
  O90      1.0000 0.36540  0.70290  0.69960  Biso   1.000  O
  O91      1.0000 0.34270  0.66350  0.71810  Biso   1.000  O
  O92      1.0000 0.47170  0.66320  0.78590  Biso   1.000  O
  O93      1.0000 0.44460  0.66960  0.66780  Biso   1.000  O
  O94      1.0000 0.47340  0.61800  0.83000  Biso   1.000  O
  O95      1.0000 0.39350  0.67050  0.71710  Biso   1.000  O
  O96      1.0000 0.42660  0.63390  0.69960  Biso   1.000  O
  O97      1.0000 0.46950  0.65870  0.71170  Biso   1.000  O
  O98      1.0000 0.47210  0.62750  0.67830  Biso   1.000  O
  Al22     1.0000 0.36620  0.17010  0.28050  Biso   1.000  Al
  Al23     1.0000 0.46160  0.14420  0.31120  Biso   1.000  Al
  Al24     1.0000 0.40470  0.13840  0.22240  Biso   1.000  Al
  P22      1.0000 0.41120  0.12960  0.28110  Biso   1.000  P
  P23      1.0000 0.36530  0.18380  0.22080  Biso   1.000  P
  P24      1.0000 0.45400  0.14830  0.18830  Biso   1.000  P
  O99      1.0000 0.41910  0.12610  0.25040  Biso   1.000  O
  O100     1.0000 0.38590  0.11270  0.28700  Biso   1.000  O
  O101     1.0000 0.39830  0.15910  0.28130  Biso   1.000  O
  O102     1.0000 0.43410  0.12880  0.29880  Biso   1.000  O
  O103     1.0000 0.36490  0.19070  0.25320  Biso   1.000  O
  O104     1.0000 0.36540  0.20290  0.19960  Biso   1.000  O
  O105     1.0000 0.34270  0.16350  0.21810  Biso   1.000  O
  O106     1.0000 0.47170  0.16320  0.28590  Biso   1.000  O
  O107     1.0000 0.44460  0.16960  0.16780  Biso   1.000  O
  O108     1.0000 0.47340  0.11800  0.33000  Biso   1.000  O
  O109     1.0000 0.39350  0.17050  0.21710  Biso   1.000  O
  O110     1.0000 0.42660  0.13390  0.19960  Biso   1.000  O
  O111     1.0000 0.46950  0.15870  0.21170  Biso   1.000  O
  O112     1.0000 0.47210  0.12750  0.17830  Biso   1.000  O
  Al25     1.0000 0.86620  0.32990  0.71950  Biso   1.000  Al
  Al26     1.0000 0.96160  0.35580  0.68880  Biso   1.000  Al
  Al27     1.0000 0.90470  0.36160  0.77760  Biso   1.000  Al
  P25      1.0000 0.91120  0.37040  0.71890  Biso   1.000  P
  P26      1.0000 0.86530  0.31620  0.77920  Biso   1.000  P
  P27      1.0000 0.95400  0.35170  0.81170  Biso   1.000  P
  O113     1.0000 0.91910  0.37390  0.74960  Biso   1.000  O
  O114     1.0000 0.88590  0.38730  0.71300  Biso   1.000  O
  O115     1.0000 0.89830  0.34090  0.71870  Biso   1.000  O
  O116     1.0000 0.93410  0.37120  0.70120  Biso   1.000  O
  O117     1.0000 0.86490  0.30930  0.74680  Biso   1.000  O
  O118     1.0000 0.86540  0.29710  0.80040  Biso   1.000  O
  O119     1.0000 0.84270  0.33650  0.78190  Biso   1.000  O
  O120     1.0000 0.97170  0.33680  0.71410  Biso   1.000  O
  O121     1.0000 0.94460  0.33040  0.83220  Biso   1.000  O
  O122     1.0000 0.97340  0.38200  0.67000  Biso   1.000  O
  O123     1.0000 0.89350  0.32950  0.78290  Biso   1.000  O
  O124     1.0000 0.92660  0.36610  0.80040  Biso   1.000  O
  O125     1.0000 0.96950  0.34130  0.78830  Biso   1.000  O
  O126     1.0000 0.97210  0.37250  0.82170  Biso   1.000  O
  Al28     1.0000 0.86620  0.82990  0.21950  Biso   1.000  Al
  Al29     1.0000 0.96160  0.85580  0.18880  Biso   1.000  Al
  Al30     1.0000 0.90470  0.86160  0.27760  Biso   1.000  Al
  P28      1.0000 0.91120  0.87040  0.21890  Biso   1.000  P
  P29      1.0000 0.86530  0.81620  0.27920  Biso   1.000  P
  P30      1.0000 0.95400  0.85170  0.31170  Biso   1.000  P
  O127     1.0000 0.91910  0.87390  0.24960  Biso   1.000  O
  O128     1.0000 0.88590  0.88730  0.21300  Biso   1.000  O
  O129     1.0000 0.89830  0.84090  0.21870  Biso   1.000  O
  O130     1.0000 0.93410  0.87120  0.20120  Biso   1.000  O
  O131     1.0000 0.86490  0.80930  0.24680  Biso   1.000  O
  O132     1.0000 0.86540  0.79710  0.30040  Biso   1.000  O
  O133     1.0000 0.84270  0.83650  0.28190  Biso   1.000  O
  O134     1.0000 0.97170  0.83680  0.21410  Biso   1.000  O
  O135     1.0000 0.94460  0.83040  0.33220  Biso   1.000  O
  O136     1.0000 0.97340  0.88200  0.17000  Biso   1.000  O
  O137     1.0000 0.89350  0.82950  0.28290  Biso   1.000  O
  O138     1.0000 0.92660  0.86610  0.30040  Biso   1.000  O
  O139     1.0000 0.96950  0.84130  0.28830  Biso   1.000  O
  O140     1.0000 0.97210  0.87250  0.32170  Biso   1.000  O
  Al31     1.0000 0.36620  0.32990  0.21950  Biso   1.000  Al
  Al32     1.0000 0.46160  0.35580  0.18880  Biso   1.000  Al
  Al33     1.0000 0.40470  0.36160  0.27760  Biso   1.000  Al
  P31      1.0000 0.41120  0.37040  0.21890  Biso   1.000  P
  P32      1.0000 0.36530  0.31620  0.27920  Biso   1.000  P
  P33      1.0000 0.45400  0.35170  0.31170  Biso   1.000  P
  O141     1.0000 0.41910  0.37390  0.24960  Biso   1.000  O
  O142     1.0000 0.38590  0.38730  0.21300  Biso   1.000  O
  O143     1.0000 0.39830  0.34090  0.21870  Biso   1.000  O
  O144     1.0000 0.43410  0.37120  0.20120  Biso   1.000  O
  O145     1.0000 0.36490  0.30930  0.24680  Biso   1.000  O
  O146     1.0000 0.36540  0.29710  0.30040  Biso   1.000  O
  O147     1.0000 0.34270  0.33650  0.28190  Biso   1.000  O
  O148     1.0000 0.47170  0.33680  0.21410  Biso   1.000  O
  O149     1.0000 0.44460  0.33040  0.33220  Biso   1.000  O
  O150     1.0000 0.47340  0.38200  0.17000  Biso   1.000  O
  O151     1.0000 0.39350  0.32950  0.28290  Biso   1.000  O
  O152     1.0000 0.42660  0.36610  0.30040  Biso   1.000  O
  O153     1.0000 0.46950  0.34130  0.28830  Biso   1.000  O
  O154     1.0000 0.47210  0.37250  0.32170  Biso   1.000  O
  Al34     1.0000 0.36620  0.82990  0.71950  Biso   1.000  Al
  Al35     1.0000 0.46160  0.85580  0.68880  Biso   1.000  Al
  Al36     1.0000 0.40470  0.86160  0.77760  Biso   1.000  Al
  P34      1.0000 0.41120  0.87040  0.71890  Biso   1.000  P
  P35      1.0000 0.36530  0.81620  0.77920  Biso   1.000  P
  P36      1.0000 0.45400  0.85170  0.81170  Biso   1.000  P
  O155     1.0000 0.41910  0.87390  0.74960  Biso   1.000  O
  O156     1.0000 0.38590  0.88730  0.71300  Biso   1.000  O
  O157     1.0000 0.39830  0.84090  0.71870  Biso   1.000  O
  O158     1.0000 0.43410  0.87120  0.70120  Biso   1.000  O
  O159     1.0000 0.36490  0.80930  0.74680  Biso   1.000  O
  O160     1.0000 0.36540  0.79710  0.80040  Biso   1.000  O
  O161     1.0000 0.34270  0.83650  0.78190  Biso   1.000  O
  O162     1.0000 0.47170  0.83680  0.71410  Biso   1.000  O
  O163     1.0000 0.44460  0.83040  0.83220  Biso   1.000  O
  O164     1.0000 0.47340  0.88200  0.67000  Biso   1.000  O
  O165     1.0000 0.39350  0.82950  0.78290  Biso   1.000  O
  O166     1.0000 0.42660  0.86610  0.80040  Biso   1.000  O
  O167     1.0000 0.46950  0.84130  0.78830  Biso   1.000  O
  O168     1.0000 0.47210  0.87250  0.82170  Biso   1.000  O
  Al37     1.0000 0.13380  0.67010  0.71950  Biso   1.000  Al
  Al38     1.0000 0.03840  0.64420  0.68880  Biso   1.000  Al
  Al39     1.0000 0.09530  0.63840  0.77760  Biso   1.000  Al
  P37      1.0000 0.08880  0.62960  0.71890  Biso   1.000  P
  P38      1.0000 0.13470  0.68380  0.77920  Biso   1.000  P
  P39      1.0000 0.04600  0.64830  0.81170  Biso   1.000  P
  O169     1.0000 0.08090  0.62610  0.74960  Biso   1.000  O
  O170     1.0000 0.11410  0.61270  0.71300  Biso   1.000  O
  O171     1.0000 0.10170  0.65910  0.71870  Biso   1.000  O
  O172     1.0000 0.06590  0.62880  0.70120  Biso   1.000  O
  O173     1.0000 0.13510  0.69070  0.74680  Biso   1.000  O
  O174     1.0000 0.13460  0.70290  0.80040  Biso   1.000  O
  O175     1.0000 0.15730  0.66350  0.78190  Biso   1.000  O
  O176     1.0000 0.02830  0.66320  0.71410  Biso   1.000  O
  O177     1.0000 0.05540  0.66960  0.83220  Biso   1.000  O
  O178     1.0000 0.02660  0.61800  0.67000  Biso   1.000  O
  O179     1.0000 0.10650  0.67050  0.78290  Biso   1.000  O
  O180     1.0000 0.07340  0.63390  0.80040  Biso   1.000  O
  O181     1.0000 0.03050  0.65870  0.78830  Biso   1.000  O
  O182     1.0000 0.02790  0.62750  0.82170  Biso   1.000  O
  Al40     1.0000 0.13380  0.17010  0.21950  Biso   1.000  Al
  Al41     1.0000 0.03840  0.14420  0.18880  Biso   1.000  Al
  Al42     1.0000 0.09530  0.13840  0.27760  Biso   1.000  Al
  P40      1.0000 0.08880  0.12960  0.21890  Biso   1.000  P
  P41      1.0000 0.13470  0.18380  0.27920  Biso   1.000  P
  P42      1.0000 0.04600  0.14830  0.31170  Biso   1.000  P
  O183     1.0000 0.08090  0.12610  0.24960  Biso   1.000  O
  O184     1.0000 0.11410  0.11270  0.21300  Biso   1.000  O
  O185     1.0000 0.10170  0.15910  0.21870  Biso   1.000  O
  O186     1.0000 0.06590  0.12880  0.20120  Biso   1.000  O
  O187     1.0000 0.13510  0.19070  0.24680  Biso   1.000  O
  O188     1.0000 0.13460  0.20290  0.30040  Biso   1.000  O
  O189     1.0000 0.15730  0.16350  0.28190  Biso   1.000  O
  O190     1.0000 0.02830  0.16320  0.21410  Biso   1.000  O
  O191     1.0000 0.05540  0.16960  0.33220  Biso   1.000  O
  O192     1.0000 0.02660  0.11800  0.17000  Biso   1.000  O
  O193     1.0000 0.10650  0.17050  0.28290  Biso   1.000  O
  O194     1.0000 0.07340  0.13390  0.30040  Biso   1.000  O
  O195     1.0000 0.03050  0.15870  0.28830  Biso   1.000  O
  O196     1.0000 0.02790  0.12750  0.32170  Biso   1.000  O
  Al43     1.0000 0.63380  0.67010  0.21950  Biso   1.000  Al
  Al44     1.0000 0.53840  0.64420  0.18880  Biso   1.000  Al
  Al45     1.0000 0.59530  0.63840  0.27760  Biso   1.000  Al
  P43      1.0000 0.58880  0.62960  0.21890  Biso   1.000  P
  P44      1.0000 0.63470  0.68380  0.27920  Biso   1.000  P
  P45      1.0000 0.54600  0.64830  0.31170  Biso   1.000  P
  O197     1.0000 0.58090  0.62610  0.24960  Biso   1.000  O
  O198     1.0000 0.61410  0.61270  0.21300  Biso   1.000  O
  O199     1.0000 0.60170  0.65910  0.21870  Biso   1.000  O
  O200     1.0000 0.56590  0.62880  0.20120  Biso   1.000  O
  O201     1.0000 0.63510  0.69070  0.24680  Biso   1.000  O
  O202     1.0000 0.63460  0.70290  0.30040  Biso   1.000  O
  O203     1.0000 0.65730  0.66350  0.28190  Biso   1.000  O
  O204     1.0000 0.52830  0.66320  0.21410  Biso   1.000  O
  O205     1.0000 0.55540  0.66960  0.33220  Biso   1.000  O
  O206     1.0000 0.52660  0.61800  0.17000  Biso   1.000  O
  O207     1.0000 0.60650  0.67050  0.28290  Biso   1.000  O
  O208     1.0000 0.57340  0.63390  0.30040  Biso   1.000  O
  O209     1.0000 0.53050  0.65870  0.28830  Biso   1.000  O
  O210     1.0000 0.52790  0.62750  0.32170  Biso   1.000  O
  Al46     1.0000 0.63380  0.17010  0.71950  Biso   1.000  Al
  Al47     1.0000 0.53840  0.14420  0.68880  Biso   1.000  Al
  Al48     1.0000 0.59530  0.13840  0.77760  Biso   1.000  Al
  P46      1.0000 0.58880  0.12960  0.71890  Biso   1.000  P
  P47      1.0000 0.63470  0.18380  0.77920  Biso   1.000  P
  P48      1.0000 0.54600  0.14830  0.81170  Biso   1.000  P
  O211     1.0000 0.58090  0.12610  0.74960  Biso   1.000  O
  O212     1.0000 0.61410  0.11270  0.71300  Biso   1.000  O
  O213     1.0000 0.60170  0.15910  0.71870  Biso   1.000  O
  O214     1.0000 0.56590  0.12880  0.70120  Biso   1.000  O
  O215     1.0000 0.63510  0.19070  0.74680  Biso   1.000  O
  O216     1.0000 0.63460  0.20290  0.80040  Biso   1.000  O
  O217     1.0000 0.65730  0.16350  0.78190  Biso   1.000  O
  O218     1.0000 0.52830  0.16320  0.71410  Biso   1.000  O
  O219     1.0000 0.55540  0.16960  0.83220  Biso   1.000  O
  O220     1.0000 0.52660  0.11800  0.67000  Biso   1.000  O
  O221     1.0000 0.60650  0.17050  0.78290  Biso   1.000  O
  O222     1.0000 0.57340  0.13390  0.80040  Biso   1.000  O
  O223     1.0000 0.53050  0.15870  0.78830  Biso   1.000  O
  O224     1.0000 0.52790  0.12750  0.82170  Biso   1.000  O
  Al49     1.0000 0.28050  0.13380  0.32990  Biso   1.000  Al
  Al50     1.0000 0.31120  0.03840  0.35580  Biso   1.000  Al
  Al51     1.0000 0.22240  0.09530  0.36160  Biso   1.000  Al
  P49      1.0000 0.28110  0.08880  0.37040  Biso   1.000  P
  P50      1.0000 0.22080  0.13470  0.31620  Biso   1.000  P
  P51      1.0000 0.18830  0.04600  0.35170  Biso   1.000  P
  O225     1.0000 0.25040  0.08090  0.37390  Biso   1.000  O
  O226     1.0000 0.28700  0.11410  0.38730  Biso   1.000  O
  O227     1.0000 0.28130  0.10170  0.34090  Biso   1.000  O
  O228     1.0000 0.29880  0.06590  0.37120  Biso   1.000  O
  O229     1.0000 0.25320  0.13510  0.30930  Biso   1.000  O
  O230     1.0000 0.19960  0.13460  0.29710  Biso   1.000  O
  O231     1.0000 0.21810  0.15730  0.33650  Biso   1.000  O
  O232     1.0000 0.28590  0.02830  0.33680  Biso   1.000  O
  O233     1.0000 0.16780  0.05540  0.33040  Biso   1.000  O
  O234     1.0000 0.33000  0.02660  0.38200  Biso   1.000  O
  O235     1.0000 0.21710  0.10650  0.32950  Biso   1.000  O
  O236     1.0000 0.19960  0.07340  0.36610  Biso   1.000  O
  O237     1.0000 0.21170  0.03050  0.34130  Biso   1.000  O
  O238     1.0000 0.17830  0.02790  0.37250  Biso   1.000  O
  Al52     1.0000 0.28050  0.63380  0.82990  Biso   1.000  Al
  Al53     1.0000 0.31120  0.53840  0.85580  Biso   1.000  Al
  Al54     1.0000 0.22240  0.59530  0.86160  Biso   1.000  Al
  P52      1.0000 0.28110  0.58880  0.87040  Biso   1.000  P
  P53      1.0000 0.22080  0.63470  0.81620  Biso   1.000  P
  P54      1.0000 0.18830  0.54600  0.85170  Biso   1.000  P
  O239     1.0000 0.25040  0.58090  0.87390  Biso   1.000  O
  O240     1.0000 0.28700  0.61410  0.88730  Biso   1.000  O
  O241     1.0000 0.28130  0.60170  0.84090  Biso   1.000  O
  O242     1.0000 0.29880  0.56590  0.87120  Biso   1.000  O
  O243     1.0000 0.25320  0.63510  0.80930  Biso   1.000  O
  O244     1.0000 0.19960  0.63460  0.79710  Biso   1.000  O
  O245     1.0000 0.21810  0.65730  0.83650  Biso   1.000  O
  O246     1.0000 0.28590  0.52830  0.83680  Biso   1.000  O
  O247     1.0000 0.16780  0.55540  0.83040  Biso   1.000  O
  O248     1.0000 0.33000  0.52660  0.88200  Biso   1.000  O
  O249     1.0000 0.21710  0.60650  0.82950  Biso   1.000  O
  O250     1.0000 0.19960  0.57340  0.86610  Biso   1.000  O
  O251     1.0000 0.21170  0.53050  0.84130  Biso   1.000  O
  O252     1.0000 0.17830  0.52790  0.87250  Biso   1.000  O
  Al55     1.0000 0.78050  0.13380  0.82990  Biso   1.000  Al
  Al56     1.0000 0.81120  0.03840  0.85580  Biso   1.000  Al
  Al57     1.0000 0.72240  0.09530  0.86160  Biso   1.000  Al
  P55      1.0000 0.78110  0.08880  0.87040  Biso   1.000  P
  P56      1.0000 0.72080  0.13470  0.81620  Biso   1.000  P
  P57      1.0000 0.68830  0.04600  0.85170  Biso   1.000  P
  O253     1.0000 0.75040  0.08090  0.87390  Biso   1.000  O
  O254     1.0000 0.78700  0.11410  0.88730  Biso   1.000  O
  O255     1.0000 0.78130  0.10170  0.84090  Biso   1.000  O
  O256     1.0000 0.79880  0.06590  0.87120  Biso   1.000  O
  O257     1.0000 0.75320  0.13510  0.80930  Biso   1.000  O
  O258     1.0000 0.69960  0.13460  0.79710  Biso   1.000  O
  O259     1.0000 0.71810  0.15730  0.83650  Biso   1.000  O
  O260     1.0000 0.78590  0.02830  0.83680  Biso   1.000  O
  O261     1.0000 0.66780  0.05540  0.83040  Biso   1.000  O
  O262     1.0000 0.83000  0.02660  0.88200  Biso   1.000  O
  O263     1.0000 0.71710  0.10650  0.82950  Biso   1.000  O
  O264     1.0000 0.69960  0.07340  0.86610  Biso   1.000  O
  O265     1.0000 0.71170  0.03050  0.84130  Biso   1.000  O
  O266     1.0000 0.67830  0.02790  0.87250  Biso   1.000  O
  Al58     1.0000 0.78050  0.63380  0.32990  Biso   1.000  Al
  Al59     1.0000 0.81120  0.53840  0.35580  Biso   1.000  Al
  Al60     1.0000 0.72240  0.59530  0.36160  Biso   1.000  Al
  P58      1.0000 0.78110  0.58880  0.37040  Biso   1.000  P
  P59      1.0000 0.72080  0.63470  0.31620  Biso   1.000  P
  P60      1.0000 0.68830  0.54600  0.35170  Biso   1.000  P
  O267     1.0000 0.75040  0.58090  0.37390  Biso   1.000  O
  O268     1.0000 0.78700  0.61410  0.38730  Biso   1.000  O
  O269     1.0000 0.78130  0.60170  0.34090  Biso   1.000  O
  O270     1.0000 0.79880  0.56590  0.37120  Biso   1.000  O
  O271     1.0000 0.75320  0.63510  0.30930  Biso   1.000  O
  O272     1.0000 0.69960  0.63460  0.29710  Biso   1.000  O
  O273     1.0000 0.71810  0.65730  0.33650  Biso   1.000  O
  O274     1.0000 0.78590  0.52830  0.33680  Biso   1.000  O
  O275     1.0000 0.66780  0.55540  0.33040  Biso   1.000  O
  O276     1.0000 0.83000  0.52660  0.38200  Biso   1.000  O
  O277     1.0000 0.71710  0.60650  0.32950  Biso   1.000  O
  O278     1.0000 0.69960  0.57340  0.36610  Biso   1.000  O
  O279     1.0000 0.71170  0.53050  0.34130  Biso   1.000  O
  O280     1.0000 0.67830  0.52790  0.37250  Biso   1.000  O
  Al61     1.0000 0.28050  0.86620  0.67010  Biso   1.000  Al
  Al62     1.0000 0.31120  0.96160  0.64420  Biso   1.000  Al
  Al63     1.0000 0.22240  0.90470  0.63840  Biso   1.000  Al
  P61      1.0000 0.28110  0.91120  0.62960  Biso   1.000  P
  P62      1.0000 0.22080  0.86530  0.68380  Biso   1.000  P
  P63      1.0000 0.18830  0.95400  0.64830  Biso   1.000  P
  O281     1.0000 0.25040  0.91910  0.62610  Biso   1.000  O
  O282     1.0000 0.28700  0.88590  0.61270  Biso   1.000  O
  O283     1.0000 0.28130  0.89830  0.65910  Biso   1.000  O
  O284     1.0000 0.29880  0.93410  0.62880  Biso   1.000  O
  O285     1.0000 0.25320  0.86490  0.69070  Biso   1.000  O
  O286     1.0000 0.19960  0.86540  0.70290  Biso   1.000  O
  O287     1.0000 0.21810  0.84270  0.66350  Biso   1.000  O
  O288     1.0000 0.28590  0.97170  0.66320  Biso   1.000  O
  O289     1.0000 0.16780  0.94460  0.66960  Biso   1.000  O
  O290     1.0000 0.33000  0.97340  0.61800  Biso   1.000  O
  O291     1.0000 0.21710  0.89350  0.67050  Biso   1.000  O
  O292     1.0000 0.19960  0.92660  0.63390  Biso   1.000  O
  O293     1.0000 0.21170  0.96950  0.65870  Biso   1.000  O
  O294     1.0000 0.17830  0.97210  0.62750  Biso   1.000  O
  Al64     1.0000 0.28050  0.36620  0.17010  Biso   1.000  Al
  Al65     1.0000 0.31120  0.46160  0.14420  Biso   1.000  Al
  Al66     1.0000 0.22240  0.40470  0.13840  Biso   1.000  Al
  P64      1.0000 0.28110  0.41120  0.12960  Biso   1.000  P
  P65      1.0000 0.22080  0.36530  0.18380  Biso   1.000  P
  P66      1.0000 0.18830  0.45400  0.14830  Biso   1.000  P
  O295     1.0000 0.25040  0.41910  0.12610  Biso   1.000  O
  O296     1.0000 0.28700  0.38590  0.11270  Biso   1.000  O
  O297     1.0000 0.28130  0.39830  0.15910  Biso   1.000  O
  O298     1.0000 0.29880  0.43410  0.12880  Biso   1.000  O
  O299     1.0000 0.25320  0.36490  0.19070  Biso   1.000  O
  O300     1.0000 0.19960  0.36540  0.20290  Biso   1.000  O
  O301     1.0000 0.21810  0.34270  0.16350  Biso   1.000  O
  O302     1.0000 0.28590  0.47170  0.16320  Biso   1.000  O
  O303     1.0000 0.16780  0.44460  0.16960  Biso   1.000  O
  O304     1.0000 0.33000  0.47340  0.11800  Biso   1.000  O
  O305     1.0000 0.21710  0.39350  0.17050  Biso   1.000  O
  O306     1.0000 0.19960  0.42660  0.13390  Biso   1.000  O
  O307     1.0000 0.21170  0.46950  0.15870  Biso   1.000  O
  O308     1.0000 0.17830  0.47210  0.12750  Biso   1.000  O
  Al67     1.0000 0.78050  0.86620  0.17010  Biso   1.000  Al
  Al68     1.0000 0.81120  0.96160  0.14420  Biso   1.000  Al
  Al69     1.0000 0.72240  0.90470  0.13840  Biso   1.000  Al
  P67      1.0000 0.78110  0.91120  0.12960  Biso   1.000  P
  P68      1.0000 0.72080  0.86530  0.18380  Biso   1.000  P
  P69      1.0000 0.68830  0.95400  0.14830  Biso   1.000  P
  O309     1.0000 0.75040  0.91910  0.12610  Biso   1.000  O
  O310     1.0000 0.78700  0.88590  0.11270  Biso   1.000  O
  O311     1.0000 0.78130  0.89830  0.15910  Biso   1.000  O
  O312     1.0000 0.79880  0.93410  0.12880  Biso   1.000  O
  O313     1.0000 0.75320  0.86490  0.19070  Biso   1.000  O
  O314     1.0000 0.69960  0.86540  0.20290  Biso   1.000  O
  O315     1.0000 0.71810  0.84270  0.16350  Biso   1.000  O
  O316     1.0000 0.78590  0.97170  0.16320  Biso   1.000  O
  O317     1.0000 0.66780  0.94460  0.16960  Biso   1.000  O
  O318     1.0000 0.83000  0.97340  0.11800  Biso   1.000  O
  O319     1.0000 0.71710  0.89350  0.17050  Biso   1.000  O
  O320     1.0000 0.69960  0.92660  0.13390  Biso   1.000  O
  O321     1.0000 0.71170  0.96950  0.15870  Biso   1.000  O
  O322     1.0000 0.67830  0.97210  0.12750  Biso   1.000  O
  Al70     1.0000 0.78050  0.36620  0.67010  Biso   1.000  Al
  Al71     1.0000 0.81120  0.46160  0.64420  Biso   1.000  Al
  Al72     1.0000 0.72240  0.40470  0.63840  Biso   1.000  Al
  P70      1.0000 0.78110  0.41120  0.62960  Biso   1.000  P
  P71      1.0000 0.72080  0.36530  0.68380  Biso   1.000  P
  P72      1.0000 0.68830  0.45400  0.64830  Biso   1.000  P
  O323     1.0000 0.75040  0.41910  0.62610  Biso   1.000  O
  O324     1.0000 0.78700  0.38590  0.61270  Biso   1.000  O
  O325     1.0000 0.78130  0.39830  0.65910  Biso   1.000  O
  O326     1.0000 0.79880  0.43410  0.62880  Biso   1.000  O
  O327     1.0000 0.75320  0.36490  0.69070  Biso   1.000  O
  O328     1.0000 0.69960  0.36540  0.70290  Biso   1.000  O
  O329     1.0000 0.71810  0.34270  0.66350  Biso   1.000  O
  O330     1.0000 0.78590  0.47170  0.66320  Biso   1.000  O
  O331     1.0000 0.66780  0.44460  0.66960  Biso   1.000  O
  O332     1.0000 0.83000  0.47340  0.61800  Biso   1.000  O
  O333     1.0000 0.71710  0.39350  0.67050  Biso   1.000  O
  O334     1.0000 0.69960  0.42660  0.63390  Biso   1.000  O
  O335     1.0000 0.71170  0.46950  0.65870  Biso   1.000  O
  O336     1.0000 0.67830  0.47210  0.62750  Biso   1.000  O
  Al73     1.0000 0.71950  0.86620  0.32990  Biso   1.000  Al
  Al74     1.0000 0.68880  0.96160  0.35580  Biso   1.000  Al
  Al75     1.0000 0.77760  0.90470  0.36160  Biso   1.000  Al
  P73      1.0000 0.71890  0.91120  0.37040  Biso   1.000  P
  P74      1.0000 0.77920  0.86530  0.31620  Biso   1.000  P
  P75      1.0000 0.81170  0.95400  0.35170  Biso   1.000  P
  O337     1.0000 0.74960  0.91910  0.37390  Biso   1.000  O
  O338     1.0000 0.71300  0.88590  0.38730  Biso   1.000  O
  O339     1.0000 0.71870  0.89830  0.34090  Biso   1.000  O
  O340     1.0000 0.70120  0.93410  0.37120  Biso   1.000  O
  O341     1.0000 0.74680  0.86490  0.30930  Biso   1.000  O
  O342     1.0000 0.80040  0.86540  0.29710  Biso   1.000  O
  O343     1.0000 0.78190  0.84270  0.33650  Biso   1.000  O
  O344     1.0000 0.71410  0.97170  0.33680  Biso   1.000  O
  O345     1.0000 0.83220  0.94460  0.33040  Biso   1.000  O
  O346     1.0000 0.67000  0.97340  0.38200  Biso   1.000  O
  O347     1.0000 0.78290  0.89350  0.32950  Biso   1.000  O
  O348     1.0000 0.80040  0.92660  0.36610  Biso   1.000  O
  O349     1.0000 0.78830  0.96950  0.34130  Biso   1.000  O
  O350     1.0000 0.82170  0.97210  0.37250  Biso   1.000  O
  Al76     1.0000 0.71950  0.36620  0.82990  Biso   1.000  Al
  Al77     1.0000 0.68880  0.46160  0.85580  Biso   1.000  Al
  Al78     1.0000 0.77760  0.40470  0.86160  Biso   1.000  Al
  P76      1.0000 0.71890  0.41120  0.87040  Biso   1.000  P
  P77      1.0000 0.77920  0.36530  0.81620  Biso   1.000  P
  P78      1.0000 0.81170  0.45400  0.85170  Biso   1.000  P
  O351     1.0000 0.74960  0.41910  0.87390  Biso   1.000  O
  O352     1.0000 0.71300  0.38590  0.88730  Biso   1.000  O
  O353     1.0000 0.71870  0.39830  0.84090  Biso   1.000  O
  O354     1.0000 0.70120  0.43410  0.87120  Biso   1.000  O
  O355     1.0000 0.74680  0.36490  0.80930  Biso   1.000  O
  O356     1.0000 0.80040  0.36540  0.79710  Biso   1.000  O
  O357     1.0000 0.78190  0.34270  0.83650  Biso   1.000  O
  O358     1.0000 0.71410  0.47170  0.83680  Biso   1.000  O
  O359     1.0000 0.83220  0.44460  0.83040  Biso   1.000  O
  O360     1.0000 0.67000  0.47340  0.88200  Biso   1.000  O
  O361     1.0000 0.78290  0.39350  0.82950  Biso   1.000  O
  O362     1.0000 0.80040  0.42660  0.86610  Biso   1.000  O
  O363     1.0000 0.78830  0.46950  0.84130  Biso   1.000  O
  O364     1.0000 0.82170  0.47210  0.87250  Biso   1.000  O
  Al79     1.0000 0.21950  0.86620  0.82990  Biso   1.000  Al
  Al80     1.0000 0.18880  0.96160  0.85580  Biso   1.000  Al
  Al81     1.0000 0.27760  0.90470  0.86160  Biso   1.000  Al
  P79      1.0000 0.21890  0.91120  0.87040  Biso   1.000  P
  P80      1.0000 0.27920  0.86530  0.81620  Biso   1.000  P
  P81      1.0000 0.31170  0.95400  0.85170  Biso   1.000  P
  O365     1.0000 0.24960  0.91910  0.87390  Biso   1.000  O
  O366     1.0000 0.21300  0.88590  0.88730  Biso   1.000  O
  O367     1.0000 0.21870  0.89830  0.84090  Biso   1.000  O
  O368     1.0000 0.20120  0.93410  0.87120  Biso   1.000  O
  O369     1.0000 0.24680  0.86490  0.80930  Biso   1.000  O
  O370     1.0000 0.30040  0.86540  0.79710  Biso   1.000  O
  O371     1.0000 0.28190  0.84270  0.83650  Biso   1.000  O
  O372     1.0000 0.21410  0.97170  0.83680  Biso   1.000  O
  O373     1.0000 0.33220  0.94460  0.83040  Biso   1.000  O
  O374     1.0000 0.17000  0.97340  0.88200  Biso   1.000  O
  O375     1.0000 0.28290  0.89350  0.82950  Biso   1.000  O
  O376     1.0000 0.30040  0.92660  0.86610  Biso   1.000  O
  O377     1.0000 0.28830  0.96950  0.84130  Biso   1.000  O
  O378     1.0000 0.32170  0.97210  0.87250  Biso   1.000  O
  Al82     1.0000 0.21950  0.36620  0.32990  Biso   1.000  Al
  Al83     1.0000 0.18880  0.46160  0.35580  Biso   1.000  Al
  Al84     1.0000 0.27760  0.40470  0.36160  Biso   1.000  Al
  P82      1.0000 0.21890  0.41120  0.37040  Biso   1.000  P
  P83      1.0000 0.27920  0.36530  0.31620  Biso   1.000  P
  P84      1.0000 0.31170  0.45400  0.35170  Biso   1.000  P
  O379     1.0000 0.24960  0.41910  0.37390  Biso   1.000  O
  O380     1.0000 0.21300  0.38590  0.38730  Biso   1.000  O
  O381     1.0000 0.21870  0.39830  0.34090  Biso   1.000  O
  O382     1.0000 0.20120  0.43410  0.37120  Biso   1.000  O
  O383     1.0000 0.24680  0.36490  0.30930  Biso   1.000  O
  O384     1.0000 0.30040  0.36540  0.29710  Biso   1.000  O
  O385     1.0000 0.28190  0.34270  0.33650  Biso   1.000  O
  O386     1.0000 0.21410  0.47170  0.33680  Biso   1.000  O
  O387     1.0000 0.33220  0.44460  0.33040  Biso   1.000  O
  O388     1.0000 0.17000  0.47340  0.38200  Biso   1.000  O
  O389     1.0000 0.28290  0.39350  0.32950  Biso   1.000  O
  O390     1.0000 0.30040  0.42660  0.36610  Biso   1.000  O
  O391     1.0000 0.28830  0.46950  0.34130  Biso   1.000  O
  O392     1.0000 0.32170  0.47210  0.37250  Biso   1.000  O
  Al85     1.0000 0.71950  0.13380  0.67010  Biso   1.000  Al
  Al86     1.0000 0.68880  0.03840  0.64420  Biso   1.000  Al
  Al87     1.0000 0.77760  0.09530  0.63840  Biso   1.000  Al
  P85      1.0000 0.71890  0.08880  0.62960  Biso   1.000  P
  P86      1.0000 0.77920  0.13470  0.68380  Biso   1.000  P
  P87      1.0000 0.81170  0.04600  0.64830  Biso   1.000  P
  O393     1.0000 0.74960  0.08090  0.62610  Biso   1.000  O
  O394     1.0000 0.71300  0.11410  0.61270  Biso   1.000  O
  O395     1.0000 0.71870  0.10170  0.65910  Biso   1.000  O
  O396     1.0000 0.70120  0.06590  0.62880  Biso   1.000  O
  O397     1.0000 0.74680  0.13510  0.69070  Biso   1.000  O
  O398     1.0000 0.80040  0.13460  0.70290  Biso   1.000  O
  O399     1.0000 0.78190  0.15730  0.66350  Biso   1.000  O
  O400     1.0000 0.71410  0.02830  0.66320  Biso   1.000  O
  O401     1.0000 0.83220  0.05540  0.66960  Biso   1.000  O
  O402     1.0000 0.67000  0.02660  0.61800  Biso   1.000  O
  O403     1.0000 0.78290  0.10650  0.67050  Biso   1.000  O
  O404     1.0000 0.80040  0.07340  0.63390  Biso   1.000  O
  O405     1.0000 0.78830  0.03050  0.65870  Biso   1.000  O
  O406     1.0000 0.82170  0.02790  0.62750  Biso   1.000  O
  Al88     1.0000 0.71950  0.63380  0.17010  Biso   1.000  Al
  Al89     1.0000 0.68880  0.53840  0.14420  Biso   1.000  Al
  Al90     1.0000 0.77760  0.59530  0.13840  Biso   1.000  Al
  P88      1.0000 0.71890  0.58880  0.12960  Biso   1.000  P
  P89      1.0000 0.77920  0.63470  0.18380  Biso   1.000  P
  P90      1.0000 0.81170  0.54600  0.14830  Biso   1.000  P
  O407     1.0000 0.74960  0.58090  0.12610  Biso   1.000  O
  O408     1.0000 0.71300  0.61410  0.11270  Biso   1.000  O
  O409     1.0000 0.71870  0.60170  0.15910  Biso   1.000  O
  O410     1.0000 0.70120  0.56590  0.12880  Biso   1.000  O
  O411     1.0000 0.74680  0.63510  0.19070  Biso   1.000  O
  O412     1.0000 0.80040  0.63460  0.20290  Biso   1.000  O
  O413     1.0000 0.78190  0.65730  0.16350  Biso   1.000  O
  O414     1.0000 0.71410  0.52830  0.16320  Biso   1.000  O
  O415     1.0000 0.83220  0.55540  0.16960  Biso   1.000  O
  O416     1.0000 0.67000  0.52660  0.11800  Biso   1.000  O
  O417     1.0000 0.78290  0.60650  0.17050  Biso   1.000  O
  O418     1.0000 0.80040  0.57340  0.13390  Biso   1.000  O
  O419     1.0000 0.78830  0.53050  0.15870  Biso   1.000  O
  O420     1.0000 0.82170  0.52790  0.12750  Biso   1.000  O
  Al91     1.0000 0.21950  0.13380  0.17010  Biso   1.000  Al
  Al92     1.0000 0.18880  0.03840  0.14420  Biso   1.000  Al
  Al93     1.0000 0.27760  0.09530  0.13840  Biso   1.000  Al
  P91      1.0000 0.21890  0.08880  0.12960  Biso   1.000  P
  P92      1.0000 0.27920  0.13470  0.18380  Biso   1.000  P
  P93      1.0000 0.31170  0.04600  0.14830  Biso   1.000  P
  O421     1.0000 0.24960  0.08090  0.12610  Biso   1.000  O
  O422     1.0000 0.21300  0.11410  0.11270  Biso   1.000  O
  O423     1.0000 0.21870  0.10170  0.15910  Biso   1.000  O
  O424     1.0000 0.20120  0.06590  0.12880  Biso   1.000  O
  O425     1.0000 0.24680  0.13510  0.19070  Biso   1.000  O
  O426     1.0000 0.30040  0.13460  0.20290  Biso   1.000  O
  O427     1.0000 0.28190  0.15730  0.16350  Biso   1.000  O
  O428     1.0000 0.21410  0.02830  0.16320  Biso   1.000  O
  O429     1.0000 0.33220  0.05540  0.16960  Biso   1.000  O
  O430     1.0000 0.17000  0.02660  0.11800  Biso   1.000  O
  O431     1.0000 0.28290  0.10650  0.17050  Biso   1.000  O
  O432     1.0000 0.30040  0.07340  0.13390  Biso   1.000  O
  O433     1.0000 0.28830  0.03050  0.15870  Biso   1.000  O
  O434     1.0000 0.32170  0.02790  0.12750  Biso   1.000  O
  Al94     1.0000 0.21950  0.63380  0.67010  Biso   1.000  Al
  Al95     1.0000 0.18880  0.53840  0.64420  Biso   1.000  Al
  Al96     1.0000 0.27760  0.59530  0.63840  Biso   1.000  Al
  P94      1.0000 0.21890  0.58880  0.62960  Biso   1.000  P
  P95      1.0000 0.27920  0.63470  0.68380  Biso   1.000  P
  P96      1.0000 0.31170  0.54600  0.64830  Biso   1.000  P
  O435     1.0000 0.24960  0.58090  0.62610  Biso   1.000  O
  O436     1.0000 0.21300  0.61410  0.61270  Biso   1.000  O
  O437     1.0000 0.21870  0.60170  0.65910  Biso   1.000  O
  O438     1.0000 0.20120  0.56590  0.62880  Biso   1.000  O
  O439     1.0000 0.24680  0.63510  0.69070  Biso   1.000  O
  O440     1.0000 0.30040  0.63460  0.70290  Biso   1.000  O
  O441     1.0000 0.28190  0.65730  0.66350  Biso   1.000  O
  O442     1.0000 0.21410  0.52830  0.66320  Biso   1.000  O
  O443     1.0000 0.33220  0.55540  0.66960  Biso   1.000  O
  O444     1.0000 0.17000  0.52660  0.61800  Biso   1.000  O
  O445     1.0000 0.28290  0.60650  0.67050  Biso   1.000  O
  O446     1.0000 0.30040  0.57340  0.63390  Biso   1.000  O
  O447     1.0000 0.28830  0.53050  0.65870  Biso   1.000  O
  O448     1.0000 0.32170  0.52790  0.62750  Biso   1.000  O
  Al97     1.0000 0.32990  0.28050  0.13380  Biso   1.000  Al
  Al98     1.0000 0.35580  0.31120  0.03840  Biso   1.000  Al
  Al99     1.0000 0.36160  0.22240  0.09530  Biso   1.000  Al
  P97      1.0000 0.37040  0.28110  0.08880  Biso   1.000  P
  P98      1.0000 0.31620  0.22080  0.13470  Biso   1.000  P
  P99      1.0000 0.35170  0.18830  0.04600  Biso   1.000  P
  O449     1.0000 0.37390  0.25040  0.08090  Biso   1.000  O
  O450     1.0000 0.38730  0.28700  0.11410  Biso   1.000  O
  O451     1.0000 0.34090  0.28130  0.10170  Biso   1.000  O
  O452     1.0000 0.37120  0.29880  0.06590  Biso   1.000  O
  O453     1.0000 0.30930  0.25320  0.13510  Biso   1.000  O
  O454     1.0000 0.29710  0.19960  0.13460  Biso   1.000  O
  O455     1.0000 0.33650  0.21810  0.15730  Biso   1.000  O
  O456     1.0000 0.33680  0.28590  0.02830  Biso   1.000  O
  O457     1.0000 0.33040  0.16780  0.05540  Biso   1.000  O
  O458     1.0000 0.38200  0.33000  0.02660  Biso   1.000  O
  O459     1.0000 0.32950  0.21710  0.10650  Biso   1.000  O
  O460     1.0000 0.36610  0.19960  0.07340  Biso   1.000  O
  O461     1.0000 0.34130  0.21170  0.03050  Biso   1.000  O
  O462     1.0000 0.37250  0.17830  0.02790  Biso   1.000  O
  Al100    1.0000 0.32990  0.78050  0.63380  Biso   1.000  Al
  Al101    1.0000 0.35580  0.81120  0.53840  Biso   1.000  Al
  Al102    1.0000 0.36160  0.72240  0.59530  Biso   1.000  Al
  P100     1.0000 0.37040  0.78110  0.58880  Biso   1.000  P
  P101     1.0000 0.31620  0.72080  0.63470  Biso   1.000  P
  P102     1.0000 0.35170  0.68830  0.54600  Biso   1.000  P
  O463     1.0000 0.37390  0.75040  0.58090  Biso   1.000  O
  O464     1.0000 0.38730  0.78700  0.61410  Biso   1.000  O
  O465     1.0000 0.34090  0.78130  0.60170  Biso   1.000  O
  O466     1.0000 0.37120  0.79880  0.56590  Biso   1.000  O
  O467     1.0000 0.30930  0.75320  0.63510  Biso   1.000  O
  O468     1.0000 0.29710  0.69960  0.63460  Biso   1.000  O
  O469     1.0000 0.33650  0.71810  0.65730  Biso   1.000  O
  O470     1.0000 0.33680  0.78590  0.52830  Biso   1.000  O
  O471     1.0000 0.33040  0.66780  0.55540  Biso   1.000  O
  O472     1.0000 0.38200  0.83000  0.52660  Biso   1.000  O
  O473     1.0000 0.32950  0.71710  0.60650  Biso   1.000  O
  O474     1.0000 0.36610  0.69960  0.57340  Biso   1.000  O
  O475     1.0000 0.34130  0.71170  0.53050  Biso   1.000  O
  O476     1.0000 0.37250  0.67830  0.52790  Biso   1.000  O
  Al103    1.0000 0.82990  0.28050  0.63380  Biso   1.000  Al
  Al104    1.0000 0.85580  0.31120  0.53840  Biso   1.000  Al
  Al105    1.0000 0.86160  0.22240  0.59530  Biso   1.000  Al
  P103     1.0000 0.87040  0.28110  0.58880  Biso   1.000  P
  P104     1.0000 0.81620  0.22080  0.63470  Biso   1.000  P
  P105     1.0000 0.85170  0.18830  0.54600  Biso   1.000  P
  O477     1.0000 0.87390  0.25040  0.58090  Biso   1.000  O
  O478     1.0000 0.88730  0.28700  0.61410  Biso   1.000  O
  O479     1.0000 0.84090  0.28130  0.60170  Biso   1.000  O
  O480     1.0000 0.87120  0.29880  0.56590  Biso   1.000  O
  O481     1.0000 0.80930  0.25320  0.63510  Biso   1.000  O
  O482     1.0000 0.79710  0.19960  0.63460  Biso   1.000  O
  O483     1.0000 0.83650  0.21810  0.65730  Biso   1.000  O
  O484     1.0000 0.83680  0.28590  0.52830  Biso   1.000  O
  O485     1.0000 0.83040  0.16780  0.55540  Biso   1.000  O
  O486     1.0000 0.88200  0.33000  0.52660  Biso   1.000  O
  O487     1.0000 0.82950  0.21710  0.60650  Biso   1.000  O
  O488     1.0000 0.86610  0.19960  0.57340  Biso   1.000  O
  O489     1.0000 0.84130  0.21170  0.53050  Biso   1.000  O
  O490     1.0000 0.87250  0.17830  0.52790  Biso   1.000  O
  Al106    1.0000 0.82990  0.78050  0.13380  Biso   1.000  Al
  Al107    1.0000 0.85580  0.81120  0.03840  Biso   1.000  Al
  Al108    1.0000 0.86160  0.72240  0.09530  Biso   1.000  Al
  P106     1.0000 0.87040  0.78110  0.08880  Biso   1.000  P
  P107     1.0000 0.81620  0.72080  0.13470  Biso   1.000  P
  P108     1.0000 0.85170  0.68830  0.04600  Biso   1.000  P
  O491     1.0000 0.87390  0.75040  0.08090  Biso   1.000  O
  O492     1.0000 0.88730  0.78700  0.11410  Biso   1.000  O
  O493     1.0000 0.84090  0.78130  0.10170  Biso   1.000  O
  O494     1.0000 0.87120  0.79880  0.06590  Biso   1.000  O
  O495     1.0000 0.80930  0.75320  0.13510  Biso   1.000  O
  O496     1.0000 0.79710  0.69960  0.13460  Biso   1.000  O
  O497     1.0000 0.83650  0.71810  0.15730  Biso   1.000  O
  O498     1.0000 0.83680  0.78590  0.02830  Biso   1.000  O
  O499     1.0000 0.83040  0.66780  0.05540  Biso   1.000  O
  O500     1.0000 0.88200  0.83000  0.02660  Biso   1.000  O
  O501     1.0000 0.82950  0.71710  0.10650  Biso   1.000  O
  O502     1.0000 0.86610  0.69960  0.07340  Biso   1.000  O
  O503     1.0000 0.84130  0.71170  0.03050  Biso   1.000  O
  O504     1.0000 0.87250  0.67830  0.02790  Biso   1.000  O
  Al109    1.0000 0.67010  0.28050  0.86620  Biso   1.000  Al
  Al110    1.0000 0.64420  0.31120  0.96160  Biso   1.000  Al
  Al111    1.0000 0.63840  0.22240  0.90470  Biso   1.000  Al
  P109     1.0000 0.62960  0.28110  0.91120  Biso   1.000  P
  P110     1.0000 0.68380  0.22080  0.86530  Biso   1.000  P
  P111     1.0000 0.64830  0.18830  0.95400  Biso   1.000  P
  O505     1.0000 0.62610  0.25040  0.91910  Biso   1.000  O
  O506     1.0000 0.61270  0.28700  0.88590  Biso   1.000  O
  O507     1.0000 0.65910  0.28130  0.89830  Biso   1.000  O
  O508     1.0000 0.62880  0.29880  0.93410  Biso   1.000  O
  O509     1.0000 0.69070  0.25320  0.86490  Biso   1.000  O
  O510     1.0000 0.70290  0.19960  0.86540  Biso   1.000  O
  O511     1.0000 0.66350  0.21810  0.84270  Biso   1.000  O
  O512     1.0000 0.66320  0.28590  0.97170  Biso   1.000  O
  O513     1.0000 0.66960  0.16780  0.94460  Biso   1.000  O
  O514     1.0000 0.61800  0.33000  0.97340  Biso   1.000  O
  O515     1.0000 0.67050  0.21710  0.89350  Biso   1.000  O
  O516     1.0000 0.63390  0.19960  0.92660  Biso   1.000  O
  O517     1.0000 0.65870  0.21170  0.96950  Biso   1.000  O
  O518     1.0000 0.62750  0.17830  0.97210  Biso   1.000  O
  Al112    1.0000 0.67010  0.78050  0.36620  Biso   1.000  Al
  Al113    1.0000 0.64420  0.81120  0.46160  Biso   1.000  Al
  Al114    1.0000 0.63840  0.72240  0.40470  Biso   1.000  Al
  P112     1.0000 0.62960  0.78110  0.41120  Biso   1.000  P
  P113     1.0000 0.68380  0.72080  0.36530  Biso   1.000  P
  P114     1.0000 0.64830  0.68830  0.45400  Biso   1.000  P
  O519     1.0000 0.62610  0.75040  0.41910  Biso   1.000  O
  O520     1.0000 0.61270  0.78700  0.38590  Biso   1.000  O
  O521     1.0000 0.65910  0.78130  0.39830  Biso   1.000  O
  O522     1.0000 0.62880  0.79880  0.43410  Biso   1.000  O
  O523     1.0000 0.69070  0.75320  0.36490  Biso   1.000  O
  O524     1.0000 0.70290  0.69960  0.36540  Biso   1.000  O
  O525     1.0000 0.66350  0.71810  0.34270  Biso   1.000  O
  O526     1.0000 0.66320  0.78590  0.47170  Biso   1.000  O
  O527     1.0000 0.66960  0.66780  0.44460  Biso   1.000  O
  O528     1.0000 0.61800  0.83000  0.47340  Biso   1.000  O
  O529     1.0000 0.67050  0.71710  0.39350  Biso   1.000  O
  O530     1.0000 0.63390  0.69960  0.42660  Biso   1.000  O
  O531     1.0000 0.65870  0.71170  0.46950  Biso   1.000  O
  O532     1.0000 0.62750  0.67830  0.47210  Biso   1.000  O
  Al115    1.0000 0.17010  0.28050  0.36620  Biso   1.000  Al
  Al116    1.0000 0.14420  0.31120  0.46160  Biso   1.000  Al
  Al117    1.0000 0.13840  0.22240  0.40470  Biso   1.000  Al
  P115     1.0000 0.12960  0.28110  0.41120  Biso   1.000  P
  P116     1.0000 0.18380  0.22080  0.36530  Biso   1.000  P
  P117     1.0000 0.14830  0.18830  0.45400  Biso   1.000  P
  O533     1.0000 0.12610  0.25040  0.41910  Biso   1.000  O
  O534     1.0000 0.11270  0.28700  0.38590  Biso   1.000  O
  O535     1.0000 0.15910  0.28130  0.39830  Biso   1.000  O
  O536     1.0000 0.12880  0.29880  0.43410  Biso   1.000  O
  O537     1.0000 0.19070  0.25320  0.36490  Biso   1.000  O
  O538     1.0000 0.20290  0.19960  0.36540  Biso   1.000  O
  O539     1.0000 0.16350  0.21810  0.34270  Biso   1.000  O
  O540     1.0000 0.16320  0.28590  0.47170  Biso   1.000  O
  O541     1.0000 0.16960  0.16780  0.44460  Biso   1.000  O
  O542     1.0000 0.11800  0.33000  0.47340  Biso   1.000  O
  O543     1.0000 0.17050  0.21710  0.39350  Biso   1.000  O
  O544     1.0000 0.13390  0.19960  0.42660  Biso   1.000  O
  O545     1.0000 0.15870  0.21170  0.46950  Biso   1.000  O
  O546     1.0000 0.12750  0.17830  0.47210  Biso   1.000  O
  Al118    1.0000 0.17010  0.78050  0.86620  Biso   1.000  Al
  Al119    1.0000 0.14420  0.81120  0.96160  Biso   1.000  Al
  Al120    1.0000 0.13840  0.72240  0.90470  Biso   1.000  Al
  P118     1.0000 0.12960  0.78110  0.91120  Biso   1.000  P
  P119     1.0000 0.18380  0.72080  0.86530  Biso   1.000  P
  P120     1.0000 0.14830  0.68830  0.95400  Biso   1.000  P
  O547     1.0000 0.12610  0.75040  0.91910  Biso   1.000  O
  O548     1.0000 0.11270  0.78700  0.88590  Biso   1.000  O
  O549     1.0000 0.15910  0.78130  0.89830  Biso   1.000  O
  O550     1.0000 0.12880  0.79880  0.93410  Biso   1.000  O
  O551     1.0000 0.19070  0.75320  0.86490  Biso   1.000  O
  O552     1.0000 0.20290  0.69960  0.86540  Biso   1.000  O
  O553     1.0000 0.16350  0.71810  0.84270  Biso   1.000  O
  O554     1.0000 0.16320  0.78590  0.97170  Biso   1.000  O
  O555     1.0000 0.16960  0.66780  0.94460  Biso   1.000  O
  O556     1.0000 0.11800  0.83000  0.97340  Biso   1.000  O
  O557     1.0000 0.17050  0.71710  0.89350  Biso   1.000  O
  O558     1.0000 0.13390  0.69960  0.92660  Biso   1.000  O
  O559     1.0000 0.15870  0.71170  0.96950  Biso   1.000  O
  O560     1.0000 0.12750  0.67830  0.97210  Biso   1.000  O
  Al121    1.0000 0.32990  0.71950  0.86620  Biso   1.000  Al
  Al122    1.0000 0.35580  0.68880  0.96160  Biso   1.000  Al
  Al123    1.0000 0.36160  0.77760  0.90470  Biso   1.000  Al
  P121     1.0000 0.37040  0.71890  0.91120  Biso   1.000  P
  P122     1.0000 0.31620  0.77920  0.86530  Biso   1.000  P
  P123     1.0000 0.35170  0.81170  0.95400  Biso   1.000  P
  O561     1.0000 0.37390  0.74960  0.91910  Biso   1.000  O
  O562     1.0000 0.38730  0.71300  0.88590  Biso   1.000  O
  O563     1.0000 0.34090  0.71870  0.89830  Biso   1.000  O
  O564     1.0000 0.37120  0.70120  0.93410  Biso   1.000  O
  O565     1.0000 0.30930  0.74680  0.86490  Biso   1.000  O
  O566     1.0000 0.29710  0.80040  0.86540  Biso   1.000  O
  O567     1.0000 0.33650  0.78190  0.84270  Biso   1.000  O
  O568     1.0000 0.33680  0.71410  0.97170  Biso   1.000  O
  O569     1.0000 0.33040  0.83220  0.94460  Biso   1.000  O
  O570     1.0000 0.38200  0.67000  0.97340  Biso   1.000  O
  O571     1.0000 0.32950  0.78290  0.89350  Biso   1.000  O
  O572     1.0000 0.36610  0.80040  0.92660  Biso   1.000  O
  O573     1.0000 0.34130  0.78830  0.96950  Biso   1.000  O
  O574     1.0000 0.37250  0.82170  0.97210  Biso   1.000  O
  Al124    1.0000 0.32990  0.21950  0.36620  Biso   1.000  Al
  Al125    1.0000 0.35580  0.18880  0.46160  Biso   1.000  Al
  Al126    1.0000 0.36160  0.27760  0.40470  Biso   1.000  Al
  P124     1.0000 0.37040  0.21890  0.41120  Biso   1.000  P
  P125     1.0000 0.31620  0.27920  0.36530  Biso   1.000  P
  P126     1.0000 0.35170  0.31170  0.45400  Biso   1.000  P
  O575     1.0000 0.37390  0.24960  0.41910  Biso   1.000  O
  O576     1.0000 0.38730  0.21300  0.38590  Biso   1.000  O
  O577     1.0000 0.34090  0.21870  0.39830  Biso   1.000  O
  O578     1.0000 0.37120  0.20120  0.43410  Biso   1.000  O
  O579     1.0000 0.30930  0.24680  0.36490  Biso   1.000  O
  O580     1.0000 0.29710  0.30040  0.36540  Biso   1.000  O
  O581     1.0000 0.33650  0.28190  0.34270  Biso   1.000  O
  O582     1.0000 0.33680  0.21410  0.47170  Biso   1.000  O
  O583     1.0000 0.33040  0.33220  0.44460  Biso   1.000  O
  O584     1.0000 0.38200  0.17000  0.47340  Biso   1.000  O
  O585     1.0000 0.32950  0.28290  0.39350  Biso   1.000  O
  O586     1.0000 0.36610  0.30040  0.42660  Biso   1.000  O
  O587     1.0000 0.34130  0.28830  0.46950  Biso   1.000  O
  O588     1.0000 0.37250  0.32170  0.47210  Biso   1.000  O
  Al127    1.0000 0.82990  0.71950  0.36620  Biso   1.000  Al
  Al128    1.0000 0.85580  0.68880  0.46160  Biso   1.000  Al
  Al129    1.0000 0.86160  0.77760  0.40470  Biso   1.000  Al
  P127     1.0000 0.87040  0.71890  0.41120  Biso   1.000  P
  P128     1.0000 0.81620  0.77920  0.36530  Biso   1.000  P
  P129     1.0000 0.85170  0.81170  0.45400  Biso   1.000  P
  O589     1.0000 0.87390  0.74960  0.41910  Biso   1.000  O
  O590     1.0000 0.88730  0.71300  0.38590  Biso   1.000  O
  O591     1.0000 0.84090  0.71870  0.39830  Biso   1.000  O
  O592     1.0000 0.87120  0.70120  0.43410  Biso   1.000  O
  O593     1.0000 0.80930  0.74680  0.36490  Biso   1.000  O
  O594     1.0000 0.79710  0.80040  0.36540  Biso   1.000  O
  O595     1.0000 0.83650  0.78190  0.34270  Biso   1.000  O
  O596     1.0000 0.83680  0.71410  0.47170  Biso   1.000  O
  O597     1.0000 0.83040  0.83220  0.44460  Biso   1.000  O
  O598     1.0000 0.88200  0.67000  0.47340  Biso   1.000  O
  O599     1.0000 0.82950  0.78290  0.39350  Biso   1.000  O
  O600     1.0000 0.86610  0.80040  0.42660  Biso   1.000  O
  O601     1.0000 0.84130  0.78830  0.46950  Biso   1.000  O
  O602     1.0000 0.87250  0.82170  0.47210  Biso   1.000  O
  Al130    1.0000 0.82990  0.21950  0.86620  Biso   1.000  Al
  Al131    1.0000 0.85580  0.18880  0.96160  Biso   1.000  Al
  Al132    1.0000 0.86160  0.27760  0.90470  Biso   1.000  Al
  P130     1.0000 0.87040  0.21890  0.91120  Biso   1.000  P
  P131     1.0000 0.81620  0.27920  0.86530  Biso   1.000  P
  P132     1.0000 0.85170  0.31170  0.95400  Biso   1.000  P
  O603     1.0000 0.87390  0.24960  0.91910  Biso   1.000  O
  O604     1.0000 0.88730  0.21300  0.88590  Biso   1.000  O
  O605     1.0000 0.84090  0.21870  0.89830  Biso   1.000  O
  O606     1.0000 0.87120  0.20120  0.93410  Biso   1.000  O
  O607     1.0000 0.80930  0.24680  0.86490  Biso   1.000  O
  O608     1.0000 0.79710  0.30040  0.86540  Biso   1.000  O
  O609     1.0000 0.83650  0.28190  0.84270  Biso   1.000  O
  O610     1.0000 0.83680  0.21410  0.97170  Biso   1.000  O
  O611     1.0000 0.83040  0.33220  0.94460  Biso   1.000  O
  O612     1.0000 0.88200  0.17000  0.97340  Biso   1.000  O
  O613     1.0000 0.82950  0.28290  0.89350  Biso   1.000  O
  O614     1.0000 0.86610  0.30040  0.92660  Biso   1.000  O
  O615     1.0000 0.84130  0.28830  0.96950  Biso   1.000  O
  O616     1.0000 0.87250  0.32170  0.97210  Biso   1.000  O
  Al133    1.0000 0.67010  0.71950  0.13380  Biso   1.000  Al
  Al134    1.0000 0.64420  0.68880  0.03840  Biso   1.000  Al
  Al135    1.0000 0.63840  0.77760  0.09530  Biso   1.000  Al
  P133     1.0000 0.62960  0.71890  0.08880  Biso   1.000  P
  P134     1.0000 0.68380  0.77920  0.13470  Biso   1.000  P
  P135     1.0000 0.64830  0.81170  0.04600  Biso   1.000  P
  O617     1.0000 0.62610  0.74960  0.08090  Biso   1.000  O
  O618     1.0000 0.61270  0.71300  0.11410  Biso   1.000  O
  O619     1.0000 0.65910  0.71870  0.10170  Biso   1.000  O
  O620     1.0000 0.62880  0.70120  0.06590  Biso   1.000  O
  O621     1.0000 0.69070  0.74680  0.13510  Biso   1.000  O
  O622     1.0000 0.70290  0.80040  0.13460  Biso   1.000  O
  O623     1.0000 0.66350  0.78190  0.15730  Biso   1.000  O
  O624     1.0000 0.66320  0.71410  0.02830  Biso   1.000  O
  O625     1.0000 0.66960  0.83220  0.05540  Biso   1.000  O
  O626     1.0000 0.61800  0.67000  0.02660  Biso   1.000  O
  O627     1.0000 0.67050  0.78290  0.10650  Biso   1.000  O
  O628     1.0000 0.63390  0.80040  0.07340  Biso   1.000  O
  O629     1.0000 0.65870  0.78830  0.03050  Biso   1.000  O
  O630     1.0000 0.62750  0.82170  0.02790  Biso   1.000  O
  Al136    1.0000 0.67010  0.21950  0.63380  Biso   1.000  Al
  Al137    1.0000 0.64420  0.18880  0.53840  Biso   1.000  Al
  Al138    1.0000 0.63840  0.27760  0.59530  Biso   1.000  Al
  P136     1.0000 0.62960  0.21890  0.58880  Biso   1.000  P
  P137     1.0000 0.68380  0.27920  0.63470  Biso   1.000  P
  P138     1.0000 0.64830  0.31170  0.54600  Biso   1.000  P
  O631     1.0000 0.62610  0.24960  0.58090  Biso   1.000  O
  O632     1.0000 0.61270  0.21300  0.61410  Biso   1.000  O
  O633     1.0000 0.65910  0.21870  0.60170  Biso   1.000  O
  O634     1.0000 0.62880  0.20120  0.56590  Biso   1.000  O
  O635     1.0000 0.69070  0.24680  0.63510  Biso   1.000  O
  O636     1.0000 0.70290  0.30040  0.63460  Biso   1.000  O
  O637     1.0000 0.66350  0.28190  0.65730  Biso   1.000  O
  O638     1.0000 0.66320  0.21410  0.52830  Biso   1.000  O
  O639     1.0000 0.66960  0.33220  0.55540  Biso   1.000  O
  O640     1.0000 0.61800  0.17000  0.52660  Biso   1.000  O
  O641     1.0000 0.67050  0.28290  0.60650  Biso   1.000  O
  O642     1.0000 0.63390  0.30040  0.57340  Biso   1.000  O
  O643     1.0000 0.65870  0.28830  0.53050  Biso   1.000  O
  O644     1.0000 0.62750  0.32170  0.52790  Biso   1.000  O
  Al139    1.0000 0.17010  0.71950  0.63380  Biso   1.000  Al
  Al140    1.0000 0.14420  0.68880  0.53840  Biso   1.000  Al
  Al141    1.0000 0.13840  0.77760  0.59530  Biso   1.000  Al
  P139     1.0000 0.12960  0.71890  0.58880  Biso   1.000  P
  P140     1.0000 0.18380  0.77920  0.63470  Biso   1.000  P
  P141     1.0000 0.14830  0.81170  0.54600  Biso   1.000  P
  O645     1.0000 0.12610  0.74960  0.58090  Biso   1.000  O
  O646     1.0000 0.11270  0.71300  0.61410  Biso   1.000  O
  O647     1.0000 0.15910  0.71870  0.60170  Biso   1.000  O
  O648     1.0000 0.12880  0.70120  0.56590  Biso   1.000  O
  O649     1.0000 0.19070  0.74680  0.63510  Biso   1.000  O
  O650     1.0000 0.20290  0.80040  0.63460  Biso   1.000  O
  O651     1.0000 0.16350  0.78190  0.65730  Biso   1.000  O
  O652     1.0000 0.16320  0.71410  0.52830  Biso   1.000  O
  O653     1.0000 0.16960  0.83220  0.55540  Biso   1.000  O
  O654     1.0000 0.11800  0.67000  0.52660  Biso   1.000  O
  O655     1.0000 0.17050  0.78290  0.60650  Biso   1.000  O
  O656     1.0000 0.13390  0.80040  0.57340  Biso   1.000  O
  O657     1.0000 0.15870  0.78830  0.53050  Biso   1.000  O
  O658     1.0000 0.12750  0.82170  0.52790  Biso   1.000  O
  Al142    1.0000 0.17010  0.21950  0.13380  Biso   1.000  Al
  Al143    1.0000 0.14420  0.18880  0.03840  Biso   1.000  Al
  Al144    1.0000 0.13840  0.27760  0.09530  Biso   1.000  Al
  P142     1.0000 0.12960  0.21890  0.08880  Biso   1.000  P
  P143     1.0000 0.18380  0.27920  0.13470  Biso   1.000  P
  P144     1.0000 0.14830  0.31170  0.04600  Biso   1.000  P
  O659     1.0000 0.12610  0.24960  0.08090  Biso   1.000  O
  O660     1.0000 0.11270  0.21300  0.11410  Biso   1.000  O
  O661     1.0000 0.15910  0.21870  0.10170  Biso   1.000  O
  O662     1.0000 0.12880  0.20120  0.06590  Biso   1.000  O
  O663     1.0000 0.19070  0.24680  0.13510  Biso   1.000  O
  O664     1.0000 0.20290  0.30040  0.13460  Biso   1.000  O
  O665     1.0000 0.16350  0.28190  0.15730  Biso   1.000  O
  O666     1.0000 0.16320  0.21410  0.02830  Biso   1.000  O
  O667     1.0000 0.16960  0.33220  0.05540  Biso   1.000  O
  O668     1.0000 0.11800  0.17000  0.02660  Biso   1.000  O
  O669     1.0000 0.17050  0.28290  0.10650  Biso   1.000  O
  O670     1.0000 0.13390  0.30040  0.07340  Biso   1.000  O
  O671     1.0000 0.15870  0.28830  0.03050  Biso   1.000  O
  O672     1.0000 0.12750  0.32170  0.02790  Biso   1.000  O
  Al145    1.0000 0.82990  0.63380  0.21950  Biso   1.000  Al
  Al146    1.0000 0.85580  0.53840  0.18880  Biso   1.000  Al
  Al147    1.0000 0.86160  0.59530  0.27760  Biso   1.000  Al
  P145     1.0000 0.87040  0.58880  0.21890  Biso   1.000  P
  P146     1.0000 0.81620  0.63470  0.27920  Biso   1.000  P
  P147     1.0000 0.85170  0.54600  0.31170  Biso   1.000  P
  O673     1.0000 0.87390  0.58090  0.24960  Biso   1.000  O
  O674     1.0000 0.88730  0.61410  0.21300  Biso   1.000  O
  O675     1.0000 0.84090  0.60170  0.21870  Biso   1.000  O
  O676     1.0000 0.87120  0.56590  0.20120  Biso   1.000  O
  O677     1.0000 0.80930  0.63510  0.24680  Biso   1.000  O
  O678     1.0000 0.79710  0.63460  0.30040  Biso   1.000  O
  O679     1.0000 0.83650  0.65730  0.28190  Biso   1.000  O
  O680     1.0000 0.83680  0.52830  0.21410  Biso   1.000  O
  O681     1.0000 0.83040  0.55540  0.33220  Biso   1.000  O
  O682     1.0000 0.88200  0.52660  0.17000  Biso   1.000  O
  O683     1.0000 0.82950  0.60650  0.28290  Biso   1.000  O
  O684     1.0000 0.86610  0.57340  0.30040  Biso   1.000  O
  O685     1.0000 0.84130  0.53050  0.28830  Biso   1.000  O
  O686     1.0000 0.87250  0.52790  0.32170  Biso   1.000  O
  Al148    1.0000 0.82990  0.13380  0.71950  Biso   1.000  Al
  Al149    1.0000 0.85580  0.03840  0.68880  Biso   1.000  Al
  Al150    1.0000 0.86160  0.09530  0.77760  Biso   1.000  Al
  P148     1.0000 0.87040  0.08880  0.71890  Biso   1.000  P
  P149     1.0000 0.81620  0.13470  0.77920  Biso   1.000  P
  P150     1.0000 0.85170  0.04600  0.81170  Biso   1.000  P
  O687     1.0000 0.87390  0.08090  0.74960  Biso   1.000  O
  O688     1.0000 0.88730  0.11410  0.71300  Biso   1.000  O
  O689     1.0000 0.84090  0.10170  0.71870  Biso   1.000  O
  O690     1.0000 0.87120  0.06590  0.70120  Biso   1.000  O
  O691     1.0000 0.80930  0.13510  0.74680  Biso   1.000  O
  O692     1.0000 0.79710  0.13460  0.80040  Biso   1.000  O
  O693     1.0000 0.83650  0.15730  0.78190  Biso   1.000  O
  O694     1.0000 0.83680  0.02830  0.71410  Biso   1.000  O
  O695     1.0000 0.83040  0.05540  0.83220  Biso   1.000  O
  O696     1.0000 0.88200  0.02660  0.67000  Biso   1.000  O
  O697     1.0000 0.82950  0.10650  0.78290  Biso   1.000  O
  O698     1.0000 0.86610  0.07340  0.80040  Biso   1.000  O
  O699     1.0000 0.84130  0.03050  0.78830  Biso   1.000  O
  O700     1.0000 0.87250  0.02790  0.82170  Biso   1.000  O
  Al151    1.0000 0.32990  0.63380  0.71950  Biso   1.000  Al
  Al152    1.0000 0.35580  0.53840  0.68880  Biso   1.000  Al
  Al153    1.0000 0.36160  0.59530  0.77760  Biso   1.000  Al
  P151     1.0000 0.37040  0.58880  0.71890  Biso   1.000  P
  P152     1.0000 0.31620  0.63470  0.77920  Biso   1.000  P
  P153     1.0000 0.35170  0.54600  0.81170  Biso   1.000  P
  O701     1.0000 0.37390  0.58090  0.74960  Biso   1.000  O
  O702     1.0000 0.38730  0.61410  0.71300  Biso   1.000  O
  O703     1.0000 0.34090  0.60170  0.71870  Biso   1.000  O
  O704     1.0000 0.37120  0.56590  0.70120  Biso   1.000  O
  O705     1.0000 0.30930  0.63510  0.74680  Biso   1.000  O
  O706     1.0000 0.29710  0.63460  0.80040  Biso   1.000  O
  O707     1.0000 0.33650  0.65730  0.78190  Biso   1.000  O
  O708     1.0000 0.33680  0.52830  0.71410  Biso   1.000  O
  O709     1.0000 0.33040  0.55540  0.83220  Biso   1.000  O
  O710     1.0000 0.38200  0.52660  0.67000  Biso   1.000  O
  O711     1.0000 0.32950  0.60650  0.78290  Biso   1.000  O
  O712     1.0000 0.36610  0.57340  0.80040  Biso   1.000  O
  O713     1.0000 0.34130  0.53050  0.78830  Biso   1.000  O
  O714     1.0000 0.37250  0.52790  0.82170  Biso   1.000  O
  Al154    1.0000 0.32990  0.13380  0.21950  Biso   1.000  Al
  Al155    1.0000 0.35580  0.03840  0.18880  Biso   1.000  Al
  Al156    1.0000 0.36160  0.09530  0.27760  Biso   1.000  Al
  P154     1.0000 0.37040  0.08880  0.21890  Biso   1.000  P
  P155     1.0000 0.31620  0.13470  0.27920  Biso   1.000  P
  P156     1.0000 0.35170  0.04600  0.31170  Biso   1.000  P
  O715     1.0000 0.37390  0.08090  0.24960  Biso   1.000  O
  O716     1.0000 0.38730  0.11410  0.21300  Biso   1.000  O
  O717     1.0000 0.34090  0.10170  0.21870  Biso   1.000  O
  O718     1.0000 0.37120  0.06590  0.20120  Biso   1.000  O
  O719     1.0000 0.30930  0.13510  0.24680  Biso   1.000  O
  O720     1.0000 0.29710  0.13460  0.30040  Biso   1.000  O
  O721     1.0000 0.33650  0.15730  0.28190  Biso   1.000  O
  O722     1.0000 0.33680  0.02830  0.21410  Biso   1.000  O
  O723     1.0000 0.33040  0.05540  0.33220  Biso   1.000  O
  O724     1.0000 0.38200  0.02660  0.17000  Biso   1.000  O
  O725     1.0000 0.32950  0.10650  0.28290  Biso   1.000  O
  O726     1.0000 0.36610  0.07340  0.30040  Biso   1.000  O
  O727     1.0000 0.34130  0.03050  0.28830  Biso   1.000  O
  O728     1.0000 0.37250  0.02790  0.32170  Biso   1.000  O
  Al157    1.0000 0.17010  0.36620  0.21950  Biso   1.000  Al
  Al158    1.0000 0.14420  0.46160  0.18880  Biso   1.000  Al
  Al159    1.0000 0.13840  0.40470  0.27760  Biso   1.000  Al
  P157     1.0000 0.12960  0.41120  0.21890  Biso   1.000  P
  P158     1.0000 0.18380  0.36530  0.27920  Biso   1.000  P
  P159     1.0000 0.14830  0.45400  0.31170  Biso   1.000  P
  O729     1.0000 0.12610  0.41910  0.24960  Biso   1.000  O
  O730     1.0000 0.11270  0.38590  0.21300  Biso   1.000  O
  O731     1.0000 0.15910  0.39830  0.21870  Biso   1.000  O
  O732     1.0000 0.12880  0.43410  0.20120  Biso   1.000  O
  O733     1.0000 0.19070  0.36490  0.24680  Biso   1.000  O
  O734     1.0000 0.20290  0.36540  0.30040  Biso   1.000  O
  O735     1.0000 0.16350  0.34270  0.28190  Biso   1.000  O
  O736     1.0000 0.16320  0.47170  0.21410  Biso   1.000  O
  O737     1.0000 0.16960  0.44460  0.33220  Biso   1.000  O
  O738     1.0000 0.11800  0.47340  0.17000  Biso   1.000  O
  O739     1.0000 0.17050  0.39350  0.28290  Biso   1.000  O
  O740     1.0000 0.13390  0.42660  0.30040  Biso   1.000  O
  O741     1.0000 0.15870  0.46950  0.28830  Biso   1.000  O
  O742     1.0000 0.12750  0.47210  0.32170  Biso   1.000  O
  Al160    1.0000 0.17010  0.86620  0.71950  Biso   1.000  Al
  Al161    1.0000 0.14420  0.96160  0.68880  Biso   1.000  Al
  Al162    1.0000 0.13840  0.90470  0.77760  Biso   1.000  Al
  P160     1.0000 0.12960  0.91120  0.71890  Biso   1.000  P
  P161     1.0000 0.18380  0.86530  0.77920  Biso   1.000  P
  P162     1.0000 0.14830  0.95400  0.81170  Biso   1.000  P
  O743     1.0000 0.12610  0.91910  0.74960  Biso   1.000  O
  O744     1.0000 0.11270  0.88590  0.71300  Biso   1.000  O
  O745     1.0000 0.15910  0.89830  0.71870  Biso   1.000  O
  O746     1.0000 0.12880  0.93410  0.70120  Biso   1.000  O
  O747     1.0000 0.19070  0.86490  0.74680  Biso   1.000  O
  O748     1.0000 0.20290  0.86540  0.80040  Biso   1.000  O
  O749     1.0000 0.16350  0.84270  0.78190  Biso   1.000  O
  O750     1.0000 0.16320  0.97170  0.71410  Biso   1.000  O
  O751     1.0000 0.16960  0.94460  0.83220  Biso   1.000  O
  O752     1.0000 0.11800  0.97340  0.67000  Biso   1.000  O
  O753     1.0000 0.17050  0.89350  0.78290  Biso   1.000  O
  O754     1.0000 0.13390  0.92660  0.80040  Biso   1.000  O
  O755     1.0000 0.15870  0.96950  0.78830  Biso   1.000  O
  O756     1.0000 0.12750  0.97210  0.82170  Biso   1.000  O
  Al163    1.0000 0.67010  0.36620  0.71950  Biso   1.000  Al
  Al164    1.0000 0.64420  0.46160  0.68880  Biso   1.000  Al
  Al165    1.0000 0.63840  0.40470  0.77760  Biso   1.000  Al
  P163     1.0000 0.62960  0.41120  0.71890  Biso   1.000  P
  P164     1.0000 0.68380  0.36530  0.77920  Biso   1.000  P
  P165     1.0000 0.64830  0.45400  0.81170  Biso   1.000  P
  O757     1.0000 0.62610  0.41910  0.74960  Biso   1.000  O
  O758     1.0000 0.61270  0.38590  0.71300  Biso   1.000  O
  O759     1.0000 0.65910  0.39830  0.71870  Biso   1.000  O
  O760     1.0000 0.62880  0.43410  0.70120  Biso   1.000  O
  O761     1.0000 0.69070  0.36490  0.74680  Biso   1.000  O
  O762     1.0000 0.70290  0.36540  0.80040  Biso   1.000  O
  O763     1.0000 0.66350  0.34270  0.78190  Biso   1.000  O
  O764     1.0000 0.66320  0.47170  0.71410  Biso   1.000  O
  O765     1.0000 0.66960  0.44460  0.83220  Biso   1.000  O
  O766     1.0000 0.61800  0.47340  0.67000  Biso   1.000  O
  O767     1.0000 0.67050  0.39350  0.78290  Biso   1.000  O
  O768     1.0000 0.63390  0.42660  0.80040  Biso   1.000  O
  O769     1.0000 0.65870  0.46950  0.78830  Biso   1.000  O
  O770     1.0000 0.62750  0.47210  0.82170  Biso   1.000  O
  Al166    1.0000 0.67010  0.86620  0.21950  Biso   1.000  Al
  Al167    1.0000 0.64420  0.96160  0.18880  Biso   1.000  Al
  Al168    1.0000 0.63840  0.90470  0.27760  Biso   1.000  Al
  P166     1.0000 0.62960  0.91120  0.21890  Biso   1.000  P
  P167     1.0000 0.68380  0.86530  0.27920  Biso   1.000  P
  P168     1.0000 0.64830  0.95400  0.31170  Biso   1.000  P
  O771     1.0000 0.62610  0.91910  0.24960  Biso   1.000  O
  O772     1.0000 0.61270  0.88590  0.21300  Biso   1.000  O
  O773     1.0000 0.65910  0.89830  0.21870  Biso   1.000  O
  O774     1.0000 0.62880  0.93410  0.20120  Biso   1.000  O
  O775     1.0000 0.69070  0.86490  0.24680  Biso   1.000  O
  O776     1.0000 0.70290  0.86540  0.30040  Biso   1.000  O
  O777     1.0000 0.66350  0.84270  0.28190  Biso   1.000  O
  O778     1.0000 0.66320  0.97170  0.21410  Biso   1.000  O
  O779     1.0000 0.66960  0.94460  0.33220  Biso   1.000  O
  O780     1.0000 0.61800  0.97340  0.17000  Biso   1.000  O
  O781     1.0000 0.67050  0.89350  0.28290  Biso   1.000  O
  O782     1.0000 0.63390  0.92660  0.30040  Biso   1.000  O
  O783     1.0000 0.65870  0.96950  0.28830  Biso   1.000  O
  O784     1.0000 0.62750  0.97210  0.32170  Biso   1.000  O
  Al169    1.0000 0.82990  0.36620  0.78050  Biso   1.000  Al
  Al170    1.0000 0.85580  0.46160  0.81120  Biso   1.000  Al
  Al171    1.0000 0.86160  0.40470  0.72240  Biso   1.000  Al
  P169     1.0000 0.87040  0.41120  0.78110  Biso   1.000  P
  P170     1.0000 0.81620  0.36530  0.72080  Biso   1.000  P
  P171     1.0000 0.85170  0.45400  0.68830  Biso   1.000  P
  O785     1.0000 0.87390  0.41910  0.75040  Biso   1.000  O
  O786     1.0000 0.88730  0.38590  0.78700  Biso   1.000  O
  O787     1.0000 0.84090  0.39830  0.78130  Biso   1.000  O
  O788     1.0000 0.87120  0.43410  0.79880  Biso   1.000  O
  O789     1.0000 0.80930  0.36490  0.75320  Biso   1.000  O
  O790     1.0000 0.79710  0.36540  0.69960  Biso   1.000  O
  O791     1.0000 0.83650  0.34270  0.71810  Biso   1.000  O
  O792     1.0000 0.83680  0.47170  0.78590  Biso   1.000  O
  O793     1.0000 0.83040  0.44460  0.66780  Biso   1.000  O
  O794     1.0000 0.88200  0.47340  0.83000  Biso   1.000  O
  O795     1.0000 0.82950  0.39350  0.71710  Biso   1.000  O
  O796     1.0000 0.86610  0.42660  0.69960  Biso   1.000  O
  O797     1.0000 0.84130  0.46950  0.71170  Biso   1.000  O
  O798     1.0000 0.87250  0.47210  0.67830  Biso   1.000  O
  Al172    1.0000 0.82990  0.86620  0.28050  Biso   1.000  Al
  Al173    1.0000 0.85580  0.96160  0.31120  Biso   1.000  Al
  Al174    1.0000 0.86160  0.90470  0.22240  Biso   1.000  Al
  P172     1.0000 0.87040  0.91120  0.28110  Biso   1.000  P
  P173     1.0000 0.81620  0.86530  0.22080  Biso   1.000  P
  P174     1.0000 0.85170  0.95400  0.18830  Biso   1.000  P
  O799     1.0000 0.87390  0.91910  0.25040  Biso   1.000  O
  O800     1.0000 0.88730  0.88590  0.28700  Biso   1.000  O
  O801     1.0000 0.84090  0.89830  0.28130  Biso   1.000  O
  O802     1.0000 0.87120  0.93410  0.29880  Biso   1.000  O
  O803     1.0000 0.80930  0.86490  0.25320  Biso   1.000  O
  O804     1.0000 0.79710  0.86540  0.19960  Biso   1.000  O
  O805     1.0000 0.83650  0.84270  0.21810  Biso   1.000  O
  O806     1.0000 0.83680  0.97170  0.28590  Biso   1.000  O
  O807     1.0000 0.83040  0.94460  0.16780  Biso   1.000  O
  O808     1.0000 0.88200  0.97340  0.33000  Biso   1.000  O
  O809     1.0000 0.82950  0.89350  0.21710  Biso   1.000  O
  O810     1.0000 0.86610  0.92660  0.19960  Biso   1.000  O
  O811     1.0000 0.84130  0.96950  0.21170  Biso   1.000  O
  O812     1.0000 0.87250  0.97210  0.17830  Biso   1.000  O
  Al175    1.0000 0.32990  0.36620  0.28050  Biso   1.000  Al
  Al176    1.0000 0.35580  0.46160  0.31120  Biso   1.000  Al
  Al177    1.0000 0.36160  0.40470  0.22240  Biso   1.000  Al
  P175     1.0000 0.37040  0.41120  0.28110  Biso   1.000  P
  P176     1.0000 0.31620  0.36530  0.22080  Biso   1.000  P
  P177     1.0000 0.35170  0.45400  0.18830  Biso   1.000  P
  O813     1.0000 0.37390  0.41910  0.25040  Biso   1.000  O
  O814     1.0000 0.38730  0.38590  0.28700  Biso   1.000  O
  O815     1.0000 0.34090  0.39830  0.28130  Biso   1.000  O
  O816     1.0000 0.37120  0.43410  0.29880  Biso   1.000  O
  O817     1.0000 0.30930  0.36490  0.25320  Biso   1.000  O
  O818     1.0000 0.29710  0.36540  0.19960  Biso   1.000  O
  O819     1.0000 0.33650  0.34270  0.21810  Biso   1.000  O
  O820     1.0000 0.33680  0.47170  0.28590  Biso   1.000  O
  O821     1.0000 0.33040  0.44460  0.16780  Biso   1.000  O
  O822     1.0000 0.38200  0.47340  0.33000  Biso   1.000  O
  O823     1.0000 0.32950  0.39350  0.21710  Biso   1.000  O
  O824     1.0000 0.36610  0.42660  0.19960  Biso   1.000  O
  O825     1.0000 0.34130  0.46950  0.21170  Biso   1.000  O
  O826     1.0000 0.37250  0.47210  0.17830  Biso   1.000  O
  Al178    1.0000 0.32990  0.86620  0.78050  Biso   1.000  Al
  Al179    1.0000 0.35580  0.96160  0.81120  Biso   1.000  Al
  Al180    1.0000 0.36160  0.90470  0.72240  Biso   1.000  Al
  P178     1.0000 0.37040  0.91120  0.78110  Biso   1.000  P
  P179     1.0000 0.31620  0.86530  0.72080  Biso   1.000  P
  P180     1.0000 0.35170  0.95400  0.68830  Biso   1.000  P
  O827     1.0000 0.37390  0.91910  0.75040  Biso   1.000  O
  O828     1.0000 0.38730  0.88590  0.78700  Biso   1.000  O
  O829     1.0000 0.34090  0.89830  0.78130  Biso   1.000  O
  O830     1.0000 0.37120  0.93410  0.79880  Biso   1.000  O
  O831     1.0000 0.30930  0.86490  0.75320  Biso   1.000  O
  O832     1.0000 0.29710  0.86540  0.69960  Biso   1.000  O
  O833     1.0000 0.33650  0.84270  0.71810  Biso   1.000  O
  O834     1.0000 0.33680  0.97170  0.78590  Biso   1.000  O
  O835     1.0000 0.33040  0.94460  0.66780  Biso   1.000  O
  O836     1.0000 0.38200  0.97340  0.83000  Biso   1.000  O
  O837     1.0000 0.32950  0.89350  0.71710  Biso   1.000  O
  O838     1.0000 0.36610  0.92660  0.69960  Biso   1.000  O
  O839     1.0000 0.34130  0.96950  0.71170  Biso   1.000  O
  O840     1.0000 0.37250  0.97210  0.67830  Biso   1.000  O
  Al181    1.0000 0.17010  0.63380  0.78050  Biso   1.000  Al
  Al182    1.0000 0.14420  0.53840  0.81120  Biso   1.000  Al
  Al183    1.0000 0.13840  0.59530  0.72240  Biso   1.000  Al
  P181     1.0000 0.12960  0.58880  0.78110  Biso   1.000  P
  P182     1.0000 0.18380  0.63470  0.72080  Biso   1.000  P
  P183     1.0000 0.14830  0.54600  0.68830  Biso   1.000  P
  O841     1.0000 0.12610  0.58090  0.75040  Biso   1.000  O
  O842     1.0000 0.11270  0.61410  0.78700  Biso   1.000  O
  O843     1.0000 0.15910  0.60170  0.78130  Biso   1.000  O
  O844     1.0000 0.12880  0.56590  0.79880  Biso   1.000  O
  O845     1.0000 0.19070  0.63510  0.75320  Biso   1.000  O
  O846     1.0000 0.20290  0.63460  0.69960  Biso   1.000  O
  O847     1.0000 0.16350  0.65730  0.71810  Biso   1.000  O
  O848     1.0000 0.16320  0.52830  0.78590  Biso   1.000  O
  O849     1.0000 0.16960  0.55540  0.66780  Biso   1.000  O
  O850     1.0000 0.11800  0.52660  0.83000  Biso   1.000  O
  O851     1.0000 0.17050  0.60650  0.71710  Biso   1.000  O
  O852     1.0000 0.13390  0.57340  0.69960  Biso   1.000  O
  O853     1.0000 0.15870  0.53050  0.71170  Biso   1.000  O
  O854     1.0000 0.12750  0.52790  0.67830  Biso   1.000  O
  Al184    1.0000 0.17010  0.13380  0.28050  Biso   1.000  Al
  Al185    1.0000 0.14420  0.03840  0.31120  Biso   1.000  Al
  Al186    1.0000 0.13840  0.09530  0.22240  Biso   1.000  Al
  P184     1.0000 0.12960  0.08880  0.28110  Biso   1.000  P
  P185     1.0000 0.18380  0.13470  0.22080  Biso   1.000  P
  P186     1.0000 0.14830  0.04600  0.18830  Biso   1.000  P
  O855     1.0000 0.12610  0.08090  0.25040  Biso   1.000  O
  O856     1.0000 0.11270  0.11410  0.28700  Biso   1.000  O
  O857     1.0000 0.15910  0.10170  0.28130  Biso   1.000  O
  O858     1.0000 0.12880  0.06590  0.29880  Biso   1.000  O
  O859     1.0000 0.19070  0.13510  0.25320  Biso   1.000  O
  O860     1.0000 0.20290  0.13460  0.19960  Biso   1.000  O
  O861     1.0000 0.16350  0.15730  0.21810  Biso   1.000  O
  O862     1.0000 0.16320  0.02830  0.28590  Biso   1.000  O
  O863     1.0000 0.16960  0.05540  0.16780  Biso   1.000  O
  O864     1.0000 0.11800  0.02660  0.33000  Biso   1.000  O
  O865     1.0000 0.17050  0.10650  0.21710  Biso   1.000  O
  O866     1.0000 0.13390  0.07340  0.19960  Biso   1.000  O
  O867     1.0000 0.15870  0.03050  0.21170  Biso   1.000  O
  O868     1.0000 0.12750  0.02790  0.17830  Biso   1.000  O
  Al187    1.0000 0.67010  0.63380  0.28050  Biso   1.000  Al
  Al188    1.0000 0.64420  0.53840  0.31120  Biso   1.000  Al
  Al189    1.0000 0.63840  0.59530  0.22240  Biso   1.000  Al
  P187     1.0000 0.62960  0.58880  0.28110  Biso   1.000  P
  P188     1.0000 0.68380  0.63470  0.22080  Biso   1.000  P
  P189     1.0000 0.64830  0.54600  0.18830  Biso   1.000  P
  O869     1.0000 0.62610  0.58090  0.25040  Biso   1.000  O
  O870     1.0000 0.61270  0.61410  0.28700  Biso   1.000  O
  O871     1.0000 0.65910  0.60170  0.28130  Biso   1.000  O
  O872     1.0000 0.62880  0.56590  0.29880  Biso   1.000  O
  O873     1.0000 0.69070  0.63510  0.25320  Biso   1.000  O
  O874     1.0000 0.70290  0.63460  0.19960  Biso   1.000  O
  O875     1.0000 0.66350  0.65730  0.21810  Biso   1.000  O
  O876     1.0000 0.66320  0.52830  0.28590  Biso   1.000  O
  O877     1.0000 0.66960  0.55540  0.16780  Biso   1.000  O
  O878     1.0000 0.61800  0.52660  0.33000  Biso   1.000  O
  O879     1.0000 0.67050  0.60650  0.21710  Biso   1.000  O
  O880     1.0000 0.63390  0.57340  0.19960  Biso   1.000  O
  O881     1.0000 0.65870  0.53050  0.21170  Biso   1.000  O
  O882     1.0000 0.62750  0.52790  0.17830  Biso   1.000  O
  Al190    1.0000 0.67010  0.13380  0.78050  Biso   1.000  Al
  Al191    1.0000 0.64420  0.03840  0.81120  Biso   1.000  Al
  Al192    1.0000 0.63840  0.09530  0.72240  Biso   1.000  Al
  P190     1.0000 0.62960  0.08880  0.78110  Biso   1.000  P
  P191     1.0000 0.68380  0.13470  0.72080  Biso   1.000  P
  P192     1.0000 0.64830  0.04600  0.68830  Biso   1.000  P
  O883     1.0000 0.62610  0.08090  0.75040  Biso   1.000  O
  O884     1.0000 0.61270  0.11410  0.78700  Biso   1.000  O
  O885     1.0000 0.65910  0.10170  0.78130  Biso   1.000  O
  O886     1.0000 0.62880  0.06590  0.79880  Biso   1.000  O
  O887     1.0000 0.69070  0.13510  0.75320  Biso   1.000  O
  O888     1.0000 0.70290  0.13460  0.69960  Biso   1.000  O
  O889     1.0000 0.66350  0.15730  0.71810  Biso   1.000  O
  O890     1.0000 0.66320  0.02830  0.78590  Biso   1.000  O
  O891     1.0000 0.66960  0.05540  0.66780  Biso   1.000  O
  O892     1.0000 0.61800  0.02660  0.83000  Biso   1.000  O
  O893     1.0000 0.67050  0.10650  0.71710  Biso   1.000  O
  O894     1.0000 0.63390  0.07340  0.69960  Biso   1.000  O
  O895     1.0000 0.65870  0.03050  0.71170  Biso   1.000  O
  O896     1.0000 0.62750  0.02790  0.67830  Biso   1.000  O
  Al193    1.0000 0.63380  0.78050  0.17010  Biso   1.000  Al
  Al194    1.0000 0.53840  0.81120  0.14420  Biso   1.000  Al
  Al195    1.0000 0.59530  0.72240  0.13840  Biso   1.000  Al
  P193     1.0000 0.58880  0.78110  0.12960  Biso   1.000  P
  P194     1.0000 0.63470  0.72080  0.18380  Biso   1.000  P
  P195     1.0000 0.54600  0.68830  0.14830  Biso   1.000  P
  O897     1.0000 0.58090  0.75040  0.12610  Biso   1.000  O
  O898     1.0000 0.61410  0.78700  0.11270  Biso   1.000  O
  O899     1.0000 0.60170  0.78130  0.15910  Biso   1.000  O
  O900     1.0000 0.56590  0.79880  0.12880  Biso   1.000  O
  O901     1.0000 0.63510  0.75320  0.19070  Biso   1.000  O
  O902     1.0000 0.63460  0.69960  0.20290  Biso   1.000  O
  O903     1.0000 0.65730  0.71810  0.16350  Biso   1.000  O
  O904     1.0000 0.52830  0.78590  0.16320  Biso   1.000  O
  O905     1.0000 0.55540  0.66780  0.16960  Biso   1.000  O
  O906     1.0000 0.52660  0.83000  0.11800  Biso   1.000  O
  O907     1.0000 0.60650  0.71710  0.17050  Biso   1.000  O
  O908     1.0000 0.57340  0.69960  0.13390  Biso   1.000  O
  O909     1.0000 0.53050  0.71170  0.15870  Biso   1.000  O
  O910     1.0000 0.52790  0.67830  0.12750  Biso   1.000  O
  Al196    1.0000 0.63380  0.28050  0.67010  Biso   1.000  Al
  Al197    1.0000 0.53840  0.31120  0.64420  Biso   1.000  Al
  Al198    1.0000 0.59530  0.22240  0.63840  Biso   1.000  Al
  P196     1.0000 0.58880  0.28110  0.62960  Biso   1.000  P
  P197     1.0000 0.63470  0.22080  0.68380  Biso   1.000  P
  P198     1.0000 0.54600  0.18830  0.64830  Biso   1.000  P
  O911     1.0000 0.58090  0.25040  0.62610  Biso   1.000  O
  O912     1.0000 0.61410  0.28700  0.61270  Biso   1.000  O
  O913     1.0000 0.60170  0.28130  0.65910  Biso   1.000  O
  O914     1.0000 0.56590  0.29880  0.62880  Biso   1.000  O
  O915     1.0000 0.63510  0.25320  0.69070  Biso   1.000  O
  O916     1.0000 0.63460  0.19960  0.70290  Biso   1.000  O
  O917     1.0000 0.65730  0.21810  0.66350  Biso   1.000  O
  O918     1.0000 0.52830  0.28590  0.66320  Biso   1.000  O
  O919     1.0000 0.55540  0.16780  0.66960  Biso   1.000  O
  O920     1.0000 0.52660  0.33000  0.61800  Biso   1.000  O
  O921     1.0000 0.60650  0.21710  0.67050  Biso   1.000  O
  O922     1.0000 0.57340  0.19960  0.63390  Biso   1.000  O
  O923     1.0000 0.53050  0.21170  0.65870  Biso   1.000  O
  O924     1.0000 0.52790  0.17830  0.62750  Biso   1.000  O
  Al199    1.0000 0.13380  0.78050  0.67010  Biso   1.000  Al
  Al200    1.0000 0.03840  0.81120  0.64420  Biso   1.000  Al
  Al201    1.0000 0.09530  0.72240  0.63840  Biso   1.000  Al
  P199     1.0000 0.08880  0.78110  0.62960  Biso   1.000  P
  P200     1.0000 0.13470  0.72080  0.68380  Biso   1.000  P
  P201     1.0000 0.04600  0.68830  0.64830  Biso   1.000  P
  O925     1.0000 0.08090  0.75040  0.62610  Biso   1.000  O
  O926     1.0000 0.11410  0.78700  0.61270  Biso   1.000  O
  O927     1.0000 0.10170  0.78130  0.65910  Biso   1.000  O
  O928     1.0000 0.06590  0.79880  0.62880  Biso   1.000  O
  O929     1.0000 0.13510  0.75320  0.69070  Biso   1.000  O
  O930     1.0000 0.13460  0.69960  0.70290  Biso   1.000  O
  O931     1.0000 0.15730  0.71810  0.66350  Biso   1.000  O
  O932     1.0000 0.02830  0.78590  0.66320  Biso   1.000  O
  O933     1.0000 0.05540  0.66780  0.66960  Biso   1.000  O
  O934     1.0000 0.02660  0.83000  0.61800  Biso   1.000  O
  O935     1.0000 0.10650  0.71710  0.67050  Biso   1.000  O
  O936     1.0000 0.07340  0.69960  0.63390  Biso   1.000  O
  O937     1.0000 0.03050  0.71170  0.65870  Biso   1.000  O
  O938     1.0000 0.02790  0.67830  0.62750  Biso   1.000  O
  Al202    1.0000 0.13380  0.28050  0.17010  Biso   1.000  Al
  Al203    1.0000 0.03840  0.31120  0.14420  Biso   1.000  Al
  Al204    1.0000 0.09530  0.22240  0.13840  Biso   1.000  Al
  P202     1.0000 0.08880  0.28110  0.12960  Biso   1.000  P
  P203     1.0000 0.13470  0.22080  0.18380  Biso   1.000  P
  P204     1.0000 0.04600  0.18830  0.14830  Biso   1.000  P
  O939     1.0000 0.08090  0.25040  0.12610  Biso   1.000  O
  O940     1.0000 0.11410  0.28700  0.11270  Biso   1.000  O
  O941     1.0000 0.10170  0.28130  0.15910  Biso   1.000  O
  O942     1.0000 0.06590  0.29880  0.12880  Biso   1.000  O
  O943     1.0000 0.13510  0.25320  0.19070  Biso   1.000  O
  O944     1.0000 0.13460  0.19960  0.20290  Biso   1.000  O
  O945     1.0000 0.15730  0.21810  0.16350  Biso   1.000  O
  O946     1.0000 0.02830  0.28590  0.16320  Biso   1.000  O
  O947     1.0000 0.05540  0.16780  0.16960  Biso   1.000  O
  O948     1.0000 0.02660  0.33000  0.11800  Biso   1.000  O
  O949     1.0000 0.10650  0.21710  0.17050  Biso   1.000  O
  O950     1.0000 0.07340  0.19960  0.13390  Biso   1.000  O
  O951     1.0000 0.03050  0.21170  0.15870  Biso   1.000  O
  O952     1.0000 0.02790  0.17830  0.12750  Biso   1.000  O
  Al205    1.0000 0.36620  0.78050  0.82990  Biso   1.000  Al
  Al206    1.0000 0.46160  0.81120  0.85580  Biso   1.000  Al
  Al207    1.0000 0.40470  0.72240  0.86160  Biso   1.000  Al
  P205     1.0000 0.41120  0.78110  0.87040  Biso   1.000  P
  P206     1.0000 0.36530  0.72080  0.81620  Biso   1.000  P
  P207     1.0000 0.45400  0.68830  0.85170  Biso   1.000  P
  O953     1.0000 0.41910  0.75040  0.87390  Biso   1.000  O
  O954     1.0000 0.38590  0.78700  0.88730  Biso   1.000  O
  O955     1.0000 0.39830  0.78130  0.84090  Biso   1.000  O
  O956     1.0000 0.43410  0.79880  0.87120  Biso   1.000  O
  O957     1.0000 0.36490  0.75320  0.80930  Biso   1.000  O
  O958     1.0000 0.36540  0.69960  0.79710  Biso   1.000  O
  O959     1.0000 0.34270  0.71810  0.83650  Biso   1.000  O
  O960     1.0000 0.47170  0.78590  0.83680  Biso   1.000  O
  O961     1.0000 0.44460  0.66780  0.83040  Biso   1.000  O
  O962     1.0000 0.47340  0.83000  0.88200  Biso   1.000  O
  O963     1.0000 0.39350  0.71710  0.82950  Biso   1.000  O
  O964     1.0000 0.42660  0.69960  0.86610  Biso   1.000  O
  O965     1.0000 0.46950  0.71170  0.84130  Biso   1.000  O
  O966     1.0000 0.47210  0.67830  0.87250  Biso   1.000  O
  Al208    1.0000 0.36620  0.28050  0.32990  Biso   1.000  Al
  Al209    1.0000 0.46160  0.31120  0.35580  Biso   1.000  Al
  Al210    1.0000 0.40470  0.22240  0.36160  Biso   1.000  Al
  P208     1.0000 0.41120  0.28110  0.37040  Biso   1.000  P
  P209     1.0000 0.36530  0.22080  0.31620  Biso   1.000  P
  P210     1.0000 0.45400  0.18830  0.35170  Biso   1.000  P
  O967     1.0000 0.41910  0.25040  0.37390  Biso   1.000  O
  O968     1.0000 0.38590  0.28700  0.38730  Biso   1.000  O
  O969     1.0000 0.39830  0.28130  0.34090  Biso   1.000  O
  O970     1.0000 0.43410  0.29880  0.37120  Biso   1.000  O
  O971     1.0000 0.36490  0.25320  0.30930  Biso   1.000  O
  O972     1.0000 0.36540  0.19960  0.29710  Biso   1.000  O
  O973     1.0000 0.34270  0.21810  0.33650  Biso   1.000  O
  O974     1.0000 0.47170  0.28590  0.33680  Biso   1.000  O
  O975     1.0000 0.44460  0.16780  0.33040  Biso   1.000  O
  O976     1.0000 0.47340  0.33000  0.38200  Biso   1.000  O
  O977     1.0000 0.39350  0.21710  0.32950  Biso   1.000  O
  O978     1.0000 0.42660  0.19960  0.36610  Biso   1.000  O
  O979     1.0000 0.46950  0.21170  0.34130  Biso   1.000  O
  O980     1.0000 0.47210  0.17830  0.37250  Biso   1.000  O
  Al211    1.0000 0.86620  0.78050  0.32990  Biso   1.000  Al
  Al212    1.0000 0.96160  0.81120  0.35580  Biso   1.000  Al
  Al213    1.0000 0.90470  0.72240  0.36160  Biso   1.000  Al
  P211     1.0000 0.91120  0.78110  0.37040  Biso   1.000  P
  P212     1.0000 0.86530  0.72080  0.31620  Biso   1.000  P
  P213     1.0000 0.95400  0.68830  0.35170  Biso   1.000  P
  O981     1.0000 0.91910  0.75040  0.37390  Biso   1.000  O
  O982     1.0000 0.88590  0.78700  0.38730  Biso   1.000  O
  O983     1.0000 0.89830  0.78130  0.34090  Biso   1.000  O
  O984     1.0000 0.93410  0.79880  0.37120  Biso   1.000  O
  O985     1.0000 0.86490  0.75320  0.30930  Biso   1.000  O
  O986     1.0000 0.86540  0.69960  0.29710  Biso   1.000  O
  O987     1.0000 0.84270  0.71810  0.33650  Biso   1.000  O
  O988     1.0000 0.97170  0.78590  0.33680  Biso   1.000  O
  O989     1.0000 0.94460  0.66780  0.33040  Biso   1.000  O
  O990     1.0000 0.97340  0.83000  0.38200  Biso   1.000  O
  O991     1.0000 0.89350  0.71710  0.32950  Biso   1.000  O
  O992     1.0000 0.92660  0.69960  0.36610  Biso   1.000  O
  O993     1.0000 0.96950  0.71170  0.34130  Biso   1.000  O
  O994     1.0000 0.97210  0.67830  0.37250  Biso   1.000  O
  Al214    1.0000 0.86620  0.28050  0.82990  Biso   1.000  Al
  Al215    1.0000 0.96160  0.31120  0.85580  Biso   1.000  Al
  Al216    1.0000 0.90470  0.22240  0.86160  Biso   1.000  Al
  P214     1.0000 0.91120  0.28110  0.87040  Biso   1.000  P
  P215     1.0000 0.86530  0.22080  0.81620  Biso   1.000  P
  P216     1.0000 0.95400  0.18830  0.85170  Biso   1.000  P
  O995     1.0000 0.91910  0.25040  0.87390  Biso   1.000  O
  O996     1.0000 0.88590  0.28700  0.88730  Biso   1.000  O
  O997     1.0000 0.89830  0.28130  0.84090  Biso   1.000  O
  O998     1.0000 0.93410  0.29880  0.87120  Biso   1.000  O
  O999     1.0000 0.86490  0.25320  0.80930  Biso   1.000  O
  O1000    1.0000 0.86540  0.19960  0.79710  Biso   1.000  O
  O1001    1.0000 0.84270  0.21810  0.83650  Biso   1.000  O
  O1002    1.0000 0.97170  0.28590  0.83680  Biso   1.000  O
  O1003    1.0000 0.94460  0.16780  0.83040  Biso   1.000  O
  O1004    1.0000 0.97340  0.33000  0.88200  Biso   1.000  O
  O1005    1.0000 0.89350  0.21710  0.82950  Biso   1.000  O
  O1006    1.0000 0.92660  0.19960  0.86610  Biso   1.000  O
  O1007    1.0000 0.96950  0.21170  0.84130  Biso   1.000  O
  O1008    1.0000 0.97210  0.17830  0.87250  Biso   1.000  O
  Al217    1.0000 0.36620  0.21950  0.17010  Biso   1.000  Al
  Al218    1.0000 0.46160  0.18880  0.14420  Biso   1.000  Al
  Al219    1.0000 0.40470  0.27760  0.13840  Biso   1.000  Al
  P217     1.0000 0.41120  0.21890  0.12960  Biso   1.000  P
  P218     1.0000 0.36530  0.27920  0.18380  Biso   1.000  P
  P219     1.0000 0.45400  0.31170  0.14830  Biso   1.000  P
  O1009    1.0000 0.41910  0.24960  0.12610  Biso   1.000  O
  O1010    1.0000 0.38590  0.21300  0.11270  Biso   1.000  O
  O1011    1.0000 0.39830  0.21870  0.15910  Biso   1.000  O
  O1012    1.0000 0.43410  0.20120  0.12880  Biso   1.000  O
  O1013    1.0000 0.36490  0.24680  0.19070  Biso   1.000  O
  O1014    1.0000 0.36540  0.30040  0.20290  Biso   1.000  O
  O1015    1.0000 0.34270  0.28190  0.16350  Biso   1.000  O
  O1016    1.0000 0.47170  0.21410  0.16320  Biso   1.000  O
  O1017    1.0000 0.44460  0.33220  0.16960  Biso   1.000  O
  O1018    1.0000 0.47340  0.17000  0.11800  Biso   1.000  O
  O1019    1.0000 0.39350  0.28290  0.17050  Biso   1.000  O
  O1020    1.0000 0.42660  0.30040  0.13390  Biso   1.000  O
  O1021    1.0000 0.46950  0.28830  0.15870  Biso   1.000  O
  O1022    1.0000 0.47210  0.32170  0.12750  Biso   1.000  O
  Al220    1.0000 0.36620  0.71950  0.67010  Biso   1.000  Al
  Al221    1.0000 0.46160  0.68880  0.64420  Biso   1.000  Al
  Al222    1.0000 0.40470  0.77760  0.63840  Biso   1.000  Al
  P220     1.0000 0.41120  0.71890  0.62960  Biso   1.000  P
  P221     1.0000 0.36530  0.77920  0.68380  Biso   1.000  P
  P222     1.0000 0.45400  0.81170  0.64830  Biso   1.000  P
  O1023    1.0000 0.41910  0.74960  0.62610  Biso   1.000  O
  O1024    1.0000 0.38590  0.71300  0.61270  Biso   1.000  O
  O1025    1.0000 0.39830  0.71870  0.65910  Biso   1.000  O
  O1026    1.0000 0.43410  0.70120  0.62880  Biso   1.000  O
  O1027    1.0000 0.36490  0.74680  0.69070  Biso   1.000  O
  O1028    1.0000 0.36540  0.80040  0.70290  Biso   1.000  O
  O1029    1.0000 0.34270  0.78190  0.66350  Biso   1.000  O
  O1030    1.0000 0.47170  0.71410  0.66320  Biso   1.000  O
  O1031    1.0000 0.44460  0.83220  0.66960  Biso   1.000  O
  O1032    1.0000 0.47340  0.67000  0.61800  Biso   1.000  O
  O1033    1.0000 0.39350  0.78290  0.67050  Biso   1.000  O
  O1034    1.0000 0.42660  0.80040  0.63390  Biso   1.000  O
  O1035    1.0000 0.46950  0.78830  0.65870  Biso   1.000  O
  O1036    1.0000 0.47210  0.82170  0.62750  Biso   1.000  O
  Al223    1.0000 0.86620  0.21950  0.67010  Biso   1.000  Al
  Al224    1.0000 0.96160  0.18880  0.64420  Biso   1.000  Al
  Al225    1.0000 0.90470  0.27760  0.63840  Biso   1.000  Al
  P223     1.0000 0.91120  0.21890  0.62960  Biso   1.000  P
  P224     1.0000 0.86530  0.27920  0.68380  Biso   1.000  P
  P225     1.0000 0.95400  0.31170  0.64830  Biso   1.000  P
  O1037    1.0000 0.91910  0.24960  0.62610  Biso   1.000  O
  O1038    1.0000 0.88590  0.21300  0.61270  Biso   1.000  O
  O1039    1.0000 0.89830  0.21870  0.65910  Biso   1.000  O
  O1040    1.0000 0.93410  0.20120  0.62880  Biso   1.000  O
  O1041    1.0000 0.86490  0.24680  0.69070  Biso   1.000  O
  O1042    1.0000 0.86540  0.30040  0.70290  Biso   1.000  O
  O1043    1.0000 0.84270  0.28190  0.66350  Biso   1.000  O
  O1044    1.0000 0.97170  0.21410  0.66320  Biso   1.000  O
  O1045    1.0000 0.94460  0.33220  0.66960  Biso   1.000  O
  O1046    1.0000 0.97340  0.17000  0.61800  Biso   1.000  O
  O1047    1.0000 0.89350  0.28290  0.67050  Biso   1.000  O
  O1048    1.0000 0.92660  0.30040  0.63390  Biso   1.000  O
  O1049    1.0000 0.96950  0.28830  0.65870  Biso   1.000  O
  O1050    1.0000 0.97210  0.32170  0.62750  Biso   1.000  O
  Al226    1.0000 0.86620  0.71950  0.17010  Biso   1.000  Al
  Al227    1.0000 0.96160  0.68880  0.14420  Biso   1.000  Al
  Al228    1.0000 0.90470  0.77760  0.13840  Biso   1.000  Al
  P226     1.0000 0.91120  0.71890  0.12960  Biso   1.000  P
  P227     1.0000 0.86530  0.77920  0.18380  Biso   1.000  P
  P228     1.0000 0.95400  0.81170  0.14830  Biso   1.000  P
  O1051    1.0000 0.91910  0.74960  0.12610  Biso   1.000  O
  O1052    1.0000 0.88590  0.71300  0.11270  Biso   1.000  O
  O1053    1.0000 0.89830  0.71870  0.15910  Biso   1.000  O
  O1054    1.0000 0.93410  0.70120  0.12880  Biso   1.000  O
  O1055    1.0000 0.86490  0.74680  0.19070  Biso   1.000  O
  O1056    1.0000 0.86540  0.80040  0.20290  Biso   1.000  O
  O1057    1.0000 0.84270  0.78190  0.16350  Biso   1.000  O
  O1058    1.0000 0.97170  0.71410  0.16320  Biso   1.000  O
  O1059    1.0000 0.94460  0.83220  0.16960  Biso   1.000  O
  O1060    1.0000 0.97340  0.67000  0.11800  Biso   1.000  O
  O1061    1.0000 0.89350  0.78290  0.17050  Biso   1.000  O
  O1062    1.0000 0.92660  0.80040  0.13390  Biso   1.000  O
  O1063    1.0000 0.96950  0.78830  0.15870  Biso   1.000  O
  O1064    1.0000 0.97210  0.82170  0.12750  Biso   1.000  O
  Al229    1.0000 0.63380  0.21950  0.82990  Biso   1.000  Al
  Al230    1.0000 0.53840  0.18880  0.85580  Biso   1.000  Al
  Al231    1.0000 0.59530  0.27760  0.86160  Biso   1.000  Al
  P229     1.0000 0.58880  0.21890  0.87040  Biso   1.000  P
  P230     1.0000 0.63470  0.27920  0.81620  Biso   1.000  P
  P231     1.0000 0.54600  0.31170  0.85170  Biso   1.000  P
  O1065    1.0000 0.58090  0.24960  0.87390  Biso   1.000  O
  O1066    1.0000 0.61410  0.21300  0.88730  Biso   1.000  O
  O1067    1.0000 0.60170  0.21870  0.84090  Biso   1.000  O
  O1068    1.0000 0.56590  0.20120  0.87120  Biso   1.000  O
  O1069    1.0000 0.63510  0.24680  0.80930  Biso   1.000  O
  O1070    1.0000 0.63460  0.30040  0.79710  Biso   1.000  O
  O1071    1.0000 0.65730  0.28190  0.83650  Biso   1.000  O
  O1072    1.0000 0.52830  0.21410  0.83680  Biso   1.000  O
  O1073    1.0000 0.55540  0.33220  0.83040  Biso   1.000  O
  O1074    1.0000 0.52660  0.17000  0.88200  Biso   1.000  O
  O1075    1.0000 0.60650  0.28290  0.82950  Biso   1.000  O
  O1076    1.0000 0.57340  0.30040  0.86610  Biso   1.000  O
  O1077    1.0000 0.53050  0.28830  0.84130  Biso   1.000  O
  O1078    1.0000 0.52790  0.32170  0.87250  Biso   1.000  O
  Al232    1.0000 0.63380  0.71950  0.32990  Biso   1.000  Al
  Al233    1.0000 0.53840  0.68880  0.35580  Biso   1.000  Al
  Al234    1.0000 0.59530  0.77760  0.36160  Biso   1.000  Al
  P232     1.0000 0.58880  0.71890  0.37040  Biso   1.000  P
  P233     1.0000 0.63470  0.77920  0.31620  Biso   1.000  P
  P234     1.0000 0.54600  0.81170  0.35170  Biso   1.000  P
  O1079    1.0000 0.58090  0.74960  0.37390  Biso   1.000  O
  O1080    1.0000 0.61410  0.71300  0.38730  Biso   1.000  O
  O1081    1.0000 0.60170  0.71870  0.34090  Biso   1.000  O
  O1082    1.0000 0.56590  0.70120  0.37120  Biso   1.000  O
  O1083    1.0000 0.63510  0.74680  0.30930  Biso   1.000  O
  O1084    1.0000 0.63460  0.80040  0.29710  Biso   1.000  O
  O1085    1.0000 0.65730  0.78190  0.33650  Biso   1.000  O
  O1086    1.0000 0.52830  0.71410  0.33680  Biso   1.000  O
  O1087    1.0000 0.55540  0.83220  0.33040  Biso   1.000  O
  O1088    1.0000 0.52660  0.67000  0.38200  Biso   1.000  O
  O1089    1.0000 0.60650  0.78290  0.32950  Biso   1.000  O
  O1090    1.0000 0.57340  0.80040  0.36610  Biso   1.000  O
  O1091    1.0000 0.53050  0.78830  0.34130  Biso   1.000  O
  O1092    1.0000 0.52790  0.82170  0.37250  Biso   1.000  O
  Al235    1.0000 0.13380  0.21950  0.32990  Biso   1.000  Al
  Al236    1.0000 0.03840  0.18880  0.35580  Biso   1.000  Al
  Al237    1.0000 0.09530  0.27760  0.36160  Biso   1.000  Al
  P235     1.0000 0.08880  0.21890  0.37040  Biso   1.000  P
  P236     1.0000 0.13470  0.27920  0.31620  Biso   1.000  P
  P237     1.0000 0.04600  0.31170  0.35170  Biso   1.000  P
  O1093    1.0000 0.08090  0.24960  0.37390  Biso   1.000  O
  O1094    1.0000 0.11410  0.21300  0.38730  Biso   1.000  O
  O1095    1.0000 0.10170  0.21870  0.34090  Biso   1.000  O
  O1096    1.0000 0.06590  0.20120  0.37120  Biso   1.000  O
  O1097    1.0000 0.13510  0.24680  0.30930  Biso   1.000  O
  O1098    1.0000 0.13460  0.30040  0.29710  Biso   1.000  O
  O1099    1.0000 0.15730  0.28190  0.33650  Biso   1.000  O
  O1100    1.0000 0.02830  0.21410  0.33680  Biso   1.000  O
  O1101    1.0000 0.05540  0.33220  0.33040  Biso   1.000  O
  O1102    1.0000 0.02660  0.17000  0.38200  Biso   1.000  O
  O1103    1.0000 0.10650  0.28290  0.32950  Biso   1.000  O
  O1104    1.0000 0.07340  0.30040  0.36610  Biso   1.000  O
  O1105    1.0000 0.03050  0.28830  0.34130  Biso   1.000  O
  O1106    1.0000 0.02790  0.32170  0.37250  Biso   1.000  O
  Al238    1.0000 0.13380  0.71950  0.82990  Biso   1.000  Al
  Al239    1.0000 0.03840  0.68880  0.85580  Biso   1.000  Al
  Al240    1.0000 0.09530  0.77760  0.86160  Biso   1.000  Al
  P238     1.0000 0.08880  0.71890  0.87040  Biso   1.000  P
  P239     1.0000 0.13470  0.77920  0.81620  Biso   1.000  P
  P240     1.0000 0.04600  0.81170  0.85170  Biso   1.000  P
  O1107    1.0000 0.08090  0.74960  0.87390  Biso   1.000  O
  O1108    1.0000 0.11410  0.71300  0.88730  Biso   1.000  O
  O1109    1.0000 0.10170  0.71870  0.84090  Biso   1.000  O
  O1110    1.0000 0.06590  0.70120  0.87120  Biso   1.000  O
  O1111    1.0000 0.13510  0.74680  0.80930  Biso   1.000  O
  O1112    1.0000 0.13460  0.80040  0.79710  Biso   1.000  O
  O1113    1.0000 0.15730  0.78190  0.83650  Biso   1.000  O
  O1114    1.0000 0.02830  0.71410  0.83680  Biso   1.000  O
  O1115    1.0000 0.05540  0.83220  0.83040  Biso   1.000  O
  O1116    1.0000 0.02660  0.67000  0.88200  Biso   1.000  O
  O1117    1.0000 0.10650  0.78290  0.82950  Biso   1.000  O
  O1118    1.0000 0.07340  0.80040  0.86610  Biso   1.000  O
  O1119    1.0000 0.03050  0.78830  0.84130  Biso   1.000  O
  O1120    1.0000 0.02790  0.82170  0.87250  Biso   1.000  O
  Al241    1.0000 0.78050  0.82990  0.36620  Biso   1.000  Al
  Al242    1.0000 0.81120  0.85580  0.46160  Biso   1.000  Al
  Al243    1.0000 0.72240  0.86160  0.40470  Biso   1.000  Al
  P241     1.0000 0.78110  0.87040  0.41120  Biso   1.000  P
  P242     1.0000 0.72080  0.81620  0.36530  Biso   1.000  P
  P243     1.0000 0.68830  0.85170  0.45400  Biso   1.000  P
  O1121    1.0000 0.75040  0.87390  0.41910  Biso   1.000  O
  O1122    1.0000 0.78700  0.88730  0.38590  Biso   1.000  O
  O1123    1.0000 0.78130  0.84090  0.39830  Biso   1.000  O
  O1124    1.0000 0.79880  0.87120  0.43410  Biso   1.000  O
  O1125    1.0000 0.75320  0.80930  0.36490  Biso   1.000  O
  O1126    1.0000 0.69960  0.79710  0.36540  Biso   1.000  O
  O1127    1.0000 0.71810  0.83650  0.34270  Biso   1.000  O
  O1128    1.0000 0.78590  0.83680  0.47170  Biso   1.000  O
  O1129    1.0000 0.66780  0.83040  0.44460  Biso   1.000  O
  O1130    1.0000 0.83000  0.88200  0.47340  Biso   1.000  O
  O1131    1.0000 0.71710  0.82950  0.39350  Biso   1.000  O
  O1132    1.0000 0.69960  0.86610  0.42660  Biso   1.000  O
  O1133    1.0000 0.71170  0.84130  0.46950  Biso   1.000  O
  O1134    1.0000 0.67830  0.87250  0.47210  Biso   1.000  O
  Al244    1.0000 0.78050  0.32990  0.86620  Biso   1.000  Al
  Al245    1.0000 0.81120  0.35580  0.96160  Biso   1.000  Al
  Al246    1.0000 0.72240  0.36160  0.90470  Biso   1.000  Al
  P244     1.0000 0.78110  0.37040  0.91120  Biso   1.000  P
  P245     1.0000 0.72080  0.31620  0.86530  Biso   1.000  P
  P246     1.0000 0.68830  0.35170  0.95400  Biso   1.000  P
  O1135    1.0000 0.75040  0.37390  0.91910  Biso   1.000  O
  O1136    1.0000 0.78700  0.38730  0.88590  Biso   1.000  O
  O1137    1.0000 0.78130  0.34090  0.89830  Biso   1.000  O
  O1138    1.0000 0.79880  0.37120  0.93410  Biso   1.000  O
  O1139    1.0000 0.75320  0.30930  0.86490  Biso   1.000  O
  O1140    1.0000 0.69960  0.29710  0.86540  Biso   1.000  O
  O1141    1.0000 0.71810  0.33650  0.84270  Biso   1.000  O
  O1142    1.0000 0.78590  0.33680  0.97170  Biso   1.000  O
  O1143    1.0000 0.66780  0.33040  0.94460  Biso   1.000  O
  O1144    1.0000 0.83000  0.38200  0.97340  Biso   1.000  O
  O1145    1.0000 0.71710  0.32950  0.89350  Biso   1.000  O
  O1146    1.0000 0.69960  0.36610  0.92660  Biso   1.000  O
  O1147    1.0000 0.71170  0.34130  0.96950  Biso   1.000  O
  O1148    1.0000 0.67830  0.37250  0.97210  Biso   1.000  O
  Al247    1.0000 0.28050  0.82990  0.86620  Biso   1.000  Al
  Al248    1.0000 0.31120  0.85580  0.96160  Biso   1.000  Al
  Al249    1.0000 0.22240  0.86160  0.90470  Biso   1.000  Al
  P247     1.0000 0.28110  0.87040  0.91120  Biso   1.000  P
  P248     1.0000 0.22080  0.81620  0.86530  Biso   1.000  P
  P249     1.0000 0.18830  0.85170  0.95400  Biso   1.000  P
  O1149    1.0000 0.25040  0.87390  0.91910  Biso   1.000  O
  O1150    1.0000 0.28700  0.88730  0.88590  Biso   1.000  O
  O1151    1.0000 0.28130  0.84090  0.89830  Biso   1.000  O
  O1152    1.0000 0.29880  0.87120  0.93410  Biso   1.000  O
  O1153    1.0000 0.25320  0.80930  0.86490  Biso   1.000  O
  O1154    1.0000 0.19960  0.79710  0.86540  Biso   1.000  O
  O1155    1.0000 0.21810  0.83650  0.84270  Biso   1.000  O
  O1156    1.0000 0.28590  0.83680  0.97170  Biso   1.000  O
  O1157    1.0000 0.16780  0.83040  0.94460  Biso   1.000  O
  O1158    1.0000 0.33000  0.88200  0.97340  Biso   1.000  O
  O1159    1.0000 0.21710  0.82950  0.89350  Biso   1.000  O
  O1160    1.0000 0.19960  0.86610  0.92660  Biso   1.000  O
  O1161    1.0000 0.21170  0.84130  0.96950  Biso   1.000  O
  O1162    1.0000 0.17830  0.87250  0.97210  Biso   1.000  O
  Al250    1.0000 0.28050  0.32990  0.36620  Biso   1.000  Al
  Al251    1.0000 0.31120  0.35580  0.46160  Biso   1.000  Al
  Al252    1.0000 0.22240  0.36160  0.40470  Biso   1.000  Al
  P250     1.0000 0.28110  0.37040  0.41120  Biso   1.000  P
  P251     1.0000 0.22080  0.31620  0.36530  Biso   1.000  P
  P252     1.0000 0.18830  0.35170  0.45400  Biso   1.000  P
  O1163    1.0000 0.25040  0.37390  0.41910  Biso   1.000  O
  O1164    1.0000 0.28700  0.38730  0.38590  Biso   1.000  O
  O1165    1.0000 0.28130  0.34090  0.39830  Biso   1.000  O
  O1166    1.0000 0.29880  0.37120  0.43410  Biso   1.000  O
  O1167    1.0000 0.25320  0.30930  0.36490  Biso   1.000  O
  O1168    1.0000 0.19960  0.29710  0.36540  Biso   1.000  O
  O1169    1.0000 0.21810  0.33650  0.34270  Biso   1.000  O
  O1170    1.0000 0.28590  0.33680  0.47170  Biso   1.000  O
  O1171    1.0000 0.16780  0.33040  0.44460  Biso   1.000  O
  O1172    1.0000 0.33000  0.38200  0.47340  Biso   1.000  O
  O1173    1.0000 0.21710  0.32950  0.39350  Biso   1.000  O
  O1174    1.0000 0.19960  0.36610  0.42660  Biso   1.000  O
  O1175    1.0000 0.21170  0.34130  0.46950  Biso   1.000  O
  O1176    1.0000 0.17830  0.37250  0.47210  Biso   1.000  O
  Al253    1.0000 0.78050  0.17010  0.63380  Biso   1.000  Al
  Al254    1.0000 0.81120  0.14420  0.53840  Biso   1.000  Al
  Al255    1.0000 0.72240  0.13840  0.59530  Biso   1.000  Al
  P253     1.0000 0.78110  0.12960  0.58880  Biso   1.000  P
  P254     1.0000 0.72080  0.18380  0.63470  Biso   1.000  P
  P255     1.0000 0.68830  0.14830  0.54600  Biso   1.000  P
  O1177    1.0000 0.75040  0.12610  0.58090  Biso   1.000  O
  O1178    1.0000 0.78700  0.11270  0.61410  Biso   1.000  O
  O1179    1.0000 0.78130  0.15910  0.60170  Biso   1.000  O
  O1180    1.0000 0.79880  0.12880  0.56590  Biso   1.000  O
  O1181    1.0000 0.75320  0.19070  0.63510  Biso   1.000  O
  O1182    1.0000 0.69960  0.20290  0.63460  Biso   1.000  O
  O1183    1.0000 0.71810  0.16350  0.65730  Biso   1.000  O
  O1184    1.0000 0.78590  0.16320  0.52830  Biso   1.000  O
  O1185    1.0000 0.66780  0.16960  0.55540  Biso   1.000  O
  O1186    1.0000 0.83000  0.11800  0.52660  Biso   1.000  O
  O1187    1.0000 0.71710  0.17050  0.60650  Biso   1.000  O
  O1188    1.0000 0.69960  0.13390  0.57340  Biso   1.000  O
  O1189    1.0000 0.71170  0.15870  0.53050  Biso   1.000  O
  O1190    1.0000 0.67830  0.12750  0.52790  Biso   1.000  O
  Al256    1.0000 0.78050  0.67010  0.13380  Biso   1.000  Al
  Al257    1.0000 0.81120  0.64420  0.03840  Biso   1.000  Al
  Al258    1.0000 0.72240  0.63840  0.09530  Biso   1.000  Al
  P256     1.0000 0.78110  0.62960  0.08880  Biso   1.000  P
  P257     1.0000 0.72080  0.68380  0.13470  Biso   1.000  P
  P258     1.0000 0.68830  0.64830  0.04600  Biso   1.000  P
  O1191    1.0000 0.75040  0.62610  0.08090  Biso   1.000  O
  O1192    1.0000 0.78700  0.61270  0.11410  Biso   1.000  O
  O1193    1.0000 0.78130  0.65910  0.10170  Biso   1.000  O
  O1194    1.0000 0.79880  0.62880  0.06590  Biso   1.000  O
  O1195    1.0000 0.75320  0.69070  0.13510  Biso   1.000  O
  O1196    1.0000 0.69960  0.70290  0.13460  Biso   1.000  O
  O1197    1.0000 0.71810  0.66350  0.15730  Biso   1.000  O
  O1198    1.0000 0.78590  0.66320  0.02830  Biso   1.000  O
  O1199    1.0000 0.66780  0.66960  0.05540  Biso   1.000  O
  O1200    1.0000 0.83000  0.61800  0.02660  Biso   1.000  O
  O1201    1.0000 0.71710  0.67050  0.10650  Biso   1.000  O
  O1202    1.0000 0.69960  0.63390  0.07340  Biso   1.000  O
  O1203    1.0000 0.71170  0.65870  0.03050  Biso   1.000  O
  O1204    1.0000 0.67830  0.62750  0.02790  Biso   1.000  O
  Al259    1.0000 0.28050  0.17010  0.13380  Biso   1.000  Al
  Al260    1.0000 0.31120  0.14420  0.03840  Biso   1.000  Al
  Al261    1.0000 0.22240  0.13840  0.09530  Biso   1.000  Al
  P259     1.0000 0.28110  0.12960  0.08880  Biso   1.000  P
  P260     1.0000 0.22080  0.18380  0.13470  Biso   1.000  P
  P261     1.0000 0.18830  0.14830  0.04600  Biso   1.000  P
  O1205    1.0000 0.25040  0.12610  0.08090  Biso   1.000  O
  O1206    1.0000 0.28700  0.11270  0.11410  Biso   1.000  O
  O1207    1.0000 0.28130  0.15910  0.10170  Biso   1.000  O
  O1208    1.0000 0.29880  0.12880  0.06590  Biso   1.000  O
  O1209    1.0000 0.25320  0.19070  0.13510  Biso   1.000  O
  O1210    1.0000 0.19960  0.20290  0.13460  Biso   1.000  O
  O1211    1.0000 0.21810  0.16350  0.15730  Biso   1.000  O
  O1212    1.0000 0.28590  0.16320  0.02830  Biso   1.000  O
  O1213    1.0000 0.16780  0.16960  0.05540  Biso   1.000  O
  O1214    1.0000 0.33000  0.11800  0.02660  Biso   1.000  O
  O1215    1.0000 0.21710  0.17050  0.10650  Biso   1.000  O
  O1216    1.0000 0.19960  0.13390  0.07340  Biso   1.000  O
  O1217    1.0000 0.21170  0.15870  0.03050  Biso   1.000  O
  O1218    1.0000 0.17830  0.12750  0.02790  Biso   1.000  O
  Al262    1.0000 0.28050  0.67010  0.63380  Biso   1.000  Al
  Al263    1.0000 0.31120  0.64420  0.53840  Biso   1.000  Al
  Al264    1.0000 0.22240  0.63840  0.59530  Biso   1.000  Al
  P262     1.0000 0.28110  0.62960  0.58880  Biso   1.000  P
  P263     1.0000 0.22080  0.68380  0.63470  Biso   1.000  P
  P264     1.0000 0.18830  0.64830  0.54600  Biso   1.000  P
  O1219    1.0000 0.25040  0.62610  0.58090  Biso   1.000  O
  O1220    1.0000 0.28700  0.61270  0.61410  Biso   1.000  O
  O1221    1.0000 0.28130  0.65910  0.60170  Biso   1.000  O
  O1222    1.0000 0.29880  0.62880  0.56590  Biso   1.000  O
  O1223    1.0000 0.25320  0.69070  0.63510  Biso   1.000  O
  O1224    1.0000 0.19960  0.70290  0.63460  Biso   1.000  O
  O1225    1.0000 0.21810  0.66350  0.65730  Biso   1.000  O
  O1226    1.0000 0.28590  0.66320  0.52830  Biso   1.000  O
  O1227    1.0000 0.16780  0.66960  0.55540  Biso   1.000  O
  O1228    1.0000 0.33000  0.61800  0.52660  Biso   1.000  O
  O1229    1.0000 0.21710  0.67050  0.60650  Biso   1.000  O
  O1230    1.0000 0.19960  0.63390  0.57340  Biso   1.000  O
  O1231    1.0000 0.21170  0.65870  0.53050  Biso   1.000  O
  O1232    1.0000 0.17830  0.62750  0.52790  Biso   1.000  O
  Al265    1.0000 0.21950  0.82990  0.63380  Biso   1.000  Al
  Al266    1.0000 0.18880  0.85580  0.53840  Biso   1.000  Al
  Al267    1.0000 0.27760  0.86160  0.59530  Biso   1.000  Al
  P265     1.0000 0.21890  0.87040  0.58880  Biso   1.000  P
  P266     1.0000 0.27920  0.81620  0.63470  Biso   1.000  P
  P267     1.0000 0.31170  0.85170  0.54600  Biso   1.000  P
  O1233    1.0000 0.24960  0.87390  0.58090  Biso   1.000  O
  O1234    1.0000 0.21300  0.88730  0.61410  Biso   1.000  O
  O1235    1.0000 0.21870  0.84090  0.60170  Biso   1.000  O
  O1236    1.0000 0.20120  0.87120  0.56590  Biso   1.000  O
  O1237    1.0000 0.24680  0.80930  0.63510  Biso   1.000  O
  O1238    1.0000 0.30040  0.79710  0.63460  Biso   1.000  O
  O1239    1.0000 0.28190  0.83650  0.65730  Biso   1.000  O
  O1240    1.0000 0.21410  0.83680  0.52830  Biso   1.000  O
  O1241    1.0000 0.33220  0.83040  0.55540  Biso   1.000  O
  O1242    1.0000 0.17000  0.88200  0.52660  Biso   1.000  O
  O1243    1.0000 0.28290  0.82950  0.60650  Biso   1.000  O
  O1244    1.0000 0.30040  0.86610  0.57340  Biso   1.000  O
  O1245    1.0000 0.28830  0.84130  0.53050  Biso   1.000  O
  O1246    1.0000 0.32170  0.87250  0.52790  Biso   1.000  O
  Al268    1.0000 0.21950  0.32990  0.13380  Biso   1.000  Al
  Al269    1.0000 0.18880  0.35580  0.03840  Biso   1.000  Al
  Al270    1.0000 0.27760  0.36160  0.09530  Biso   1.000  Al
  P268     1.0000 0.21890  0.37040  0.08880  Biso   1.000  P
  P269     1.0000 0.27920  0.31620  0.13470  Biso   1.000  P
  P270     1.0000 0.31170  0.35170  0.04600  Biso   1.000  P
  O1247    1.0000 0.24960  0.37390  0.08090  Biso   1.000  O
  O1248    1.0000 0.21300  0.38730  0.11410  Biso   1.000  O
  O1249    1.0000 0.21870  0.34090  0.10170  Biso   1.000  O
  O1250    1.0000 0.20120  0.37120  0.06590  Biso   1.000  O
  O1251    1.0000 0.24680  0.30930  0.13510  Biso   1.000  O
  O1252    1.0000 0.30040  0.29710  0.13460  Biso   1.000  O
  O1253    1.0000 0.28190  0.33650  0.15730  Biso   1.000  O
  O1254    1.0000 0.21410  0.33680  0.02830  Biso   1.000  O
  O1255    1.0000 0.33220  0.33040  0.05540  Biso   1.000  O
  O1256    1.0000 0.17000  0.38200  0.02660  Biso   1.000  O
  O1257    1.0000 0.28290  0.32950  0.10650  Biso   1.000  O
  O1258    1.0000 0.30040  0.36610  0.07340  Biso   1.000  O
  O1259    1.0000 0.28830  0.34130  0.03050  Biso   1.000  O
  O1260    1.0000 0.32170  0.37250  0.02790  Biso   1.000  O
  Al271    1.0000 0.71950  0.82990  0.13380  Biso   1.000  Al
  Al272    1.0000 0.68880  0.85580  0.03840  Biso   1.000  Al
  Al273    1.0000 0.77760  0.86160  0.09530  Biso   1.000  Al
  P271     1.0000 0.71890  0.87040  0.08880  Biso   1.000  P
  P272     1.0000 0.77920  0.81620  0.13470  Biso   1.000  P
  P273     1.0000 0.81170  0.85170  0.04600  Biso   1.000  P
  O1261    1.0000 0.74960  0.87390  0.08090  Biso   1.000  O
  O1262    1.0000 0.71300  0.88730  0.11410  Biso   1.000  O
  O1263    1.0000 0.71870  0.84090  0.10170  Biso   1.000  O
  O1264    1.0000 0.70120  0.87120  0.06590  Biso   1.000  O
  O1265    1.0000 0.74680  0.80930  0.13510  Biso   1.000  O
  O1266    1.0000 0.80040  0.79710  0.13460  Biso   1.000  O
  O1267    1.0000 0.78190  0.83650  0.15730  Biso   1.000  O
  O1268    1.0000 0.71410  0.83680  0.02830  Biso   1.000  O
  O1269    1.0000 0.83220  0.83040  0.05540  Biso   1.000  O
  O1270    1.0000 0.67000  0.88200  0.02660  Biso   1.000  O
  O1271    1.0000 0.78290  0.82950  0.10650  Biso   1.000  O
  O1272    1.0000 0.80040  0.86610  0.07340  Biso   1.000  O
  O1273    1.0000 0.78830  0.84130  0.03050  Biso   1.000  O
  O1274    1.0000 0.82170  0.87250  0.02790  Biso   1.000  O
  Al274    1.0000 0.71950  0.32990  0.63380  Biso   1.000  Al
  Al275    1.0000 0.68880  0.35580  0.53840  Biso   1.000  Al
  Al276    1.0000 0.77760  0.36160  0.59530  Biso   1.000  Al
  P274     1.0000 0.71890  0.37040  0.58880  Biso   1.000  P
  P275     1.0000 0.77920  0.31620  0.63470  Biso   1.000  P
  P276     1.0000 0.81170  0.35170  0.54600  Biso   1.000  P
  O1275    1.0000 0.74960  0.37390  0.58090  Biso   1.000  O
  O1276    1.0000 0.71300  0.38730  0.61410  Biso   1.000  O
  O1277    1.0000 0.71870  0.34090  0.60170  Biso   1.000  O
  O1278    1.0000 0.70120  0.37120  0.56590  Biso   1.000  O
  O1279    1.0000 0.74680  0.30930  0.63510  Biso   1.000  O
  O1280    1.0000 0.80040  0.29710  0.63460  Biso   1.000  O
  O1281    1.0000 0.78190  0.33650  0.65730  Biso   1.000  O
  O1282    1.0000 0.71410  0.33680  0.52830  Biso   1.000  O
  O1283    1.0000 0.83220  0.33040  0.55540  Biso   1.000  O
  O1284    1.0000 0.67000  0.38200  0.52660  Biso   1.000  O
  O1285    1.0000 0.78290  0.32950  0.60650  Biso   1.000  O
  O1286    1.0000 0.80040  0.36610  0.57340  Biso   1.000  O
  O1287    1.0000 0.78830  0.34130  0.53050  Biso   1.000  O
  O1288    1.0000 0.82170  0.37250  0.52790  Biso   1.000  O
  Al277    1.0000 0.21950  0.17010  0.36620  Biso   1.000  Al
  Al278    1.0000 0.18880  0.14420  0.46160  Biso   1.000  Al
  Al279    1.0000 0.27760  0.13840  0.40470  Biso   1.000  Al
  P277     1.0000 0.21890  0.12960  0.41120  Biso   1.000  P
  P278     1.0000 0.27920  0.18380  0.36530  Biso   1.000  P
  P279     1.0000 0.31170  0.14830  0.45400  Biso   1.000  P
  O1289    1.0000 0.24960  0.12610  0.41910  Biso   1.000  O
  O1290    1.0000 0.21300  0.11270  0.38590  Biso   1.000  O
  O1291    1.0000 0.21870  0.15910  0.39830  Biso   1.000  O
  O1292    1.0000 0.20120  0.12880  0.43410  Biso   1.000  O
  O1293    1.0000 0.24680  0.19070  0.36490  Biso   1.000  O
  O1294    1.0000 0.30040  0.20290  0.36540  Biso   1.000  O
  O1295    1.0000 0.28190  0.16350  0.34270  Biso   1.000  O
  O1296    1.0000 0.21410  0.16320  0.47170  Biso   1.000  O
  O1297    1.0000 0.33220  0.16960  0.44460  Biso   1.000  O
  O1298    1.0000 0.17000  0.11800  0.47340  Biso   1.000  O
  O1299    1.0000 0.28290  0.17050  0.39350  Biso   1.000  O
  O1300    1.0000 0.30040  0.13390  0.42660  Biso   1.000  O
  O1301    1.0000 0.28830  0.15870  0.46950  Biso   1.000  O
  O1302    1.0000 0.32170  0.12750  0.47210  Biso   1.000  O
  Al280    1.0000 0.21950  0.67010  0.86620  Biso   1.000  Al
  Al281    1.0000 0.18880  0.64420  0.96160  Biso   1.000  Al
  Al282    1.0000 0.27760  0.63840  0.90470  Biso   1.000  Al
  P280     1.0000 0.21890  0.62960  0.91120  Biso   1.000  P
  P281     1.0000 0.27920  0.68380  0.86530  Biso   1.000  P
  P282     1.0000 0.31170  0.64830  0.95400  Biso   1.000  P
  O1303    1.0000 0.24960  0.62610  0.91910  Biso   1.000  O
  O1304    1.0000 0.21300  0.61270  0.88590  Biso   1.000  O
  O1305    1.0000 0.21870  0.65910  0.89830  Biso   1.000  O
  O1306    1.0000 0.20120  0.62880  0.93410  Biso   1.000  O
  O1307    1.0000 0.24680  0.69070  0.86490  Biso   1.000  O
  O1308    1.0000 0.30040  0.70290  0.86540  Biso   1.000  O
  O1309    1.0000 0.28190  0.66350  0.84270  Biso   1.000  O
  O1310    1.0000 0.21410  0.66320  0.97170  Biso   1.000  O
  O1311    1.0000 0.33220  0.66960  0.94460  Biso   1.000  O
  O1312    1.0000 0.17000  0.61800  0.97340  Biso   1.000  O
  O1313    1.0000 0.28290  0.67050  0.89350  Biso   1.000  O
  O1314    1.0000 0.30040  0.63390  0.92660  Biso   1.000  O
  O1315    1.0000 0.28830  0.65870  0.96950  Biso   1.000  O
  O1316    1.0000 0.32170  0.62750  0.97210  Biso   1.000  O
  Al283    1.0000 0.71950  0.17010  0.86620  Biso   1.000  Al
  Al284    1.0000 0.68880  0.14420  0.96160  Biso   1.000  Al
  Al285    1.0000 0.77760  0.13840  0.90470  Biso   1.000  Al
  P283     1.0000 0.71890  0.12960  0.91120  Biso   1.000  P
  P284     1.0000 0.77920  0.18380  0.86530  Biso   1.000  P
  P285     1.0000 0.81170  0.14830  0.95400  Biso   1.000  P
  O1317    1.0000 0.74960  0.12610  0.91910  Biso   1.000  O
  O1318    1.0000 0.71300  0.11270  0.88590  Biso   1.000  O
  O1319    1.0000 0.71870  0.15910  0.89830  Biso   1.000  O
  O1320    1.0000 0.70120  0.12880  0.93410  Biso   1.000  O
  O1321    1.0000 0.74680  0.19070  0.86490  Biso   1.000  O
  O1322    1.0000 0.80040  0.20290  0.86540  Biso   1.000  O
  O1323    1.0000 0.78190  0.16350  0.84270  Biso   1.000  O
  O1324    1.0000 0.71410  0.16320  0.97170  Biso   1.000  O
  O1325    1.0000 0.83220  0.16960  0.94460  Biso   1.000  O
  O1326    1.0000 0.67000  0.11800  0.97340  Biso   1.000  O
  O1327    1.0000 0.78290  0.17050  0.89350  Biso   1.000  O
  O1328    1.0000 0.80040  0.13390  0.92660  Biso   1.000  O
  O1329    1.0000 0.78830  0.15870  0.96950  Biso   1.000  O
  O1330    1.0000 0.82170  0.12750  0.97210  Biso   1.000  O
  Al286    1.0000 0.71950  0.67010  0.36620  Biso   1.000  Al
  Al287    1.0000 0.68880  0.64420  0.46160  Biso   1.000  Al
  Al288    1.0000 0.77760  0.63840  0.40470  Biso   1.000  Al
  P286     1.0000 0.71890  0.62960  0.41120  Biso   1.000  P
  P287     1.0000 0.77920  0.68380  0.36530  Biso   1.000  P
  P288     1.0000 0.81170  0.64830  0.45400  Biso   1.000  P
  O1331    1.0000 0.74960  0.62610  0.41910  Biso   1.000  O
  O1332    1.0000 0.71300  0.61270  0.38590  Biso   1.000  O
  O1333    1.0000 0.71870  0.65910  0.39830  Biso   1.000  O
  O1334    1.0000 0.70120  0.62880  0.43410  Biso   1.000  O
  O1335    1.0000 0.74680  0.69070  0.36490  Biso   1.000  O
  O1336    1.0000 0.80040  0.70290  0.36540  Biso   1.000  O
  O1337    1.0000 0.78190  0.66350  0.34270  Biso   1.000  O
  O1338    1.0000 0.71410  0.66320  0.47170  Biso   1.000  O
  O1339    1.0000 0.83220  0.66960  0.44460  Biso   1.000  O
  O1340    1.0000 0.67000  0.61800  0.47340  Biso   1.000  O
  O1341    1.0000 0.78290  0.67050  0.39350  Biso   1.000  O
  O1342    1.0000 0.80040  0.63390  0.42660  Biso   1.000  O
  O1343    1.0000 0.78830  0.65870  0.46950  Biso   1.000  O
  O1344    1.0000 0.82170  0.62750  0.47210  Biso   1.000  O
  Al289    1.0000 0.86620  0.67010  0.71950  Biso   1.000  Al
  Al290    1.0000 0.96160  0.64420  0.68880  Biso   1.000  Al
  Al291    1.0000 0.90470  0.63840  0.77760  Biso   1.000  Al
  P289     1.0000 0.91120  0.62960  0.71890  Biso   1.000  P
  P290     1.0000 0.86530  0.68380  0.77920  Biso   1.000  P
  P291     1.0000 0.95400  0.64830  0.81170  Biso   1.000  P
  O1345    1.0000 0.91910  0.62610  0.74960  Biso   1.000  O
  O1346    1.0000 0.88590  0.61270  0.71300  Biso   1.000  O
  O1347    1.0000 0.89830  0.65910  0.71870  Biso   1.000  O
  O1348    1.0000 0.93410  0.62880  0.70120  Biso   1.000  O
  O1349    1.0000 0.86490  0.69070  0.74680  Biso   1.000  O
  O1350    1.0000 0.86540  0.70290  0.80040  Biso   1.000  O
  O1351    1.0000 0.84270  0.66350  0.78190  Biso   1.000  O
  O1352    1.0000 0.97170  0.66320  0.71410  Biso   1.000  O
  O1353    1.0000 0.94460  0.66960  0.83220  Biso   1.000  O
  O1354    1.0000 0.97340  0.61800  0.67000  Biso   1.000  O
  O1355    1.0000 0.89350  0.67050  0.78290  Biso   1.000  O
  O1356    1.0000 0.92660  0.63390  0.80040  Biso   1.000  O
  O1357    1.0000 0.96950  0.65870  0.78830  Biso   1.000  O
  O1358    1.0000 0.97210  0.62750  0.82170  Biso   1.000  O
  Al292    1.0000 0.86620  0.17010  0.21950  Biso   1.000  Al
  Al293    1.0000 0.96160  0.14420  0.18880  Biso   1.000  Al
  Al294    1.0000 0.90470  0.13840  0.27760  Biso   1.000  Al
  P292     1.0000 0.91120  0.12960  0.21890  Biso   1.000  P
  P293     1.0000 0.86530  0.18380  0.27920  Biso   1.000  P
  P294     1.0000 0.95400  0.14830  0.31170  Biso   1.000  P
  O1359    1.0000 0.91910  0.12610  0.24960  Biso   1.000  O
  O1360    1.0000 0.88590  0.11270  0.21300  Biso   1.000  O
  O1361    1.0000 0.89830  0.15910  0.21870  Biso   1.000  O
  O1362    1.0000 0.93410  0.12880  0.20120  Biso   1.000  O
  O1363    1.0000 0.86490  0.19070  0.24680  Biso   1.000  O
  O1364    1.0000 0.86540  0.20290  0.30040  Biso   1.000  O
  O1365    1.0000 0.84270  0.16350  0.28190  Biso   1.000  O
  O1366    1.0000 0.97170  0.16320  0.21410  Biso   1.000  O
  O1367    1.0000 0.94460  0.16960  0.33220  Biso   1.000  O
  O1368    1.0000 0.97340  0.11800  0.17000  Biso   1.000  O
  O1369    1.0000 0.89350  0.17050  0.28290  Biso   1.000  O
  O1370    1.0000 0.92660  0.13390  0.30040  Biso   1.000  O
  O1371    1.0000 0.96950  0.15870  0.28830  Biso   1.000  O
  O1372    1.0000 0.97210  0.12750  0.32170  Biso   1.000  O
  Al295    1.0000 0.36620  0.67010  0.21950  Biso   1.000  Al
  Al296    1.0000 0.46160  0.64420  0.18880  Biso   1.000  Al
  Al297    1.0000 0.40470  0.63840  0.27760  Biso   1.000  Al
  P295     1.0000 0.41120  0.62960  0.21890  Biso   1.000  P
  P296     1.0000 0.36530  0.68380  0.27920  Biso   1.000  P
  P297     1.0000 0.45400  0.64830  0.31170  Biso   1.000  P
  O1373    1.0000 0.41910  0.62610  0.24960  Biso   1.000  O
  O1374    1.0000 0.38590  0.61270  0.21300  Biso   1.000  O
  O1375    1.0000 0.39830  0.65910  0.21870  Biso   1.000  O
  O1376    1.0000 0.43410  0.62880  0.20120  Biso   1.000  O
  O1377    1.0000 0.36490  0.69070  0.24680  Biso   1.000  O
  O1378    1.0000 0.36540  0.70290  0.30040  Biso   1.000  O
  O1379    1.0000 0.34270  0.66350  0.28190  Biso   1.000  O
  O1380    1.0000 0.47170  0.66320  0.21410  Biso   1.000  O
  O1381    1.0000 0.44460  0.66960  0.33220  Biso   1.000  O
  O1382    1.0000 0.47340  0.61800  0.17000  Biso   1.000  O
  O1383    1.0000 0.39350  0.67050  0.28290  Biso   1.000  O
  O1384    1.0000 0.42660  0.63390  0.30040  Biso   1.000  O
  O1385    1.0000 0.46950  0.65870  0.28830  Biso   1.000  O
  O1386    1.0000 0.47210  0.62750  0.32170  Biso   1.000  O
  Al298    1.0000 0.36620  0.17010  0.71950  Biso   1.000  Al
  Al299    1.0000 0.46160  0.14420  0.68880  Biso   1.000  Al
  Al300    1.0000 0.40470  0.13840  0.77760  Biso   1.000  Al
  P298     1.0000 0.41120  0.12960  0.71890  Biso   1.000  P
  P299     1.0000 0.36530  0.18380  0.77920  Biso   1.000  P
  P300     1.0000 0.45400  0.14830  0.81170  Biso   1.000  P
  O1387    1.0000 0.41910  0.12610  0.74960  Biso   1.000  O
  O1388    1.0000 0.38590  0.11270  0.71300  Biso   1.000  O
  O1389    1.0000 0.39830  0.15910  0.71870  Biso   1.000  O
  O1390    1.0000 0.43410  0.12880  0.70120  Biso   1.000  O
  O1391    1.0000 0.36490  0.19070  0.74680  Biso   1.000  O
  O1392    1.0000 0.36540  0.20290  0.80040  Biso   1.000  O
  O1393    1.0000 0.34270  0.16350  0.78190  Biso   1.000  O
  O1394    1.0000 0.47170  0.16320  0.71410  Biso   1.000  O
  O1395    1.0000 0.44460  0.16960  0.83220  Biso   1.000  O
  O1396    1.0000 0.47340  0.11800  0.67000  Biso   1.000  O
  O1397    1.0000 0.39350  0.17050  0.78290  Biso   1.000  O
  O1398    1.0000 0.42660  0.13390  0.80040  Biso   1.000  O
  O1399    1.0000 0.46950  0.15870  0.78830  Biso   1.000  O
  O1400    1.0000 0.47210  0.12750  0.82170  Biso   1.000  O
  Al301    1.0000 0.13380  0.32990  0.71950  Biso   1.000  Al
  Al302    1.0000 0.03840  0.35580  0.68880  Biso   1.000  Al
  Al303    1.0000 0.09530  0.36160  0.77760  Biso   1.000  Al
  P301     1.0000 0.08880  0.37040  0.71890  Biso   1.000  P
  P302     1.0000 0.13470  0.31620  0.77920  Biso   1.000  P
  P303     1.0000 0.04600  0.35170  0.81170  Biso   1.000  P
  O1401    1.0000 0.08090  0.37390  0.74960  Biso   1.000  O
  O1402    1.0000 0.11410  0.38730  0.71300  Biso   1.000  O
  O1403    1.0000 0.10170  0.34090  0.71870  Biso   1.000  O
  O1404    1.0000 0.06590  0.37120  0.70120  Biso   1.000  O
  O1405    1.0000 0.13510  0.30930  0.74680  Biso   1.000  O
  O1406    1.0000 0.13460  0.29710  0.80040  Biso   1.000  O
  O1407    1.0000 0.15730  0.33650  0.78190  Biso   1.000  O
  O1408    1.0000 0.02830  0.33680  0.71410  Biso   1.000  O
  O1409    1.0000 0.05540  0.33040  0.83220  Biso   1.000  O
  O1410    1.0000 0.02660  0.38200  0.67000  Biso   1.000  O
  O1411    1.0000 0.10650  0.32950  0.78290  Biso   1.000  O
  O1412    1.0000 0.07340  0.36610  0.80040  Biso   1.000  O
  O1413    1.0000 0.03050  0.34130  0.78830  Biso   1.000  O
  O1414    1.0000 0.02790  0.37250  0.82170  Biso   1.000  O
  Al304    1.0000 0.13380  0.82990  0.21950  Biso   1.000  Al
  Al305    1.0000 0.03840  0.85580  0.18880  Biso   1.000  Al
  Al306    1.0000 0.09530  0.86160  0.27760  Biso   1.000  Al
  P304     1.0000 0.08880  0.87040  0.21890  Biso   1.000  P
  P305     1.0000 0.13470  0.81620  0.27920  Biso   1.000  P
  P306     1.0000 0.04600  0.85170  0.31170  Biso   1.000  P
  O1415    1.0000 0.08090  0.87390  0.24960  Biso   1.000  O
  O1416    1.0000 0.11410  0.88730  0.21300  Biso   1.000  O
  O1417    1.0000 0.10170  0.84090  0.21870  Biso   1.000  O
  O1418    1.0000 0.06590  0.87120  0.20120  Biso   1.000  O
  O1419    1.0000 0.13510  0.80930  0.24680  Biso   1.000  O
  O1420    1.0000 0.13460  0.79710  0.30040  Biso   1.000  O
  O1421    1.0000 0.15730  0.83650  0.28190  Biso   1.000  O
  O1422    1.0000 0.02830  0.83680  0.21410  Biso   1.000  O
  O1423    1.0000 0.05540  0.83040  0.33220  Biso   1.000  O
  O1424    1.0000 0.02660  0.88200  0.17000  Biso   1.000  O
  O1425    1.0000 0.10650  0.82950  0.28290  Biso   1.000  O
  O1426    1.0000 0.07340  0.86610  0.30040  Biso   1.000  O
  O1427    1.0000 0.03050  0.84130  0.28830  Biso   1.000  O
  O1428    1.0000 0.02790  0.87250  0.32170  Biso   1.000  O
  Al307    1.0000 0.63380  0.32990  0.21950  Biso   1.000  Al
  Al308    1.0000 0.53840  0.35580  0.18880  Biso   1.000  Al
  Al309    1.0000 0.59530  0.36160  0.27760  Biso   1.000  Al
  P307     1.0000 0.58880  0.37040  0.21890  Biso   1.000  P
  P308     1.0000 0.63470  0.31620  0.27920  Biso   1.000  P
  P309     1.0000 0.54600  0.35170  0.31170  Biso   1.000  P
  O1429    1.0000 0.58090  0.37390  0.24960  Biso   1.000  O
  O1430    1.0000 0.61410  0.38730  0.21300  Biso   1.000  O
  O1431    1.0000 0.60170  0.34090  0.21870  Biso   1.000  O
  O1432    1.0000 0.56590  0.37120  0.20120  Biso   1.000  O
  O1433    1.0000 0.63510  0.30930  0.24680  Biso   1.000  O
  O1434    1.0000 0.63460  0.29710  0.30040  Biso   1.000  O
  O1435    1.0000 0.65730  0.33650  0.28190  Biso   1.000  O
  O1436    1.0000 0.52830  0.33680  0.21410  Biso   1.000  O
  O1437    1.0000 0.55540  0.33040  0.33220  Biso   1.000  O
  O1438    1.0000 0.52660  0.38200  0.17000  Biso   1.000  O
  O1439    1.0000 0.60650  0.32950  0.28290  Biso   1.000  O
  O1440    1.0000 0.57340  0.36610  0.30040  Biso   1.000  O
  O1441    1.0000 0.53050  0.34130  0.28830  Biso   1.000  O
  O1442    1.0000 0.52790  0.37250  0.32170  Biso   1.000  O
  Al310    1.0000 0.63380  0.82990  0.71950  Biso   1.000  Al
  Al311    1.0000 0.53840  0.85580  0.68880  Biso   1.000  Al
  Al312    1.0000 0.59530  0.86160  0.77760  Biso   1.000  Al
  P310     1.0000 0.58880  0.87040  0.71890  Biso   1.000  P
  P311     1.0000 0.63470  0.81620  0.77920  Biso   1.000  P
  P312     1.0000 0.54600  0.85170  0.81170  Biso   1.000  P
  O1443    1.0000 0.58090  0.87390  0.74960  Biso   1.000  O
  O1444    1.0000 0.61410  0.88730  0.71300  Biso   1.000  O
  O1445    1.0000 0.60170  0.84090  0.71870  Biso   1.000  O
  O1446    1.0000 0.56590  0.87120  0.70120  Biso   1.000  O
  O1447    1.0000 0.63510  0.80930  0.74680  Biso   1.000  O
  O1448    1.0000 0.63460  0.79710  0.80040  Biso   1.000  O
  O1449    1.0000 0.65730  0.83650  0.78190  Biso   1.000  O
  O1450    1.0000 0.52830  0.83680  0.71410  Biso   1.000  O
  O1451    1.0000 0.55540  0.83040  0.83220  Biso   1.000  O
  O1452    1.0000 0.52660  0.88200  0.67000  Biso   1.000  O
  O1453    1.0000 0.60650  0.82950  0.78290  Biso   1.000  O
  O1454    1.0000 0.57340  0.86610  0.80040  Biso   1.000  O
  O1455    1.0000 0.53050  0.84130  0.78830  Biso   1.000  O
  O1456    1.0000 0.52790  0.87250  0.82170  Biso   1.000  O
  Al313    1.0000 0.13380  0.67010  0.28050  Biso   1.000  Al
  Al314    1.0000 0.03840  0.64420  0.31120  Biso   1.000  Al
  Al315    1.0000 0.09530  0.63840  0.22240  Biso   1.000  Al
  P313     1.0000 0.08880  0.62960  0.28110  Biso   1.000  P
  P314     1.0000 0.13470  0.68380  0.22080  Biso   1.000  P
  P315     1.0000 0.04600  0.64830  0.18830  Biso   1.000  P
  O1457    1.0000 0.08090  0.62610  0.25040  Biso   1.000  O
  O1458    1.0000 0.11410  0.61270  0.28700  Biso   1.000  O
  O1459    1.0000 0.10170  0.65910  0.28130  Biso   1.000  O
  O1460    1.0000 0.06590  0.62880  0.29880  Biso   1.000  O
  O1461    1.0000 0.13510  0.69070  0.25320  Biso   1.000  O
  O1462    1.0000 0.13460  0.70290  0.19960  Biso   1.000  O
  O1463    1.0000 0.15730  0.66350  0.21810  Biso   1.000  O
  O1464    1.0000 0.02830  0.66320  0.28590  Biso   1.000  O
  O1465    1.0000 0.05540  0.66960  0.16780  Biso   1.000  O
  O1466    1.0000 0.02660  0.61800  0.33000  Biso   1.000  O
  O1467    1.0000 0.10650  0.67050  0.21710  Biso   1.000  O
  O1468    1.0000 0.07340  0.63390  0.19960  Biso   1.000  O
  O1469    1.0000 0.03050  0.65870  0.21170  Biso   1.000  O
  O1470    1.0000 0.02790  0.62750  0.17830  Biso   1.000  O
  Al316    1.0000 0.13380  0.17010  0.78050  Biso   1.000  Al
  Al317    1.0000 0.03840  0.14420  0.81120  Biso   1.000  Al
  Al318    1.0000 0.09530  0.13840  0.72240  Biso   1.000  Al
  P316     1.0000 0.08880  0.12960  0.78110  Biso   1.000  P
  P317     1.0000 0.13470  0.18380  0.72080  Biso   1.000  P
  P318     1.0000 0.04600  0.14830  0.68830  Biso   1.000  P
  O1471    1.0000 0.08090  0.12610  0.75040  Biso   1.000  O
  O1472    1.0000 0.11410  0.11270  0.78700  Biso   1.000  O
  O1473    1.0000 0.10170  0.15910  0.78130  Biso   1.000  O
  O1474    1.0000 0.06590  0.12880  0.79880  Biso   1.000  O
  O1475    1.0000 0.13510  0.19070  0.75320  Biso   1.000  O
  O1476    1.0000 0.13460  0.20290  0.69960  Biso   1.000  O
  O1477    1.0000 0.15730  0.16350  0.71810  Biso   1.000  O
  O1478    1.0000 0.02830  0.16320  0.78590  Biso   1.000  O
  O1479    1.0000 0.05540  0.16960  0.66780  Biso   1.000  O
  O1480    1.0000 0.02660  0.11800  0.83000  Biso   1.000  O
  O1481    1.0000 0.10650  0.17050  0.71710  Biso   1.000  O
  O1482    1.0000 0.07340  0.13390  0.69960  Biso   1.000  O
  O1483    1.0000 0.03050  0.15870  0.71170  Biso   1.000  O
  O1484    1.0000 0.02790  0.12750  0.67830  Biso   1.000  O
  Al319    1.0000 0.63380  0.67010  0.78050  Biso   1.000  Al
  Al320    1.0000 0.53840  0.64420  0.81120  Biso   1.000  Al
  Al321    1.0000 0.59530  0.63840  0.72240  Biso   1.000  Al
  P319     1.0000 0.58880  0.62960  0.78110  Biso   1.000  P
  P320     1.0000 0.63470  0.68380  0.72080  Biso   1.000  P
  P321     1.0000 0.54600  0.64830  0.68830  Biso   1.000  P
  O1485    1.0000 0.58090  0.62610  0.75040  Biso   1.000  O
  O1486    1.0000 0.61410  0.61270  0.78700  Biso   1.000  O
  O1487    1.0000 0.60170  0.65910  0.78130  Biso   1.000  O
  O1488    1.0000 0.56590  0.62880  0.79880  Biso   1.000  O
  O1489    1.0000 0.63510  0.69070  0.75320  Biso   1.000  O
  O1490    1.0000 0.63460  0.70290  0.69960  Biso   1.000  O
  O1491    1.0000 0.65730  0.66350  0.71810  Biso   1.000  O
  O1492    1.0000 0.52830  0.66320  0.78590  Biso   1.000  O
  O1493    1.0000 0.55540  0.66960  0.66780  Biso   1.000  O
  O1494    1.0000 0.52660  0.61800  0.83000  Biso   1.000  O
  O1495    1.0000 0.60650  0.67050  0.71710  Biso   1.000  O
  O1496    1.0000 0.57340  0.63390  0.69960  Biso   1.000  O
  O1497    1.0000 0.53050  0.65870  0.71170  Biso   1.000  O
  O1498    1.0000 0.52790  0.62750  0.67830  Biso   1.000  O
  Al322    1.0000 0.63380  0.17010  0.28050  Biso   1.000  Al
  Al323    1.0000 0.53840  0.14420  0.31120  Biso   1.000  Al
  Al324    1.0000 0.59530  0.13840  0.22240  Biso   1.000  Al
  P322     1.0000 0.58880  0.12960  0.28110  Biso   1.000  P
  P323     1.0000 0.63470  0.18380  0.22080  Biso   1.000  P
  P324     1.0000 0.54600  0.14830  0.18830  Biso   1.000  P
  O1499    1.0000 0.58090  0.12610  0.25040  Biso   1.000  O
  O1500    1.0000 0.61410  0.11270  0.28700  Biso   1.000  O
  O1501    1.0000 0.60170  0.15910  0.28130  Biso   1.000  O
  O1502    1.0000 0.56590  0.12880  0.29880  Biso   1.000  O
  O1503    1.0000 0.63510  0.19070  0.25320  Biso   1.000  O
  O1504    1.0000 0.63460  0.20290  0.19960  Biso   1.000  O
  O1505    1.0000 0.65730  0.16350  0.21810  Biso   1.000  O
  O1506    1.0000 0.52830  0.16320  0.28590  Biso   1.000  O
  O1507    1.0000 0.55540  0.16960  0.16780  Biso   1.000  O
  O1508    1.0000 0.52660  0.11800  0.33000  Biso   1.000  O
  O1509    1.0000 0.60650  0.17050  0.21710  Biso   1.000  O
  O1510    1.0000 0.57340  0.13390  0.19960  Biso   1.000  O
  O1511    1.0000 0.53050  0.15870  0.21170  Biso   1.000  O
  O1512    1.0000 0.52790  0.12750  0.17830  Biso   1.000  O
  Al325    1.0000 0.86620  0.32990  0.28050  Biso   1.000  Al
  Al326    1.0000 0.96160  0.35580  0.31120  Biso   1.000  Al
  Al327    1.0000 0.90470  0.36160  0.22240  Biso   1.000  Al
  P325     1.0000 0.91120  0.37040  0.28110  Biso   1.000  P
  P326     1.0000 0.86530  0.31620  0.22080  Biso   1.000  P
  P327     1.0000 0.95400  0.35170  0.18830  Biso   1.000  P
  O1513    1.0000 0.91910  0.37390  0.25040  Biso   1.000  O
  O1514    1.0000 0.88590  0.38730  0.28700  Biso   1.000  O
  O1515    1.0000 0.89830  0.34090  0.28130  Biso   1.000  O
  O1516    1.0000 0.93410  0.37120  0.29880  Biso   1.000  O
  O1517    1.0000 0.86490  0.30930  0.25320  Biso   1.000  O
  O1518    1.0000 0.86540  0.29710  0.19960  Biso   1.000  O
  O1519    1.0000 0.84270  0.33650  0.21810  Biso   1.000  O
  O1520    1.0000 0.97170  0.33680  0.28590  Biso   1.000  O
  O1521    1.0000 0.94460  0.33040  0.16780  Biso   1.000  O
  O1522    1.0000 0.97340  0.38200  0.33000  Biso   1.000  O
  O1523    1.0000 0.89350  0.32950  0.21710  Biso   1.000  O
  O1524    1.0000 0.92660  0.36610  0.19960  Biso   1.000  O
  O1525    1.0000 0.96950  0.34130  0.21170  Biso   1.000  O
  O1526    1.0000 0.97210  0.37250  0.17830  Biso   1.000  O
  Al328    1.0000 0.86620  0.82990  0.78050  Biso   1.000  Al
  Al329    1.0000 0.96160  0.85580  0.81120  Biso   1.000  Al
  Al330    1.0000 0.90470  0.86160  0.72240  Biso   1.000  Al
  P328     1.0000 0.91120  0.87040  0.78110  Biso   1.000  P
  P329     1.0000 0.86530  0.81620  0.72080  Biso   1.000  P
  P330     1.0000 0.95400  0.85170  0.68830  Biso   1.000  P
  O1527    1.0000 0.91910  0.87390  0.75040  Biso   1.000  O
  O1528    1.0000 0.88590  0.88730  0.78700  Biso   1.000  O
  O1529    1.0000 0.89830  0.84090  0.78130  Biso   1.000  O
  O1530    1.0000 0.93410  0.87120  0.79880  Biso   1.000  O
  O1531    1.0000 0.86490  0.80930  0.75320  Biso   1.000  O
  O1532    1.0000 0.86540  0.79710  0.69960  Biso   1.000  O
  O1533    1.0000 0.84270  0.83650  0.71810  Biso   1.000  O
  O1534    1.0000 0.97170  0.83680  0.78590  Biso   1.000  O
  O1535    1.0000 0.94460  0.83040  0.66780  Biso   1.000  O
  O1536    1.0000 0.97340  0.88200  0.83000  Biso   1.000  O
  O1537    1.0000 0.89350  0.82950  0.71710  Biso   1.000  O
  O1538    1.0000 0.92660  0.86610  0.69960  Biso   1.000  O
  O1539    1.0000 0.96950  0.84130  0.71170  Biso   1.000  O
  O1540    1.0000 0.97210  0.87250  0.67830  Biso   1.000  O
  Al331    1.0000 0.36620  0.32990  0.78050  Biso   1.000  Al
  Al332    1.0000 0.46160  0.35580  0.81120  Biso   1.000  Al
  Al333    1.0000 0.40470  0.36160  0.72240  Biso   1.000  Al
  P331     1.0000 0.41120  0.37040  0.78110  Biso   1.000  P
  P332     1.0000 0.36530  0.31620  0.72080  Biso   1.000  P
  P333     1.0000 0.45400  0.35170  0.68830  Biso   1.000  P
  O1541    1.0000 0.41910  0.37390  0.75040  Biso   1.000  O
  O1542    1.0000 0.38590  0.38730  0.78700  Biso   1.000  O
  O1543    1.0000 0.39830  0.34090  0.78130  Biso   1.000  O
  O1544    1.0000 0.43410  0.37120  0.79880  Biso   1.000  O
  O1545    1.0000 0.36490  0.30930  0.75320  Biso   1.000  O
  O1546    1.0000 0.36540  0.29710  0.69960  Biso   1.000  O
  O1547    1.0000 0.34270  0.33650  0.71810  Biso   1.000  O
  O1548    1.0000 0.47170  0.33680  0.78590  Biso   1.000  O
  O1549    1.0000 0.44460  0.33040  0.66780  Biso   1.000  O
  O1550    1.0000 0.47340  0.38200  0.83000  Biso   1.000  O
  O1551    1.0000 0.39350  0.32950  0.71710  Biso   1.000  O
  O1552    1.0000 0.42660  0.36610  0.69960  Biso   1.000  O
  O1553    1.0000 0.46950  0.34130  0.71170  Biso   1.000  O
  O1554    1.0000 0.47210  0.37250  0.67830  Biso   1.000  O
  Al334    1.0000 0.36620  0.82990  0.28050  Biso   1.000  Al
  Al335    1.0000 0.46160  0.85580  0.31120  Biso   1.000  Al
  Al336    1.0000 0.40470  0.86160  0.22240  Biso   1.000  Al
  P334     1.0000 0.41120  0.87040  0.28110  Biso   1.000  P
  P335     1.0000 0.36530  0.81620  0.22080  Biso   1.000  P
  P336     1.0000 0.45400  0.85170  0.18830  Biso   1.000  P
  O1555    1.0000 0.41910  0.87390  0.25040  Biso   1.000  O
  O1556    1.0000 0.38590  0.88730  0.28700  Biso   1.000  O
  O1557    1.0000 0.39830  0.84090  0.28130  Biso   1.000  O
  O1558    1.0000 0.43410  0.87120  0.29880  Biso   1.000  O
  O1559    1.0000 0.36490  0.80930  0.25320  Biso   1.000  O
  O1560    1.0000 0.36540  0.79710  0.19960  Biso   1.000  O
  O1561    1.0000 0.34270  0.83650  0.21810  Biso   1.000  O
  O1562    1.0000 0.47170  0.83680  0.28590  Biso   1.000  O
  O1563    1.0000 0.44460  0.83040  0.16780  Biso   1.000  O
  O1564    1.0000 0.47340  0.88200  0.33000  Biso   1.000  O
  O1565    1.0000 0.39350  0.82950  0.21710  Biso   1.000  O
  O1566    1.0000 0.42660  0.86610  0.19960  Biso   1.000  O
  O1567    1.0000 0.46950  0.84130  0.21170  Biso   1.000  O
  O1568    1.0000 0.47210  0.87250  0.17830  Biso   1.000  O
  Al337    1.0000 0.71950  0.86620  0.67010  Biso   1.000  Al
  Al338    1.0000 0.68880  0.96160  0.64420  Biso   1.000  Al
  Al339    1.0000 0.77760  0.90470  0.63840  Biso   1.000  Al
  P337     1.0000 0.71890  0.91120  0.62960  Biso   1.000  P
  P338     1.0000 0.77920  0.86530  0.68380  Biso   1.000  P
  P339     1.0000 0.81170  0.95400  0.64830  Biso   1.000  P
  O1569    1.0000 0.74960  0.91910  0.62610  Biso   1.000  O
  O1570    1.0000 0.71300  0.88590  0.61270  Biso   1.000  O
  O1571    1.0000 0.71870  0.89830  0.65910  Biso   1.000  O
  O1572    1.0000 0.70120  0.93410  0.62880  Biso   1.000  O
  O1573    1.0000 0.74680  0.86490  0.69070  Biso   1.000  O
  O1574    1.0000 0.80040  0.86540  0.70290  Biso   1.000  O
  O1575    1.0000 0.78190  0.84270  0.66350  Biso   1.000  O
  O1576    1.0000 0.71410  0.97170  0.66320  Biso   1.000  O
  O1577    1.0000 0.83220  0.94460  0.66960  Biso   1.000  O
  O1578    1.0000 0.67000  0.97340  0.61800  Biso   1.000  O
  O1579    1.0000 0.78290  0.89350  0.67050  Biso   1.000  O
  O1580    1.0000 0.80040  0.92660  0.63390  Biso   1.000  O
  O1581    1.0000 0.78830  0.96950  0.65870  Biso   1.000  O
  O1582    1.0000 0.82170  0.97210  0.62750  Biso   1.000  O
  Al340    1.0000 0.71950  0.36620  0.17010  Biso   1.000  Al
  Al341    1.0000 0.68880  0.46160  0.14420  Biso   1.000  Al
  Al342    1.0000 0.77760  0.40470  0.13840  Biso   1.000  Al
  P340     1.0000 0.71890  0.41120  0.12960  Biso   1.000  P
  P341     1.0000 0.77920  0.36530  0.18380  Biso   1.000  P
  P342     1.0000 0.81170  0.45400  0.14830  Biso   1.000  P
  O1583    1.0000 0.74960  0.41910  0.12610  Biso   1.000  O
  O1584    1.0000 0.71300  0.38590  0.11270  Biso   1.000  O
  O1585    1.0000 0.71870  0.39830  0.15910  Biso   1.000  O
  O1586    1.0000 0.70120  0.43410  0.12880  Biso   1.000  O
  O1587    1.0000 0.74680  0.36490  0.19070  Biso   1.000  O
  O1588    1.0000 0.80040  0.36540  0.20290  Biso   1.000  O
  O1589    1.0000 0.78190  0.34270  0.16350  Biso   1.000  O
  O1590    1.0000 0.71410  0.47170  0.16320  Biso   1.000  O
  O1591    1.0000 0.83220  0.44460  0.16960  Biso   1.000  O
  O1592    1.0000 0.67000  0.47340  0.11800  Biso   1.000  O
  O1593    1.0000 0.78290  0.39350  0.17050  Biso   1.000  O
  O1594    1.0000 0.80040  0.42660  0.13390  Biso   1.000  O
  O1595    1.0000 0.78830  0.46950  0.15870  Biso   1.000  O
  O1596    1.0000 0.82170  0.47210  0.12750  Biso   1.000  O
  Al343    1.0000 0.21950  0.86620  0.17010  Biso   1.000  Al
  Al344    1.0000 0.18880  0.96160  0.14420  Biso   1.000  Al
  Al345    1.0000 0.27760  0.90470  0.13840  Biso   1.000  Al
  P343     1.0000 0.21890  0.91120  0.12960  Biso   1.000  P
  P344     1.0000 0.27920  0.86530  0.18380  Biso   1.000  P
  P345     1.0000 0.31170  0.95400  0.14830  Biso   1.000  P
  O1597    1.0000 0.24960  0.91910  0.12610  Biso   1.000  O
  O1598    1.0000 0.21300  0.88590  0.11270  Biso   1.000  O
  O1599    1.0000 0.21870  0.89830  0.15910  Biso   1.000  O
  O1600    1.0000 0.20120  0.93410  0.12880  Biso   1.000  O
  O1601    1.0000 0.24680  0.86490  0.19070  Biso   1.000  O
  O1602    1.0000 0.30040  0.86540  0.20290  Biso   1.000  O
  O1603    1.0000 0.28190  0.84270  0.16350  Biso   1.000  O
  O1604    1.0000 0.21410  0.97170  0.16320  Biso   1.000  O
  O1605    1.0000 0.33220  0.94460  0.16960  Biso   1.000  O
  O1606    1.0000 0.17000  0.97340  0.11800  Biso   1.000  O
  O1607    1.0000 0.28290  0.89350  0.17050  Biso   1.000  O
  O1608    1.0000 0.30040  0.92660  0.13390  Biso   1.000  O
  O1609    1.0000 0.28830  0.96950  0.15870  Biso   1.000  O
  O1610    1.0000 0.32170  0.97210  0.12750  Biso   1.000  O
  Al346    1.0000 0.21950  0.36620  0.67010  Biso   1.000  Al
  Al347    1.0000 0.18880  0.46160  0.64420  Biso   1.000  Al
  Al348    1.0000 0.27760  0.40470  0.63840  Biso   1.000  Al
  P346     1.0000 0.21890  0.41120  0.62960  Biso   1.000  P
  P347     1.0000 0.27920  0.36530  0.68380  Biso   1.000  P
  P348     1.0000 0.31170  0.45400  0.64830  Biso   1.000  P
  O1611    1.0000 0.24960  0.41910  0.62610  Biso   1.000  O
  O1612    1.0000 0.21300  0.38590  0.61270  Biso   1.000  O
  O1613    1.0000 0.21870  0.39830  0.65910  Biso   1.000  O
  O1614    1.0000 0.20120  0.43410  0.62880  Biso   1.000  O
  O1615    1.0000 0.24680  0.36490  0.69070  Biso   1.000  O
  O1616    1.0000 0.30040  0.36540  0.70290  Biso   1.000  O
  O1617    1.0000 0.28190  0.34270  0.66350  Biso   1.000  O
  O1618    1.0000 0.21410  0.47170  0.66320  Biso   1.000  O
  O1619    1.0000 0.33220  0.44460  0.66960  Biso   1.000  O
  O1620    1.0000 0.17000  0.47340  0.61800  Biso   1.000  O
  O1621    1.0000 0.28290  0.39350  0.67050  Biso   1.000  O
  O1622    1.0000 0.30040  0.42660  0.63390  Biso   1.000  O
  O1623    1.0000 0.28830  0.46950  0.65870  Biso   1.000  O
  O1624    1.0000 0.32170  0.47210  0.62750  Biso   1.000  O
  Al349    1.0000 0.71950  0.13380  0.32990  Biso   1.000  Al
  Al350    1.0000 0.68880  0.03840  0.35580  Biso   1.000  Al
  Al351    1.0000 0.77760  0.09530  0.36160  Biso   1.000  Al
  P349     1.0000 0.71890  0.08880  0.37040  Biso   1.000  P
  P350     1.0000 0.77920  0.13470  0.31620  Biso   1.000  P
  P351     1.0000 0.81170  0.04600  0.35170  Biso   1.000  P
  O1625    1.0000 0.74960  0.08090  0.37390  Biso   1.000  O
  O1626    1.0000 0.71300  0.11410  0.38730  Biso   1.000  O
  O1627    1.0000 0.71870  0.10170  0.34090  Biso   1.000  O
  O1628    1.0000 0.70120  0.06590  0.37120  Biso   1.000  O
  O1629    1.0000 0.74680  0.13510  0.30930  Biso   1.000  O
  O1630    1.0000 0.80040  0.13460  0.29710  Biso   1.000  O
  O1631    1.0000 0.78190  0.15730  0.33650  Biso   1.000  O
  O1632    1.0000 0.71410  0.02830  0.33680  Biso   1.000  O
  O1633    1.0000 0.83220  0.05540  0.33040  Biso   1.000  O
  O1634    1.0000 0.67000  0.02660  0.38200  Biso   1.000  O
  O1635    1.0000 0.78290  0.10650  0.32950  Biso   1.000  O
  O1636    1.0000 0.80040  0.07340  0.36610  Biso   1.000  O
  O1637    1.0000 0.78830  0.03050  0.34130  Biso   1.000  O
  O1638    1.0000 0.82170  0.02790  0.37250  Biso   1.000  O
  Al352    1.0000 0.71950  0.63380  0.82990  Biso   1.000  Al
  Al353    1.0000 0.68880  0.53840  0.85580  Biso   1.000  Al
  Al354    1.0000 0.77760  0.59530  0.86160  Biso   1.000  Al
  P352     1.0000 0.71890  0.58880  0.87040  Biso   1.000  P
  P353     1.0000 0.77920  0.63470  0.81620  Biso   1.000  P
  P354     1.0000 0.81170  0.54600  0.85170  Biso   1.000  P
  O1639    1.0000 0.74960  0.58090  0.87390  Biso   1.000  O
  O1640    1.0000 0.71300  0.61410  0.88730  Biso   1.000  O
  O1641    1.0000 0.71870  0.60170  0.84090  Biso   1.000  O
  O1642    1.0000 0.70120  0.56590  0.87120  Biso   1.000  O
  O1643    1.0000 0.74680  0.63510  0.80930  Biso   1.000  O
  O1644    1.0000 0.80040  0.63460  0.79710  Biso   1.000  O
  O1645    1.0000 0.78190  0.65730  0.83650  Biso   1.000  O
  O1646    1.0000 0.71410  0.52830  0.83680  Biso   1.000  O
  O1647    1.0000 0.83220  0.55540  0.83040  Biso   1.000  O
  O1648    1.0000 0.67000  0.52660  0.88200  Biso   1.000  O
  O1649    1.0000 0.78290  0.60650  0.82950  Biso   1.000  O
  O1650    1.0000 0.80040  0.57340  0.86610  Biso   1.000  O
  O1651    1.0000 0.78830  0.53050  0.84130  Biso   1.000  O
  O1652    1.0000 0.82170  0.52790  0.87250  Biso   1.000  O
  Al355    1.0000 0.21950  0.13380  0.82990  Biso   1.000  Al
  Al356    1.0000 0.18880  0.03840  0.85580  Biso   1.000  Al
  Al357    1.0000 0.27760  0.09530  0.86160  Biso   1.000  Al
  P355     1.0000 0.21890  0.08880  0.87040  Biso   1.000  P
  P356     1.0000 0.27920  0.13470  0.81620  Biso   1.000  P
  P357     1.0000 0.31170  0.04600  0.85170  Biso   1.000  P
  O1653    1.0000 0.24960  0.08090  0.87390  Biso   1.000  O
  O1654    1.0000 0.21300  0.11410  0.88730  Biso   1.000  O
  O1655    1.0000 0.21870  0.10170  0.84090  Biso   1.000  O
  O1656    1.0000 0.20120  0.06590  0.87120  Biso   1.000  O
  O1657    1.0000 0.24680  0.13510  0.80930  Biso   1.000  O
  O1658    1.0000 0.30040  0.13460  0.79710  Biso   1.000  O
  O1659    1.0000 0.28190  0.15730  0.83650  Biso   1.000  O
  O1660    1.0000 0.21410  0.02830  0.83680  Biso   1.000  O
  O1661    1.0000 0.33220  0.05540  0.83040  Biso   1.000  O
  O1662    1.0000 0.17000  0.02660  0.88200  Biso   1.000  O
  O1663    1.0000 0.28290  0.10650  0.82950  Biso   1.000  O
  O1664    1.0000 0.30040  0.07340  0.86610  Biso   1.000  O
  O1665    1.0000 0.28830  0.03050  0.84130  Biso   1.000  O
  O1666    1.0000 0.32170  0.02790  0.87250  Biso   1.000  O
  Al358    1.0000 0.21950  0.63380  0.32990  Biso   1.000  Al
  Al359    1.0000 0.18880  0.53840  0.35580  Biso   1.000  Al
  Al360    1.0000 0.27760  0.59530  0.36160  Biso   1.000  Al
  P358     1.0000 0.21890  0.58880  0.37040  Biso   1.000  P
  P359     1.0000 0.27920  0.63470  0.31620  Biso   1.000  P
  P360     1.0000 0.31170  0.54600  0.35170  Biso   1.000  P
  O1667    1.0000 0.24960  0.58090  0.37390  Biso   1.000  O
  O1668    1.0000 0.21300  0.61410  0.38730  Biso   1.000  O
  O1669    1.0000 0.21870  0.60170  0.34090  Biso   1.000  O
  O1670    1.0000 0.20120  0.56590  0.37120  Biso   1.000  O
  O1671    1.0000 0.24680  0.63510  0.30930  Biso   1.000  O
  O1672    1.0000 0.30040  0.63460  0.29710  Biso   1.000  O
  O1673    1.0000 0.28190  0.65730  0.33650  Biso   1.000  O
  O1674    1.0000 0.21410  0.52830  0.33680  Biso   1.000  O
  O1675    1.0000 0.33220  0.55540  0.33040  Biso   1.000  O
  O1676    1.0000 0.17000  0.52660  0.38200  Biso   1.000  O
  O1677    1.0000 0.28290  0.60650  0.32950  Biso   1.000  O
  O1678    1.0000 0.30040  0.57340  0.36610  Biso   1.000  O
  O1679    1.0000 0.28830  0.53050  0.34130  Biso   1.000  O
  O1680    1.0000 0.32170  0.52790  0.37250  Biso   1.000  O
  Al361    1.0000 0.28050  0.13380  0.67010  Biso   1.000  Al
  Al362    1.0000 0.31120  0.03840  0.64420  Biso   1.000  Al
  Al363    1.0000 0.22240  0.09530  0.63840  Biso   1.000  Al
  P361     1.0000 0.28110  0.08880  0.62960  Biso   1.000  P
  P362     1.0000 0.22080  0.13470  0.68380  Biso   1.000  P
  P363     1.0000 0.18830  0.04600  0.64830  Biso   1.000  P
  O1681    1.0000 0.25040  0.08090  0.62610  Biso   1.000  O
  O1682    1.0000 0.28700  0.11410  0.61270  Biso   1.000  O
  O1683    1.0000 0.28130  0.10170  0.65910  Biso   1.000  O
  O1684    1.0000 0.29880  0.06590  0.62880  Biso   1.000  O
  O1685    1.0000 0.25320  0.13510  0.69070  Biso   1.000  O
  O1686    1.0000 0.19960  0.13460  0.70290  Biso   1.000  O
  O1687    1.0000 0.21810  0.15730  0.66350  Biso   1.000  O
  O1688    1.0000 0.28590  0.02830  0.66320  Biso   1.000  O
  O1689    1.0000 0.16780  0.05540  0.66960  Biso   1.000  O
  O1690    1.0000 0.33000  0.02660  0.61800  Biso   1.000  O
  O1691    1.0000 0.21710  0.10650  0.67050  Biso   1.000  O
  O1692    1.0000 0.19960  0.07340  0.63390  Biso   1.000  O
  O1693    1.0000 0.21170  0.03050  0.65870  Biso   1.000  O
  O1694    1.0000 0.17830  0.02790  0.62750  Biso   1.000  O
  Al364    1.0000 0.28050  0.63380  0.17010  Biso   1.000  Al
  Al365    1.0000 0.31120  0.53840  0.14420  Biso   1.000  Al
  Al366    1.0000 0.22240  0.59530  0.13840  Biso   1.000  Al
  P364     1.0000 0.28110  0.58880  0.12960  Biso   1.000  P
  P365     1.0000 0.22080  0.63470  0.18380  Biso   1.000  P
  P366     1.0000 0.18830  0.54600  0.14830  Biso   1.000  P
  O1695    1.0000 0.25040  0.58090  0.12610  Biso   1.000  O
  O1696    1.0000 0.28700  0.61410  0.11270  Biso   1.000  O
  O1697    1.0000 0.28130  0.60170  0.15910  Biso   1.000  O
  O1698    1.0000 0.29880  0.56590  0.12880  Biso   1.000  O
  O1699    1.0000 0.25320  0.63510  0.19070  Biso   1.000  O
  O1700    1.0000 0.19960  0.63460  0.20290  Biso   1.000  O
  O1701    1.0000 0.21810  0.65730  0.16350  Biso   1.000  O
  O1702    1.0000 0.28590  0.52830  0.16320  Biso   1.000  O
  O1703    1.0000 0.16780  0.55540  0.16960  Biso   1.000  O
  O1704    1.0000 0.33000  0.52660  0.11800  Biso   1.000  O
  O1705    1.0000 0.21710  0.60650  0.17050  Biso   1.000  O
  O1706    1.0000 0.19960  0.57340  0.13390  Biso   1.000  O
  O1707    1.0000 0.21170  0.53050  0.15870  Biso   1.000  O
  O1708    1.0000 0.17830  0.52790  0.12750  Biso   1.000  O
  Al367    1.0000 0.78050  0.13380  0.17010  Biso   1.000  Al
  Al368    1.0000 0.81120  0.03840  0.14420  Biso   1.000  Al
  Al369    1.0000 0.72240  0.09530  0.13840  Biso   1.000  Al
  P367     1.0000 0.78110  0.08880  0.12960  Biso   1.000  P
  P368     1.0000 0.72080  0.13470  0.18380  Biso   1.000  P
  P369     1.0000 0.68830  0.04600  0.14830  Biso   1.000  P
  O1709    1.0000 0.75040  0.08090  0.12610  Biso   1.000  O
  O1710    1.0000 0.78700  0.11410  0.11270  Biso   1.000  O
  O1711    1.0000 0.78130  0.10170  0.15910  Biso   1.000  O
  O1712    1.0000 0.79880  0.06590  0.12880  Biso   1.000  O
  O1713    1.0000 0.75320  0.13510  0.19070  Biso   1.000  O
  O1714    1.0000 0.69960  0.13460  0.20290  Biso   1.000  O
  O1715    1.0000 0.71810  0.15730  0.16350  Biso   1.000  O
  O1716    1.0000 0.78590  0.02830  0.16320  Biso   1.000  O
  O1717    1.0000 0.66780  0.05540  0.16960  Biso   1.000  O
  O1718    1.0000 0.83000  0.02660  0.11800  Biso   1.000  O
  O1719    1.0000 0.71710  0.10650  0.17050  Biso   1.000  O
  O1720    1.0000 0.69960  0.07340  0.13390  Biso   1.000  O
  O1721    1.0000 0.71170  0.03050  0.15870  Biso   1.000  O
  O1722    1.0000 0.67830  0.02790  0.12750  Biso   1.000  O
  Al370    1.0000 0.78050  0.63380  0.67010  Biso   1.000  Al
  Al371    1.0000 0.81120  0.53840  0.64420  Biso   1.000  Al
  Al372    1.0000 0.72240  0.59530  0.63840  Biso   1.000  Al
  P370     1.0000 0.78110  0.58880  0.62960  Biso   1.000  P
  P371     1.0000 0.72080  0.63470  0.68380  Biso   1.000  P
  P372     1.0000 0.68830  0.54600  0.64830  Biso   1.000  P
  O1723    1.0000 0.75040  0.58090  0.62610  Biso   1.000  O
  O1724    1.0000 0.78700  0.61410  0.61270  Biso   1.000  O
  O1725    1.0000 0.78130  0.60170  0.65910  Biso   1.000  O
  O1726    1.0000 0.79880  0.56590  0.62880  Biso   1.000  O
  O1727    1.0000 0.75320  0.63510  0.69070  Biso   1.000  O
  O1728    1.0000 0.69960  0.63460  0.70290  Biso   1.000  O
  O1729    1.0000 0.71810  0.65730  0.66350  Biso   1.000  O
  O1730    1.0000 0.78590  0.52830  0.66320  Biso   1.000  O
  O1731    1.0000 0.66780  0.55540  0.66960  Biso   1.000  O
  O1732    1.0000 0.83000  0.52660  0.61800  Biso   1.000  O
  O1733    1.0000 0.71710  0.60650  0.67050  Biso   1.000  O
  O1734    1.0000 0.69960  0.57340  0.63390  Biso   1.000  O
  O1735    1.0000 0.71170  0.53050  0.65870  Biso   1.000  O
  O1736    1.0000 0.67830  0.52790  0.62750  Biso   1.000  O
  Al373    1.0000 0.28050  0.86620  0.32990  Biso   1.000  Al
  Al374    1.0000 0.31120  0.96160  0.35580  Biso   1.000  Al
  Al375    1.0000 0.22240  0.90470  0.36160  Biso   1.000  Al
  P373     1.0000 0.28110  0.91120  0.37040  Biso   1.000  P
  P374     1.0000 0.22080  0.86530  0.31620  Biso   1.000  P
  P375     1.0000 0.18830  0.95400  0.35170  Biso   1.000  P
  O1737    1.0000 0.25040  0.91910  0.37390  Biso   1.000  O
  O1738    1.0000 0.28700  0.88590  0.38730  Biso   1.000  O
  O1739    1.0000 0.28130  0.89830  0.34090  Biso   1.000  O
  O1740    1.0000 0.29880  0.93410  0.37120  Biso   1.000  O
  O1741    1.0000 0.25320  0.86490  0.30930  Biso   1.000  O
  O1742    1.0000 0.19960  0.86540  0.29710  Biso   1.000  O
  O1743    1.0000 0.21810  0.84270  0.33650  Biso   1.000  O
  O1744    1.0000 0.28590  0.97170  0.33680  Biso   1.000  O
  O1745    1.0000 0.16780  0.94460  0.33040  Biso   1.000  O
  O1746    1.0000 0.33000  0.97340  0.38200  Biso   1.000  O
  O1747    1.0000 0.21710  0.89350  0.32950  Biso   1.000  O
  O1748    1.0000 0.19960  0.92660  0.36610  Biso   1.000  O
  O1749    1.0000 0.21170  0.96950  0.34130  Biso   1.000  O
  O1750    1.0000 0.17830  0.97210  0.37250  Biso   1.000  O
  Al376    1.0000 0.28050  0.36620  0.82990  Biso   1.000  Al
  Al377    1.0000 0.31120  0.46160  0.85580  Biso   1.000  Al
  Al378    1.0000 0.22240  0.40470  0.86160  Biso   1.000  Al
  P376     1.0000 0.28110  0.41120  0.87040  Biso   1.000  P
  P377     1.0000 0.22080  0.36530  0.81620  Biso   1.000  P
  P378     1.0000 0.18830  0.45400  0.85170  Biso   1.000  P
  O1751    1.0000 0.25040  0.41910  0.87390  Biso   1.000  O
  O1752    1.0000 0.28700  0.38590  0.88730  Biso   1.000  O
  O1753    1.0000 0.28130  0.39830  0.84090  Biso   1.000  O
  O1754    1.0000 0.29880  0.43410  0.87120  Biso   1.000  O
  O1755    1.0000 0.25320  0.36490  0.80930  Biso   1.000  O
  O1756    1.0000 0.19960  0.36540  0.79710  Biso   1.000  O
  O1757    1.0000 0.21810  0.34270  0.83650  Biso   1.000  O
  O1758    1.0000 0.28590  0.47170  0.83680  Biso   1.000  O
  O1759    1.0000 0.16780  0.44460  0.83040  Biso   1.000  O
  O1760    1.0000 0.33000  0.47340  0.88200  Biso   1.000  O
  O1761    1.0000 0.21710  0.39350  0.82950  Biso   1.000  O
  O1762    1.0000 0.19960  0.42660  0.86610  Biso   1.000  O
  O1763    1.0000 0.21170  0.46950  0.84130  Biso   1.000  O
  O1764    1.0000 0.17830  0.47210  0.87250  Biso   1.000  O
  Al379    1.0000 0.78050  0.86620  0.82990  Biso   1.000  Al
  Al380    1.0000 0.81120  0.96160  0.85580  Biso   1.000  Al
  Al381    1.0000 0.72240  0.90470  0.86160  Biso   1.000  Al
  P379     1.0000 0.78110  0.91120  0.87040  Biso   1.000  P
  P380     1.0000 0.72080  0.86530  0.81620  Biso   1.000  P
  P381     1.0000 0.68830  0.95400  0.85170  Biso   1.000  P
  O1765    1.0000 0.75040  0.91910  0.87390  Biso   1.000  O
  O1766    1.0000 0.78700  0.88590  0.88730  Biso   1.000  O
  O1767    1.0000 0.78130  0.89830  0.84090  Biso   1.000  O
  O1768    1.0000 0.79880  0.93410  0.87120  Biso   1.000  O
  O1769    1.0000 0.75320  0.86490  0.80930  Biso   1.000  O
  O1770    1.0000 0.69960  0.86540  0.79710  Biso   1.000  O
  O1771    1.0000 0.71810  0.84270  0.83650  Biso   1.000  O
  O1772    1.0000 0.78590  0.97170  0.83680  Biso   1.000  O
  O1773    1.0000 0.66780  0.94460  0.83040  Biso   1.000  O
  O1774    1.0000 0.83000  0.97340  0.88200  Biso   1.000  O
  O1775    1.0000 0.71710  0.89350  0.82950  Biso   1.000  O
  O1776    1.0000 0.69960  0.92660  0.86610  Biso   1.000  O
  O1777    1.0000 0.71170  0.96950  0.84130  Biso   1.000  O
  O1778    1.0000 0.67830  0.97210  0.87250  Biso   1.000  O
  Al382    1.0000 0.78050  0.36620  0.32990  Biso   1.000  Al
  Al383    1.0000 0.81120  0.46160  0.35580  Biso   1.000  Al
  Al384    1.0000 0.72240  0.40470  0.36160  Biso   1.000  Al
  P382     1.0000 0.78110  0.41120  0.37040  Biso   1.000  P
  P383     1.0000 0.72080  0.36530  0.31620  Biso   1.000  P
  P384     1.0000 0.68830  0.45400  0.35170  Biso   1.000  P
  O1779    1.0000 0.75040  0.41910  0.37390  Biso   1.000  O
  O1780    1.0000 0.78700  0.38590  0.38730  Biso   1.000  O
  O1781    1.0000 0.78130  0.39830  0.34090  Biso   1.000  O
  O1782    1.0000 0.79880  0.43410  0.37120  Biso   1.000  O
  O1783    1.0000 0.75320  0.36490  0.30930  Biso   1.000  O
  O1784    1.0000 0.69960  0.36540  0.29710  Biso   1.000  O
  O1785    1.0000 0.71810  0.34270  0.33650  Biso   1.000  O
  O1786    1.0000 0.78590  0.47170  0.33680  Biso   1.000  O
  O1787    1.0000 0.66780  0.44460  0.33040  Biso   1.000  O
  O1788    1.0000 0.83000  0.47340  0.38200  Biso   1.000  O
  O1789    1.0000 0.71710  0.39350  0.32950  Biso   1.000  O
  O1790    1.0000 0.69960  0.42660  0.36610  Biso   1.000  O
  O1791    1.0000 0.71170  0.46950  0.34130  Biso   1.000  O
  O1792    1.0000 0.67830  0.47210  0.37250  Biso   1.000  O
  Al385    1.0000 0.67010  0.71950  0.86620  Biso   1.000  Al
  Al386    1.0000 0.64420  0.68880  0.96160  Biso   1.000  Al
  Al387    1.0000 0.63840  0.77760  0.90470  Biso   1.000  Al
  P385     1.0000 0.62960  0.71890  0.91120  Biso   1.000  P
  P386     1.0000 0.68380  0.77920  0.86530  Biso   1.000  P
  P387     1.0000 0.64830  0.81170  0.95400  Biso   1.000  P
  O1793    1.0000 0.62610  0.74960  0.91910  Biso   1.000  O
  O1794    1.0000 0.61270  0.71300  0.88590  Biso   1.000  O
  O1795    1.0000 0.65910  0.71870  0.89830  Biso   1.000  O
  O1796    1.0000 0.62880  0.70120  0.93410  Biso   1.000  O
  O1797    1.0000 0.69070  0.74680  0.86490  Biso   1.000  O
  O1798    1.0000 0.70290  0.80040  0.86540  Biso   1.000  O
  O1799    1.0000 0.66350  0.78190  0.84270  Biso   1.000  O
  O1800    1.0000 0.66320  0.71410  0.97170  Biso   1.000  O
  O1801    1.0000 0.66960  0.83220  0.94460  Biso   1.000  O
  O1802    1.0000 0.61800  0.67000  0.97340  Biso   1.000  O
  O1803    1.0000 0.67050  0.78290  0.89350  Biso   1.000  O
  O1804    1.0000 0.63390  0.80040  0.92660  Biso   1.000  O
  O1805    1.0000 0.65870  0.78830  0.96950  Biso   1.000  O
  O1806    1.0000 0.62750  0.82170  0.97210  Biso   1.000  O
  Al388    1.0000 0.67010  0.21950  0.36620  Biso   1.000  Al
  Al389    1.0000 0.64420  0.18880  0.46160  Biso   1.000  Al
  Al390    1.0000 0.63840  0.27760  0.40470  Biso   1.000  Al
  P388     1.0000 0.62960  0.21890  0.41120  Biso   1.000  P
  P389     1.0000 0.68380  0.27920  0.36530  Biso   1.000  P
  P390     1.0000 0.64830  0.31170  0.45400  Biso   1.000  P
  O1807    1.0000 0.62610  0.24960  0.41910  Biso   1.000  O
  O1808    1.0000 0.61270  0.21300  0.38590  Biso   1.000  O
  O1809    1.0000 0.65910  0.21870  0.39830  Biso   1.000  O
  O1810    1.0000 0.62880  0.20120  0.43410  Biso   1.000  O
  O1811    1.0000 0.69070  0.24680  0.36490  Biso   1.000  O
  O1812    1.0000 0.70290  0.30040  0.36540  Biso   1.000  O
  O1813    1.0000 0.66350  0.28190  0.34270  Biso   1.000  O
  O1814    1.0000 0.66320  0.21410  0.47170  Biso   1.000  O
  O1815    1.0000 0.66960  0.33220  0.44460  Biso   1.000  O
  O1816    1.0000 0.61800  0.17000  0.47340  Biso   1.000  O
  O1817    1.0000 0.67050  0.28290  0.39350  Biso   1.000  O
  O1818    1.0000 0.63390  0.30040  0.42660  Biso   1.000  O
  O1819    1.0000 0.65870  0.28830  0.46950  Biso   1.000  O
  O1820    1.0000 0.62750  0.32170  0.47210  Biso   1.000  O
  Al391    1.0000 0.17010  0.71950  0.36620  Biso   1.000  Al
  Al392    1.0000 0.14420  0.68880  0.46160  Biso   1.000  Al
  Al393    1.0000 0.13840  0.77760  0.40470  Biso   1.000  Al
  P391     1.0000 0.12960  0.71890  0.41120  Biso   1.000  P
  P392     1.0000 0.18380  0.77920  0.36530  Biso   1.000  P
  P393     1.0000 0.14830  0.81170  0.45400  Biso   1.000  P
  O1821    1.0000 0.12610  0.74960  0.41910  Biso   1.000  O
  O1822    1.0000 0.11270  0.71300  0.38590  Biso   1.000  O
  O1823    1.0000 0.15910  0.71870  0.39830  Biso   1.000  O
  O1824    1.0000 0.12880  0.70120  0.43410  Biso   1.000  O
  O1825    1.0000 0.19070  0.74680  0.36490  Biso   1.000  O
  O1826    1.0000 0.20290  0.80040  0.36540  Biso   1.000  O
  O1827    1.0000 0.16350  0.78190  0.34270  Biso   1.000  O
  O1828    1.0000 0.16320  0.71410  0.47170  Biso   1.000  O
  O1829    1.0000 0.16960  0.83220  0.44460  Biso   1.000  O
  O1830    1.0000 0.11800  0.67000  0.47340  Biso   1.000  O
  O1831    1.0000 0.17050  0.78290  0.39350  Biso   1.000  O
  O1832    1.0000 0.13390  0.80040  0.42660  Biso   1.000  O
  O1833    1.0000 0.15870  0.78830  0.46950  Biso   1.000  O
  O1834    1.0000 0.12750  0.82170  0.47210  Biso   1.000  O
  Al394    1.0000 0.17010  0.21950  0.86620  Biso   1.000  Al
  Al395    1.0000 0.14420  0.18880  0.96160  Biso   1.000  Al
  Al396    1.0000 0.13840  0.27760  0.90470  Biso   1.000  Al
  P394     1.0000 0.12960  0.21890  0.91120  Biso   1.000  P
  P395     1.0000 0.18380  0.27920  0.86530  Biso   1.000  P
  P396     1.0000 0.14830  0.31170  0.95400  Biso   1.000  P
  O1835    1.0000 0.12610  0.24960  0.91910  Biso   1.000  O
  O1836    1.0000 0.11270  0.21300  0.88590  Biso   1.000  O
  O1837    1.0000 0.15910  0.21870  0.89830  Biso   1.000  O
  O1838    1.0000 0.12880  0.20120  0.93410  Biso   1.000  O
  O1839    1.0000 0.19070  0.24680  0.86490  Biso   1.000  O
  O1840    1.0000 0.20290  0.30040  0.86540  Biso   1.000  O
  O1841    1.0000 0.16350  0.28190  0.84270  Biso   1.000  O
  O1842    1.0000 0.16320  0.21410  0.97170  Biso   1.000  O
  O1843    1.0000 0.16960  0.33220  0.94460  Biso   1.000  O
  O1844    1.0000 0.11800  0.17000  0.97340  Biso   1.000  O
  O1845    1.0000 0.17050  0.28290  0.89350  Biso   1.000  O
  O1846    1.0000 0.13390  0.30040  0.92660  Biso   1.000  O
  O1847    1.0000 0.15870  0.28830  0.96950  Biso   1.000  O
  O1848    1.0000 0.12750  0.32170  0.97210  Biso   1.000  O
  Al397    1.0000 0.32990  0.71950  0.13380  Biso   1.000  Al
  Al398    1.0000 0.35580  0.68880  0.03840  Biso   1.000  Al
  Al399    1.0000 0.36160  0.77760  0.09530  Biso   1.000  Al
  P397     1.0000 0.37040  0.71890  0.08880  Biso   1.000  P
  P398     1.0000 0.31620  0.77920  0.13470  Biso   1.000  P
  P399     1.0000 0.35170  0.81170  0.04600  Biso   1.000  P
  O1849    1.0000 0.37390  0.74960  0.08090  Biso   1.000  O
  O1850    1.0000 0.38730  0.71300  0.11410  Biso   1.000  O
  O1851    1.0000 0.34090  0.71870  0.10170  Biso   1.000  O
  O1852    1.0000 0.37120  0.70120  0.06590  Biso   1.000  O
  O1853    1.0000 0.30930  0.74680  0.13510  Biso   1.000  O
  O1854    1.0000 0.29710  0.80040  0.13460  Biso   1.000  O
  O1855    1.0000 0.33650  0.78190  0.15730  Biso   1.000  O
  O1856    1.0000 0.33680  0.71410  0.02830  Biso   1.000  O
  O1857    1.0000 0.33040  0.83220  0.05540  Biso   1.000  O
  O1858    1.0000 0.38200  0.67000  0.02660  Biso   1.000  O
  O1859    1.0000 0.32950  0.78290  0.10650  Biso   1.000  O
  O1860    1.0000 0.36610  0.80040  0.07340  Biso   1.000  O
  O1861    1.0000 0.34130  0.78830  0.03050  Biso   1.000  O
  O1862    1.0000 0.37250  0.82170  0.02790  Biso   1.000  O
  Al400    1.0000 0.32990  0.21950  0.63380  Biso   1.000  Al
  Al401    1.0000 0.35580  0.18880  0.53840  Biso   1.000  Al
  Al402    1.0000 0.36160  0.27760  0.59530  Biso   1.000  Al
  P400     1.0000 0.37040  0.21890  0.58880  Biso   1.000  P
  P401     1.0000 0.31620  0.27920  0.63470  Biso   1.000  P
  P402     1.0000 0.35170  0.31170  0.54600  Biso   1.000  P
  O1863    1.0000 0.37390  0.24960  0.58090  Biso   1.000  O
  O1864    1.0000 0.38730  0.21300  0.61410  Biso   1.000  O
  O1865    1.0000 0.34090  0.21870  0.60170  Biso   1.000  O
  O1866    1.0000 0.37120  0.20120  0.56590  Biso   1.000  O
  O1867    1.0000 0.30930  0.24680  0.63510  Biso   1.000  O
  O1868    1.0000 0.29710  0.30040  0.63460  Biso   1.000  O
  O1869    1.0000 0.33650  0.28190  0.65730  Biso   1.000  O
  O1870    1.0000 0.33680  0.21410  0.52830  Biso   1.000  O
  O1871    1.0000 0.33040  0.33220  0.55540  Biso   1.000  O
  O1872    1.0000 0.38200  0.17000  0.52660  Biso   1.000  O
  O1873    1.0000 0.32950  0.28290  0.60650  Biso   1.000  O
  O1874    1.0000 0.36610  0.30040  0.57340  Biso   1.000  O
  O1875    1.0000 0.34130  0.28830  0.53050  Biso   1.000  O
  O1876    1.0000 0.37250  0.32170  0.52790  Biso   1.000  O
  Al403    1.0000 0.82990  0.71950  0.63380  Biso   1.000  Al
  Al404    1.0000 0.85580  0.68880  0.53840  Biso   1.000  Al
  Al405    1.0000 0.86160  0.77760  0.59530  Biso   1.000  Al
  P403     1.0000 0.87040  0.71890  0.58880  Biso   1.000  P
  P404     1.0000 0.81620  0.77920  0.63470  Biso   1.000  P
  P405     1.0000 0.85170  0.81170  0.54600  Biso   1.000  P
  O1877    1.0000 0.87390  0.74960  0.58090  Biso   1.000  O
  O1878    1.0000 0.88730  0.71300  0.61410  Biso   1.000  O
  O1879    1.0000 0.84090  0.71870  0.60170  Biso   1.000  O
  O1880    1.0000 0.87120  0.70120  0.56590  Biso   1.000  O
  O1881    1.0000 0.80930  0.74680  0.63510  Biso   1.000  O
  O1882    1.0000 0.79710  0.80040  0.63460  Biso   1.000  O
  O1883    1.0000 0.83650  0.78190  0.65730  Biso   1.000  O
  O1884    1.0000 0.83680  0.71410  0.52830  Biso   1.000  O
  O1885    1.0000 0.83040  0.83220  0.55540  Biso   1.000  O
  O1886    1.0000 0.88200  0.67000  0.52660  Biso   1.000  O
  O1887    1.0000 0.82950  0.78290  0.60650  Biso   1.000  O
  O1888    1.0000 0.86610  0.80040  0.57340  Biso   1.000  O
  O1889    1.0000 0.84130  0.78830  0.53050  Biso   1.000  O
  O1890    1.0000 0.87250  0.82170  0.52790  Biso   1.000  O
  Al406    1.0000 0.82990  0.21950  0.13380  Biso   1.000  Al
  Al407    1.0000 0.85580  0.18880  0.03840  Biso   1.000  Al
  Al408    1.0000 0.86160  0.27760  0.09530  Biso   1.000  Al
  P406     1.0000 0.87040  0.21890  0.08880  Biso   1.000  P
  P407     1.0000 0.81620  0.27920  0.13470  Biso   1.000  P
  P408     1.0000 0.85170  0.31170  0.04600  Biso   1.000  P
  O1891    1.0000 0.87390  0.24960  0.08090  Biso   1.000  O
  O1892    1.0000 0.88730  0.21300  0.11410  Biso   1.000  O
  O1893    1.0000 0.84090  0.21870  0.10170  Biso   1.000  O
  O1894    1.0000 0.87120  0.20120  0.06590  Biso   1.000  O
  O1895    1.0000 0.80930  0.24680  0.13510  Biso   1.000  O
  O1896    1.0000 0.79710  0.30040  0.13460  Biso   1.000  O
  O1897    1.0000 0.83650  0.28190  0.15730  Biso   1.000  O
  O1898    1.0000 0.83680  0.21410  0.02830  Biso   1.000  O
  O1899    1.0000 0.83040  0.33220  0.05540  Biso   1.000  O
  O1900    1.0000 0.88200  0.17000  0.02660  Biso   1.000  O
  O1901    1.0000 0.82950  0.28290  0.10650  Biso   1.000  O
  O1902    1.0000 0.86610  0.30040  0.07340  Biso   1.000  O
  O1903    1.0000 0.84130  0.28830  0.03050  Biso   1.000  O
  O1904    1.0000 0.87250  0.32170  0.02790  Biso   1.000  O
  Al409    1.0000 0.67010  0.28050  0.13380  Biso   1.000  Al
  Al410    1.0000 0.64420  0.31120  0.03840  Biso   1.000  Al
  Al411    1.0000 0.63840  0.22240  0.09530  Biso   1.000  Al
  P409     1.0000 0.62960  0.28110  0.08880  Biso   1.000  P
  P410     1.0000 0.68380  0.22080  0.13470  Biso   1.000  P
  P411     1.0000 0.64830  0.18830  0.04600  Biso   1.000  P
  O1905    1.0000 0.62610  0.25040  0.08090  Biso   1.000  O
  O1906    1.0000 0.61270  0.28700  0.11410  Biso   1.000  O
  O1907    1.0000 0.65910  0.28130  0.10170  Biso   1.000  O
  O1908    1.0000 0.62880  0.29880  0.06590  Biso   1.000  O
  O1909    1.0000 0.69070  0.25320  0.13510  Biso   1.000  O
  O1910    1.0000 0.70290  0.19960  0.13460  Biso   1.000  O
  O1911    1.0000 0.66350  0.21810  0.15730  Biso   1.000  O
  O1912    1.0000 0.66320  0.28590  0.02830  Biso   1.000  O
  O1913    1.0000 0.66960  0.16780  0.05540  Biso   1.000  O
  O1914    1.0000 0.61800  0.33000  0.02660  Biso   1.000  O
  O1915    1.0000 0.67050  0.21710  0.10650  Biso   1.000  O
  O1916    1.0000 0.63390  0.19960  0.07340  Biso   1.000  O
  O1917    1.0000 0.65870  0.21170  0.03050  Biso   1.000  O
  O1918    1.0000 0.62750  0.17830  0.02790  Biso   1.000  O
  Al412    1.0000 0.67010  0.78050  0.63380  Biso   1.000  Al
  Al413    1.0000 0.64420  0.81120  0.53840  Biso   1.000  Al
  Al414    1.0000 0.63840  0.72240  0.59530  Biso   1.000  Al
  P412     1.0000 0.62960  0.78110  0.58880  Biso   1.000  P
  P413     1.0000 0.68380  0.72080  0.63470  Biso   1.000  P
  P414     1.0000 0.64830  0.68830  0.54600  Biso   1.000  P
  O1919    1.0000 0.62610  0.75040  0.58090  Biso   1.000  O
  O1920    1.0000 0.61270  0.78700  0.61410  Biso   1.000  O
  O1921    1.0000 0.65910  0.78130  0.60170  Biso   1.000  O
  O1922    1.0000 0.62880  0.79880  0.56590  Biso   1.000  O
  O1923    1.0000 0.69070  0.75320  0.63510  Biso   1.000  O
  O1924    1.0000 0.70290  0.69960  0.63460  Biso   1.000  O
  O1925    1.0000 0.66350  0.71810  0.65730  Biso   1.000  O
  O1926    1.0000 0.66320  0.78590  0.52830  Biso   1.000  O
  O1927    1.0000 0.66960  0.66780  0.55540  Biso   1.000  O
  O1928    1.0000 0.61800  0.83000  0.52660  Biso   1.000  O
  O1929    1.0000 0.67050  0.71710  0.60650  Biso   1.000  O
  O1930    1.0000 0.63390  0.69960  0.57340  Biso   1.000  O
  O1931    1.0000 0.65870  0.71170  0.53050  Biso   1.000  O
  O1932    1.0000 0.62750  0.67830  0.52790  Biso   1.000  O
  Al415    1.0000 0.17010  0.28050  0.63380  Biso   1.000  Al
  Al416    1.0000 0.14420  0.31120  0.53840  Biso   1.000  Al
  Al417    1.0000 0.13840  0.22240  0.59530  Biso   1.000  Al
  P415     1.0000 0.12960  0.28110  0.58880  Biso   1.000  P
  P416     1.0000 0.18380  0.22080  0.63470  Biso   1.000  P
  P417     1.0000 0.14830  0.18830  0.54600  Biso   1.000  P
  O1933    1.0000 0.12610  0.25040  0.58090  Biso   1.000  O
  O1934    1.0000 0.11270  0.28700  0.61410  Biso   1.000  O
  O1935    1.0000 0.15910  0.28130  0.60170  Biso   1.000  O
  O1936    1.0000 0.12880  0.29880  0.56590  Biso   1.000  O
  O1937    1.0000 0.19070  0.25320  0.63510  Biso   1.000  O
  O1938    1.0000 0.20290  0.19960  0.63460  Biso   1.000  O
  O1939    1.0000 0.16350  0.21810  0.65730  Biso   1.000  O
  O1940    1.0000 0.16320  0.28590  0.52830  Biso   1.000  O
  O1941    1.0000 0.16960  0.16780  0.55540  Biso   1.000  O
  O1942    1.0000 0.11800  0.33000  0.52660  Biso   1.000  O
  O1943    1.0000 0.17050  0.21710  0.60650  Biso   1.000  O
  O1944    1.0000 0.13390  0.19960  0.57340  Biso   1.000  O
  O1945    1.0000 0.15870  0.21170  0.53050  Biso   1.000  O
  O1946    1.0000 0.12750  0.17830  0.52790  Biso   1.000  O
  Al418    1.0000 0.17010  0.78050  0.13380  Biso   1.000  Al
  Al419    1.0000 0.14420  0.81120  0.03840  Biso   1.000  Al
  Al420    1.0000 0.13840  0.72240  0.09530  Biso   1.000  Al
  P418     1.0000 0.12960  0.78110  0.08880  Biso   1.000  P
  P419     1.0000 0.18380  0.72080  0.13470  Biso   1.000  P
  P420     1.0000 0.14830  0.68830  0.04600  Biso   1.000  P
  O1947    1.0000 0.12610  0.75040  0.08090  Biso   1.000  O
  O1948    1.0000 0.11270  0.78700  0.11410  Biso   1.000  O
  O1949    1.0000 0.15910  0.78130  0.10170  Biso   1.000  O
  O1950    1.0000 0.12880  0.79880  0.06590  Biso   1.000  O
  O1951    1.0000 0.19070  0.75320  0.13510  Biso   1.000  O
  O1952    1.0000 0.20290  0.69960  0.13460  Biso   1.000  O
  O1953    1.0000 0.16350  0.71810  0.15730  Biso   1.000  O
  O1954    1.0000 0.16320  0.78590  0.02830  Biso   1.000  O
  O1955    1.0000 0.16960  0.66780  0.05540  Biso   1.000  O
  O1956    1.0000 0.11800  0.83000  0.02660  Biso   1.000  O
  O1957    1.0000 0.17050  0.71710  0.10650  Biso   1.000  O
  O1958    1.0000 0.13390  0.69960  0.07340  Biso   1.000  O
  O1959    1.0000 0.15870  0.71170  0.03050  Biso   1.000  O
  O1960    1.0000 0.12750  0.67830  0.02790  Biso   1.000  O
  Al421    1.0000 0.32990  0.28050  0.86620  Biso   1.000  Al
  Al422    1.0000 0.35580  0.31120  0.96160  Biso   1.000  Al
  Al423    1.0000 0.36160  0.22240  0.90470  Biso   1.000  Al
  P421     1.0000 0.37040  0.28110  0.91120  Biso   1.000  P
  P422     1.0000 0.31620  0.22080  0.86530  Biso   1.000  P
  P423     1.0000 0.35170  0.18830  0.95400  Biso   1.000  P
  O1961    1.0000 0.37390  0.25040  0.91910  Biso   1.000  O
  O1962    1.0000 0.38730  0.28700  0.88590  Biso   1.000  O
  O1963    1.0000 0.34090  0.28130  0.89830  Biso   1.000  O
  O1964    1.0000 0.37120  0.29880  0.93410  Biso   1.000  O
  O1965    1.0000 0.30930  0.25320  0.86490  Biso   1.000  O
  O1966    1.0000 0.29710  0.19960  0.86540  Biso   1.000  O
  O1967    1.0000 0.33650  0.21810  0.84270  Biso   1.000  O
  O1968    1.0000 0.33680  0.28590  0.97170  Biso   1.000  O
  O1969    1.0000 0.33040  0.16780  0.94460  Biso   1.000  O
  O1970    1.0000 0.38200  0.33000  0.97340  Biso   1.000  O
  O1971    1.0000 0.32950  0.21710  0.89350  Biso   1.000  O
  O1972    1.0000 0.36610  0.19960  0.92660  Biso   1.000  O
  O1973    1.0000 0.34130  0.21170  0.96950  Biso   1.000  O
  O1974    1.0000 0.37250  0.17830  0.97210  Biso   1.000  O
  Al424    1.0000 0.32990  0.78050  0.36620  Biso   1.000  Al
  Al425    1.0000 0.35580  0.81120  0.46160  Biso   1.000  Al
  Al426    1.0000 0.36160  0.72240  0.40470  Biso   1.000  Al
  P424     1.0000 0.37040  0.78110  0.41120  Biso   1.000  P
  P425     1.0000 0.31620  0.72080  0.36530  Biso   1.000  P
  P426     1.0000 0.35170  0.68830  0.45400  Biso   1.000  P
  O1975    1.0000 0.37390  0.75040  0.41910  Biso   1.000  O
  O1976    1.0000 0.38730  0.78700  0.38590  Biso   1.000  O
  O1977    1.0000 0.34090  0.78130  0.39830  Biso   1.000  O
  O1978    1.0000 0.37120  0.79880  0.43410  Biso   1.000  O
  O1979    1.0000 0.30930  0.75320  0.36490  Biso   1.000  O
  O1980    1.0000 0.29710  0.69960  0.36540  Biso   1.000  O
  O1981    1.0000 0.33650  0.71810  0.34270  Biso   1.000  O
  O1982    1.0000 0.33680  0.78590  0.47170  Biso   1.000  O
  O1983    1.0000 0.33040  0.66780  0.44460  Biso   1.000  O
  O1984    1.0000 0.38200  0.83000  0.47340  Biso   1.000  O
  O1985    1.0000 0.32950  0.71710  0.39350  Biso   1.000  O
  O1986    1.0000 0.36610  0.69960  0.42660  Biso   1.000  O
  O1987    1.0000 0.34130  0.71170  0.46950  Biso   1.000  O
  O1988    1.0000 0.37250  0.67830  0.47210  Biso   1.000  O
  Al427    1.0000 0.82990  0.28050  0.36620  Biso   1.000  Al
  Al428    1.0000 0.85580  0.31120  0.46160  Biso   1.000  Al
  Al429    1.0000 0.86160  0.22240  0.40470  Biso   1.000  Al
  P427     1.0000 0.87040  0.28110  0.41120  Biso   1.000  P
  P428     1.0000 0.81620  0.22080  0.36530  Biso   1.000  P
  P429     1.0000 0.85170  0.18830  0.45400  Biso   1.000  P
  O1989    1.0000 0.87390  0.25040  0.41910  Biso   1.000  O
  O1990    1.0000 0.88730  0.28700  0.38590  Biso   1.000  O
  O1991    1.0000 0.84090  0.28130  0.39830  Biso   1.000  O
  O1992    1.0000 0.87120  0.29880  0.43410  Biso   1.000  O
  O1993    1.0000 0.80930  0.25320  0.36490  Biso   1.000  O
  O1994    1.0000 0.79710  0.19960  0.36540  Biso   1.000  O
  O1995    1.0000 0.83650  0.21810  0.34270  Biso   1.000  O
  O1996    1.0000 0.83680  0.28590  0.47170  Biso   1.000  O
  O1997    1.0000 0.83040  0.16780  0.44460  Biso   1.000  O
  O1998    1.0000 0.88200  0.33000  0.47340  Biso   1.000  O
  O1999    1.0000 0.82950  0.21710  0.39350  Biso   1.000  O
  O2000    1.0000 0.86610  0.19960  0.42660  Biso   1.000  O
  O2001    1.0000 0.84130  0.21170  0.46950  Biso   1.000  O
  O2002    1.0000 0.87250  0.17830  0.47210  Biso   1.000  O
  Al430    1.0000 0.82990  0.78050  0.86620  Biso   1.000  Al
  Al431    1.0000 0.85580  0.81120  0.96160  Biso   1.000  Al
  Al432    1.0000 0.86160  0.72240  0.90470  Biso   1.000  Al
  P430     1.0000 0.87040  0.78110  0.91120  Biso   1.000  P
  P431     1.0000 0.81620  0.72080  0.86530  Biso   1.000  P
  P432     1.0000 0.85170  0.68830  0.95400  Biso   1.000  P
  O2003    1.0000 0.87390  0.75040  0.91910  Biso   1.000  O
  O2004    1.0000 0.88730  0.78700  0.88590  Biso   1.000  O
  O2005    1.0000 0.84090  0.78130  0.89830  Biso   1.000  O
  O2006    1.0000 0.87120  0.79880  0.93410  Biso   1.000  O
  O2007    1.0000 0.80930  0.75320  0.86490  Biso   1.000  O
  O2008    1.0000 0.79710  0.69960  0.86540  Biso   1.000  O
  O2009    1.0000 0.83650  0.71810  0.84270  Biso   1.000  O
  O2010    1.0000 0.83680  0.78590  0.97170  Biso   1.000  O
  O2011    1.0000 0.83040  0.66780  0.94460  Biso   1.000  O
  O2012    1.0000 0.88200  0.83000  0.97340  Biso   1.000  O
  O2013    1.0000 0.82950  0.71710  0.89350  Biso   1.000  O
  O2014    1.0000 0.86610  0.69960  0.92660  Biso   1.000  O
  O2015    1.0000 0.84130  0.71170  0.96950  Biso   1.000  O
  O2016    1.0000 0.87250  0.67830  0.97210  Biso   1.000  O
  Al433    1.0000 0.17010  0.36620  0.78050  Biso   1.000  Al
  Al434    1.0000 0.14420  0.46160  0.81120  Biso   1.000  Al
  Al435    1.0000 0.13840  0.40470  0.72240  Biso   1.000  Al
  P433     1.0000 0.12960  0.41120  0.78110  Biso   1.000  P
  P434     1.0000 0.18380  0.36530  0.72080  Biso   1.000  P
  P435     1.0000 0.14830  0.45400  0.68830  Biso   1.000  P
  O2017    1.0000 0.12610  0.41910  0.75040  Biso   1.000  O
  O2018    1.0000 0.11270  0.38590  0.78700  Biso   1.000  O
  O2019    1.0000 0.15910  0.39830  0.78130  Biso   1.000  O
  O2020    1.0000 0.12880  0.43410  0.79880  Biso   1.000  O
  O2021    1.0000 0.19070  0.36490  0.75320  Biso   1.000  O
  O2022    1.0000 0.20290  0.36540  0.69960  Biso   1.000  O
  O2023    1.0000 0.16350  0.34270  0.71810  Biso   1.000  O
  O2024    1.0000 0.16320  0.47170  0.78590  Biso   1.000  O
  O2025    1.0000 0.16960  0.44460  0.66780  Biso   1.000  O
  O2026    1.0000 0.11800  0.47340  0.83000  Biso   1.000  O
  O2027    1.0000 0.17050  0.39350  0.71710  Biso   1.000  O
  O2028    1.0000 0.13390  0.42660  0.69960  Biso   1.000  O
  O2029    1.0000 0.15870  0.46950  0.71170  Biso   1.000  O
  O2030    1.0000 0.12750  0.47210  0.67830  Biso   1.000  O
  Al436    1.0000 0.17010  0.86620  0.28050  Biso   1.000  Al
  Al437    1.0000 0.14420  0.96160  0.31120  Biso   1.000  Al
  Al438    1.0000 0.13840  0.90470  0.22240  Biso   1.000  Al
  P436     1.0000 0.12960  0.91120  0.28110  Biso   1.000  P
  P437     1.0000 0.18380  0.86530  0.22080  Biso   1.000  P
  P438     1.0000 0.14830  0.95400  0.18830  Biso   1.000  P
  O2031    1.0000 0.12610  0.91910  0.25040  Biso   1.000  O
  O2032    1.0000 0.11270  0.88590  0.28700  Biso   1.000  O
  O2033    1.0000 0.15910  0.89830  0.28130  Biso   1.000  O
  O2034    1.0000 0.12880  0.93410  0.29880  Biso   1.000  O
  O2035    1.0000 0.19070  0.86490  0.25320  Biso   1.000  O
  O2036    1.0000 0.20290  0.86540  0.19960  Biso   1.000  O
  O2037    1.0000 0.16350  0.84270  0.21810  Biso   1.000  O
  O2038    1.0000 0.16320  0.97170  0.28590  Biso   1.000  O
  O2039    1.0000 0.16960  0.94460  0.16780  Biso   1.000  O
  O2040    1.0000 0.11800  0.97340  0.33000  Biso   1.000  O
  O2041    1.0000 0.17050  0.89350  0.21710  Biso   1.000  O
  O2042    1.0000 0.13390  0.92660  0.19960  Biso   1.000  O
  O2043    1.0000 0.15870  0.96950  0.21170  Biso   1.000  O
  O2044    1.0000 0.12750  0.97210  0.17830  Biso   1.000  O
  Al439    1.0000 0.67010  0.36620  0.28050  Biso   1.000  Al
  Al440    1.0000 0.64420  0.46160  0.31120  Biso   1.000  Al
  Al441    1.0000 0.63840  0.40470  0.22240  Biso   1.000  Al
  P439     1.0000 0.62960  0.41120  0.28110  Biso   1.000  P
  P440     1.0000 0.68380  0.36530  0.22080  Biso   1.000  P
  P441     1.0000 0.64830  0.45400  0.18830  Biso   1.000  P
  O2045    1.0000 0.62610  0.41910  0.25040  Biso   1.000  O
  O2046    1.0000 0.61270  0.38590  0.28700  Biso   1.000  O
  O2047    1.0000 0.65910  0.39830  0.28130  Biso   1.000  O
  O2048    1.0000 0.62880  0.43410  0.29880  Biso   1.000  O
  O2049    1.0000 0.69070  0.36490  0.25320  Biso   1.000  O
  O2050    1.0000 0.70290  0.36540  0.19960  Biso   1.000  O
  O2051    1.0000 0.66350  0.34270  0.21810  Biso   1.000  O
  O2052    1.0000 0.66320  0.47170  0.28590  Biso   1.000  O
  O2053    1.0000 0.66960  0.44460  0.16780  Biso   1.000  O
  O2054    1.0000 0.61800  0.47340  0.33000  Biso   1.000  O
  O2055    1.0000 0.67050  0.39350  0.21710  Biso   1.000  O
  O2056    1.0000 0.63390  0.42660  0.19960  Biso   1.000  O
  O2057    1.0000 0.65870  0.46950  0.21170  Biso   1.000  O
  O2058    1.0000 0.62750  0.47210  0.17830  Biso   1.000  O
  Al442    1.0000 0.67010  0.86620  0.78050  Biso   1.000  Al
  Al443    1.0000 0.64420  0.96160  0.81120  Biso   1.000  Al
  Al444    1.0000 0.63840  0.90470  0.72240  Biso   1.000  Al
  P442     1.0000 0.62960  0.91120  0.78110  Biso   1.000  P
  P443     1.0000 0.68380  0.86530  0.72080  Biso   1.000  P
  P444     1.0000 0.64830  0.95400  0.68830  Biso   1.000  P
  O2059    1.0000 0.62610  0.91910  0.75040  Biso   1.000  O
  O2060    1.0000 0.61270  0.88590  0.78700  Biso   1.000  O
  O2061    1.0000 0.65910  0.89830  0.78130  Biso   1.000  O
  O2062    1.0000 0.62880  0.93410  0.79880  Biso   1.000  O
  O2063    1.0000 0.69070  0.86490  0.75320  Biso   1.000  O
  O2064    1.0000 0.70290  0.86540  0.69960  Biso   1.000  O
  O2065    1.0000 0.66350  0.84270  0.71810  Biso   1.000  O
  O2066    1.0000 0.66320  0.97170  0.78590  Biso   1.000  O
  O2067    1.0000 0.66960  0.94460  0.66780  Biso   1.000  O
  O2068    1.0000 0.61800  0.97340  0.83000  Biso   1.000  O
  O2069    1.0000 0.67050  0.89350  0.71710  Biso   1.000  O
  O2070    1.0000 0.63390  0.92660  0.69960  Biso   1.000  O
  O2071    1.0000 0.65870  0.96950  0.71170  Biso   1.000  O
  O2072    1.0000 0.62750  0.97210  0.67830  Biso   1.000  O
  Al445    1.0000 0.82990  0.63380  0.78050  Biso   1.000  Al
  Al446    1.0000 0.85580  0.53840  0.81120  Biso   1.000  Al
  Al447    1.0000 0.86160  0.59530  0.72240  Biso   1.000  Al
  P445     1.0000 0.87040  0.58880  0.78110  Biso   1.000  P
  P446     1.0000 0.81620  0.63470  0.72080  Biso   1.000  P
  P447     1.0000 0.85170  0.54600  0.68830  Biso   1.000  P
  O2073    1.0000 0.87390  0.58090  0.75040  Biso   1.000  O
  O2074    1.0000 0.88730  0.61410  0.78700  Biso   1.000  O
  O2075    1.0000 0.84090  0.60170  0.78130  Biso   1.000  O
  O2076    1.0000 0.87120  0.56590  0.79880  Biso   1.000  O
  O2077    1.0000 0.80930  0.63510  0.75320  Biso   1.000  O
  O2078    1.0000 0.79710  0.63460  0.69960  Biso   1.000  O
  O2079    1.0000 0.83650  0.65730  0.71810  Biso   1.000  O
  O2080    1.0000 0.83680  0.52830  0.78590  Biso   1.000  O
  O2081    1.0000 0.83040  0.55540  0.66780  Biso   1.000  O
  O2082    1.0000 0.88200  0.52660  0.83000  Biso   1.000  O
  O2083    1.0000 0.82950  0.60650  0.71710  Biso   1.000  O
  O2084    1.0000 0.86610  0.57340  0.69960  Biso   1.000  O
  O2085    1.0000 0.84130  0.53050  0.71170  Biso   1.000  O
  O2086    1.0000 0.87250  0.52790  0.67830  Biso   1.000  O
  Al448    1.0000 0.82990  0.13380  0.28050  Biso   1.000  Al
  Al449    1.0000 0.85580  0.03840  0.31120  Biso   1.000  Al
  Al450    1.0000 0.86160  0.09530  0.22240  Biso   1.000  Al
  P448     1.0000 0.87040  0.08880  0.28110  Biso   1.000  P
  P449     1.0000 0.81620  0.13470  0.22080  Biso   1.000  P
  P450     1.0000 0.85170  0.04600  0.18830  Biso   1.000  P
  O2087    1.0000 0.87390  0.08090  0.25040  Biso   1.000  O
  O2088    1.0000 0.88730  0.11410  0.28700  Biso   1.000  O
  O2089    1.0000 0.84090  0.10170  0.28130  Biso   1.000  O
  O2090    1.0000 0.87120  0.06590  0.29880  Biso   1.000  O
  O2091    1.0000 0.80930  0.13510  0.25320  Biso   1.000  O
  O2092    1.0000 0.79710  0.13460  0.19960  Biso   1.000  O
  O2093    1.0000 0.83650  0.15730  0.21810  Biso   1.000  O
  O2094    1.0000 0.83680  0.02830  0.28590  Biso   1.000  O
  O2095    1.0000 0.83040  0.05540  0.16780  Biso   1.000  O
  O2096    1.0000 0.88200  0.02660  0.33000  Biso   1.000  O
  O2097    1.0000 0.82950  0.10650  0.21710  Biso   1.000  O
  O2098    1.0000 0.86610  0.07340  0.19960  Biso   1.000  O
  O2099    1.0000 0.84130  0.03050  0.21170  Biso   1.000  O
  O2100    1.0000 0.87250  0.02790  0.17830  Biso   1.000  O
  Al451    1.0000 0.32990  0.63380  0.28050  Biso   1.000  Al
  Al452    1.0000 0.35580  0.53840  0.31120  Biso   1.000  Al
  Al453    1.0000 0.36160  0.59530  0.22240  Biso   1.000  Al
  P451     1.0000 0.37040  0.58880  0.28110  Biso   1.000  P
  P452     1.0000 0.31620  0.63470  0.22080  Biso   1.000  P
  P453     1.0000 0.35170  0.54600  0.18830  Biso   1.000  P
  O2101    1.0000 0.37390  0.58090  0.25040  Biso   1.000  O
  O2102    1.0000 0.38730  0.61410  0.28700  Biso   1.000  O
  O2103    1.0000 0.34090  0.60170  0.28130  Biso   1.000  O
  O2104    1.0000 0.37120  0.56590  0.29880  Biso   1.000  O
  O2105    1.0000 0.30930  0.63510  0.25320  Biso   1.000  O
  O2106    1.0000 0.29710  0.63460  0.19960  Biso   1.000  O
  O2107    1.0000 0.33650  0.65730  0.21810  Biso   1.000  O
  O2108    1.0000 0.33680  0.52830  0.28590  Biso   1.000  O
  O2109    1.0000 0.33040  0.55540  0.16780  Biso   1.000  O
  O2110    1.0000 0.38200  0.52660  0.33000  Biso   1.000  O
  O2111    1.0000 0.32950  0.60650  0.21710  Biso   1.000  O
  O2112    1.0000 0.36610  0.57340  0.19960  Biso   1.000  O
  O2113    1.0000 0.34130  0.53050  0.21170  Biso   1.000  O
  O2114    1.0000 0.37250  0.52790  0.17830  Biso   1.000  O
  Al454    1.0000 0.32990  0.13380  0.78050  Biso   1.000  Al
  Al455    1.0000 0.35580  0.03840  0.81120  Biso   1.000  Al
  Al456    1.0000 0.36160  0.09530  0.72240  Biso   1.000  Al
  P454     1.0000 0.37040  0.08880  0.78110  Biso   1.000  P
  P455     1.0000 0.31620  0.13470  0.72080  Biso   1.000  P
  P456     1.0000 0.35170  0.04600  0.68830  Biso   1.000  P
  O2115    1.0000 0.37390  0.08090  0.75040  Biso   1.000  O
  O2116    1.0000 0.38730  0.11410  0.78700  Biso   1.000  O
  O2117    1.0000 0.34090  0.10170  0.78130  Biso   1.000  O
  O2118    1.0000 0.37120  0.06590  0.79880  Biso   1.000  O
  O2119    1.0000 0.30930  0.13510  0.75320  Biso   1.000  O
  O2120    1.0000 0.29710  0.13460  0.69960  Biso   1.000  O
  O2121    1.0000 0.33650  0.15730  0.71810  Biso   1.000  O
  O2122    1.0000 0.33680  0.02830  0.78590  Biso   1.000  O
  O2123    1.0000 0.33040  0.05540  0.66780  Biso   1.000  O
  O2124    1.0000 0.38200  0.02660  0.83000  Biso   1.000  O
  O2125    1.0000 0.32950  0.10650  0.71710  Biso   1.000  O
  O2126    1.0000 0.36610  0.07340  0.69960  Biso   1.000  O
  O2127    1.0000 0.34130  0.03050  0.71170  Biso   1.000  O
  O2128    1.0000 0.37250  0.02790  0.67830  Biso   1.000  O
  Al457    1.0000 0.17010  0.63380  0.21950  Biso   1.000  Al
  Al458    1.0000 0.14420  0.53840  0.18880  Biso   1.000  Al
  Al459    1.0000 0.13840  0.59530  0.27760  Biso   1.000  Al
  P457     1.0000 0.12960  0.58880  0.21890  Biso   1.000  P
  P458     1.0000 0.18380  0.63470  0.27920  Biso   1.000  P
  P459     1.0000 0.14830  0.54600  0.31170  Biso   1.000  P
  O2129    1.0000 0.12610  0.58090  0.24960  Biso   1.000  O
  O2130    1.0000 0.11270  0.61410  0.21300  Biso   1.000  O
  O2131    1.0000 0.15910  0.60170  0.21870  Biso   1.000  O
  O2132    1.0000 0.12880  0.56590  0.20120  Biso   1.000  O
  O2133    1.0000 0.19070  0.63510  0.24680  Biso   1.000  O
  O2134    1.0000 0.20290  0.63460  0.30040  Biso   1.000  O
  O2135    1.0000 0.16350  0.65730  0.28190  Biso   1.000  O
  O2136    1.0000 0.16320  0.52830  0.21410  Biso   1.000  O
  O2137    1.0000 0.16960  0.55540  0.33220  Biso   1.000  O
  O2138    1.0000 0.11800  0.52660  0.17000  Biso   1.000  O
  O2139    1.0000 0.17050  0.60650  0.28290  Biso   1.000  O
  O2140    1.0000 0.13390  0.57340  0.30040  Biso   1.000  O
  O2141    1.0000 0.15870  0.53050  0.28830  Biso   1.000  O
  O2142    1.0000 0.12750  0.52790  0.32170  Biso   1.000  O
  Al460    1.0000 0.17010  0.13380  0.71950  Biso   1.000  Al
  Al461    1.0000 0.14420  0.03840  0.68880  Biso   1.000  Al
  Al462    1.0000 0.13840  0.09530  0.77760  Biso   1.000  Al
  P460     1.0000 0.12960  0.08880  0.71890  Biso   1.000  P
  P461     1.0000 0.18380  0.13470  0.77920  Biso   1.000  P
  P462     1.0000 0.14830  0.04600  0.81170  Biso   1.000  P
  O2143    1.0000 0.12610  0.08090  0.74960  Biso   1.000  O
  O2144    1.0000 0.11270  0.11410  0.71300  Biso   1.000  O
  O2145    1.0000 0.15910  0.10170  0.71870  Biso   1.000  O
  O2146    1.0000 0.12880  0.06590  0.70120  Biso   1.000  O
  O2147    1.0000 0.19070  0.13510  0.74680  Biso   1.000  O
  O2148    1.0000 0.20290  0.13460  0.80040  Biso   1.000  O
  O2149    1.0000 0.16350  0.15730  0.78190  Biso   1.000  O
  O2150    1.0000 0.16320  0.02830  0.71410  Biso   1.000  O
  O2151    1.0000 0.16960  0.05540  0.83220  Biso   1.000  O
  O2152    1.0000 0.11800  0.02660  0.67000  Biso   1.000  O
  O2153    1.0000 0.17050  0.10650  0.78290  Biso   1.000  O
  O2154    1.0000 0.13390  0.07340  0.80040  Biso   1.000  O
  O2155    1.0000 0.15870  0.03050  0.78830  Biso   1.000  O
  O2156    1.0000 0.12750  0.02790  0.82170  Biso   1.000  O
  Al463    1.0000 0.67010  0.63380  0.71950  Biso   1.000  Al
  Al464    1.0000 0.64420  0.53840  0.68880  Biso   1.000  Al
  Al465    1.0000 0.63840  0.59530  0.77760  Biso   1.000  Al
  P463     1.0000 0.62960  0.58880  0.71890  Biso   1.000  P
  P464     1.0000 0.68380  0.63470  0.77920  Biso   1.000  P
  P465     1.0000 0.64830  0.54600  0.81170  Biso   1.000  P
  O2157    1.0000 0.62610  0.58090  0.74960  Biso   1.000  O
  O2158    1.0000 0.61270  0.61410  0.71300  Biso   1.000  O
  O2159    1.0000 0.65910  0.60170  0.71870  Biso   1.000  O
  O2160    1.0000 0.62880  0.56590  0.70120  Biso   1.000  O
  O2161    1.0000 0.69070  0.63510  0.74680  Biso   1.000  O
  O2162    1.0000 0.70290  0.63460  0.80040  Biso   1.000  O
  O2163    1.0000 0.66350  0.65730  0.78190  Biso   1.000  O
  O2164    1.0000 0.66320  0.52830  0.71410  Biso   1.000  O
  O2165    1.0000 0.66960  0.55540  0.83220  Biso   1.000  O
  O2166    1.0000 0.61800  0.52660  0.67000  Biso   1.000  O
  O2167    1.0000 0.67050  0.60650  0.78290  Biso   1.000  O
  O2168    1.0000 0.63390  0.57340  0.80040  Biso   1.000  O
  O2169    1.0000 0.65870  0.53050  0.78830  Biso   1.000  O
  O2170    1.0000 0.62750  0.52790  0.82170  Biso   1.000  O
  Al466    1.0000 0.67010  0.13380  0.21950  Biso   1.000  Al
  Al467    1.0000 0.64420  0.03840  0.18880  Biso   1.000  Al
  Al468    1.0000 0.63840  0.09530  0.27760  Biso   1.000  Al
  P466     1.0000 0.62960  0.08880  0.21890  Biso   1.000  P
  P467     1.0000 0.68380  0.13470  0.27920  Biso   1.000  P
  P468     1.0000 0.64830  0.04600  0.31170  Biso   1.000  P
  O2171    1.0000 0.62610  0.08090  0.24960  Biso   1.000  O
  O2172    1.0000 0.61270  0.11410  0.21300  Biso   1.000  O
  O2173    1.0000 0.65910  0.10170  0.21870  Biso   1.000  O
  O2174    1.0000 0.62880  0.06590  0.20120  Biso   1.000  O
  O2175    1.0000 0.69070  0.13510  0.24680  Biso   1.000  O
  O2176    1.0000 0.70290  0.13460  0.30040  Biso   1.000  O
  O2177    1.0000 0.66350  0.15730  0.28190  Biso   1.000  O
  O2178    1.0000 0.66320  0.02830  0.21410  Biso   1.000  O
  O2179    1.0000 0.66960  0.05540  0.33220  Biso   1.000  O
  O2180    1.0000 0.61800  0.02660  0.17000  Biso   1.000  O
  O2181    1.0000 0.67050  0.10650  0.28290  Biso   1.000  O
  O2182    1.0000 0.63390  0.07340  0.30040  Biso   1.000  O
  O2183    1.0000 0.65870  0.03050  0.28830  Biso   1.000  O
  O2184    1.0000 0.62750  0.02790  0.32170  Biso   1.000  O
  Al469    1.0000 0.82990  0.36620  0.21950  Biso   1.000  Al
  Al470    1.0000 0.85580  0.46160  0.18880  Biso   1.000  Al
  Al471    1.0000 0.86160  0.40470  0.27760  Biso   1.000  Al
  P469     1.0000 0.87040  0.41120  0.21890  Biso   1.000  P
  P470     1.0000 0.81620  0.36530  0.27920  Biso   1.000  P
  P471     1.0000 0.85170  0.45400  0.31170  Biso   1.000  P
  O2185    1.0000 0.87390  0.41910  0.24960  Biso   1.000  O
  O2186    1.0000 0.88730  0.38590  0.21300  Biso   1.000  O
  O2187    1.0000 0.84090  0.39830  0.21870  Biso   1.000  O
  O2188    1.0000 0.87120  0.43410  0.20120  Biso   1.000  O
  O2189    1.0000 0.80930  0.36490  0.24680  Biso   1.000  O
  O2190    1.0000 0.79710  0.36540  0.30040  Biso   1.000  O
  O2191    1.0000 0.83650  0.34270  0.28190  Biso   1.000  O
  O2192    1.0000 0.83680  0.47170  0.21410  Biso   1.000  O
  O2193    1.0000 0.83040  0.44460  0.33220  Biso   1.000  O
  O2194    1.0000 0.88200  0.47340  0.17000  Biso   1.000  O
  O2195    1.0000 0.82950  0.39350  0.28290  Biso   1.000  O
  O2196    1.0000 0.86610  0.42660  0.30040  Biso   1.000  O
  O2197    1.0000 0.84130  0.46950  0.28830  Biso   1.000  O
  O2198    1.0000 0.87250  0.47210  0.32170  Biso   1.000  O
  Al472    1.0000 0.82990  0.86620  0.71950  Biso   1.000  Al
  Al473    1.0000 0.85580  0.96160  0.68880  Biso   1.000  Al
  Al474    1.0000 0.86160  0.90470  0.77760  Biso   1.000  Al
  P472     1.0000 0.87040  0.91120  0.71890  Biso   1.000  P
  P473     1.0000 0.81620  0.86530  0.77920  Biso   1.000  P
  P474     1.0000 0.85170  0.95400  0.81170  Biso   1.000  P
  O2199    1.0000 0.87390  0.91910  0.74960  Biso   1.000  O
  O2200    1.0000 0.88730  0.88590  0.71300  Biso   1.000  O
  O2201    1.0000 0.84090  0.89830  0.71870  Biso   1.000  O
  O2202    1.0000 0.87120  0.93410  0.70120  Biso   1.000  O
  O2203    1.0000 0.80930  0.86490  0.74680  Biso   1.000  O
  O2204    1.0000 0.79710  0.86540  0.80040  Biso   1.000  O
  O2205    1.0000 0.83650  0.84270  0.78190  Biso   1.000  O
  O2206    1.0000 0.83680  0.97170  0.71410  Biso   1.000  O
  O2207    1.0000 0.83040  0.94460  0.83220  Biso   1.000  O
  O2208    1.0000 0.88200  0.97340  0.67000  Biso   1.000  O
  O2209    1.0000 0.82950  0.89350  0.78290  Biso   1.000  O
  O2210    1.0000 0.86610  0.92660  0.80040  Biso   1.000  O
  O2211    1.0000 0.84130  0.96950  0.78830  Biso   1.000  O
  O2212    1.0000 0.87250  0.97210  0.82170  Biso   1.000  O
  Al475    1.0000 0.32990  0.36620  0.71950  Biso   1.000  Al
  Al476    1.0000 0.35580  0.46160  0.68880  Biso   1.000  Al
  Al477    1.0000 0.36160  0.40470  0.77760  Biso   1.000  Al
  P475     1.0000 0.37040  0.41120  0.71890  Biso   1.000  P
  P476     1.0000 0.31620  0.36530  0.77920  Biso   1.000  P
  P477     1.0000 0.35170  0.45400  0.81170  Biso   1.000  P
  O2213    1.0000 0.37390  0.41910  0.74960  Biso   1.000  O
  O2214    1.0000 0.38730  0.38590  0.71300  Biso   1.000  O
  O2215    1.0000 0.34090  0.39830  0.71870  Biso   1.000  O
  O2216    1.0000 0.37120  0.43410  0.70120  Biso   1.000  O
  O2217    1.0000 0.30930  0.36490  0.74680  Biso   1.000  O
  O2218    1.0000 0.29710  0.36540  0.80040  Biso   1.000  O
  O2219    1.0000 0.33650  0.34270  0.78190  Biso   1.000  O
  O2220    1.0000 0.33680  0.47170  0.71410  Biso   1.000  O
  O2221    1.0000 0.33040  0.44460  0.83220  Biso   1.000  O
  O2222    1.0000 0.38200  0.47340  0.67000  Biso   1.000  O
  O2223    1.0000 0.32950  0.39350  0.78290  Biso   1.000  O
  O2224    1.0000 0.36610  0.42660  0.80040  Biso   1.000  O
  O2225    1.0000 0.34130  0.46950  0.78830  Biso   1.000  O
  O2226    1.0000 0.37250  0.47210  0.82170  Biso   1.000  O
  Al478    1.0000 0.32990  0.86620  0.21950  Biso   1.000  Al
  Al479    1.0000 0.35580  0.96160  0.18880  Biso   1.000  Al
  Al480    1.0000 0.36160  0.90470  0.27760  Biso   1.000  Al
  P478     1.0000 0.37040  0.91120  0.21890  Biso   1.000  P
  P479     1.0000 0.31620  0.86530  0.27920  Biso   1.000  P
  P480     1.0000 0.35170  0.95400  0.31170  Biso   1.000  P
  O2227    1.0000 0.37390  0.91910  0.24960  Biso   1.000  O
  O2228    1.0000 0.38730  0.88590  0.21300  Biso   1.000  O
  O2229    1.0000 0.34090  0.89830  0.21870  Biso   1.000  O
  O2230    1.0000 0.37120  0.93410  0.20120  Biso   1.000  O
  O2231    1.0000 0.30930  0.86490  0.24680  Biso   1.000  O
  O2232    1.0000 0.29710  0.86540  0.30040  Biso   1.000  O
  O2233    1.0000 0.33650  0.84270  0.28190  Biso   1.000  O
  O2234    1.0000 0.33680  0.97170  0.21410  Biso   1.000  O
  O2235    1.0000 0.33040  0.94460  0.33220  Biso   1.000  O
  O2236    1.0000 0.38200  0.97340  0.17000  Biso   1.000  O
  O2237    1.0000 0.32950  0.89350  0.28290  Biso   1.000  O
  O2238    1.0000 0.36610  0.92660  0.30040  Biso   1.000  O
  O2239    1.0000 0.34130  0.96950  0.28830  Biso   1.000  O
  O2240    1.0000 0.37250  0.97210  0.32170  Biso   1.000  O
  Al481    1.0000 0.36620  0.21950  0.82990  Biso   1.000  Al
  Al482    1.0000 0.46160  0.18880  0.85580  Biso   1.000  Al
  Al483    1.0000 0.40470  0.27760  0.86160  Biso   1.000  Al
  P481     1.0000 0.41120  0.21890  0.87040  Biso   1.000  P
  P482     1.0000 0.36530  0.27920  0.81620  Biso   1.000  P
  P483     1.0000 0.45400  0.31170  0.85170  Biso   1.000  P
  O2241    1.0000 0.41910  0.24960  0.87390  Biso   1.000  O
  O2242    1.0000 0.38590  0.21300  0.88730  Biso   1.000  O
  O2243    1.0000 0.39830  0.21870  0.84090  Biso   1.000  O
  O2244    1.0000 0.43410  0.20120  0.87120  Biso   1.000  O
  O2245    1.0000 0.36490  0.24680  0.80930  Biso   1.000  O
  O2246    1.0000 0.36540  0.30040  0.79710  Biso   1.000  O
  O2247    1.0000 0.34270  0.28190  0.83650  Biso   1.000  O
  O2248    1.0000 0.47170  0.21410  0.83680  Biso   1.000  O
  O2249    1.0000 0.44460  0.33220  0.83040  Biso   1.000  O
  O2250    1.0000 0.47340  0.17000  0.88200  Biso   1.000  O
  O2251    1.0000 0.39350  0.28290  0.82950  Biso   1.000  O
  O2252    1.0000 0.42660  0.30040  0.86610  Biso   1.000  O
  O2253    1.0000 0.46950  0.28830  0.84130  Biso   1.000  O
  O2254    1.0000 0.47210  0.32170  0.87250  Biso   1.000  O
  Al484    1.0000 0.36620  0.71950  0.32990  Biso   1.000  Al
  Al485    1.0000 0.46160  0.68880  0.35580  Biso   1.000  Al
  Al486    1.0000 0.40470  0.77760  0.36160  Biso   1.000  Al
  P484     1.0000 0.41120  0.71890  0.37040  Biso   1.000  P
  P485     1.0000 0.36530  0.77920  0.31620  Biso   1.000  P
  P486     1.0000 0.45400  0.81170  0.35170  Biso   1.000  P
  O2255    1.0000 0.41910  0.74960  0.37390  Biso   1.000  O
  O2256    1.0000 0.38590  0.71300  0.38730  Biso   1.000  O
  O2257    1.0000 0.39830  0.71870  0.34090  Biso   1.000  O
  O2258    1.0000 0.43410  0.70120  0.37120  Biso   1.000  O
  O2259    1.0000 0.36490  0.74680  0.30930  Biso   1.000  O
  O2260    1.0000 0.36540  0.80040  0.29710  Biso   1.000  O
  O2261    1.0000 0.34270  0.78190  0.33650  Biso   1.000  O
  O2262    1.0000 0.47170  0.71410  0.33680  Biso   1.000  O
  O2263    1.0000 0.44460  0.83220  0.33040  Biso   1.000  O
  O2264    1.0000 0.47340  0.67000  0.38200  Biso   1.000  O
  O2265    1.0000 0.39350  0.78290  0.32950  Biso   1.000  O
  O2266    1.0000 0.42660  0.80040  0.36610  Biso   1.000  O
  O2267    1.0000 0.46950  0.78830  0.34130  Biso   1.000  O
  O2268    1.0000 0.47210  0.82170  0.37250  Biso   1.000  O
  Al487    1.0000 0.86620  0.21950  0.32990  Biso   1.000  Al
  Al488    1.0000 0.96160  0.18880  0.35580  Biso   1.000  Al
  Al489    1.0000 0.90470  0.27760  0.36160  Biso   1.000  Al
  P487     1.0000 0.91120  0.21890  0.37040  Biso   1.000  P
  P488     1.0000 0.86530  0.27920  0.31620  Biso   1.000  P
  P489     1.0000 0.95400  0.31170  0.35170  Biso   1.000  P
  O2269    1.0000 0.91910  0.24960  0.37390  Biso   1.000  O
  O2270    1.0000 0.88590  0.21300  0.38730  Biso   1.000  O
  O2271    1.0000 0.89830  0.21870  0.34090  Biso   1.000  O
  O2272    1.0000 0.93410  0.20120  0.37120  Biso   1.000  O
  O2273    1.0000 0.86490  0.24680  0.30930  Biso   1.000  O
  O2274    1.0000 0.86540  0.30040  0.29710  Biso   1.000  O
  O2275    1.0000 0.84270  0.28190  0.33650  Biso   1.000  O
  O2276    1.0000 0.97170  0.21410  0.33680  Biso   1.000  O
  O2277    1.0000 0.94460  0.33220  0.33040  Biso   1.000  O
  O2278    1.0000 0.97340  0.17000  0.38200  Biso   1.000  O
  O2279    1.0000 0.89350  0.28290  0.32950  Biso   1.000  O
  O2280    1.0000 0.92660  0.30040  0.36610  Biso   1.000  O
  O2281    1.0000 0.96950  0.28830  0.34130  Biso   1.000  O
  O2282    1.0000 0.97210  0.32170  0.37250  Biso   1.000  O
  Al490    1.0000 0.86620  0.71950  0.82990  Biso   1.000  Al
  Al491    1.0000 0.96160  0.68880  0.85580  Biso   1.000  Al
  Al492    1.0000 0.90470  0.77760  0.86160  Biso   1.000  Al
  P490     1.0000 0.91120  0.71890  0.87040  Biso   1.000  P
  P491     1.0000 0.86530  0.77920  0.81620  Biso   1.000  P
  P492     1.0000 0.95400  0.81170  0.85170  Biso   1.000  P
  O2283    1.0000 0.91910  0.74960  0.87390  Biso   1.000  O
  O2284    1.0000 0.88590  0.71300  0.88730  Biso   1.000  O
  O2285    1.0000 0.89830  0.71870  0.84090  Biso   1.000  O
  O2286    1.0000 0.93410  0.70120  0.87120  Biso   1.000  O
  O2287    1.0000 0.86490  0.74680  0.80930  Biso   1.000  O
  O2288    1.0000 0.86540  0.80040  0.79710  Biso   1.000  O
  O2289    1.0000 0.84270  0.78190  0.83650  Biso   1.000  O
  O2290    1.0000 0.97170  0.71410  0.83680  Biso   1.000  O
  O2291    1.0000 0.94460  0.83220  0.83040  Biso   1.000  O
  O2292    1.0000 0.97340  0.67000  0.88200  Biso   1.000  O
  O2293    1.0000 0.89350  0.78290  0.82950  Biso   1.000  O
  O2294    1.0000 0.92660  0.80040  0.86610  Biso   1.000  O
  O2295    1.0000 0.96950  0.78830  0.84130  Biso   1.000  O
  O2296    1.0000 0.97210  0.82170  0.87250  Biso   1.000  O
  Al493    1.0000 0.63380  0.21950  0.17010  Biso   1.000  Al
  Al494    1.0000 0.53840  0.18880  0.14420  Biso   1.000  Al
  Al495    1.0000 0.59530  0.27760  0.13840  Biso   1.000  Al
  P493     1.0000 0.58880  0.21890  0.12960  Biso   1.000  P
  P494     1.0000 0.63470  0.27920  0.18380  Biso   1.000  P
  P495     1.0000 0.54600  0.31170  0.14830  Biso   1.000  P
  O2297    1.0000 0.58090  0.24960  0.12610  Biso   1.000  O
  O2298    1.0000 0.61410  0.21300  0.11270  Biso   1.000  O
  O2299    1.0000 0.60170  0.21870  0.15910  Biso   1.000  O
  O2300    1.0000 0.56590  0.20120  0.12880  Biso   1.000  O
  O2301    1.0000 0.63510  0.24680  0.19070  Biso   1.000  O
  O2302    1.0000 0.63460  0.30040  0.20290  Biso   1.000  O
  O2303    1.0000 0.65730  0.28190  0.16350  Biso   1.000  O
  O2304    1.0000 0.52830  0.21410  0.16320  Biso   1.000  O
  O2305    1.0000 0.55540  0.33220  0.16960  Biso   1.000  O
  O2306    1.0000 0.52660  0.17000  0.11800  Biso   1.000  O
  O2307    1.0000 0.60650  0.28290  0.17050  Biso   1.000  O
  O2308    1.0000 0.57340  0.30040  0.13390  Biso   1.000  O
  O2309    1.0000 0.53050  0.28830  0.15870  Biso   1.000  O
  O2310    1.0000 0.52790  0.32170  0.12750  Biso   1.000  O
  Al496    1.0000 0.63380  0.71950  0.67010  Biso   1.000  Al
  Al497    1.0000 0.53840  0.68880  0.64420  Biso   1.000  Al
  Al498    1.0000 0.59530  0.77760  0.63840  Biso   1.000  Al
  P496     1.0000 0.58880  0.71890  0.62960  Biso   1.000  P
  P497     1.0000 0.63470  0.77920  0.68380  Biso   1.000  P
  P498     1.0000 0.54600  0.81170  0.64830  Biso   1.000  P
  O2311    1.0000 0.58090  0.74960  0.62610  Biso   1.000  O
  O2312    1.0000 0.61410  0.71300  0.61270  Biso   1.000  O
  O2313    1.0000 0.60170  0.71870  0.65910  Biso   1.000  O
  O2314    1.0000 0.56590  0.70120  0.62880  Biso   1.000  O
  O2315    1.0000 0.63510  0.74680  0.69070  Biso   1.000  O
  O2316    1.0000 0.63460  0.80040  0.70290  Biso   1.000  O
  O2317    1.0000 0.65730  0.78190  0.66350  Biso   1.000  O
  O2318    1.0000 0.52830  0.71410  0.66320  Biso   1.000  O
  O2319    1.0000 0.55540  0.83220  0.66960  Biso   1.000  O
  O2320    1.0000 0.52660  0.67000  0.61800  Biso   1.000  O
  O2321    1.0000 0.60650  0.78290  0.67050  Biso   1.000  O
  O2322    1.0000 0.57340  0.80040  0.63390  Biso   1.000  O
  O2323    1.0000 0.53050  0.78830  0.65870  Biso   1.000  O
  O2324    1.0000 0.52790  0.82170  0.62750  Biso   1.000  O
  Al499    1.0000 0.13380  0.21950  0.67010  Biso   1.000  Al
  Al500    1.0000 0.03840  0.18880  0.64420  Biso   1.000  Al
  Al501    1.0000 0.09530  0.27760  0.63840  Biso   1.000  Al
  P499     1.0000 0.08880  0.21890  0.62960  Biso   1.000  P
  P500     1.0000 0.13470  0.27920  0.68380  Biso   1.000  P
  P501     1.0000 0.04600  0.31170  0.64830  Biso   1.000  P
  O2325    1.0000 0.08090  0.24960  0.62610  Biso   1.000  O
  O2326    1.0000 0.11410  0.21300  0.61270  Biso   1.000  O
  O2327    1.0000 0.10170  0.21870  0.65910  Biso   1.000  O
  O2328    1.0000 0.06590  0.20120  0.62880  Biso   1.000  O
  O2329    1.0000 0.13510  0.24680  0.69070  Biso   1.000  O
  O2330    1.0000 0.13460  0.30040  0.70290  Biso   1.000  O
  O2331    1.0000 0.15730  0.28190  0.66350  Biso   1.000  O
  O2332    1.0000 0.02830  0.21410  0.66320  Biso   1.000  O
  O2333    1.0000 0.05540  0.33220  0.66960  Biso   1.000  O
  O2334    1.0000 0.02660  0.17000  0.61800  Biso   1.000  O
  O2335    1.0000 0.10650  0.28290  0.67050  Biso   1.000  O
  O2336    1.0000 0.07340  0.30040  0.63390  Biso   1.000  O
  O2337    1.0000 0.03050  0.28830  0.65870  Biso   1.000  O
  O2338    1.0000 0.02790  0.32170  0.62750  Biso   1.000  O
  Al502    1.0000 0.13380  0.71950  0.17010  Biso   1.000  Al
  Al503    1.0000 0.03840  0.68880  0.14420  Biso   1.000  Al
  Al504    1.0000 0.09530  0.77760  0.13840  Biso   1.000  Al
  P502     1.0000 0.08880  0.71890  0.12960  Biso   1.000  P
  P503     1.0000 0.13470  0.77920  0.18380  Biso   1.000  P
  P504     1.0000 0.04600  0.81170  0.14830  Biso   1.000  P
  O2339    1.0000 0.08090  0.74960  0.12610  Biso   1.000  O
  O2340    1.0000 0.11410  0.71300  0.11270  Biso   1.000  O
  O2341    1.0000 0.10170  0.71870  0.15910  Biso   1.000  O
  O2342    1.0000 0.06590  0.70120  0.12880  Biso   1.000  O
  O2343    1.0000 0.13510  0.74680  0.19070  Biso   1.000  O
  O2344    1.0000 0.13460  0.80040  0.20290  Biso   1.000  O
  O2345    1.0000 0.15730  0.78190  0.16350  Biso   1.000  O
  O2346    1.0000 0.02830  0.71410  0.16320  Biso   1.000  O
  O2347    1.0000 0.05540  0.83220  0.16960  Biso   1.000  O
  O2348    1.0000 0.02660  0.67000  0.11800  Biso   1.000  O
  O2349    1.0000 0.10650  0.78290  0.17050  Biso   1.000  O
  O2350    1.0000 0.07340  0.80040  0.13390  Biso   1.000  O
  O2351    1.0000 0.03050  0.78830  0.15870  Biso   1.000  O
  O2352    1.0000 0.02790  0.82170  0.12750  Biso   1.000  O
  Al505    1.0000 0.63380  0.78050  0.82990  Biso   1.000  Al
  Al506    1.0000 0.53840  0.81120  0.85580  Biso   1.000  Al
  Al507    1.0000 0.59530  0.72240  0.86160  Biso   1.000  Al
  P505     1.0000 0.58880  0.78110  0.87040  Biso   1.000  P
  P506     1.0000 0.63470  0.72080  0.81620  Biso   1.000  P
  P507     1.0000 0.54600  0.68830  0.85170  Biso   1.000  P
  O2353    1.0000 0.58090  0.75040  0.87390  Biso   1.000  O
  O2354    1.0000 0.61410  0.78700  0.88730  Biso   1.000  O
  O2355    1.0000 0.60170  0.78130  0.84090  Biso   1.000  O
  O2356    1.0000 0.56590  0.79880  0.87120  Biso   1.000  O
  O2357    1.0000 0.63510  0.75320  0.80930  Biso   1.000  O
  O2358    1.0000 0.63460  0.69960  0.79710  Biso   1.000  O
  O2359    1.0000 0.65730  0.71810  0.83650  Biso   1.000  O
  O2360    1.0000 0.52830  0.78590  0.83680  Biso   1.000  O
  O2361    1.0000 0.55540  0.66780  0.83040  Biso   1.000  O
  O2362    1.0000 0.52660  0.83000  0.88200  Biso   1.000  O
  O2363    1.0000 0.60650  0.71710  0.82950  Biso   1.000  O
  O2364    1.0000 0.57340  0.69960  0.86610  Biso   1.000  O
  O2365    1.0000 0.53050  0.71170  0.84130  Biso   1.000  O
  O2366    1.0000 0.52790  0.67830  0.87250  Biso   1.000  O
  Al508    1.0000 0.63380  0.28050  0.32990  Biso   1.000  Al
  Al509    1.0000 0.53840  0.31120  0.35580  Biso   1.000  Al
  Al510    1.0000 0.59530  0.22240  0.36160  Biso   1.000  Al
  P508     1.0000 0.58880  0.28110  0.37040  Biso   1.000  P
  P509     1.0000 0.63470  0.22080  0.31620  Biso   1.000  P
  P510     1.0000 0.54600  0.18830  0.35170  Biso   1.000  P
  O2367    1.0000 0.58090  0.25040  0.37390  Biso   1.000  O
  O2368    1.0000 0.61410  0.28700  0.38730  Biso   1.000  O
  O2369    1.0000 0.60170  0.28130  0.34090  Biso   1.000  O
  O2370    1.0000 0.56590  0.29880  0.37120  Biso   1.000  O
  O2371    1.0000 0.63510  0.25320  0.30930  Biso   1.000  O
  O2372    1.0000 0.63460  0.19960  0.29710  Biso   1.000  O
  O2373    1.0000 0.65730  0.21810  0.33650  Biso   1.000  O
  O2374    1.0000 0.52830  0.28590  0.33680  Biso   1.000  O
  O2375    1.0000 0.55540  0.16780  0.33040  Biso   1.000  O
  O2376    1.0000 0.52660  0.33000  0.38200  Biso   1.000  O
  O2377    1.0000 0.60650  0.21710  0.32950  Biso   1.000  O
  O2378    1.0000 0.57340  0.19960  0.36610  Biso   1.000  O
  O2379    1.0000 0.53050  0.21170  0.34130  Biso   1.000  O
  O2380    1.0000 0.52790  0.17830  0.37250  Biso   1.000  O
  Al511    1.0000 0.13380  0.78050  0.32990  Biso   1.000  Al
  Al512    1.0000 0.03840  0.81120  0.35580  Biso   1.000  Al
  Al513    1.0000 0.09530  0.72240  0.36160  Biso   1.000  Al
  P511     1.0000 0.08880  0.78110  0.37040  Biso   1.000  P
  P512     1.0000 0.13470  0.72080  0.31620  Biso   1.000  P
  P513     1.0000 0.04600  0.68830  0.35170  Biso   1.000  P
  O2381    1.0000 0.08090  0.75040  0.37390  Biso   1.000  O
  O2382    1.0000 0.11410  0.78700  0.38730  Biso   1.000  O
  O2383    1.0000 0.10170  0.78130  0.34090  Biso   1.000  O
  O2384    1.0000 0.06590  0.79880  0.37120  Biso   1.000  O
  O2385    1.0000 0.13510  0.75320  0.30930  Biso   1.000  O
  O2386    1.0000 0.13460  0.69960  0.29710  Biso   1.000  O
  O2387    1.0000 0.15730  0.71810  0.33650  Biso   1.000  O
  O2388    1.0000 0.02830  0.78590  0.33680  Biso   1.000  O
  O2389    1.0000 0.05540  0.66780  0.33040  Biso   1.000  O
  O2390    1.0000 0.02660  0.83000  0.38200  Biso   1.000  O
  O2391    1.0000 0.10650  0.71710  0.32950  Biso   1.000  O
  O2392    1.0000 0.07340  0.69960  0.36610  Biso   1.000  O
  O2393    1.0000 0.03050  0.71170  0.34130  Biso   1.000  O
  O2394    1.0000 0.02790  0.67830  0.37250  Biso   1.000  O
  Al514    1.0000 0.13380  0.28050  0.82990  Biso   1.000  Al
  Al515    1.0000 0.03840  0.31120  0.85580  Biso   1.000  Al
  Al516    1.0000 0.09530  0.22240  0.86160  Biso   1.000  Al
  P514     1.0000 0.08880  0.28110  0.87040  Biso   1.000  P
  P515     1.0000 0.13470  0.22080  0.81620  Biso   1.000  P
  P516     1.0000 0.04600  0.18830  0.85170  Biso   1.000  P
  O2395    1.0000 0.08090  0.25040  0.87390  Biso   1.000  O
  O2396    1.0000 0.11410  0.28700  0.88730  Biso   1.000  O
  O2397    1.0000 0.10170  0.28130  0.84090  Biso   1.000  O
  O2398    1.0000 0.06590  0.29880  0.87120  Biso   1.000  O
  O2399    1.0000 0.13510  0.25320  0.80930  Biso   1.000  O
  O2400    1.0000 0.13460  0.19960  0.79710  Biso   1.000  O
  O2401    1.0000 0.15730  0.21810  0.83650  Biso   1.000  O
  O2402    1.0000 0.02830  0.28590  0.83680  Biso   1.000  O
  O2403    1.0000 0.05540  0.16780  0.83040  Biso   1.000  O
  O2404    1.0000 0.02660  0.33000  0.88200  Biso   1.000  O
  O2405    1.0000 0.10650  0.21710  0.82950  Biso   1.000  O
  O2406    1.0000 0.07340  0.19960  0.86610  Biso   1.000  O
  O2407    1.0000 0.03050  0.21170  0.84130  Biso   1.000  O
  O2408    1.0000 0.02790  0.17830  0.87250  Biso   1.000  O
  Al517    1.0000 0.36620  0.78050  0.17010  Biso   1.000  Al
  Al518    1.0000 0.46160  0.81120  0.14420  Biso   1.000  Al
  Al519    1.0000 0.40470  0.72240  0.13840  Biso   1.000  Al
  P517     1.0000 0.41120  0.78110  0.12960  Biso   1.000  P
  P518     1.0000 0.36530  0.72080  0.18380  Biso   1.000  P
  P519     1.0000 0.45400  0.68830  0.14830  Biso   1.000  P
  O2409    1.0000 0.41910  0.75040  0.12610  Biso   1.000  O
  O2410    1.0000 0.38590  0.78700  0.11270  Biso   1.000  O
  O2411    1.0000 0.39830  0.78130  0.15910  Biso   1.000  O
  O2412    1.0000 0.43410  0.79880  0.12880  Biso   1.000  O
  O2413    1.0000 0.36490  0.75320  0.19070  Biso   1.000  O
  O2414    1.0000 0.36540  0.69960  0.20290  Biso   1.000  O
  O2415    1.0000 0.34270  0.71810  0.16350  Biso   1.000  O
  O2416    1.0000 0.47170  0.78590  0.16320  Biso   1.000  O
  O2417    1.0000 0.44460  0.66780  0.16960  Biso   1.000  O
  O2418    1.0000 0.47340  0.83000  0.11800  Biso   1.000  O
  O2419    1.0000 0.39350  0.71710  0.17050  Biso   1.000  O
  O2420    1.0000 0.42660  0.69960  0.13390  Biso   1.000  O
  O2421    1.0000 0.46950  0.71170  0.15870  Biso   1.000  O
  O2422    1.0000 0.47210  0.67830  0.12750  Biso   1.000  O
  Al520    1.0000 0.36620  0.28050  0.67010  Biso   1.000  Al
  Al521    1.0000 0.46160  0.31120  0.64420  Biso   1.000  Al
  Al522    1.0000 0.40470  0.22240  0.63840  Biso   1.000  Al
  P520     1.0000 0.41120  0.28110  0.62960  Biso   1.000  P
  P521     1.0000 0.36530  0.22080  0.68380  Biso   1.000  P
  P522     1.0000 0.45400  0.18830  0.64830  Biso   1.000  P
  O2423    1.0000 0.41910  0.25040  0.62610  Biso   1.000  O
  O2424    1.0000 0.38590  0.28700  0.61270  Biso   1.000  O
  O2425    1.0000 0.39830  0.28130  0.65910  Biso   1.000  O
  O2426    1.0000 0.43410  0.29880  0.62880  Biso   1.000  O
  O2427    1.0000 0.36490  0.25320  0.69070  Biso   1.000  O
  O2428    1.0000 0.36540  0.19960  0.70290  Biso   1.000  O
  O2429    1.0000 0.34270  0.21810  0.66350  Biso   1.000  O
  O2430    1.0000 0.47170  0.28590  0.66320  Biso   1.000  O
  O2431    1.0000 0.44460  0.16780  0.66960  Biso   1.000  O
  O2432    1.0000 0.47340  0.33000  0.61800  Biso   1.000  O
  O2433    1.0000 0.39350  0.21710  0.67050  Biso   1.000  O
  O2434    1.0000 0.42660  0.19960  0.63390  Biso   1.000  O
  O2435    1.0000 0.46950  0.21170  0.65870  Biso   1.000  O
  O2436    1.0000 0.47210  0.17830  0.62750  Biso   1.000  O
  Al523    1.0000 0.86620  0.78050  0.67010  Biso   1.000  Al
  Al524    1.0000 0.96160  0.81120  0.64420  Biso   1.000  Al
  Al525    1.0000 0.90470  0.72240  0.63840  Biso   1.000  Al
  P523     1.0000 0.91120  0.78110  0.62960  Biso   1.000  P
  P524     1.0000 0.86530  0.72080  0.68380  Biso   1.000  P
  P525     1.0000 0.95400  0.68830  0.64830  Biso   1.000  P
  O2437    1.0000 0.91910  0.75040  0.62610  Biso   1.000  O
  O2438    1.0000 0.88590  0.78700  0.61270  Biso   1.000  O
  O2439    1.0000 0.89830  0.78130  0.65910  Biso   1.000  O
  O2440    1.0000 0.93410  0.79880  0.62880  Biso   1.000  O
  O2441    1.0000 0.86490  0.75320  0.69070  Biso   1.000  O
  O2442    1.0000 0.86540  0.69960  0.70290  Biso   1.000  O
  O2443    1.0000 0.84270  0.71810  0.66350  Biso   1.000  O
  O2444    1.0000 0.97170  0.78590  0.66320  Biso   1.000  O
  O2445    1.0000 0.94460  0.66780  0.66960  Biso   1.000  O
  O2446    1.0000 0.97340  0.83000  0.61800  Biso   1.000  O
  O2447    1.0000 0.89350  0.71710  0.67050  Biso   1.000  O
  O2448    1.0000 0.92660  0.69960  0.63390  Biso   1.000  O
  O2449    1.0000 0.96950  0.71170  0.65870  Biso   1.000  O
  O2450    1.0000 0.97210  0.67830  0.62750  Biso   1.000  O
  Al526    1.0000 0.86620  0.28050  0.17010  Biso   1.000  Al
  Al527    1.0000 0.96160  0.31120  0.14420  Biso   1.000  Al
  Al528    1.0000 0.90470  0.22240  0.13840  Biso   1.000  Al
  P526     1.0000 0.91120  0.28110  0.12960  Biso   1.000  P
  P527     1.0000 0.86530  0.22080  0.18380  Biso   1.000  P
  P528     1.0000 0.95400  0.18830  0.14830  Biso   1.000  P
  O2451    1.0000 0.91910  0.25040  0.12610  Biso   1.000  O
  O2452    1.0000 0.88590  0.28700  0.11270  Biso   1.000  O
  O2453    1.0000 0.89830  0.28130  0.15910  Biso   1.000  O
  O2454    1.0000 0.93410  0.29880  0.12880  Biso   1.000  O
  O2455    1.0000 0.86490  0.25320  0.19070  Biso   1.000  O
  O2456    1.0000 0.86540  0.19960  0.20290  Biso   1.000  O
  O2457    1.0000 0.84270  0.21810  0.16350  Biso   1.000  O
  O2458    1.0000 0.97170  0.28590  0.16320  Biso   1.000  O
  O2459    1.0000 0.94460  0.16780  0.16960  Biso   1.000  O
  O2460    1.0000 0.97340  0.33000  0.11800  Biso   1.000  O
  O2461    1.0000 0.89350  0.21710  0.17050  Biso   1.000  O
  O2462    1.0000 0.92660  0.19960  0.13390  Biso   1.000  O
  O2463    1.0000 0.96950  0.21170  0.15870  Biso   1.000  O
  O2464    1.0000 0.97210  0.17830  0.12750  Biso   1.000  O
  Al529    1.0000 0.21950  0.17010  0.63380  Biso   1.000  Al
  Al530    1.0000 0.18880  0.14420  0.53840  Biso   1.000  Al
  Al531    1.0000 0.27760  0.13840  0.59530  Biso   1.000  Al
  P529     1.0000 0.21890  0.12960  0.58880  Biso   1.000  P
  P530     1.0000 0.27920  0.18380  0.63470  Biso   1.000  P
  P531     1.0000 0.31170  0.14830  0.54600  Biso   1.000  P
  O2465    1.0000 0.24960  0.12610  0.58090  Biso   1.000  O
  O2466    1.0000 0.21300  0.11270  0.61410  Biso   1.000  O
  O2467    1.0000 0.21870  0.15910  0.60170  Biso   1.000  O
  O2468    1.0000 0.20120  0.12880  0.56590  Biso   1.000  O
  O2469    1.0000 0.24680  0.19070  0.63510  Biso   1.000  O
  O2470    1.0000 0.30040  0.20290  0.63460  Biso   1.000  O
  O2471    1.0000 0.28190  0.16350  0.65730  Biso   1.000  O
  O2472    1.0000 0.21410  0.16320  0.52830  Biso   1.000  O
  O2473    1.0000 0.33220  0.16960  0.55540  Biso   1.000  O
  O2474    1.0000 0.17000  0.11800  0.52660  Biso   1.000  O
  O2475    1.0000 0.28290  0.17050  0.60650  Biso   1.000  O
  O2476    1.0000 0.30040  0.13390  0.57340  Biso   1.000  O
  O2477    1.0000 0.28830  0.15870  0.53050  Biso   1.000  O
  O2478    1.0000 0.32170  0.12750  0.52790  Biso   1.000  O
  Al532    1.0000 0.21950  0.67010  0.13380  Biso   1.000  Al
  Al533    1.0000 0.18880  0.64420  0.03840  Biso   1.000  Al
  Al534    1.0000 0.27760  0.63840  0.09530  Biso   1.000  Al
  P532     1.0000 0.21890  0.62960  0.08880  Biso   1.000  P
  P533     1.0000 0.27920  0.68380  0.13470  Biso   1.000  P
  P534     1.0000 0.31170  0.64830  0.04600  Biso   1.000  P
  O2479    1.0000 0.24960  0.62610  0.08090  Biso   1.000  O
  O2480    1.0000 0.21300  0.61270  0.11410  Biso   1.000  O
  O2481    1.0000 0.21870  0.65910  0.10170  Biso   1.000  O
  O2482    1.0000 0.20120  0.62880  0.06590  Biso   1.000  O
  O2483    1.0000 0.24680  0.69070  0.13510  Biso   1.000  O
  O2484    1.0000 0.30040  0.70290  0.13460  Biso   1.000  O
  O2485    1.0000 0.28190  0.66350  0.15730  Biso   1.000  O
  O2486    1.0000 0.21410  0.66320  0.02830  Biso   1.000  O
  O2487    1.0000 0.33220  0.66960  0.05540  Biso   1.000  O
  O2488    1.0000 0.17000  0.61800  0.02660  Biso   1.000  O
  O2489    1.0000 0.28290  0.67050  0.10650  Biso   1.000  O
  O2490    1.0000 0.30040  0.63390  0.07340  Biso   1.000  O
  O2491    1.0000 0.28830  0.65870  0.03050  Biso   1.000  O
  O2492    1.0000 0.32170  0.62750  0.02790  Biso   1.000  O
  Al535    1.0000 0.71950  0.17010  0.13380  Biso   1.000  Al
  Al536    1.0000 0.68880  0.14420  0.03840  Biso   1.000  Al
  Al537    1.0000 0.77760  0.13840  0.09530  Biso   1.000  Al
  P535     1.0000 0.71890  0.12960  0.08880  Biso   1.000  P
  P536     1.0000 0.77920  0.18380  0.13470  Biso   1.000  P
  P537     1.0000 0.81170  0.14830  0.04600  Biso   1.000  P
  O2493    1.0000 0.74960  0.12610  0.08090  Biso   1.000  O
  O2494    1.0000 0.71300  0.11270  0.11410  Biso   1.000  O
  O2495    1.0000 0.71870  0.15910  0.10170  Biso   1.000  O
  O2496    1.0000 0.70120  0.12880  0.06590  Biso   1.000  O
  O2497    1.0000 0.74680  0.19070  0.13510  Biso   1.000  O
  O2498    1.0000 0.80040  0.20290  0.13460  Biso   1.000  O
  O2499    1.0000 0.78190  0.16350  0.15730  Biso   1.000  O
  O2500    1.0000 0.71410  0.16320  0.02830  Biso   1.000  O
  O2501    1.0000 0.83220  0.16960  0.05540  Biso   1.000  O
  O2502    1.0000 0.67000  0.11800  0.02660  Biso   1.000  O
  O2503    1.0000 0.78290  0.17050  0.10650  Biso   1.000  O
  O2504    1.0000 0.80040  0.13390  0.07340  Biso   1.000  O
  O2505    1.0000 0.78830  0.15870  0.03050  Biso   1.000  O
  O2506    1.0000 0.82170  0.12750  0.02790  Biso   1.000  O
  Al538    1.0000 0.71950  0.67010  0.63380  Biso   1.000  Al
  Al539    1.0000 0.68880  0.64420  0.53840  Biso   1.000  Al
  Al540    1.0000 0.77760  0.63840  0.59530  Biso   1.000  Al
  P538     1.0000 0.71890  0.62960  0.58880  Biso   1.000  P
  P539     1.0000 0.77920  0.68380  0.63470  Biso   1.000  P
  P540     1.0000 0.81170  0.64830  0.54600  Biso   1.000  P
  O2507    1.0000 0.74960  0.62610  0.58090  Biso   1.000  O
  O2508    1.0000 0.71300  0.61270  0.61410  Biso   1.000  O
  O2509    1.0000 0.71870  0.65910  0.60170  Biso   1.000  O
  O2510    1.0000 0.70120  0.62880  0.56590  Biso   1.000  O
  O2511    1.0000 0.74680  0.69070  0.63510  Biso   1.000  O
  O2512    1.0000 0.80040  0.70290  0.63460  Biso   1.000  O
  O2513    1.0000 0.78190  0.66350  0.65730  Biso   1.000  O
  O2514    1.0000 0.71410  0.66320  0.52830  Biso   1.000  O
  O2515    1.0000 0.83220  0.66960  0.55540  Biso   1.000  O
  O2516    1.0000 0.67000  0.61800  0.52660  Biso   1.000  O
  O2517    1.0000 0.78290  0.67050  0.60650  Biso   1.000  O
  O2518    1.0000 0.80040  0.63390  0.57340  Biso   1.000  O
  O2519    1.0000 0.78830  0.65870  0.53050  Biso   1.000  O
  O2520    1.0000 0.82170  0.62750  0.52790  Biso   1.000  O
  Al541    1.0000 0.21950  0.82990  0.36620  Biso   1.000  Al
  Al542    1.0000 0.18880  0.85580  0.46160  Biso   1.000  Al
  Al543    1.0000 0.27760  0.86160  0.40470  Biso   1.000  Al
  P541     1.0000 0.21890  0.87040  0.41120  Biso   1.000  P
  P542     1.0000 0.27920  0.81620  0.36530  Biso   1.000  P
  P543     1.0000 0.31170  0.85170  0.45400  Biso   1.000  P
  O2521    1.0000 0.24960  0.87390  0.41910  Biso   1.000  O
  O2522    1.0000 0.21300  0.88730  0.38590  Biso   1.000  O
  O2523    1.0000 0.21870  0.84090  0.39830  Biso   1.000  O
  O2524    1.0000 0.20120  0.87120  0.43410  Biso   1.000  O
  O2525    1.0000 0.24680  0.80930  0.36490  Biso   1.000  O
  O2526    1.0000 0.30040  0.79710  0.36540  Biso   1.000  O
  O2527    1.0000 0.28190  0.83650  0.34270  Biso   1.000  O
  O2528    1.0000 0.21410  0.83680  0.47170  Biso   1.000  O
  O2529    1.0000 0.33220  0.83040  0.44460  Biso   1.000  O
  O2530    1.0000 0.17000  0.88200  0.47340  Biso   1.000  O
  O2531    1.0000 0.28290  0.82950  0.39350  Biso   1.000  O
  O2532    1.0000 0.30040  0.86610  0.42660  Biso   1.000  O
  O2533    1.0000 0.28830  0.84130  0.46950  Biso   1.000  O
  O2534    1.0000 0.32170  0.87250  0.47210  Biso   1.000  O
  Al544    1.0000 0.21950  0.32990  0.86620  Biso   1.000  Al
  Al545    1.0000 0.18880  0.35580  0.96160  Biso   1.000  Al
  Al546    1.0000 0.27760  0.36160  0.90470  Biso   1.000  Al
  P544     1.0000 0.21890  0.37040  0.91120  Biso   1.000  P
  P545     1.0000 0.27920  0.31620  0.86530  Biso   1.000  P
  P546     1.0000 0.31170  0.35170  0.95400  Biso   1.000  P
  O2535    1.0000 0.24960  0.37390  0.91910  Biso   1.000  O
  O2536    1.0000 0.21300  0.38730  0.88590  Biso   1.000  O
  O2537    1.0000 0.21870  0.34090  0.89830  Biso   1.000  O
  O2538    1.0000 0.20120  0.37120  0.93410  Biso   1.000  O
  O2539    1.0000 0.24680  0.30930  0.86490  Biso   1.000  O
  O2540    1.0000 0.30040  0.29710  0.86540  Biso   1.000  O
  O2541    1.0000 0.28190  0.33650  0.84270  Biso   1.000  O
  O2542    1.0000 0.21410  0.33680  0.97170  Biso   1.000  O
  O2543    1.0000 0.33220  0.33040  0.94460  Biso   1.000  O
  O2544    1.0000 0.17000  0.38200  0.97340  Biso   1.000  O
  O2545    1.0000 0.28290  0.32950  0.89350  Biso   1.000  O
  O2546    1.0000 0.30040  0.36610  0.92660  Biso   1.000  O
  O2547    1.0000 0.28830  0.34130  0.96950  Biso   1.000  O
  O2548    1.0000 0.32170  0.37250  0.97210  Biso   1.000  O
  Al547    1.0000 0.71950  0.82990  0.86620  Biso   1.000  Al
  Al548    1.0000 0.68880  0.85580  0.96160  Biso   1.000  Al
  Al549    1.0000 0.77760  0.86160  0.90470  Biso   1.000  Al
  P547     1.0000 0.71890  0.87040  0.91120  Biso   1.000  P
  P548     1.0000 0.77920  0.81620  0.86530  Biso   1.000  P
  P549     1.0000 0.81170  0.85170  0.95400  Biso   1.000  P
  O2549    1.0000 0.74960  0.87390  0.91910  Biso   1.000  O
  O2550    1.0000 0.71300  0.88730  0.88590  Biso   1.000  O
  O2551    1.0000 0.71870  0.84090  0.89830  Biso   1.000  O
  O2552    1.0000 0.70120  0.87120  0.93410  Biso   1.000  O
  O2553    1.0000 0.74680  0.80930  0.86490  Biso   1.000  O
  O2554    1.0000 0.80040  0.79710  0.86540  Biso   1.000  O
  O2555    1.0000 0.78190  0.83650  0.84270  Biso   1.000  O
  O2556    1.0000 0.71410  0.83680  0.97170  Biso   1.000  O
  O2557    1.0000 0.83220  0.83040  0.94460  Biso   1.000  O
  O2558    1.0000 0.67000  0.88200  0.97340  Biso   1.000  O
  O2559    1.0000 0.78290  0.82950  0.89350  Biso   1.000  O
  O2560    1.0000 0.80040  0.86610  0.92660  Biso   1.000  O
  O2561    1.0000 0.78830  0.84130  0.96950  Biso   1.000  O
  O2562    1.0000 0.82170  0.87250  0.97210  Biso   1.000  O
  Al550    1.0000 0.71950  0.32990  0.36620  Biso   1.000  Al
  Al551    1.0000 0.68880  0.35580  0.46160  Biso   1.000  Al
  Al552    1.0000 0.77760  0.36160  0.40470  Biso   1.000  Al
  P550     1.0000 0.71890  0.37040  0.41120  Biso   1.000  P
  P551     1.0000 0.77920  0.31620  0.36530  Biso   1.000  P
  P552     1.0000 0.81170  0.35170  0.45400  Biso   1.000  P
  O2563    1.0000 0.74960  0.37390  0.41910  Biso   1.000  O
  O2564    1.0000 0.71300  0.38730  0.38590  Biso   1.000  O
  O2565    1.0000 0.71870  0.34090  0.39830  Biso   1.000  O
  O2566    1.0000 0.70120  0.37120  0.43410  Biso   1.000  O
  O2567    1.0000 0.74680  0.30930  0.36490  Biso   1.000  O
  O2568    1.0000 0.80040  0.29710  0.36540  Biso   1.000  O
  O2569    1.0000 0.78190  0.33650  0.34270  Biso   1.000  O
  O2570    1.0000 0.71410  0.33680  0.47170  Biso   1.000  O
  O2571    1.0000 0.83220  0.33040  0.44460  Biso   1.000  O
  O2572    1.0000 0.67000  0.38200  0.47340  Biso   1.000  O
  O2573    1.0000 0.78290  0.32950  0.39350  Biso   1.000  O
  O2574    1.0000 0.80040  0.36610  0.42660  Biso   1.000  O
  O2575    1.0000 0.78830  0.34130  0.46950  Biso   1.000  O
  O2576    1.0000 0.82170  0.37250  0.47210  Biso   1.000  O
  Al553    1.0000 0.78050  0.17010  0.36620  Biso   1.000  Al
  Al554    1.0000 0.81120  0.14420  0.46160  Biso   1.000  Al
  Al555    1.0000 0.72240  0.13840  0.40470  Biso   1.000  Al
  P553     1.0000 0.78110  0.12960  0.41120  Biso   1.000  P
  P554     1.0000 0.72080  0.18380  0.36530  Biso   1.000  P
  P555     1.0000 0.68830  0.14830  0.45400  Biso   1.000  P
  O2577    1.0000 0.75040  0.12610  0.41910  Biso   1.000  O
  O2578    1.0000 0.78700  0.11270  0.38590  Biso   1.000  O
  O2579    1.0000 0.78130  0.15910  0.39830  Biso   1.000  O
  O2580    1.0000 0.79880  0.12880  0.43410  Biso   1.000  O
  O2581    1.0000 0.75320  0.19070  0.36490  Biso   1.000  O
  O2582    1.0000 0.69960  0.20290  0.36540  Biso   1.000  O
  O2583    1.0000 0.71810  0.16350  0.34270  Biso   1.000  O
  O2584    1.0000 0.78590  0.16320  0.47170  Biso   1.000  O
  O2585    1.0000 0.66780  0.16960  0.44460  Biso   1.000  O
  O2586    1.0000 0.83000  0.11800  0.47340  Biso   1.000  O
  O2587    1.0000 0.71710  0.17050  0.39350  Biso   1.000  O
  O2588    1.0000 0.69960  0.13390  0.42660  Biso   1.000  O
  O2589    1.0000 0.71170  0.15870  0.46950  Biso   1.000  O
  O2590    1.0000 0.67830  0.12750  0.47210  Biso   1.000  O
  Al556    1.0000 0.78050  0.67010  0.86620  Biso   1.000  Al
  Al557    1.0000 0.81120  0.64420  0.96160  Biso   1.000  Al
  Al558    1.0000 0.72240  0.63840  0.90470  Biso   1.000  Al
  P556     1.0000 0.78110  0.62960  0.91120  Biso   1.000  P
  P557     1.0000 0.72080  0.68380  0.86530  Biso   1.000  P
  P558     1.0000 0.68830  0.64830  0.95400  Biso   1.000  P
  O2591    1.0000 0.75040  0.62610  0.91910  Biso   1.000  O
  O2592    1.0000 0.78700  0.61270  0.88590  Biso   1.000  O
  O2593    1.0000 0.78130  0.65910  0.89830  Biso   1.000  O
  O2594    1.0000 0.79880  0.62880  0.93410  Biso   1.000  O
  O2595    1.0000 0.75320  0.69070  0.86490  Biso   1.000  O
  O2596    1.0000 0.69960  0.70290  0.86540  Biso   1.000  O
  O2597    1.0000 0.71810  0.66350  0.84270  Biso   1.000  O
  O2598    1.0000 0.78590  0.66320  0.97170  Biso   1.000  O
  O2599    1.0000 0.66780  0.66960  0.94460  Biso   1.000  O
  O2600    1.0000 0.83000  0.61800  0.97340  Biso   1.000  O
  O2601    1.0000 0.71710  0.67050  0.89350  Biso   1.000  O
  O2602    1.0000 0.69960  0.63390  0.92660  Biso   1.000  O
  O2603    1.0000 0.71170  0.65870  0.96950  Biso   1.000  O
  O2604    1.0000 0.67830  0.62750  0.97210  Biso   1.000  O
  Al559    1.0000 0.28050  0.17010  0.86620  Biso   1.000  Al
  Al560    1.0000 0.31120  0.14420  0.96160  Biso   1.000  Al
  Al561    1.0000 0.22240  0.13840  0.90470  Biso   1.000  Al
  P559     1.0000 0.28110  0.12960  0.91120  Biso   1.000  P
  P560     1.0000 0.22080  0.18380  0.86530  Biso   1.000  P
  P561     1.0000 0.18830  0.14830  0.95400  Biso   1.000  P
  O2605    1.0000 0.25040  0.12610  0.91910  Biso   1.000  O
  O2606    1.0000 0.28700  0.11270  0.88590  Biso   1.000  O
  O2607    1.0000 0.28130  0.15910  0.89830  Biso   1.000  O
  O2608    1.0000 0.29880  0.12880  0.93410  Biso   1.000  O
  O2609    1.0000 0.25320  0.19070  0.86490  Biso   1.000  O
  O2610    1.0000 0.19960  0.20290  0.86540  Biso   1.000  O
  O2611    1.0000 0.21810  0.16350  0.84270  Biso   1.000  O
  O2612    1.0000 0.28590  0.16320  0.97170  Biso   1.000  O
  O2613    1.0000 0.16780  0.16960  0.94460  Biso   1.000  O
  O2614    1.0000 0.33000  0.11800  0.97340  Biso   1.000  O
  O2615    1.0000 0.21710  0.17050  0.89350  Biso   1.000  O
  O2616    1.0000 0.19960  0.13390  0.92660  Biso   1.000  O
  O2617    1.0000 0.21170  0.15870  0.96950  Biso   1.000  O
  O2618    1.0000 0.17830  0.12750  0.97210  Biso   1.000  O
  Al562    1.0000 0.28050  0.67010  0.36620  Biso   1.000  Al
  Al563    1.0000 0.31120  0.64420  0.46160  Biso   1.000  Al
  Al564    1.0000 0.22240  0.63840  0.40470  Biso   1.000  Al
  P562     1.0000 0.28110  0.62960  0.41120  Biso   1.000  P
  P563     1.0000 0.22080  0.68380  0.36530  Biso   1.000  P
  P564     1.0000 0.18830  0.64830  0.45400  Biso   1.000  P
  O2619    1.0000 0.25040  0.62610  0.41910  Biso   1.000  O
  O2620    1.0000 0.28700  0.61270  0.38590  Biso   1.000  O
  O2621    1.0000 0.28130  0.65910  0.39830  Biso   1.000  O
  O2622    1.0000 0.29880  0.62880  0.43410  Biso   1.000  O
  O2623    1.0000 0.25320  0.69070  0.36490  Biso   1.000  O
  O2624    1.0000 0.19960  0.70290  0.36540  Biso   1.000  O
  O2625    1.0000 0.21810  0.66350  0.34270  Biso   1.000  O
  O2626    1.0000 0.28590  0.66320  0.47170  Biso   1.000  O
  O2627    1.0000 0.16780  0.66960  0.44460  Biso   1.000  O
  O2628    1.0000 0.33000  0.61800  0.47340  Biso   1.000  O
  O2629    1.0000 0.21710  0.67050  0.39350  Biso   1.000  O
  O2630    1.0000 0.19960  0.63390  0.42660  Biso   1.000  O
  O2631    1.0000 0.21170  0.65870  0.46950  Biso   1.000  O
  O2632    1.0000 0.17830  0.62750  0.47210  Biso   1.000  O
  Al565    1.0000 0.78050  0.82990  0.63380  Biso   1.000  Al
  Al566    1.0000 0.81120  0.85580  0.53840  Biso   1.000  Al
  Al567    1.0000 0.72240  0.86160  0.59530  Biso   1.000  Al
  P565     1.0000 0.78110  0.87040  0.58880  Biso   1.000  P
  P566     1.0000 0.72080  0.81620  0.63470  Biso   1.000  P
  P567     1.0000 0.68830  0.85170  0.54600  Biso   1.000  P
  O2633    1.0000 0.75040  0.87390  0.58090  Biso   1.000  O
  O2634    1.0000 0.78700  0.88730  0.61410  Biso   1.000  O
  O2635    1.0000 0.78130  0.84090  0.60170  Biso   1.000  O
  O2636    1.0000 0.79880  0.87120  0.56590  Biso   1.000  O
  O2637    1.0000 0.75320  0.80930  0.63510  Biso   1.000  O
  O2638    1.0000 0.69960  0.79710  0.63460  Biso   1.000  O
  O2639    1.0000 0.71810  0.83650  0.65730  Biso   1.000  O
  O2640    1.0000 0.78590  0.83680  0.52830  Biso   1.000  O
  O2641    1.0000 0.66780  0.83040  0.55540  Biso   1.000  O
  O2642    1.0000 0.83000  0.88200  0.52660  Biso   1.000  O
  O2643    1.0000 0.71710  0.82950  0.60650  Biso   1.000  O
  O2644    1.0000 0.69960  0.86610  0.57340  Biso   1.000  O
  O2645    1.0000 0.71170  0.84130  0.53050  Biso   1.000  O
  O2646    1.0000 0.67830  0.87250  0.52790  Biso   1.000  O
  Al568    1.0000 0.78050  0.32990  0.13380  Biso   1.000  Al
  Al569    1.0000 0.81120  0.35580  0.03840  Biso   1.000  Al
  Al570    1.0000 0.72240  0.36160  0.09530  Biso   1.000  Al
  P568     1.0000 0.78110  0.37040  0.08880  Biso   1.000  P
  P569     1.0000 0.72080  0.31620  0.13470  Biso   1.000  P
  P570     1.0000 0.68830  0.35170  0.04600  Biso   1.000  P
  O2647    1.0000 0.75040  0.37390  0.08090  Biso   1.000  O
  O2648    1.0000 0.78700  0.38730  0.11410  Biso   1.000  O
  O2649    1.0000 0.78130  0.34090  0.10170  Biso   1.000  O
  O2650    1.0000 0.79880  0.37120  0.06590  Biso   1.000  O
  O2651    1.0000 0.75320  0.30930  0.13510  Biso   1.000  O
  O2652    1.0000 0.69960  0.29710  0.13460  Biso   1.000  O
  O2653    1.0000 0.71810  0.33650  0.15730  Biso   1.000  O
  O2654    1.0000 0.78590  0.33680  0.02830  Biso   1.000  O
  O2655    1.0000 0.66780  0.33040  0.05540  Biso   1.000  O
  O2656    1.0000 0.83000  0.38200  0.02660  Biso   1.000  O
  O2657    1.0000 0.71710  0.32950  0.10650  Biso   1.000  O
  O2658    1.0000 0.69960  0.36610  0.07340  Biso   1.000  O
  O2659    1.0000 0.71170  0.34130  0.03050  Biso   1.000  O
  O2660    1.0000 0.67830  0.37250  0.02790  Biso   1.000  O
  Al571    1.0000 0.28050  0.82990  0.13380  Biso   1.000  Al
  Al572    1.0000 0.31120  0.85580  0.03840  Biso   1.000  Al
  Al573    1.0000 0.22240  0.86160  0.09530  Biso   1.000  Al
  P571     1.0000 0.28110  0.87040  0.08880  Biso   1.000  P
  P572     1.0000 0.22080  0.81620  0.13470  Biso   1.000  P
  P573     1.0000 0.18830  0.85170  0.04600  Biso   1.000  P
  O2661    1.0000 0.25040  0.87390  0.08090  Biso   1.000  O
  O2662    1.0000 0.28700  0.88730  0.11410  Biso   1.000  O
  O2663    1.0000 0.28130  0.84090  0.10170  Biso   1.000  O
  O2664    1.0000 0.29880  0.87120  0.06590  Biso   1.000  O
  O2665    1.0000 0.25320  0.80930  0.13510  Biso   1.000  O
  O2666    1.0000 0.19960  0.79710  0.13460  Biso   1.000  O
  O2667    1.0000 0.21810  0.83650  0.15730  Biso   1.000  O
  O2668    1.0000 0.28590  0.83680  0.02830  Biso   1.000  O
  O2669    1.0000 0.16780  0.83040  0.05540  Biso   1.000  O
  O2670    1.0000 0.33000  0.88200  0.02660  Biso   1.000  O
  O2671    1.0000 0.21710  0.82950  0.10650  Biso   1.000  O
  O2672    1.0000 0.19960  0.86610  0.07340  Biso   1.000  O
  O2673    1.0000 0.21170  0.84130  0.03050  Biso   1.000  O
  O2674    1.0000 0.17830  0.87250  0.02790  Biso   1.000  O
  Al574    1.0000 0.28050  0.32990  0.63380  Biso   1.000  Al
  Al575    1.0000 0.31120  0.35580  0.53840  Biso   1.000  Al
  Al576    1.0000 0.22240  0.36160  0.59530  Biso   1.000  Al
  P574     1.0000 0.28110  0.37040  0.58880  Biso   1.000  P
  P575     1.0000 0.22080  0.31620  0.63470  Biso   1.000  P
  P576     1.0000 0.18830  0.35170  0.54600  Biso   1.000  P
  O2675    1.0000 0.25040  0.37390  0.58090  Biso   1.000  O
  O2676    1.0000 0.28700  0.38730  0.61410  Biso   1.000  O
  O2677    1.0000 0.28130  0.34090  0.60170  Biso   1.000  O
  O2678    1.0000 0.29880  0.37120  0.56590  Biso   1.000  O
  O2679    1.0000 0.25320  0.30930  0.63510  Biso   1.000  O
  O2680    1.0000 0.19960  0.29710  0.63460  Biso   1.000  O
  O2681    1.0000 0.21810  0.33650  0.65730  Biso   1.000  O
  O2682    1.0000 0.28590  0.33680  0.52830  Biso   1.000  O
  O2683    1.0000 0.16780  0.33040  0.55540  Biso   1.000  O
  O2684    1.0000 0.33000  0.38200  0.52660  Biso   1.000  O
  O2685    1.0000 0.21710  0.32950  0.60650  Biso   1.000  O
  O2686    1.0000 0.19960  0.36610  0.57340  Biso   1.000  O
  O2687    1.0000 0.21170  0.34130  0.53050  Biso   1.000  O
  O2688    1.0000 0.17830  0.37250  0.52790  Biso   1.000  O
  Al577    1.0000 0.00000  0.32380  0.21670  Biso   1.000  Al
  Al578    1.0000 0.00000  0.37960  0.15860  Biso   1.000  Al
  P577     1.0000 0.00000  0.32230  0.27780  Biso   1.000  P
  P578     1.0000 0.00000  0.39000  0.34450  Biso   1.000  P
  O2689    1.0000 0.00000  0.32110  0.24820  Biso   1.000  O
  O2690    1.0000 0.00000  0.29410  0.29100  Biso   1.000  O
  O2691    1.0000 0.00000  0.37440  0.37190  Biso   1.000  O
  O2692    1.0000 0.00000  0.42020  0.35090  Biso   1.000  O
  Al579    1.0000 0.00000  0.82380  0.71670  Biso   1.000  Al
  Al580    1.0000 0.00000  0.87960  0.65860  Biso   1.000  Al
  P579     1.0000 0.00000  0.82230  0.77780  Biso   1.000  P
  P580     1.0000 0.00000  0.89000  0.84450  Biso   1.000  P
  O2693    1.0000 0.00000  0.82110  0.74820  Biso   1.000  O
  O2694    1.0000 0.00000  0.79410  0.79100  Biso   1.000  O
  O2695    1.0000 0.00000  0.87440  0.87190  Biso   1.000  O
  O2696    1.0000 0.00000  0.92020  0.85090  Biso   1.000  O
  Al581    1.0000 0.50000  0.32380  0.71670  Biso   1.000  Al
  Al582    1.0000 0.50000  0.37960  0.65860  Biso   1.000  Al
  P581     1.0000 0.50000  0.32230  0.77780  Biso   1.000  P
  P582     1.0000 0.50000  0.39000  0.84450  Biso   1.000  P
  O2697    1.0000 0.50000  0.32110  0.74820  Biso   1.000  O
  O2698    1.0000 0.50000  0.29410  0.79100  Biso   1.000  O
  O2699    1.0000 0.50000  0.37440  0.87190  Biso   1.000  O
  O2700    1.0000 0.50000  0.42020  0.85090  Biso   1.000  O
  Al583    1.0000 0.50000  0.82380  0.21670  Biso   1.000  Al
  Al584    1.0000 0.50000  0.87960  0.15860  Biso   1.000  Al
  P583     1.0000 0.50000  0.82230  0.27780  Biso   1.000  P
  P584     1.0000 0.50000  0.89000  0.34450  Biso   1.000  P
  O2701    1.0000 0.50000  0.82110  0.24820  Biso   1.000  O
  O2702    1.0000 0.50000  0.79410  0.29100  Biso   1.000  O
  O2703    1.0000 0.50000  0.87440  0.37190  Biso   1.000  O
  O2704    1.0000 0.50000  0.92020  0.35090  Biso   1.000  O
  Al585    1.0000 0.00000  0.67620  0.21670  Biso   1.000  Al
  Al586    1.0000 0.00000  0.62040  0.15860  Biso   1.000  Al
  P585     1.0000 0.00000  0.67770  0.27780  Biso   1.000  P
  P586     1.0000 0.00000  0.61000  0.34450  Biso   1.000  P
  O2705    1.0000 0.00000  0.67890  0.24820  Biso   1.000  O
  O2706    1.0000 0.00000  0.70590  0.29100  Biso   1.000  O
  O2707    1.0000 0.00000  0.62560  0.37190  Biso   1.000  O
  O2708    1.0000 0.00000  0.57980  0.35090  Biso   1.000  O
  Al587    1.0000 0.00000  0.17620  0.71670  Biso   1.000  Al
  Al588    1.0000 0.00000  0.12040  0.65860  Biso   1.000  Al
  P587     1.0000 0.00000  0.17770  0.77780  Biso   1.000  P
  P588     1.0000 0.00000  0.11000  0.84450  Biso   1.000  P
  O2709    1.0000 0.00000  0.17890  0.74820  Biso   1.000  O
  O2710    1.0000 0.00000  0.20590  0.79100  Biso   1.000  O
  O2711    1.0000 0.00000  0.12560  0.87190  Biso   1.000  O
  O2712    1.0000 0.00000  0.07980  0.85090  Biso   1.000  O
  Al589    1.0000 0.50000  0.67620  0.71670  Biso   1.000  Al
  Al590    1.0000 0.50000  0.62040  0.65860  Biso   1.000  Al
  P589     1.0000 0.50000  0.67770  0.77780  Biso   1.000  P
  P590     1.0000 0.50000  0.61000  0.84450  Biso   1.000  P
  O2713    1.0000 0.50000  0.67890  0.74820  Biso   1.000  O
  O2714    1.0000 0.50000  0.70590  0.79100  Biso   1.000  O
  O2715    1.0000 0.50000  0.62560  0.87190  Biso   1.000  O
  O2716    1.0000 0.50000  0.57980  0.85090  Biso   1.000  O
  Al591    1.0000 0.50000  0.17620  0.21670  Biso   1.000  Al
  Al592    1.0000 0.50000  0.12040  0.15860  Biso   1.000  Al
  P591     1.0000 0.50000  0.17770  0.27780  Biso   1.000  P
  P592     1.0000 0.50000  0.11000  0.34450  Biso   1.000  P
  O2717    1.0000 0.50000  0.17890  0.24820  Biso   1.000  O
  O2718    1.0000 0.50000  0.20590  0.29100  Biso   1.000  O
  O2719    1.0000 0.50000  0.12560  0.37190  Biso   1.000  O
  O2720    1.0000 0.50000  0.07980  0.35090  Biso   1.000  O
  Al593    1.0000 0.00000  0.32380  0.78330  Biso   1.000  Al
  Al594    1.0000 0.00000  0.37960  0.84140  Biso   1.000  Al
  P593     1.0000 0.00000  0.32230  0.72220  Biso   1.000  P
  P594     1.0000 0.00000  0.39000  0.65550  Biso   1.000  P
  O2721    1.0000 0.00000  0.32110  0.75180  Biso   1.000  O
  O2722    1.0000 0.00000  0.29410  0.70900  Biso   1.000  O
  O2723    1.0000 0.00000  0.37440  0.62810  Biso   1.000  O
  O2724    1.0000 0.00000  0.42020  0.64910  Biso   1.000  O
  Al595    1.0000 0.00000  0.82380  0.28330  Biso   1.000  Al
  Al596    1.0000 0.00000  0.87960  0.34140  Biso   1.000  Al
  P595     1.0000 0.00000  0.82230  0.22220  Biso   1.000  P
  P596     1.0000 0.00000  0.89000  0.15550  Biso   1.000  P
  O2725    1.0000 0.00000  0.82110  0.25180  Biso   1.000  O
  O2726    1.0000 0.00000  0.79410  0.20900  Biso   1.000  O
  O2727    1.0000 0.00000  0.87440  0.12810  Biso   1.000  O
  O2728    1.0000 0.00000  0.92020  0.14910  Biso   1.000  O
  Al597    1.0000 0.50000  0.32380  0.28330  Biso   1.000  Al
  Al598    1.0000 0.50000  0.37960  0.34140  Biso   1.000  Al
  P597     1.0000 0.50000  0.32230  0.22220  Biso   1.000  P
  P598     1.0000 0.50000  0.39000  0.15550  Biso   1.000  P
  O2729    1.0000 0.50000  0.32110  0.25180  Biso   1.000  O
  O2730    1.0000 0.50000  0.29410  0.20900  Biso   1.000  O
  O2731    1.0000 0.50000  0.37440  0.12810  Biso   1.000  O
  O2732    1.0000 0.50000  0.42020  0.14910  Biso   1.000  O
  Al599    1.0000 0.50000  0.82380  0.78330  Biso   1.000  Al
  Al600    1.0000 0.50000  0.87960  0.84140  Biso   1.000  Al
  P599     1.0000 0.50000  0.82230  0.72220  Biso   1.000  P
  P600     1.0000 0.50000  0.89000  0.65550  Biso   1.000  P
  O2733    1.0000 0.50000  0.82110  0.75180  Biso   1.000  O
  O2734    1.0000 0.50000  0.79410  0.70900  Biso   1.000  O
  O2735    1.0000 0.50000  0.87440  0.62810  Biso   1.000  O
  O2736    1.0000 0.50000  0.92020  0.64910  Biso   1.000  O
  Al601    1.0000 0.00000  0.67620  0.78330  Biso   1.000  Al
  Al602    1.0000 0.00000  0.62040  0.84140  Biso   1.000  Al
  P601     1.0000 0.00000  0.67770  0.72220  Biso   1.000  P
  P602     1.0000 0.00000  0.61000  0.65550  Biso   1.000  P
  O2737    1.0000 0.00000  0.67890  0.75180  Biso   1.000  O
  O2738    1.0000 0.00000  0.70590  0.70900  Biso   1.000  O
  O2739    1.0000 0.00000  0.62560  0.62810  Biso   1.000  O
  O2740    1.0000 0.00000  0.57980  0.64910  Biso   1.000  O
  Al603    1.0000 0.00000  0.17620  0.28330  Biso   1.000  Al
  Al604    1.0000 0.00000  0.12040  0.34140  Biso   1.000  Al
  P603     1.0000 0.00000  0.17770  0.22220  Biso   1.000  P
  P604     1.0000 0.00000  0.11000  0.15550  Biso   1.000  P
  O2741    1.0000 0.00000  0.17890  0.25180  Biso   1.000  O
  O2742    1.0000 0.00000  0.20590  0.20900  Biso   1.000  O
  O2743    1.0000 0.00000  0.12560  0.12810  Biso   1.000  O
  O2744    1.0000 0.00000  0.07980  0.14910  Biso   1.000  O
  Al605    1.0000 0.50000  0.67620  0.28330  Biso   1.000  Al
  Al606    1.0000 0.50000  0.62040  0.34140  Biso   1.000  Al
  P605     1.0000 0.50000  0.67770  0.22220  Biso   1.000  P
  P606     1.0000 0.50000  0.61000  0.15550  Biso   1.000  P
  O2745    1.0000 0.50000  0.67890  0.25180  Biso   1.000  O
  O2746    1.0000 0.50000  0.70590  0.20900  Biso   1.000  O
  O2747    1.0000 0.50000  0.62560  0.12810  Biso   1.000  O
  O2748    1.0000 0.50000  0.57980  0.14910  Biso   1.000  O
  Al607    1.0000 0.50000  0.17620  0.78330  Biso   1.000  Al
  Al608    1.0000 0.50000  0.12040  0.84140  Biso   1.000  Al
  P607     1.0000 0.50000  0.17770  0.72220  Biso   1.000  P
  P608     1.0000 0.50000  0.11000  0.65550  Biso   1.000  P
  O2749    1.0000 0.50000  0.17890  0.75180  Biso   1.000  O
  O2750    1.0000 0.50000  0.20590  0.70900  Biso   1.000  O
  O2751    1.0000 0.50000  0.12560  0.62810  Biso   1.000  O
  O2752    1.0000 0.50000  0.07980  0.64910  Biso   1.000  O
  Al609    1.0000 0.21670  0.00000  0.32380  Biso   1.000  Al
  Al610    1.0000 0.15860  0.00000  0.37960  Biso   1.000  Al
  P609     1.0000 0.27780  0.00000  0.32230  Biso   1.000  P
  P610     1.0000 0.34450  0.00000  0.39000  Biso   1.000  P
  O2753    1.0000 0.24820  0.00000  0.32110  Biso   1.000  O
  O2754    1.0000 0.29100  0.00000  0.29410  Biso   1.000  O
  O2755    1.0000 0.37190  0.00000  0.37440  Biso   1.000  O
  O2756    1.0000 0.35090  0.00000  0.42020  Biso   1.000  O
  Al611    1.0000 0.21670  0.50000  0.82380  Biso   1.000  Al
  Al612    1.0000 0.15860  0.50000  0.87960  Biso   1.000  Al
  P611     1.0000 0.27780  0.50000  0.82230  Biso   1.000  P
  P612     1.0000 0.34450  0.50000  0.89000  Biso   1.000  P
  O2757    1.0000 0.24820  0.50000  0.82110  Biso   1.000  O
  O2758    1.0000 0.29100  0.50000  0.79410  Biso   1.000  O
  O2759    1.0000 0.37190  0.50000  0.87440  Biso   1.000  O
  O2760    1.0000 0.35090  0.50000  0.92020  Biso   1.000  O
  Al613    1.0000 0.71670  0.00000  0.82380  Biso   1.000  Al
  Al614    1.0000 0.65860  0.00000  0.87960  Biso   1.000  Al
  P613     1.0000 0.77780  0.00000  0.82230  Biso   1.000  P
  P614     1.0000 0.84450  0.00000  0.89000  Biso   1.000  P
  O2761    1.0000 0.74820  0.00000  0.82110  Biso   1.000  O
  O2762    1.0000 0.79100  0.00000  0.79410  Biso   1.000  O
  O2763    1.0000 0.87190  0.00000  0.87440  Biso   1.000  O
  O2764    1.0000 0.85090  0.00000  0.92020  Biso   1.000  O
  Al615    1.0000 0.71670  0.50000  0.32380  Biso   1.000  Al
  Al616    1.0000 0.65860  0.50000  0.37960  Biso   1.000  Al
  P615     1.0000 0.77780  0.50000  0.32230  Biso   1.000  P
  P616     1.0000 0.84450  0.50000  0.39000  Biso   1.000  P
  O2765    1.0000 0.74820  0.50000  0.32110  Biso   1.000  O
  O2766    1.0000 0.79100  0.50000  0.29410  Biso   1.000  O
  O2767    1.0000 0.87190  0.50000  0.37440  Biso   1.000  O
  O2768    1.0000 0.85090  0.50000  0.42020  Biso   1.000  O
  Al617    1.0000 0.21670  0.00000  0.67620  Biso   1.000  Al
  Al618    1.0000 0.15860  0.00000  0.62040  Biso   1.000  Al
  P617     1.0000 0.27780  0.00000  0.67770  Biso   1.000  P
  P618     1.0000 0.34450  0.00000  0.61000  Biso   1.000  P
  O2769    1.0000 0.24820  0.00000  0.67890  Biso   1.000  O
  O2770    1.0000 0.29100  0.00000  0.70590  Biso   1.000  O
  O2771    1.0000 0.37190  0.00000  0.62560  Biso   1.000  O
  O2772    1.0000 0.35090  0.00000  0.57980  Biso   1.000  O
  Al619    1.0000 0.21670  0.50000  0.17620  Biso   1.000  Al
  Al620    1.0000 0.15860  0.50000  0.12040  Biso   1.000  Al
  P619     1.0000 0.27780  0.50000  0.17770  Biso   1.000  P
  P620     1.0000 0.34450  0.50000  0.11000  Biso   1.000  P
  O2773    1.0000 0.24820  0.50000  0.17890  Biso   1.000  O
  O2774    1.0000 0.29100  0.50000  0.20590  Biso   1.000  O
  O2775    1.0000 0.37190  0.50000  0.12560  Biso   1.000  O
  O2776    1.0000 0.35090  0.50000  0.07980  Biso   1.000  O
  Al621    1.0000 0.71670  0.00000  0.17620  Biso   1.000  Al
  Al622    1.0000 0.65860  0.00000  0.12040  Biso   1.000  Al
  P621     1.0000 0.77780  0.00000  0.17770  Biso   1.000  P
  P622     1.0000 0.84450  0.00000  0.11000  Biso   1.000  P
  O2777    1.0000 0.74820  0.00000  0.17890  Biso   1.000  O
  O2778    1.0000 0.79100  0.00000  0.20590  Biso   1.000  O
  O2779    1.0000 0.87190  0.00000  0.12560  Biso   1.000  O
  O2780    1.0000 0.85090  0.00000  0.07980  Biso   1.000  O
  Al623    1.0000 0.71670  0.50000  0.67620  Biso   1.000  Al
  Al624    1.0000 0.65860  0.50000  0.62040  Biso   1.000  Al
  P623     1.0000 0.77780  0.50000  0.67770  Biso   1.000  P
  P624     1.0000 0.84450  0.50000  0.61000  Biso   1.000  P
  O2781    1.0000 0.74820  0.50000  0.67890  Biso   1.000  O
  O2782    1.0000 0.79100  0.50000  0.70590  Biso   1.000  O
  O2783    1.0000 0.87190  0.50000  0.62560  Biso   1.000  O
  O2784    1.0000 0.85090  0.50000  0.57980  Biso   1.000  O
  Al625    1.0000 0.78330  0.00000  0.32380  Biso   1.000  Al
  Al626    1.0000 0.84140  0.00000  0.37960  Biso   1.000  Al
  P625     1.0000 0.72220  0.00000  0.32230  Biso   1.000  P
  P626     1.0000 0.65550  0.00000  0.39000  Biso   1.000  P
  O2785    1.0000 0.75180  0.00000  0.32110  Biso   1.000  O
  O2786    1.0000 0.70900  0.00000  0.29410  Biso   1.000  O
  O2787    1.0000 0.62810  0.00000  0.37440  Biso   1.000  O
  O2788    1.0000 0.64910  0.00000  0.42020  Biso   1.000  O
  Al627    1.0000 0.78330  0.50000  0.82380  Biso   1.000  Al
  Al628    1.0000 0.84140  0.50000  0.87960  Biso   1.000  Al
  P627     1.0000 0.72220  0.50000  0.82230  Biso   1.000  P
  P628     1.0000 0.65550  0.50000  0.89000  Biso   1.000  P
  O2789    1.0000 0.75180  0.50000  0.82110  Biso   1.000  O
  O2790    1.0000 0.70900  0.50000  0.79410  Biso   1.000  O
  O2791    1.0000 0.62810  0.50000  0.87440  Biso   1.000  O
  O2792    1.0000 0.64910  0.50000  0.92020  Biso   1.000  O
  Al629    1.0000 0.28330  0.00000  0.82380  Biso   1.000  Al
  Al630    1.0000 0.34140  0.00000  0.87960  Biso   1.000  Al
  P629     1.0000 0.22220  0.00000  0.82230  Biso   1.000  P
  P630     1.0000 0.15550  0.00000  0.89000  Biso   1.000  P
  O2793    1.0000 0.25180  0.00000  0.82110  Biso   1.000  O
  O2794    1.0000 0.20900  0.00000  0.79410  Biso   1.000  O
  O2795    1.0000 0.12810  0.00000  0.87440  Biso   1.000  O
  O2796    1.0000 0.14910  0.00000  0.92020  Biso   1.000  O
  Al631    1.0000 0.28330  0.50000  0.32380  Biso   1.000  Al
  Al632    1.0000 0.34140  0.50000  0.37960  Biso   1.000  Al
  P631     1.0000 0.22220  0.50000  0.32230  Biso   1.000  P
  P632     1.0000 0.15550  0.50000  0.39000  Biso   1.000  P
  O2797    1.0000 0.25180  0.50000  0.32110  Biso   1.000  O
  O2798    1.0000 0.20900  0.50000  0.29410  Biso   1.000  O
  O2799    1.0000 0.12810  0.50000  0.37440  Biso   1.000  O
  O2800    1.0000 0.14910  0.50000  0.42020  Biso   1.000  O
  Al633    1.0000 0.78330  0.00000  0.67620  Biso   1.000  Al
  Al634    1.0000 0.84140  0.00000  0.62040  Biso   1.000  Al
  P633     1.0000 0.72220  0.00000  0.67770  Biso   1.000  P
  P634     1.0000 0.65550  0.00000  0.61000  Biso   1.000  P
  O2801    1.0000 0.75180  0.00000  0.67890  Biso   1.000  O
  O2802    1.0000 0.70900  0.00000  0.70590  Biso   1.000  O
  O2803    1.0000 0.62810  0.00000  0.62560  Biso   1.000  O
  O2804    1.0000 0.64910  0.00000  0.57980  Biso   1.000  O
  Al635    1.0000 0.78330  0.50000  0.17620  Biso   1.000  Al
  Al636    1.0000 0.84140  0.50000  0.12040  Biso   1.000  Al
  P635     1.0000 0.72220  0.50000  0.17770  Biso   1.000  P
  P636     1.0000 0.65550  0.50000  0.11000  Biso   1.000  P
  O2805    1.0000 0.75180  0.50000  0.17890  Biso   1.000  O
  O2806    1.0000 0.70900  0.50000  0.20590  Biso   1.000  O
  O2807    1.0000 0.62810  0.50000  0.12560  Biso   1.000  O
  O2808    1.0000 0.64910  0.50000  0.07980  Biso   1.000  O
  Al637    1.0000 0.28330  0.00000  0.17620  Biso   1.000  Al
  Al638    1.0000 0.34140  0.00000  0.12040  Biso   1.000  Al
  P637     1.0000 0.22220  0.00000  0.17770  Biso   1.000  P
  P638     1.0000 0.15550  0.00000  0.11000  Biso   1.000  P
  O2809    1.0000 0.25180  0.00000  0.17890  Biso   1.000  O
  O2810    1.0000 0.20900  0.00000  0.20590  Biso   1.000  O
  O2811    1.0000 0.12810  0.00000  0.12560  Biso   1.000  O
  O2812    1.0000 0.14910  0.00000  0.07980  Biso   1.000  O
  Al639    1.0000 0.28330  0.50000  0.67620  Biso   1.000  Al
  Al640    1.0000 0.34140  0.50000  0.62040  Biso   1.000  Al
  P639     1.0000 0.22220  0.50000  0.67770  Biso   1.000  P
  P640     1.0000 0.15550  0.50000  0.61000  Biso   1.000  P
  O2813    1.0000 0.25180  0.50000  0.67890  Biso   1.000  O
  O2814    1.0000 0.20900  0.50000  0.70590  Biso   1.000  O
  O2815    1.0000 0.12810  0.50000  0.62560  Biso   1.000  O
  O2816    1.0000 0.14910  0.50000  0.57980  Biso   1.000  O
  Al641    1.0000 0.32380  0.21670  0.00000  Biso   1.000  Al
  Al642    1.0000 0.37960  0.15860  0.00000  Biso   1.000  Al
  P641     1.0000 0.32230  0.27780  0.00000  Biso   1.000  P
  P642     1.0000 0.39000  0.34450  0.00000  Biso   1.000  P
  O2817    1.0000 0.32110  0.24820  0.00000  Biso   1.000  O
  O2818    1.0000 0.29410  0.29100  0.00000  Biso   1.000  O
  O2819    1.0000 0.37440  0.37190  0.00000  Biso   1.000  O
  O2820    1.0000 0.42020  0.35090  0.00000  Biso   1.000  O
  Al643    1.0000 0.32380  0.71670  0.50000  Biso   1.000  Al
  Al644    1.0000 0.37960  0.65860  0.50000  Biso   1.000  Al
  P643     1.0000 0.32230  0.77780  0.50000  Biso   1.000  P
  P644     1.0000 0.39000  0.84450  0.50000  Biso   1.000  P
  O2821    1.0000 0.32110  0.74820  0.50000  Biso   1.000  O
  O2822    1.0000 0.29410  0.79100  0.50000  Biso   1.000  O
  O2823    1.0000 0.37440  0.87190  0.50000  Biso   1.000  O
  O2824    1.0000 0.42020  0.85090  0.50000  Biso   1.000  O
  Al645    1.0000 0.82380  0.21670  0.50000  Biso   1.000  Al
  Al646    1.0000 0.87960  0.15860  0.50000  Biso   1.000  Al
  P645     1.0000 0.82230  0.27780  0.50000  Biso   1.000  P
  P646     1.0000 0.89000  0.34450  0.50000  Biso   1.000  P
  O2825    1.0000 0.82110  0.24820  0.50000  Biso   1.000  O
  O2826    1.0000 0.79410  0.29100  0.50000  Biso   1.000  O
  O2827    1.0000 0.87440  0.37190  0.50000  Biso   1.000  O
  O2828    1.0000 0.92020  0.35090  0.50000  Biso   1.000  O
  Al647    1.0000 0.82380  0.71670  0.00000  Biso   1.000  Al
  Al648    1.0000 0.87960  0.65860  0.00000  Biso   1.000  Al
  P647     1.0000 0.82230  0.77780  0.00000  Biso   1.000  P
  P648     1.0000 0.89000  0.84450  0.00000  Biso   1.000  P
  O2829    1.0000 0.82110  0.74820  0.00000  Biso   1.000  O
  O2830    1.0000 0.79410  0.79100  0.00000  Biso   1.000  O
  O2831    1.0000 0.87440  0.87190  0.00000  Biso   1.000  O
  O2832    1.0000 0.92020  0.85090  0.00000  Biso   1.000  O
  Al649    1.0000 0.67620  0.21670  0.00000  Biso   1.000  Al
  Al650    1.0000 0.62040  0.15860  0.00000  Biso   1.000  Al
  P649     1.0000 0.67770  0.27780  0.00000  Biso   1.000  P
  P650     1.0000 0.61000  0.34450  0.00000  Biso   1.000  P
  O2833    1.0000 0.67890  0.24820  0.00000  Biso   1.000  O
  O2834    1.0000 0.70590  0.29100  0.00000  Biso   1.000  O
  O2835    1.0000 0.62560  0.37190  0.00000  Biso   1.000  O
  O2836    1.0000 0.57980  0.35090  0.00000  Biso   1.000  O
  Al651    1.0000 0.67620  0.71670  0.50000  Biso   1.000  Al
  Al652    1.0000 0.62040  0.65860  0.50000  Biso   1.000  Al
  P651     1.0000 0.67770  0.77780  0.50000  Biso   1.000  P
  P652     1.0000 0.61000  0.84450  0.50000  Biso   1.000  P
  O2837    1.0000 0.67890  0.74820  0.50000  Biso   1.000  O
  O2838    1.0000 0.70590  0.79100  0.50000  Biso   1.000  O
  O2839    1.0000 0.62560  0.87190  0.50000  Biso   1.000  O
  O2840    1.0000 0.57980  0.85090  0.50000  Biso   1.000  O
  Al653    1.0000 0.17620  0.21670  0.50000  Biso   1.000  Al
  Al654    1.0000 0.12040  0.15860  0.50000  Biso   1.000  Al
  P653     1.0000 0.17770  0.27780  0.50000  Biso   1.000  P
  P654     1.0000 0.11000  0.34450  0.50000  Biso   1.000  P
  O2841    1.0000 0.17890  0.24820  0.50000  Biso   1.000  O
  O2842    1.0000 0.20590  0.29100  0.50000  Biso   1.000  O
  O2843    1.0000 0.12560  0.37190  0.50000  Biso   1.000  O
  O2844    1.0000 0.07980  0.35090  0.50000  Biso   1.000  O
  Al655    1.0000 0.17620  0.71670  0.00000  Biso   1.000  Al
  Al656    1.0000 0.12040  0.65860  0.00000  Biso   1.000  Al
  P655     1.0000 0.17770  0.77780  0.00000  Biso   1.000  P
  P656     1.0000 0.11000  0.84450  0.00000  Biso   1.000  P
  O2845    1.0000 0.17890  0.74820  0.00000  Biso   1.000  O
  O2846    1.0000 0.20590  0.79100  0.00000  Biso   1.000  O
  O2847    1.0000 0.12560  0.87190  0.00000  Biso   1.000  O
  O2848    1.0000 0.07980  0.85090  0.00000  Biso   1.000  O
  Al657    1.0000 0.32380  0.78330  0.00000  Biso   1.000  Al
  Al658    1.0000 0.37960  0.84140  0.00000  Biso   1.000  Al
  P657     1.0000 0.32230  0.72220  0.00000  Biso   1.000  P
  P658     1.0000 0.39000  0.65550  0.00000  Biso   1.000  P
  O2849    1.0000 0.32110  0.75180  0.00000  Biso   1.000  O
  O2850    1.0000 0.29410  0.70900  0.00000  Biso   1.000  O
  O2851    1.0000 0.37440  0.62810  0.00000  Biso   1.000  O
  O2852    1.0000 0.42020  0.64910  0.00000  Biso   1.000  O
  Al659    1.0000 0.32380  0.28330  0.50000  Biso   1.000  Al
  Al660    1.0000 0.37960  0.34140  0.50000  Biso   1.000  Al
  P659     1.0000 0.32230  0.22220  0.50000  Biso   1.000  P
  P660     1.0000 0.39000  0.15550  0.50000  Biso   1.000  P
  O2853    1.0000 0.32110  0.25180  0.50000  Biso   1.000  O
  O2854    1.0000 0.29410  0.20900  0.50000  Biso   1.000  O
  O2855    1.0000 0.37440  0.12810  0.50000  Biso   1.000  O
  O2856    1.0000 0.42020  0.14910  0.50000  Biso   1.000  O
  Al661    1.0000 0.82380  0.78330  0.50000  Biso   1.000  Al
  Al662    1.0000 0.87960  0.84140  0.50000  Biso   1.000  Al
  P661     1.0000 0.82230  0.72220  0.50000  Biso   1.000  P
  P662     1.0000 0.89000  0.65550  0.50000  Biso   1.000  P
  O2857    1.0000 0.82110  0.75180  0.50000  Biso   1.000  O
  O2858    1.0000 0.79410  0.70900  0.50000  Biso   1.000  O
  O2859    1.0000 0.87440  0.62810  0.50000  Biso   1.000  O
  O2860    1.0000 0.92020  0.64910  0.50000  Biso   1.000  O
  Al663    1.0000 0.82380  0.28330  0.00000  Biso   1.000  Al
  Al664    1.0000 0.87960  0.34140  0.00000  Biso   1.000  Al
  P663     1.0000 0.82230  0.22220  0.00000  Biso   1.000  P
  P664     1.0000 0.89000  0.15550  0.00000  Biso   1.000  P
  O2861    1.0000 0.82110  0.25180  0.00000  Biso   1.000  O
  O2862    1.0000 0.79410  0.20900  0.00000  Biso   1.000  O
  O2863    1.0000 0.87440  0.12810  0.00000  Biso   1.000  O
  O2864    1.0000 0.92020  0.14910  0.00000  Biso   1.000  O
  Al665    1.0000 0.67620  0.78330  0.00000  Biso   1.000  Al
  Al666    1.0000 0.62040  0.84140  0.00000  Biso   1.000  Al
  P665     1.0000 0.67770  0.72220  0.00000  Biso   1.000  P
  P666     1.0000 0.61000  0.65550  0.00000  Biso   1.000  P
  O2865    1.0000 0.67890  0.75180  0.00000  Biso   1.000  O
  O2866    1.0000 0.70590  0.70900  0.00000  Biso   1.000  O
  O2867    1.0000 0.62560  0.62810  0.00000  Biso   1.000  O
  O2868    1.0000 0.57980  0.64910  0.00000  Biso   1.000  O
  Al667    1.0000 0.67620  0.28330  0.50000  Biso   1.000  Al
  Al668    1.0000 0.62040  0.34140  0.50000  Biso   1.000  Al
  P667     1.0000 0.67770  0.22220  0.50000  Biso   1.000  P
  P668     1.0000 0.61000  0.15550  0.50000  Biso   1.000  P
  O2869    1.0000 0.67890  0.25180  0.50000  Biso   1.000  O
  O2870    1.0000 0.70590  0.20900  0.50000  Biso   1.000  O
  O2871    1.0000 0.62560  0.12810  0.50000  Biso   1.000  O
  O2872    1.0000 0.57980  0.14910  0.50000  Biso   1.000  O
  Al669    1.0000 0.17620  0.78330  0.50000  Biso   1.000  Al
  Al670    1.0000 0.12040  0.84140  0.50000  Biso   1.000  Al
  P669     1.0000 0.17770  0.72220  0.50000  Biso   1.000  P
  P670     1.0000 0.11000  0.65550  0.50000  Biso   1.000  P
  O2873    1.0000 0.17890  0.75180  0.50000  Biso   1.000  O
  O2874    1.0000 0.20590  0.70900  0.50000  Biso   1.000  O
  O2875    1.0000 0.12560  0.62810  0.50000  Biso   1.000  O
  O2876    1.0000 0.07980  0.64910  0.50000  Biso   1.000  O
  Al671    1.0000 0.17620  0.28330  0.00000  Biso   1.000  Al
  Al672    1.0000 0.12040  0.34140  0.00000  Biso   1.000  Al
  P671     1.0000 0.17770  0.22220  0.00000  Biso   1.000  P
  P672     1.0000 0.11000  0.15550  0.00000  Biso   1.000  P
  O2877    1.0000 0.17890  0.25180  0.00000  Biso   1.000  O
  O2878    1.0000 0.20590  0.20900  0.00000  Biso   1.000  O
  O2879    1.0000 0.12560  0.12810  0.00000  Biso   1.000  O
  O2880    1.0000 0.07980  0.14910  0.00000  Biso   1.000  O
  Al673    1.0000 0.82380  0.50000  0.28330  Biso   1.000  Al
  Al674    1.0000 0.87960  0.50000  0.34140  Biso   1.000  Al
  P673     1.0000 0.82230  0.50000  0.22220  Biso   1.000  P
  P674     1.0000 0.89000  0.50000  0.15550  Biso   1.000  P
  O2881    1.0000 0.82110  0.50000  0.25180  Biso   1.000  O
  O2882    1.0000 0.79410  0.50000  0.20900  Biso   1.000  O
  O2883    1.0000 0.87440  0.50000  0.12810  Biso   1.000  O
  O2884    1.0000 0.92020  0.50000  0.14910  Biso   1.000  O
  Al675    1.0000 0.82380  0.00000  0.78330  Biso   1.000  Al
  Al676    1.0000 0.87960  0.00000  0.84140  Biso   1.000  Al
  P675     1.0000 0.82230  0.00000  0.72220  Biso   1.000  P
  P676     1.0000 0.89000  0.00000  0.65550  Biso   1.000  P
  O2885    1.0000 0.82110  0.00000  0.75180  Biso   1.000  O
  O2886    1.0000 0.79410  0.00000  0.70900  Biso   1.000  O
  O2887    1.0000 0.87440  0.00000  0.62810  Biso   1.000  O
  O2888    1.0000 0.92020  0.00000  0.64910  Biso   1.000  O
  Al677    1.0000 0.32380  0.50000  0.78330  Biso   1.000  Al
  Al678    1.0000 0.37960  0.50000  0.84140  Biso   1.000  Al
  P677     1.0000 0.32230  0.50000  0.72220  Biso   1.000  P
  P678     1.0000 0.39000  0.50000  0.65550  Biso   1.000  P
  O2889    1.0000 0.32110  0.50000  0.75180  Biso   1.000  O
  O2890    1.0000 0.29410  0.50000  0.70900  Biso   1.000  O
  O2891    1.0000 0.37440  0.50000  0.62810  Biso   1.000  O
  O2892    1.0000 0.42020  0.50000  0.64910  Biso   1.000  O
  Al679    1.0000 0.32380  0.00000  0.28330  Biso   1.000  Al
  Al680    1.0000 0.37960  0.00000  0.34140  Biso   1.000  Al
  P679     1.0000 0.32230  0.00000  0.22220  Biso   1.000  P
  P680     1.0000 0.39000  0.00000  0.15550  Biso   1.000  P
  O2893    1.0000 0.32110  0.00000  0.25180  Biso   1.000  O
  O2894    1.0000 0.29410  0.00000  0.20900  Biso   1.000  O
  O2895    1.0000 0.37440  0.00000  0.12810  Biso   1.000  O
  O2896    1.0000 0.42020  0.00000  0.14910  Biso   1.000  O
  Al681    1.0000 0.17620  0.50000  0.28330  Biso   1.000  Al
  Al682    1.0000 0.12040  0.50000  0.34140  Biso   1.000  Al
  P681     1.0000 0.17770  0.50000  0.22220  Biso   1.000  P
  P682     1.0000 0.11000  0.50000  0.15550  Biso   1.000  P
  O2897    1.0000 0.17890  0.50000  0.25180  Biso   1.000  O
  O2898    1.0000 0.20590  0.50000  0.20900  Biso   1.000  O
  O2899    1.0000 0.12560  0.50000  0.12810  Biso   1.000  O
  O2900    1.0000 0.07980  0.50000  0.14910  Biso   1.000  O
  Al683    1.0000 0.17620  0.00000  0.78330  Biso   1.000  Al
  Al684    1.0000 0.12040  0.00000  0.84140  Biso   1.000  Al
  P683     1.0000 0.17770  0.00000  0.72220  Biso   1.000  P
  P684     1.0000 0.11000  0.00000  0.65550  Biso   1.000  P
  O2901    1.0000 0.17890  0.00000  0.75180  Biso   1.000  O
  O2902    1.0000 0.20590  0.00000  0.70900  Biso   1.000  O
  O2903    1.0000 0.12560  0.00000  0.62810  Biso   1.000  O
  O2904    1.0000 0.07980  0.00000  0.64910  Biso   1.000  O
  Al685    1.0000 0.67620  0.50000  0.78330  Biso   1.000  Al
  Al686    1.0000 0.62040  0.50000  0.84140  Biso   1.000  Al
  P685     1.0000 0.67770  0.50000  0.72220  Biso   1.000  P
  P686     1.0000 0.61000  0.50000  0.65550  Biso   1.000  P
  O2905    1.0000 0.67890  0.50000  0.75180  Biso   1.000  O
  O2906    1.0000 0.70590  0.50000  0.70900  Biso   1.000  O
  O2907    1.0000 0.62560  0.50000  0.62810  Biso   1.000  O
  O2908    1.0000 0.57980  0.50000  0.64910  Biso   1.000  O
  Al687    1.0000 0.67620  0.00000  0.28330  Biso   1.000  Al
  Al688    1.0000 0.62040  0.00000  0.34140  Biso   1.000  Al
  P687     1.0000 0.67770  0.00000  0.22220  Biso   1.000  P
  P688     1.0000 0.61000  0.00000  0.15550  Biso   1.000  P
  O2909    1.0000 0.67890  0.00000  0.25180  Biso   1.000  O
  O2910    1.0000 0.70590  0.00000  0.20900  Biso   1.000  O
  O2911    1.0000 0.62560  0.00000  0.12810  Biso   1.000  O
  O2912    1.0000 0.57980  0.00000  0.14910  Biso   1.000  O
  Al689    1.0000 0.82380  0.50000  0.71670  Biso   1.000  Al
  Al690    1.0000 0.87960  0.50000  0.65860  Biso   1.000  Al
  P689     1.0000 0.82230  0.50000  0.77780  Biso   1.000  P
  P690     1.0000 0.89000  0.50000  0.84450  Biso   1.000  P
  O2913    1.0000 0.82110  0.50000  0.74820  Biso   1.000  O
  O2914    1.0000 0.79410  0.50000  0.79100  Biso   1.000  O
  O2915    1.0000 0.87440  0.50000  0.87190  Biso   1.000  O
  O2916    1.0000 0.92020  0.50000  0.85090  Biso   1.000  O
  Al691    1.0000 0.82380  0.00000  0.21670  Biso   1.000  Al
  Al692    1.0000 0.87960  0.00000  0.15860  Biso   1.000  Al
  P691     1.0000 0.82230  0.00000  0.27780  Biso   1.000  P
  P692     1.0000 0.89000  0.00000  0.34450  Biso   1.000  P
  O2917    1.0000 0.82110  0.00000  0.24820  Biso   1.000  O
  O2918    1.0000 0.79410  0.00000  0.29100  Biso   1.000  O
  O2919    1.0000 0.87440  0.00000  0.37190  Biso   1.000  O
  O2920    1.0000 0.92020  0.00000  0.35090  Biso   1.000  O
  Al693    1.0000 0.32380  0.50000  0.21670  Biso   1.000  Al
  Al694    1.0000 0.37960  0.50000  0.15860  Biso   1.000  Al
  P693     1.0000 0.32230  0.50000  0.27780  Biso   1.000  P
  P694     1.0000 0.39000  0.50000  0.34450  Biso   1.000  P
  O2921    1.0000 0.32110  0.50000  0.24820  Biso   1.000  O
  O2922    1.0000 0.29410  0.50000  0.29100  Biso   1.000  O
  O2923    1.0000 0.37440  0.50000  0.37190  Biso   1.000  O
  O2924    1.0000 0.42020  0.50000  0.35090  Biso   1.000  O
  Al695    1.0000 0.32380  0.00000  0.71670  Biso   1.000  Al
  Al696    1.0000 0.37960  0.00000  0.65860  Biso   1.000  Al
  P695     1.0000 0.32230  0.00000  0.77780  Biso   1.000  P
  P696     1.0000 0.39000  0.00000  0.84450  Biso   1.000  P
  O2925    1.0000 0.32110  0.00000  0.74820  Biso   1.000  O
  O2926    1.0000 0.29410  0.00000  0.79100  Biso   1.000  O
  O2927    1.0000 0.37440  0.00000  0.87190  Biso   1.000  O
  O2928    1.0000 0.42020  0.00000  0.85090  Biso   1.000  O
  Al697    1.0000 0.17620  0.50000  0.71670  Biso   1.000  Al
  Al698    1.0000 0.12040  0.50000  0.65860  Biso   1.000  Al
  P697     1.0000 0.17770  0.50000  0.77780  Biso   1.000  P
  P698     1.0000 0.11000  0.50000  0.84450  Biso   1.000  P
  O2929    1.0000 0.17890  0.50000  0.74820  Biso   1.000  O
  O2930    1.0000 0.20590  0.50000  0.79100  Biso   1.000  O
  O2931    1.0000 0.12560  0.50000  0.87190  Biso   1.000  O
  O2932    1.0000 0.07980  0.50000  0.85090  Biso   1.000  O
  Al699    1.0000 0.17620  0.00000  0.21670  Biso   1.000  Al
  Al700    1.0000 0.12040  0.00000  0.15860  Biso   1.000  Al
  P699     1.0000 0.17770  0.00000  0.27780  Biso   1.000  P
  P700     1.0000 0.11000  0.00000  0.34450  Biso   1.000  P
  O2933    1.0000 0.17890  0.00000  0.24820  Biso   1.000  O
  O2934    1.0000 0.20590  0.00000  0.29100  Biso   1.000  O
  O2935    1.0000 0.12560  0.00000  0.37190  Biso   1.000  O
  O2936    1.0000 0.07980  0.00000  0.35090  Biso   1.000  O
  Al701    1.0000 0.67620  0.50000  0.21670  Biso   1.000  Al
  Al702    1.0000 0.62040  0.50000  0.15860  Biso   1.000  Al
  P701     1.0000 0.67770  0.50000  0.27780  Biso   1.000  P
  P702     1.0000 0.61000  0.50000  0.34450  Biso   1.000  P
  O2937    1.0000 0.67890  0.50000  0.24820  Biso   1.000  O
  O2938    1.0000 0.70590  0.50000  0.29100  Biso   1.000  O
  O2939    1.0000 0.62560  0.50000  0.37190  Biso   1.000  O
  O2940    1.0000 0.57980  0.50000  0.35090  Biso   1.000  O
  Al703    1.0000 0.67620  0.00000  0.71670  Biso   1.000  Al
  Al704    1.0000 0.62040  0.00000  0.65860  Biso   1.000  Al
  P703     1.0000 0.67770  0.00000  0.77780  Biso   1.000  P
  P704     1.0000 0.61000  0.00000  0.84450  Biso   1.000  P
  O2941    1.0000 0.67890  0.00000  0.74820  Biso   1.000  O
  O2942    1.0000 0.70590  0.00000  0.79100  Biso   1.000  O
  O2943    1.0000 0.62560  0.00000  0.87190  Biso   1.000  O
  O2944    1.0000 0.57980  0.00000  0.85090  Biso   1.000  O
  Al705    1.0000 0.50000  0.71670  0.17620  Biso   1.000  Al
  Al706    1.0000 0.50000  0.65860  0.12040  Biso   1.000  Al
  P705     1.0000 0.50000  0.77780  0.17770  Biso   1.000  P
  P706     1.0000 0.50000  0.84450  0.11000  Biso   1.000  P
  O2945    1.0000 0.50000  0.74820  0.17890  Biso   1.000  O
  O2946    1.0000 0.50000  0.79100  0.20590  Biso   1.000  O
  O2947    1.0000 0.50000  0.87190  0.12560  Biso   1.000  O
  O2948    1.0000 0.50000  0.85090  0.07980  Biso   1.000  O
  Al707    1.0000 0.50000  0.21670  0.67620  Biso   1.000  Al
  Al708    1.0000 0.50000  0.15860  0.62040  Biso   1.000  Al
  P707     1.0000 0.50000  0.27780  0.67770  Biso   1.000  P
  P708     1.0000 0.50000  0.34450  0.61000  Biso   1.000  P
  O2949    1.0000 0.50000  0.24820  0.67890  Biso   1.000  O
  O2950    1.0000 0.50000  0.29100  0.70590  Biso   1.000  O
  O2951    1.0000 0.50000  0.37190  0.62560  Biso   1.000  O
  O2952    1.0000 0.50000  0.35090  0.57980  Biso   1.000  O
  Al709    1.0000 0.00000  0.71670  0.67620  Biso   1.000  Al
  Al710    1.0000 0.00000  0.65860  0.62040  Biso   1.000  Al
  P709     1.0000 0.00000  0.77780  0.67770  Biso   1.000  P
  P710     1.0000 0.00000  0.84450  0.61000  Biso   1.000  P
  O2953    1.0000 0.00000  0.74820  0.67890  Biso   1.000  O
  O2954    1.0000 0.00000  0.79100  0.70590  Biso   1.000  O
  O2955    1.0000 0.00000  0.87190  0.62560  Biso   1.000  O
  O2956    1.0000 0.00000  0.85090  0.57980  Biso   1.000  O
  Al711    1.0000 0.00000  0.21670  0.17620  Biso   1.000  Al
  Al712    1.0000 0.00000  0.15860  0.12040  Biso   1.000  Al
  P711     1.0000 0.00000  0.27780  0.17770  Biso   1.000  P
  P712     1.0000 0.00000  0.34450  0.11000  Biso   1.000  P
  O2957    1.0000 0.00000  0.24820  0.17890  Biso   1.000  O
  O2958    1.0000 0.00000  0.29100  0.20590  Biso   1.000  O
  O2959    1.0000 0.00000  0.37190  0.12560  Biso   1.000  O
  O2960    1.0000 0.00000  0.35090  0.07980  Biso   1.000  O
  Al713    1.0000 0.50000  0.71670  0.82380  Biso   1.000  Al
  Al714    1.0000 0.50000  0.65860  0.87960  Biso   1.000  Al
  P713     1.0000 0.50000  0.77780  0.82230  Biso   1.000  P
  P714     1.0000 0.50000  0.84450  0.89000  Biso   1.000  P
  O2961    1.0000 0.50000  0.74820  0.82110  Biso   1.000  O
  O2962    1.0000 0.50000  0.79100  0.79410  Biso   1.000  O
  O2963    1.0000 0.50000  0.87190  0.87440  Biso   1.000  O
  O2964    1.0000 0.50000  0.85090  0.92020  Biso   1.000  O
  Al715    1.0000 0.50000  0.21670  0.32380  Biso   1.000  Al
  Al716    1.0000 0.50000  0.15860  0.37960  Biso   1.000  Al
  P715     1.0000 0.50000  0.27780  0.32230  Biso   1.000  P
  P716     1.0000 0.50000  0.34450  0.39000  Biso   1.000  P
  O2965    1.0000 0.50000  0.24820  0.32110  Biso   1.000  O
  O2966    1.0000 0.50000  0.29100  0.29410  Biso   1.000  O
  O2967    1.0000 0.50000  0.37190  0.37440  Biso   1.000  O
  O2968    1.0000 0.50000  0.35090  0.42020  Biso   1.000  O
  Al717    1.0000 0.00000  0.71670  0.32380  Biso   1.000  Al
  Al718    1.0000 0.00000  0.65860  0.37960  Biso   1.000  Al
  P717     1.0000 0.00000  0.77780  0.32230  Biso   1.000  P
  P718     1.0000 0.00000  0.84450  0.39000  Biso   1.000  P
  O2969    1.0000 0.00000  0.74820  0.32110  Biso   1.000  O
  O2970    1.0000 0.00000  0.79100  0.29410  Biso   1.000  O
  O2971    1.0000 0.00000  0.87190  0.37440  Biso   1.000  O
  O2972    1.0000 0.00000  0.85090  0.42020  Biso   1.000  O
  Al719    1.0000 0.00000  0.21670  0.82380  Biso   1.000  Al
  Al720    1.0000 0.00000  0.15860  0.87960  Biso   1.000  Al
  P719     1.0000 0.00000  0.27780  0.82230  Biso   1.000  P
  P720     1.0000 0.00000  0.34450  0.89000  Biso   1.000  P
  O2973    1.0000 0.00000  0.24820  0.82110  Biso   1.000  O
  O2974    1.0000 0.00000  0.29100  0.79410  Biso   1.000  O
  O2975    1.0000 0.00000  0.37190  0.87440  Biso   1.000  O
  O2976    1.0000 0.00000  0.35090  0.92020  Biso   1.000  O
  Al721    1.0000 0.50000  0.28330  0.17620  Biso   1.000  Al
  Al722    1.0000 0.50000  0.34140  0.12040  Biso   1.000  Al
  P721     1.0000 0.50000  0.22220  0.17770  Biso   1.000  P
  P722     1.0000 0.50000  0.15550  0.11000  Biso   1.000  P
  O2977    1.0000 0.50000  0.25180  0.17890  Biso   1.000  O
  O2978    1.0000 0.50000  0.20900  0.20590  Biso   1.000  O
  O2979    1.0000 0.50000  0.12810  0.12560  Biso   1.000  O
  O2980    1.0000 0.50000  0.14910  0.07980  Biso   1.000  O
  Al723    1.0000 0.50000  0.78330  0.67620  Biso   1.000  Al
  Al724    1.0000 0.50000  0.84140  0.62040  Biso   1.000  Al
  P723     1.0000 0.50000  0.72220  0.67770  Biso   1.000  P
  P724     1.0000 0.50000  0.65550  0.61000  Biso   1.000  P
  O2981    1.0000 0.50000  0.75180  0.67890  Biso   1.000  O
  O2982    1.0000 0.50000  0.70900  0.70590  Biso   1.000  O
  O2983    1.0000 0.50000  0.62810  0.62560  Biso   1.000  O
  O2984    1.0000 0.50000  0.64910  0.57980  Biso   1.000  O
  Al725    1.0000 0.00000  0.28330  0.67620  Biso   1.000  Al
  Al726    1.0000 0.00000  0.34140  0.62040  Biso   1.000  Al
  P725     1.0000 0.00000  0.22220  0.67770  Biso   1.000  P
  P726     1.0000 0.00000  0.15550  0.61000  Biso   1.000  P
  O2985    1.0000 0.00000  0.25180  0.67890  Biso   1.000  O
  O2986    1.0000 0.00000  0.20900  0.70590  Biso   1.000  O
  O2987    1.0000 0.00000  0.12810  0.62560  Biso   1.000  O
  O2988    1.0000 0.00000  0.14910  0.57980  Biso   1.000  O
  Al727    1.0000 0.00000  0.78330  0.17620  Biso   1.000  Al
  Al728    1.0000 0.00000  0.84140  0.12040  Biso   1.000  Al
  P727     1.0000 0.00000  0.72220  0.17770  Biso   1.000  P
  P728     1.0000 0.00000  0.65550  0.11000  Biso   1.000  P
  O2989    1.0000 0.00000  0.75180  0.17890  Biso   1.000  O
  O2990    1.0000 0.00000  0.70900  0.20590  Biso   1.000  O
  O2991    1.0000 0.00000  0.62810  0.12560  Biso   1.000  O
  O2992    1.0000 0.00000  0.64910  0.07980  Biso   1.000  O
  Al729    1.0000 0.50000  0.28330  0.82380  Biso   1.000  Al
  Al730    1.0000 0.50000  0.34140  0.87960  Biso   1.000  Al
  P729     1.0000 0.50000  0.22220  0.82230  Biso   1.000  P
  P730     1.0000 0.50000  0.15550  0.89000  Biso   1.000  P
  O2993    1.0000 0.50000  0.25180  0.82110  Biso   1.000  O
  O2994    1.0000 0.50000  0.20900  0.79410  Biso   1.000  O
  O2995    1.0000 0.50000  0.12810  0.87440  Biso   1.000  O
  O2996    1.0000 0.50000  0.14910  0.92020  Biso   1.000  O
  Al731    1.0000 0.50000  0.78330  0.32380  Biso   1.000  Al
  Al732    1.0000 0.50000  0.84140  0.37960  Biso   1.000  Al
  P731     1.0000 0.50000  0.72220  0.32230  Biso   1.000  P
  P732     1.0000 0.50000  0.65550  0.39000  Biso   1.000  P
  O2997    1.0000 0.50000  0.75180  0.32110  Biso   1.000  O
  O2998    1.0000 0.50000  0.70900  0.29410  Biso   1.000  O
  O2999    1.0000 0.50000  0.62810  0.37440  Biso   1.000  O
  O3000    1.0000 0.50000  0.64910  0.42020  Biso   1.000  O
  Al733    1.0000 0.00000  0.28330  0.32380  Biso   1.000  Al
  Al734    1.0000 0.00000  0.34140  0.37960  Biso   1.000  Al
  P733     1.0000 0.00000  0.22220  0.32230  Biso   1.000  P
  P734     1.0000 0.00000  0.15550  0.39000  Biso   1.000  P
  O3001    1.0000 0.00000  0.25180  0.32110  Biso   1.000  O
  O3002    1.0000 0.00000  0.20900  0.29410  Biso   1.000  O
  O3003    1.0000 0.00000  0.12810  0.37440  Biso   1.000  O
  O3004    1.0000 0.00000  0.14910  0.42020  Biso   1.000  O
  Al735    1.0000 0.00000  0.78330  0.82380  Biso   1.000  Al
  Al736    1.0000 0.00000  0.84140  0.87960  Biso   1.000  Al
  P735     1.0000 0.00000  0.72220  0.82230  Biso   1.000  P
  P736     1.0000 0.00000  0.65550  0.89000  Biso   1.000  P
  O3005    1.0000 0.00000  0.75180  0.82110  Biso   1.000  O
  O3006    1.0000 0.00000  0.70900  0.79410  Biso   1.000  O
  O3007    1.0000 0.00000  0.62810  0.87440  Biso   1.000  O
  O3008    1.0000 0.00000  0.64910  0.92020  Biso   1.000  O
  Al737    1.0000 0.71670  0.82380  0.50000  Biso   1.000  Al
  Al738    1.0000 0.65860  0.87960  0.50000  Biso   1.000  Al
  P737     1.0000 0.77780  0.82230  0.50000  Biso   1.000  P
  P738     1.0000 0.84450  0.89000  0.50000  Biso   1.000  P
  O3009    1.0000 0.74820  0.82110  0.50000  Biso   1.000  O
  O3010    1.0000 0.79100  0.79410  0.50000  Biso   1.000  O
  O3011    1.0000 0.87190  0.87440  0.50000  Biso   1.000  O
  O3012    1.0000 0.85090  0.92020  0.50000  Biso   1.000  O
  Al739    1.0000 0.71670  0.32380  0.00000  Biso   1.000  Al
  Al740    1.0000 0.65860  0.37960  0.00000  Biso   1.000  Al
  P739     1.0000 0.77780  0.32230  0.00000  Biso   1.000  P
  P740     1.0000 0.84450  0.39000  0.00000  Biso   1.000  P
  O3013    1.0000 0.74820  0.32110  0.00000  Biso   1.000  O
  O3014    1.0000 0.79100  0.29410  0.00000  Biso   1.000  O
  O3015    1.0000 0.87190  0.37440  0.00000  Biso   1.000  O
  O3016    1.0000 0.85090  0.42020  0.00000  Biso   1.000  O
  Al741    1.0000 0.21670  0.82380  0.00000  Biso   1.000  Al
  Al742    1.0000 0.15860  0.87960  0.00000  Biso   1.000  Al
  P741     1.0000 0.27780  0.82230  0.00000  Biso   1.000  P
  P742     1.0000 0.34450  0.89000  0.00000  Biso   1.000  P
  O3017    1.0000 0.24820  0.82110  0.00000  Biso   1.000  O
  O3018    1.0000 0.29100  0.79410  0.00000  Biso   1.000  O
  O3019    1.0000 0.37190  0.87440  0.00000  Biso   1.000  O
  O3020    1.0000 0.35090  0.92020  0.00000  Biso   1.000  O
  Al743    1.0000 0.21670  0.32380  0.50000  Biso   1.000  Al
  Al744    1.0000 0.15860  0.37960  0.50000  Biso   1.000  Al
  P743     1.0000 0.27780  0.32230  0.50000  Biso   1.000  P
  P744     1.0000 0.34450  0.39000  0.50000  Biso   1.000  P
  O3021    1.0000 0.24820  0.32110  0.50000  Biso   1.000  O
  O3022    1.0000 0.29100  0.29410  0.50000  Biso   1.000  O
  O3023    1.0000 0.37190  0.37440  0.50000  Biso   1.000  O
  O3024    1.0000 0.35090  0.42020  0.50000  Biso   1.000  O
  Al745    1.0000 0.71670  0.17620  0.50000  Biso   1.000  Al
  Al746    1.0000 0.65860  0.12040  0.50000  Biso   1.000  Al
  P745     1.0000 0.77780  0.17770  0.50000  Biso   1.000  P
  P746     1.0000 0.84450  0.11000  0.50000  Biso   1.000  P
  O3025    1.0000 0.74820  0.17890  0.50000  Biso   1.000  O
  O3026    1.0000 0.79100  0.20590  0.50000  Biso   1.000  O
  O3027    1.0000 0.87190  0.12560  0.50000  Biso   1.000  O
  O3028    1.0000 0.85090  0.07980  0.50000  Biso   1.000  O
  Al747    1.0000 0.71670  0.67620  0.00000  Biso   1.000  Al
  Al748    1.0000 0.65860  0.62040  0.00000  Biso   1.000  Al
  P747     1.0000 0.77780  0.67770  0.00000  Biso   1.000  P
  P748     1.0000 0.84450  0.61000  0.00000  Biso   1.000  P
  O3029    1.0000 0.74820  0.67890  0.00000  Biso   1.000  O
  O3030    1.0000 0.79100  0.70590  0.00000  Biso   1.000  O
  O3031    1.0000 0.87190  0.62560  0.00000  Biso   1.000  O
  O3032    1.0000 0.85090  0.57980  0.00000  Biso   1.000  O
  Al749    1.0000 0.21670  0.17620  0.00000  Biso   1.000  Al
  Al750    1.0000 0.15860  0.12040  0.00000  Biso   1.000  Al
  P749     1.0000 0.27780  0.17770  0.00000  Biso   1.000  P
  P750     1.0000 0.34450  0.11000  0.00000  Biso   1.000  P
  O3033    1.0000 0.24820  0.17890  0.00000  Biso   1.000  O
  O3034    1.0000 0.29100  0.20590  0.00000  Biso   1.000  O
  O3035    1.0000 0.37190  0.12560  0.00000  Biso   1.000  O
  O3036    1.0000 0.35090  0.07980  0.00000  Biso   1.000  O
  Al751    1.0000 0.21670  0.67620  0.50000  Biso   1.000  Al
  Al752    1.0000 0.15860  0.62040  0.50000  Biso   1.000  Al
  P751     1.0000 0.27780  0.67770  0.50000  Biso   1.000  P
  P752     1.0000 0.34450  0.61000  0.50000  Biso   1.000  P
  O3037    1.0000 0.24820  0.67890  0.50000  Biso   1.000  O
  O3038    1.0000 0.29100  0.70590  0.50000  Biso   1.000  O
  O3039    1.0000 0.37190  0.62560  0.50000  Biso   1.000  O
  O3040    1.0000 0.35090  0.57980  0.50000  Biso   1.000  O
  Al753    1.0000 0.28330  0.82380  0.50000  Biso   1.000  Al
  Al754    1.0000 0.34140  0.87960  0.50000  Biso   1.000  Al
  P753     1.0000 0.22220  0.82230  0.50000  Biso   1.000  P
  P754     1.0000 0.15550  0.89000  0.50000  Biso   1.000  P
  O3041    1.0000 0.25180  0.82110  0.50000  Biso   1.000  O
  O3042    1.0000 0.20900  0.79410  0.50000  Biso   1.000  O
  O3043    1.0000 0.12810  0.87440  0.50000  Biso   1.000  O
  O3044    1.0000 0.14910  0.92020  0.50000  Biso   1.000  O
  Al755    1.0000 0.28330  0.32380  0.00000  Biso   1.000  Al
  Al756    1.0000 0.34140  0.37960  0.00000  Biso   1.000  Al
  P755     1.0000 0.22220  0.32230  0.00000  Biso   1.000  P
  P756     1.0000 0.15550  0.39000  0.00000  Biso   1.000  P
  O3045    1.0000 0.25180  0.32110  0.00000  Biso   1.000  O
  O3046    1.0000 0.20900  0.29410  0.00000  Biso   1.000  O
  O3047    1.0000 0.12810  0.37440  0.00000  Biso   1.000  O
  O3048    1.0000 0.14910  0.42020  0.00000  Biso   1.000  O
  Al757    1.0000 0.78330  0.82380  0.00000  Biso   1.000  Al
  Al758    1.0000 0.84140  0.87960  0.00000  Biso   1.000  Al
  P757     1.0000 0.72220  0.82230  0.00000  Biso   1.000  P
  P758     1.0000 0.65550  0.89000  0.00000  Biso   1.000  P
  O3049    1.0000 0.75180  0.82110  0.00000  Biso   1.000  O
  O3050    1.0000 0.70900  0.79410  0.00000  Biso   1.000  O
  O3051    1.0000 0.62810  0.87440  0.00000  Biso   1.000  O
  O3052    1.0000 0.64910  0.92020  0.00000  Biso   1.000  O
  Al759    1.0000 0.78330  0.32380  0.50000  Biso   1.000  Al
  Al760    1.0000 0.84140  0.37960  0.50000  Biso   1.000  Al
  P759     1.0000 0.72220  0.32230  0.50000  Biso   1.000  P
  P760     1.0000 0.65550  0.39000  0.50000  Biso   1.000  P
  O3053    1.0000 0.75180  0.32110  0.50000  Biso   1.000  O
  O3054    1.0000 0.70900  0.29410  0.50000  Biso   1.000  O
  O3055    1.0000 0.62810  0.37440  0.50000  Biso   1.000  O
  O3056    1.0000 0.64910  0.42020  0.50000  Biso   1.000  O
  Al761    1.0000 0.28330  0.17620  0.50000  Biso   1.000  Al
  Al762    1.0000 0.34140  0.12040  0.50000  Biso   1.000  Al
  P761     1.0000 0.22220  0.17770  0.50000  Biso   1.000  P
  P762     1.0000 0.15550  0.11000  0.50000  Biso   1.000  P
  O3057    1.0000 0.25180  0.17890  0.50000  Biso   1.000  O
  O3058    1.0000 0.20900  0.20590  0.50000  Biso   1.000  O
  O3059    1.0000 0.12810  0.12560  0.50000  Biso   1.000  O
  O3060    1.0000 0.14910  0.07980  0.50000  Biso   1.000  O
  Al763    1.0000 0.28330  0.67620  0.00000  Biso   1.000  Al
  Al764    1.0000 0.34140  0.62040  0.00000  Biso   1.000  Al
  P763     1.0000 0.22220  0.67770  0.00000  Biso   1.000  P
  P764     1.0000 0.15550  0.61000  0.00000  Biso   1.000  P
  O3061    1.0000 0.25180  0.67890  0.00000  Biso   1.000  O
  O3062    1.0000 0.20900  0.70590  0.00000  Biso   1.000  O
  O3063    1.0000 0.12810  0.62560  0.00000  Biso   1.000  O
  O3064    1.0000 0.14910  0.57980  0.00000  Biso   1.000  O
  Al765    1.0000 0.78330  0.17620  0.00000  Biso   1.000  Al
  Al766    1.0000 0.84140  0.12040  0.00000  Biso   1.000  Al
  P765     1.0000 0.72220  0.17770  0.00000  Biso   1.000  P
  P766     1.0000 0.65550  0.11000  0.00000  Biso   1.000  P
  O3065    1.0000 0.75180  0.17890  0.00000  Biso   1.000  O
  O3066    1.0000 0.70900  0.20590  0.00000  Biso   1.000  O
  O3067    1.0000 0.62810  0.12560  0.00000  Biso   1.000  O
  O3068    1.0000 0.64910  0.07980  0.00000  Biso   1.000  O
  Al767    1.0000 0.78330  0.67620  0.50000  Biso   1.000  Al
  Al768    1.0000 0.84140  0.62040  0.50000  Biso   1.000  Al
  P767     1.0000 0.72220  0.67770  0.50000  Biso   1.000  P
  P768     1.0000 0.65550  0.61000  0.50000  Biso   1.000  P
  O3069    1.0000 0.75180  0.67890  0.50000  Biso   1.000  O
  O3070    1.0000 0.70900  0.70590  0.50000  Biso   1.000  O
  O3071    1.0000 0.62810  0.62560  0.50000  Biso   1.000  O
  O3072    1.0000 0.64910  0.57980  0.50000  Biso   1.000  O
