data_ZEDWAI_charged
_audit_creation_date              2014-07-02
_audit_creation_method            'Materials Studio'
_symmetry_space_group_name_H-M    'P1'
_symmetry_Int_Tables_number       1
_symmetry_cell_setting            triclinic
loop_
_symmetry_equiv_pos_as_xyz
  x,y,z
_cell_length_a                    11.3500
_cell_length_b                    23.8960
_cell_length_c                    32.7930
_cell_angle_alpha                 97.6400
_cell_angle_beta                  90.0000
_cell_angle_gamma                 90.0000
loop_
_atom_site_label
_atom_site_type_symbol
_atom_site_fract_x
_atom_site_fract_y
_atom_site_fract_z
_atom_site_U_iso_or_equiv
_atom_site_adp_type
_atom_site_occupancy
Tb1    Tb    0.24103   0.41461   0.62555   0.01267  Uiso   1.00
Tb2    Tb    0.73424   0.12554   0.39887   0.01267  Uiso   1.00
Tb3    Tb    0.74103   0.08539   0.87445   0.01267  Uiso   1.00
Tb4    Tb    0.23424   0.37446   0.10113   0.01267  Uiso   1.00
Tb5    Tb    0.75897   0.58539   0.37445   0.01267  Uiso   1.00
Tb6    Tb    0.26576   0.87446   0.60113   0.01267  Uiso   1.00
Tb7    Tb    0.25897   0.91461   0.12555   0.01267  Uiso   1.00
Tb8    Tb    0.76576   0.62554   0.89887   0.01267  Uiso   1.00
H1     H     0.35070   0.57580   0.73350   0.01267  Uiso   1.00
H2     H     0.55630   0.44140   0.72900   0.01267  Uiso   1.00
H3     H     0.34780   0.43750   0.48330   0.01267  Uiso   1.00
H4     H     0.56460   0.51830   0.56730   0.01267  Uiso   1.00
H5     H     0.14740   0.44650   0.52390   0.01267  Uiso   1.00
H6     H     0.88220   0.55720   0.54540   0.01267  Uiso   1.00
H7     H     0.12100   0.33850   0.52110   0.01267  Uiso   1.00
H8     H     0.06400   0.31770   0.45570   0.01267  Uiso   1.00
H9     H     0.79550   0.22750   0.49280   0.01267  Uiso   1.00
H10    H     0.85490   0.25000   0.55970   0.01267  Uiso   1.00
H11    H     0.54440   0.21500   0.58900   0.01267  Uiso   1.00
H12    H     0.60390   0.18320   0.52260   0.01267  Uiso   1.00
H13    H     0.33450   0.26630   0.48020   0.01267  Uiso   1.00
H14    H     0.27370   0.29350   0.54640   0.01267  Uiso   1.00
H15    H     0.46960   0.62120   0.78390   0.01267  Uiso   1.00
H16    H     0.67140   0.48750   0.78120   0.01267  Uiso   1.00
H17    H     0.05620   0.99720   0.43210   0.01267  Uiso   1.00
H18    H     0.85590   0.06240   0.52770   0.01267  Uiso   1.00
H19    H     0.64360   0.06030   0.48440   0.01267  Uiso   1.00
H20    H     0.38520   0.95540   0.44870   0.01267  Uiso   1.00
H21    H     0.85070   0.92420   0.76650   0.01267  Uiso   1.00
H22    H     0.05630   0.05860   0.77100   0.01267  Uiso   1.00
H23    H     0.84780   0.06250   0.01670   0.01267  Uiso   1.00
H24    H     0.06460   0.98170   0.93270   0.01267  Uiso   1.00
H25    H     0.64740   0.05350   0.97610   0.01267  Uiso   1.00
H26    H     0.38220   0.94280   0.95460   0.01267  Uiso   1.00
H27    H     0.62100   0.16150   0.97890   0.01267  Uiso   1.00
H28    H     0.56400   0.18230   0.04430   0.01267  Uiso   1.00
H29    H     0.29550   0.27250   0.00720   0.01267  Uiso   1.00
H30    H     0.35490   0.25000   0.94030   0.01267  Uiso   1.00
H31    H     0.04440   0.28500   0.91100   0.01267  Uiso   1.00
H32    H     0.10390   0.31680   0.97740   0.01267  Uiso   1.00
H33    H     0.83450   0.23370   0.01980   0.01267  Uiso   1.00
H34    H     0.77370   0.20650   0.95360   0.01267  Uiso   1.00
H35    H     0.96960   0.87880   0.71610   0.01267  Uiso   1.00
H36    H     0.17140   0.01250   0.71880   0.01267  Uiso   1.00
H37    H     0.55620   0.50280   0.06790   0.01267  Uiso   1.00
H38    H     0.35590   0.43760   0.97230   0.01267  Uiso   1.00
H39    H     0.14360   0.43970   0.01560   0.01267  Uiso   1.00
H40    H     0.88520   0.54460   0.05130   0.01267  Uiso   1.00
H41    H     0.64930   0.42420   0.26650   0.01267  Uiso   1.00
H42    H     0.44370   0.55860   0.27100   0.01267  Uiso   1.00
H43    H     0.65220   0.56250   0.51670   0.01267  Uiso   1.00
H44    H     0.43540   0.48170   0.43270   0.01267  Uiso   1.00
H45    H     0.85260   0.55350   0.47610   0.01267  Uiso   1.00
H46    H     0.11780   0.44280   0.45460   0.01267  Uiso   1.00
H47    H     0.87900   0.66150   0.47890   0.01267  Uiso   1.00
H48    H     0.93600   0.68230   0.54430   0.01267  Uiso   1.00
H49    H     0.20450   0.77250   0.50720   0.01267  Uiso   1.00
H50    H     0.14510   0.75000   0.44030   0.01267  Uiso   1.00
H51    H     0.45560   0.78500   0.41100   0.01267  Uiso   1.00
H52    H     0.39610   0.81680   0.47740   0.01267  Uiso   1.00
H53    H     0.66550   0.73370   0.51980   0.01267  Uiso   1.00
H54    H     0.72630   0.70650   0.45360   0.01267  Uiso   1.00
H55    H     0.53040   0.37880   0.21610   0.01267  Uiso   1.00
H56    H     0.32860   0.51250   0.21880   0.01267  Uiso   1.00
H57    H     0.94380   0.00280   0.56790   0.01267  Uiso   1.00
H58    H     0.14410   0.93760   0.47230   0.01267  Uiso   1.00
H59    H     0.35640   0.93970   0.51560   0.01267  Uiso   1.00
H60    H     0.61480   0.04460   0.55130   0.01267  Uiso   1.00
H61    H     0.14930   0.07580   0.23350   0.01267  Uiso   1.00
H62    H     0.94370   0.94140   0.22900   0.01267  Uiso   1.00
H63    H     0.15220   0.93750   0.98330   0.01267  Uiso   1.00
H64    H     0.93540   0.01830   0.06730   0.01267  Uiso   1.00
H65    H     0.35260   0.94650   0.02390   0.01267  Uiso   1.00
H66    H     0.61780   0.05720   0.04540   0.01267  Uiso   1.00
H67    H     0.37900   0.83850   0.02110   0.01267  Uiso   1.00
H68    H     0.43600   0.81770   0.95570   0.01267  Uiso   1.00
H69    H     0.70450   0.72750   0.99280   0.01267  Uiso   1.00
H70    H     0.64510   0.75000   0.05970   0.01267  Uiso   1.00
H71    H     0.95560   0.71500   0.08900   0.01267  Uiso   1.00
H72    H     0.89610   0.68320   0.02260   0.01267  Uiso   1.00
H73    H     0.16550   0.76630   0.98020   0.01267  Uiso   1.00
H74    H     0.22630   0.79350   0.04640   0.01267  Uiso   1.00
H75    H     0.03040   0.12120   0.28390   0.01267  Uiso   1.00
H76    H     0.82860   0.98750   0.28120   0.01267  Uiso   1.00
H77    H     0.44380   0.49720   0.93210   0.01267  Uiso   1.00
H78    H     0.64410   0.56240   0.02770   0.01267  Uiso   1.00
H79    H     0.85640   0.56030   0.98440   0.01267  Uiso   1.00
H80    H     0.11480   0.45540   0.94870   0.01267  Uiso   1.00
C1     C     0.36840   0.47280   0.69120   0.01267  Uiso   1.00
C2     C     0.44350   0.50610   0.72730   0.01267  Uiso   1.00
C3     C     0.41610   0.55780   0.74280   0.01267  Uiso   1.00
C4     C     0.53830   0.47810   0.74060   0.01267  Uiso   1.00
C5     C     0.38170   0.44700   0.56310   0.01267  Uiso   1.00
C6     C     0.44420   0.47520   0.52990   0.01267  Uiso   1.00
C7     C     0.40860   0.46320   0.49000   0.01267  Uiso   1.00
C8     C     0.53820   0.51140   0.54030   0.01267  Uiso   1.00
C9     C     0.04150   0.50650   0.58830   0.01267  Uiso   1.00
C10    C     0.01950   0.50240   0.54360   0.01267  Uiso   1.00
C11    C     0.08780   0.46830   0.51460   0.01267  Uiso   1.00
C12    C     0.93030   0.53410   0.52740   0.01267  Uiso   1.00
C13    C     0.02470   0.31790   0.59130   0.01267  Uiso   1.00
C14    C     0.99210   0.29810   0.54780   0.01267  Uiso   1.00
C15    C     0.05420   0.31640   0.51520   0.01267  Uiso   1.00
C16    C     0.02110   0.30320   0.47610   0.01267  Uiso   1.00
C17    C     0.92430   0.26820   0.46450   0.01267  Uiso   1.00
C18    C     0.86210   0.24990   0.49830   0.01267  Uiso   1.00
C19    C     0.89650   0.26380   0.53870   0.01267  Uiso   1.00
C20    C     0.89000   0.24900   0.42290   0.01267  Uiso   1.00
C21    C     0.37440   0.28390   0.61820   0.01267  Uiso   1.00
C22    C     0.40570   0.25790   0.57400   0.01267  Uiso   1.00
C23    C     0.50150   0.22500   0.56690   0.01267  Uiso   1.00
C24    C     0.53700   0.20570   0.52700   0.01267  Uiso   1.00
C25    C     0.47350   0.21960   0.49340   0.01267  Uiso   1.00
C26    C     0.37670   0.25450   0.50180   0.01267  Uiso   1.00
C27    C     0.34170   0.27190   0.54150   0.01267  Uiso   1.00
C28    C     0.51710   0.19970   0.44930   0.01267  Uiso   1.00
C29    C     0.65130   0.58820   0.82460   0.01267  Uiso   1.00
C30    C     0.58410   0.55680   0.78830   0.01267  Uiso   1.00
C31    C     0.48630   0.58410   0.77300   0.01267  Uiso   1.00
C32    C     0.60690   0.50600   0.77180   0.01267  Uiso   1.00
C33    C     0.87980   0.06630   0.44490   0.01267  Uiso   1.00
C34    C     0.94290   0.03260   0.47480   0.01267  Uiso   1.00
C35    C     0.03260   0.99750   0.45930   0.01267  Uiso   1.00
C36    C     0.91260   0.03670   0.51670   0.01267  Uiso   1.00
C37    C     0.53380   0.02350   0.41650   0.01267  Uiso   1.00
C38    C     0.51680   0.01100   0.45970   0.01267  Uiso   1.00
C39    C     0.58420   0.03580   0.49030   0.01267  Uiso   1.00
C40    C     0.43230   0.97410   0.46940   0.01267  Uiso   1.00
C41    C     0.86840   0.02720   0.80880   0.01267  Uiso   1.00
C42    C     0.94350   0.99390   0.77270   0.01267  Uiso   1.00
C43    C     0.91610   0.94220   0.75720   0.01267  Uiso   1.00
C44    C     0.03830   0.02190   0.75940   0.01267  Uiso   1.00
C45    C     0.88170   0.05300   0.93690   0.01267  Uiso   1.00
C46    C     0.94420   0.02480   0.97010   0.01267  Uiso   1.00
C47    C     0.90860   0.03680   0.01000   0.01267  Uiso   1.00
C48    C     0.03820   0.98860   0.95970   0.01267  Uiso   1.00
C49    C     0.54150   0.99350   0.91170   0.01267  Uiso   1.00
C50    C     0.51950   0.99760   0.95640   0.01267  Uiso   1.00
C51    C     0.58780   0.03170   0.98540   0.01267  Uiso   1.00
C52    C     0.43030   0.96590   0.97260   0.01267  Uiso   1.00
C53    C     0.52470   0.18210   0.90870   0.01267  Uiso   1.00
C54    C     0.49210   0.20190   0.95220   0.01267  Uiso   1.00
C55    C     0.55420   0.18360   0.98480   0.01267  Uiso   1.00
C56    C     0.52110   0.19680   0.02390   0.01267  Uiso   1.00
C57    C     0.42430   0.23180   0.03550   0.01267  Uiso   1.00
C58    C     0.36210   0.25010   0.00170   0.01267  Uiso   1.00
C59    C     0.39650   0.23620   0.96130   0.01267  Uiso   1.00
C60    C     0.39000   0.25100   0.07710   0.01267  Uiso   1.00
C61    C     0.87440   0.21610   0.88180   0.01267  Uiso   1.00
C62    C     0.90570   0.24210   0.92600   0.01267  Uiso   1.00
C63    C     0.00150   0.27500   0.93310   0.01267  Uiso   1.00
C64    C     0.03700   0.29430   0.97300   0.01267  Uiso   1.00
C65    C     0.97350   0.28040   0.00660   0.01267  Uiso   1.00
C66    C     0.87670   0.24550   0.99820   0.01267  Uiso   1.00
C67    C     0.84170   0.22810   0.95850   0.01267  Uiso   1.00
C68    C     0.01710   0.30030   0.05070   0.01267  Uiso   1.00
C69    C     0.15130   0.91180   0.67540   0.01267  Uiso   1.00
C70    C     0.08410   0.94320   0.71170   0.01267  Uiso   1.00
C71    C     0.98630   0.91590   0.72700   0.01267  Uiso   1.00
C72    C     0.10690   0.99400   0.72820   0.01267  Uiso   1.00
C73    C     0.37980   0.43370   0.05510   0.01267  Uiso   1.00
C74    C     0.44290   0.46740   0.02520   0.01267  Uiso   1.00
C75    C     0.53260   0.50250   0.04070   0.01267  Uiso   1.00
C76    C     0.41260   0.46330   0.98330   0.01267  Uiso   1.00
C77    C     0.03380   0.47650   0.08350   0.01267  Uiso   1.00
C78    C     0.01680   0.48900   0.04030   0.01267  Uiso   1.00
C79    C     0.08420   0.46420   0.00970   0.01267  Uiso   1.00
C80    C     0.93230   0.52590   0.03060   0.01267  Uiso   1.00
C81    C     0.63160   0.52720   0.30880   0.01267  Uiso   1.00
C82    C     0.55650   0.49390   0.27270   0.01267  Uiso   1.00
C83    C     0.58390   0.44220   0.25720   0.01267  Uiso   1.00
C84    C     0.46170   0.52190   0.25940   0.01267  Uiso   1.00
C85    C     0.61830   0.55300   0.43690   0.01267  Uiso   1.00
C86    C     0.55580   0.52480   0.47010   0.01267  Uiso   1.00
C87    C     0.59140   0.53680   0.51000   0.01267  Uiso   1.00
C88    C     0.46180   0.48860   0.45970   0.01267  Uiso   1.00
C89    C     0.95850   0.49350   0.41170   0.01267  Uiso   1.00
C90    C     0.98050   0.49760   0.45640   0.01267  Uiso   1.00
C91    C     0.91220   0.53170   0.48540   0.01267  Uiso   1.00
C92    C     0.06970   0.46590   0.47260   0.01267  Uiso   1.00
C93    C     0.97530   0.68210   0.40870   0.01267  Uiso   1.00
C94    C     0.00790   0.70190   0.45220   0.01267  Uiso   1.00
C95    C     0.94580   0.68360   0.48480   0.01267  Uiso   1.00
C96    C     0.97890   0.69680   0.52390   0.01267  Uiso   1.00
C97    C     0.07570   0.73180   0.53550   0.01267  Uiso   1.00
C98    C     0.13790   0.75010   0.50170   0.01267  Uiso   1.00
C99    C     0.10350   0.73620   0.46130   0.01267  Uiso   1.00
C100   C     0.11000   0.75100   0.57710   0.01267  Uiso   1.00
C101   C     0.62560   0.71610   0.38180   0.01267  Uiso   1.00
C102   C     0.59430   0.74210   0.42600   0.01267  Uiso   1.00
C103   C     0.49850   0.77500   0.43310   0.01267  Uiso   1.00
C104   C     0.46300   0.79430   0.47300   0.01267  Uiso   1.00
C105   C     0.52650   0.78040   0.50660   0.01267  Uiso   1.00
C106   C     0.62330   0.74550   0.49820   0.01267  Uiso   1.00
C107   C     0.65830   0.72810   0.45850   0.01267  Uiso   1.00
C108   C     0.48290   0.80030   0.55070   0.01267  Uiso   1.00
C109   C     0.34870   0.41180   0.17540   0.01267  Uiso   1.00
C110   C     0.41590   0.44320   0.21170   0.01267  Uiso   1.00
C111   C     0.51370   0.41590   0.22700   0.01267  Uiso   1.00
C112   C     0.39310   0.49400   0.22820   0.01267  Uiso   1.00
C113   C     0.12020   0.93370   0.55510   0.01267  Uiso   1.00
C114   C     0.05710   0.96740   0.52520   0.01267  Uiso   1.00
C115   C     0.96740   0.00250   0.54070   0.01267  Uiso   1.00
C116   C     0.08740   0.96330   0.48330   0.01267  Uiso   1.00
C117   C     0.46620   0.97650   0.58350   0.01267  Uiso   1.00
C118   C     0.48320   0.98900   0.54030   0.01267  Uiso   1.00
C119   C     0.41580   0.96420   0.50970   0.01267  Uiso   1.00
C120   C     0.56770   0.02590   0.53060   0.01267  Uiso   1.00
C121   C     0.13160   0.97280   0.19120   0.01267  Uiso   1.00
C122   C     0.05650   0.00610   0.22730   0.01267  Uiso   1.00
C123   C     0.08390   0.05780   0.24280   0.01267  Uiso   1.00
C124   C     0.96170   0.97810   0.24060   0.01267  Uiso   1.00
C125   C     0.11830   0.94700   0.06310   0.01267  Uiso   1.00
C126   C     0.05580   0.97520   0.02990   0.01267  Uiso   1.00
C127   C     0.09140   0.96320   0.99000   0.01267  Uiso   1.00
C128   C     0.96180   0.01140   0.04030   0.01267  Uiso   1.00
C129   C     0.45850   0.00650   0.08830   0.01267  Uiso   1.00
C130   C     0.48050   0.00240   0.04360   0.01267  Uiso   1.00
C131   C     0.41220   0.96830   0.01460   0.01267  Uiso   1.00
C132   C     0.56970   0.03410   0.02740   0.01267  Uiso   1.00
C133   C     0.47530   0.81790   0.09130   0.01267  Uiso   1.00
C134   C     0.50790   0.79810   0.04780   0.01267  Uiso   1.00
C135   C     0.44580   0.81640   0.01520   0.01267  Uiso   1.00
C136   C     0.47890   0.80320   0.97610   0.01267  Uiso   1.00
C137   C     0.57570   0.76820   0.96450   0.01267  Uiso   1.00
C138   C     0.63790   0.74990   0.99830   0.01267  Uiso   1.00
C139   C     0.60350   0.76380   0.03870   0.01267  Uiso   1.00
C140   C     0.61000   0.74900   0.92290   0.01267  Uiso   1.00
C141   C     0.12560   0.78390   0.11820   0.01267  Uiso   1.00
C142   C     0.09430   0.75790   0.07400   0.01267  Uiso   1.00
C143   C     0.99850   0.72500   0.06690   0.01267  Uiso   1.00
C144   C     0.96300   0.70570   0.02700   0.01267  Uiso   1.00
C145   C     0.02650   0.71960   0.99340   0.01267  Uiso   1.00
C146   C     0.12330   0.75450   0.00180   0.01267  Uiso   1.00
C147   C     0.15830   0.77190   0.04150   0.01267  Uiso   1.00
C148   C     0.98290   0.69970   0.94930   0.01267  Uiso   1.00
C149   C     0.84870   0.08820   0.32460   0.01267  Uiso   1.00
C150   C     0.91590   0.05680   0.28830   0.01267  Uiso   1.00
C151   C     0.01370   0.08410   0.27300   0.01267  Uiso   1.00
C152   C     0.89310   0.00600   0.27180   0.01267  Uiso   1.00
C153   C     0.62020   0.56630   0.94490   0.01267  Uiso   1.00
C154   C     0.55710   0.53260   0.97480   0.01267  Uiso   1.00
C155   C     0.46740   0.49750   0.95930   0.01267  Uiso   1.00
C156   C     0.58740   0.53670   0.01670   0.01267  Uiso   1.00
C157   C     0.96620   0.52350   0.91650   0.01267  Uiso   1.00
C158   C     0.98320   0.51100   0.95970   0.01267  Uiso   1.00
C159   C     0.91580   0.53580   0.99030   0.01267  Uiso   1.00
C160   C     0.06770   0.47410   0.96940   0.01267  Uiso   1.00
O1     O     0.11900   0.41300   0.68410   0.01267  Uiso   1.00
O2     O     0.28620   0.49860   0.67700   0.01267  Uiso   1.00
O3     O     0.38980   0.42410   0.67850   0.01267  Uiso   1.00
O4     O     0.59510   0.16730   0.35920   0.01267  Uiso   1.00
O5     O     0.40200   0.46790   0.60110   0.01267  Uiso   1.00
O6     O     0.31100   0.40880   0.55380   0.01267  Uiso   1.00
O7     O     0.12090   0.47870   0.60110   0.01267  Uiso   1.00
O8     O     0.97920   0.53780   0.61160   0.01267  Uiso   1.00
O9     O     0.10070   0.35580   0.59790   0.01267  Uiso   1.00
O10    O     0.97530   0.29500   0.61970   0.01267  Uiso   1.00
O11    O     0.82210   0.21050   0.41320   0.01267  Uiso   1.00
O12    O     0.92990   0.27840   0.39580   0.01267  Uiso   1.00
O13    O     0.33110   0.33140   0.62250   0.01267  Uiso   1.00
O14    O     0.39070   0.25430   0.64490   0.01267  Uiso   1.00
O15    O     0.60470   0.17100   0.44570   0.01267  Uiso   1.00
O16    O     0.45780   0.21550   0.42030   0.01267  Uiso   1.00
O17    O     0.74750   0.56410   0.83440   0.01267  Uiso   1.00
O18    O     0.62050   0.63050   0.84320   0.01267  Uiso   1.00
O19    O     0.89140   0.05790   0.40890   0.01267  Uiso   1.00
O20    O     0.81830   0.10840   0.46300   0.01267  Uiso   1.00
O21    O     0.61450   0.05540   0.40920   0.01267  Uiso   1.00
O22    O     0.47030   0.99760   0.38680   0.01267  Uiso   1.00
O23    O     0.61900   0.08700   0.81590   0.01267  Uiso   1.00
O24    O     0.78620   0.00140   0.82300   0.01267  Uiso   1.00
O25    O     0.88980   0.07590   0.82150   0.01267  Uiso   1.00
O26    O     0.09510   0.33270   0.14080   0.01267  Uiso   1.00
O27    O     0.90200   0.03210   0.89890   0.01267  Uiso   1.00
O28    O     0.81100   0.09120   0.94620   0.01267  Uiso   1.00
O29    O     0.62090   0.02130   0.89890   0.01267  Uiso   1.00
O30    O     0.47920   0.96220   0.88840   0.01267  Uiso   1.00
O31    O     0.60070   0.14420   0.90210   0.01267  Uiso   1.00
O32    O     0.47530   0.20500   0.88030   0.01267  Uiso   1.00
O33    O     0.32210   0.28950   0.08680   0.01267  Uiso   1.00
O34    O     0.42990   0.22160   0.10420   0.01267  Uiso   1.00
O35    O     0.83110   0.16860   0.87750   0.01267  Uiso   1.00
O36    O     0.89070   0.24570   0.85510   0.01267  Uiso   1.00
O37    O     0.10470   0.32900   0.05430   0.01267  Uiso   1.00
O38    O     0.95780   0.28450   0.07970   0.01267  Uiso   1.00
O39    O     0.24750   0.93590   0.66560   0.01267  Uiso   1.00
O40    O     0.12050   0.86950   0.65680   0.01267  Uiso   1.00
O41    O     0.39140   0.44210   0.09110   0.01267  Uiso   1.00
O42    O     0.31830   0.39160   0.03700   0.01267  Uiso   1.00
O43    O     0.11450   0.44460   0.09080   0.01267  Uiso   1.00
O44    O     0.97030   0.50240   0.11320   0.01267  Uiso   1.00
O45    O     0.88100   0.58700   0.31590   0.01267  Uiso   1.00
O46    O     0.71380   0.50140   0.32300   0.01267  Uiso   1.00
O47    O     0.61020   0.57590   0.32150   0.01267  Uiso   1.00
O48    O     0.40490   0.83270   0.64080   0.01267  Uiso   1.00
O49    O     0.59800   0.53210   0.39890   0.01267  Uiso   1.00
O50    O     0.68900   0.59120   0.44620   0.01267  Uiso   1.00
O51    O     0.87910   0.52130   0.39890   0.01267  Uiso   1.00
O52    O     0.02080   0.46220   0.38840   0.01267  Uiso   1.00
O53    O     0.89930   0.64420   0.40210   0.01267  Uiso   1.00
O54    O     0.02470   0.70500   0.38030   0.01267  Uiso   1.00
O55    O     0.17790   0.78950   0.58680   0.01267  Uiso   1.00
O56    O     0.07010   0.72160   0.60420   0.01267  Uiso   1.00
O57    O     0.66890   0.66860   0.37750   0.01267  Uiso   1.00
O58    O     0.60930   0.74570   0.35510   0.01267  Uiso   1.00
O59    O     0.39530   0.82900   0.55430   0.01267  Uiso   1.00
O60    O     0.54220   0.78450   0.57970   0.01267  Uiso   1.00
O61    O     0.25250   0.43590   0.16560   0.01267  Uiso   1.00
O62    O     0.37950   0.36950   0.15680   0.01267  Uiso   1.00
O63    O     0.10860   0.94210   0.59110   0.01267  Uiso   1.00
O64    O     0.18170   0.89160   0.53700   0.01267  Uiso   1.00
O65    O     0.38550   0.94460   0.59080   0.01267  Uiso   1.00
O66    O     0.52970   0.00240   0.61320   0.01267  Uiso   1.00
O67    O     0.38100   0.91300   0.18410   0.01267  Uiso   1.00
O68    O     0.21380   0.99860   0.17700   0.01267  Uiso   1.00
O69    O     0.11020   0.92410   0.17850   0.01267  Uiso   1.00
O70    O     0.90490   0.66730   0.85920   0.01267  Uiso   1.00
O71    O     0.09800   0.96790   0.10110   0.01267  Uiso   1.00
O72    O     0.18900   0.90880   0.05380   0.01267  Uiso   1.00
O73    O     0.37910   0.97870   0.10110   0.01267  Uiso   1.00
O74    O     0.52080   0.03780   0.11160   0.01267  Uiso   1.00
O75    O     0.39930   0.85580   0.09790   0.01267  Uiso   1.00
O76    O     0.52470   0.79500   0.11970   0.01267  Uiso   1.00
O77    O     0.67790   0.71050   0.91320   0.01267  Uiso   1.00
O78    O     0.57010   0.77840   0.89580   0.01267  Uiso   1.00
O79    O     0.16890   0.83140   0.12250   0.01267  Uiso   1.00
O80    O     0.10930   0.75430   0.14490   0.01267  Uiso   1.00
O81    O     0.89530   0.67100   0.94570   0.01267  Uiso   1.00
O82    O     0.04220   0.71550   0.92030   0.01267  Uiso   1.00
O83    O     0.75250   0.06410   0.33440   0.01267  Uiso   1.00
O84    O     0.87950   0.13050   0.34320   0.01267  Uiso   1.00
O85    O     0.60860   0.55790   0.90890   0.01267  Uiso   1.00
O86    O     0.68170   0.60840   0.96300   0.01267  Uiso   1.00
O87    O     0.88550   0.55540   0.90920   0.01267  Uiso   1.00
O88    O     0.02970   0.49760   0.88680   0.01267  Uiso   1.00
H81    H     0.17380   0.62800   0.58040   0.01267  Uiso   1.00
H82    H     0.23960   0.56990   0.57510   0.01267  Uiso   1.00
H83    H     0.41550   0.56430   0.62050   0.01267  Uiso   1.00
H84    H     0.31340   0.71580   0.61130   0.01267  Uiso   1.00
H85    H     0.47360   0.72210   0.66080   0.01267  Uiso   1.00
H86    H     0.61140   0.68930   0.70490   0.01267  Uiso   1.00
H87    H     0.78080   0.65530   0.73390   0.01267  Uiso   1.00
H88    H     0.83740   0.56170   0.71170   0.01267  Uiso   1.00
H89    H     0.58140   0.46690   0.62770   0.01267  Uiso   1.00
H90    H     0.89030   0.47310   0.68190   0.01267  Uiso   1.00
H91    H     0.86230   0.37950   0.64890   0.01267  Uiso   1.00
H92    H     0.69700   0.32570   0.60080   0.01267  Uiso   1.00
H93    H     0.57510   0.35630   0.60030   0.01267  Uiso   1.00
H94    H     0.83870   0.40590   0.56110   0.01267  Uiso   1.00
H95    H     0.13200   0.58440   0.50590   0.01267  Uiso   1.00
H96    H     0.53230   0.33760   0.53230   0.01267  Uiso   1.00
H97    H     0.43810   0.65500   0.53810   0.01267  Uiso   1.00
H98    H     0.82620   0.37200   0.41960   0.01267  Uiso   1.00
H99    H     0.76040   0.43010   0.42490   0.01267  Uiso   1.00
H100   H     0.58450   0.43570   0.37950   0.01267  Uiso   1.00
H101   H     0.68660   0.28420   0.38870   0.01267  Uiso   1.00
H102   H     0.52640   0.27790   0.33920   0.01267  Uiso   1.00
H103   H     0.38860   0.31070   0.29510   0.01267  Uiso   1.00
H104   H     0.21920   0.34470   0.26610   0.01267  Uiso   1.00
H105   H     0.16260   0.43830   0.28830   0.01267  Uiso   1.00
H106   H     0.41860   0.53310   0.37230   0.01267  Uiso   1.00
H107   H     0.10970   0.52690   0.31810   0.01267  Uiso   1.00
H108   H     0.13770   0.62050   0.35110   0.01267  Uiso   1.00
H109   H     0.30300   0.67430   0.39920   0.01267  Uiso   1.00
H110   H     0.42490   0.64370   0.39970   0.01267  Uiso   1.00
H111   H     0.16130   0.59410   0.43890   0.01267  Uiso   1.00
H112   H     0.86800   0.41560   0.49410   0.01267  Uiso   1.00
H113   H     0.46770   0.66240   0.46770   0.01267  Uiso   1.00
H114   H     0.56190   0.34500   0.46190   0.01267  Uiso   1.00
C161   C     0.28100   0.61760   0.52900   0.01267  Uiso   1.00
C162   C     0.24900   0.60990   0.57350   0.01267  Uiso   1.00
C163   C     0.41260   0.60350   0.62330   0.01267  Uiso   1.00
C164   C     0.35530   0.68510   0.61850   0.01267  Uiso   1.00
C165   C     0.44400   0.68940   0.64570   0.01267  Uiso   1.00
C166   C     0.58320   0.61770   0.66690   0.01267  Uiso   1.00
C167   C     0.63890   0.65290   0.69660   0.01267  Uiso   1.00
C168   C     0.73760   0.63250   0.71410   0.01267  Uiso   1.00
C169   C     0.77070   0.57750   0.70130   0.01267  Uiso   1.00
C170   C     0.70180   0.54810   0.67310   0.01267  Uiso   1.00
C171   C     0.65560   0.45670   0.63620   0.01267  Uiso   1.00
C172   C     0.82550   0.45940   0.66630   0.01267  Uiso   1.00
C173   C     0.81040   0.40950   0.64830   0.01267  Uiso   1.00
C174   C     0.65910   0.36070   0.59630   0.01267  Uiso   1.00
C175   C     0.68060   0.37080   0.55310   0.01267  Uiso   1.00
C176   C     0.78120   0.39380   0.54170   0.01267  Uiso   1.00
C177   C     0.20190   0.60070   0.49860   0.01267  Uiso   1.00
C178   C     0.60190   0.35360   0.52430   0.01267  Uiso   1.00
C179   C     0.38180   0.64190   0.51850   0.01267  Uiso   1.00
C180   C     0.71900   0.38240   0.47100   0.01267  Uiso   1.00
C181   C     0.75100   0.39010   0.42650   0.01267  Uiso   1.00
C182   C     0.58740   0.39650   0.37670   0.01267  Uiso   1.00
C183   C     0.64470   0.31490   0.38150   0.01267  Uiso   1.00
C184   C     0.55600   0.31060   0.35430   0.01267  Uiso   1.00
C185   C     0.41680   0.38230   0.33310   0.01267  Uiso   1.00
C186   C     0.36110   0.34710   0.30340   0.01267  Uiso   1.00
C187   C     0.26240   0.36750   0.28590   0.01267  Uiso   1.00
C188   C     0.22930   0.42250   0.29870   0.01267  Uiso   1.00
C189   C     0.29820   0.45190   0.32690   0.01267  Uiso   1.00
C190   C     0.34440   0.54330   0.36380   0.01267  Uiso   1.00
C191   C     0.17450   0.54060   0.33370   0.01267  Uiso   1.00
C192   C     0.18960   0.59050   0.35170   0.01267  Uiso   1.00
C193   C     0.34090   0.63930   0.40370   0.01267  Uiso   1.00
C194   C     0.31940   0.62920   0.44690   0.01267  Uiso   1.00
C195   C     0.21880   0.60620   0.45830   0.01267  Uiso   1.00
C196   C     0.79810   0.39930   0.50140   0.01267  Uiso   1.00
C197   C     0.39810   0.64640   0.47570   0.01267  Uiso   1.00
C198   C     0.61820   0.35810   0.48150   0.01267  Uiso   1.00
N1     N     0.33460   0.63250   0.60320   0.01267  Uiso   1.00
N2     N     0.48110   0.63500   0.64630   0.01267  Uiso   1.00
N3     N     0.61080   0.56690   0.65570   0.01267  Uiso   1.00
N4     N     0.72700   0.48900   0.65820   0.01267  Uiso   1.00
N5     N     0.70370   0.40720   0.62770   0.01267  Uiso   1.00
N6     N     0.66540   0.36750   0.39680   0.01267  Uiso   1.00
N7     N     0.51890   0.36500   0.35370   0.01267  Uiso   1.00
N8     N     0.38920   0.43310   0.34430   0.01267  Uiso   1.00
N9     N     0.27300   0.51100   0.34180   0.01267  Uiso   1.00
N10    N     0.29630   0.59280   0.37230   0.01267  Uiso   1.00
H115   H     0.18740   0.19530   0.42080   0.01267  Uiso   1.00
H116   H     0.06410   0.16590   0.42100   0.01267  Uiso   1.00
H117   H     0.06230   0.05810   0.38130   0.01267  Uiso   1.00
H118   H     0.34490   0.14810   0.36370   0.01267  Uiso   1.00
H119   H     0.36360   0.06380   0.32240   0.01267  Uiso   1.00
H120   H     0.31280   0.97970   0.28520   0.01267  Uiso   1.00
H121   H     0.25540   0.88490   0.25630   0.01267  Uiso   1.00
H122   H     0.09180   0.84470   0.28260   0.01267  Uiso   1.00
H123   H     0.90150   0.95810   0.38220   0.01267  Uiso   1.00
H124   H     0.96510   0.80620   0.32210   0.01267  Uiso   1.00
H125   H     0.79500   0.79810   0.36600   0.01267  Uiso   1.00
H126   H     0.65860   0.88070   0.41210   0.01267  Uiso   1.00
H127   H     0.72030   0.93940   0.42270   0.01267  Uiso   1.00
H128   H     0.62620   0.90930   0.48320   0.01267  Uiso   1.00
H129   H     0.67120   0.89520   0.55430   0.01267  Uiso   1.00
H130   H     0.03230   0.17430   0.48950   0.01267  Uiso   1.00
H131   H     0.92970   0.85240   0.44890   0.01267  Uiso   1.00
H132   H     0.81260   0.80470   0.57920   0.01267  Uiso   1.00
H133   H     0.93590   0.83410   0.57900   0.01267  Uiso   1.00
H134   H     0.93770   0.94190   0.61870   0.01267  Uiso   1.00
H135   H     0.65510   0.85190   0.63630   0.01267  Uiso   1.00
H136   H     0.63640   0.93620   0.67760   0.01267  Uiso   1.00
H137   H     0.68720   0.02030   0.71480   0.01267  Uiso   1.00
H138   H     0.74460   0.11510   0.74370   0.01267  Uiso   1.00
H139   H     0.90820   0.15530   0.71740   0.01267  Uiso   1.00
H140   H     0.09850   0.04190   0.61780   0.01267  Uiso   1.00
H141   H     0.03490   0.19380   0.67790   0.01267  Uiso   1.00
H142   H     0.20500   0.20190   0.63400   0.01267  Uiso   1.00
H143   H     0.34140   0.11930   0.58790   0.01267  Uiso   1.00
H144   H     0.27970   0.06060   0.57730   0.01267  Uiso   1.00
H145   H     0.37380   0.09070   0.51680   0.01267  Uiso   1.00
H146   H     0.32880   0.10480   0.44570   0.01267  Uiso   1.00
H147   H     0.96770   0.82570   0.51050   0.01267  Uiso   1.00
H148   H     0.07030   0.14760   0.55110   0.01267  Uiso   1.00
C199   C     0.14830   0.15950   0.42250   0.01267  Uiso   1.00
C200   C     0.13510   0.06960   0.37240   0.01267  Uiso   1.00
C201   C     0.29180   0.11820   0.36190   0.01267  Uiso   1.00
C202   C     0.30080   0.07390   0.34000   0.01267  Uiso   1.00
C203   C     0.17770   0.98510   0.32590   0.01267  Uiso   1.00
C204   C     0.24820   0.96130   0.29470   0.01267  Uiso   1.00
C205   C     0.21290   0.90460   0.27780   0.01267  Uiso   1.00
C206   C     0.11800   0.88050   0.29320   0.01267  Uiso   1.00
C207   C     0.06260   0.91340   0.32680   0.01267  Uiso   1.00
C208   C     0.89540   0.91960   0.37310   0.01267  Uiso   1.00
C209   C     0.93000   0.83530   0.33950   0.01267  Uiso   1.00
C210   C     0.83800   0.83070   0.36390   0.01267  Uiso   1.00
C211   C     0.73330   0.89900   0.41960   0.01267  Uiso   1.00
C212   C     0.77190   0.88300   0.46000   0.01267  Uiso   1.00
C213   C     0.69880   0.89410   0.48910   0.01267  Uiso   1.00
C214   C     0.72340   0.88400   0.53290   0.01267  Uiso   1.00
C215   C     0.17460   0.14220   0.46120   0.01267  Uiso   1.00
C216   C     0.10180   0.15500   0.49320   0.01267  Uiso   1.00
C217   C     0.87300   0.85940   0.46940   0.01267  Uiso   1.00
C218   C     0.85170   0.84050   0.57750   0.01267  Uiso   1.00
C219   C     0.86490   0.93040   0.62760   0.01267  Uiso   1.00
C220   C     0.70820   0.88180   0.63810   0.01267  Uiso   1.00
C221   C     0.69920   0.92610   0.66000   0.01267  Uiso   1.00
C222   C     0.82230   0.01490   0.67410   0.01267  Uiso   1.00
C223   C     0.75180   0.03870   0.70530   0.01267  Uiso   1.00
C224   C     0.78710   0.09540   0.72220   0.01267  Uiso   1.00
C225   C     0.88200   0.11950   0.70680   0.01267  Uiso   1.00
C226   C     0.93740   0.08660   0.67320   0.01267  Uiso   1.00
C227   C     0.10460   0.08040   0.62690   0.01267  Uiso   1.00
C228   C     0.07000   0.16470   0.66050   0.01267  Uiso   1.00
C229   C     0.16200   0.16930   0.63610   0.01267  Uiso   1.00
C230   C     0.26670   0.10100   0.58040   0.01267  Uiso   1.00
C231   C     0.22810   0.11700   0.54000   0.01267  Uiso   1.00
C232   C     0.30120   0.10590   0.51090   0.01267  Uiso   1.00
C233   C     0.27660   0.11600   0.46710   0.01267  Uiso   1.00
C234   C     0.82540   0.85780   0.53880   0.01267  Uiso   1.00
C235   C     0.89820   0.84500   0.50680   0.01267  Uiso   1.00
C236   C     0.12700   0.14060   0.53060   0.01267  Uiso   1.00
N11    N     0.18550   0.11700   0.38470   0.01267  Uiso   1.00
N12    N     0.20400   0.03990   0.34490   0.01267  Uiso   1.00
N13    N     0.08650   0.96360   0.34280   0.01267  Uiso   1.00
N14    N     0.96220   0.88870   0.34450   0.01267  Uiso   1.00
N15    N     0.81900   0.88340   0.38550   0.01267  Uiso   1.00
N16    N     0.81450   0.88300   0.61530   0.01267  Uiso   1.00
N17    N     0.79600   0.96010   0.65510   0.01267  Uiso   1.00
N18    N     0.91350   0.03640   0.65720   0.01267  Uiso   1.00
N19    N     0.03780   0.11130   0.65550   0.01267  Uiso   1.00
N20    N     0.18100   0.11660   0.61450   0.01267  Uiso   1.00
H149   H     0.67380   0.87200   0.91960   0.01267  Uiso   1.00
H150   H     0.73960   0.93010   0.92490   0.01267  Uiso   1.00
H151   H     0.91550   0.93570   0.87950   0.01267  Uiso   1.00
H152   H     0.81340   0.78420   0.88870   0.01267  Uiso   1.00
H153   H     0.97360   0.77790   0.83920   0.01267  Uiso   1.00
H154   H     0.11140   0.81070   0.79510   0.01267  Uiso   1.00
H155   H     0.28080   0.84470   0.76610   0.01267  Uiso   1.00
H156   H     0.33740   0.93830   0.78830   0.01267  Uiso   1.00
H157   H     0.08140   0.03310   0.87230   0.01267  Uiso   1.00
H158   H     0.39030   0.02690   0.81810   0.01267  Uiso   1.00
H159   H     0.36230   0.12050   0.85110   0.01267  Uiso   1.00
H160   H     0.19700   0.17430   0.89920   0.01267  Uiso   1.00
H161   H     0.07510   0.14370   0.89970   0.01267  Uiso   1.00
H162   H     0.33870   0.09410   0.93890   0.01267  Uiso   1.00
H163   H     0.63200   0.91560   0.99410   0.01267  Uiso   1.00
H164   H     0.03230   0.16240   0.96770   0.01267  Uiso   1.00
H165   H     0.93810   0.84500   0.96190   0.01267  Uiso   1.00
H166   H     0.32620   0.12800   0.08040   0.01267  Uiso   1.00
H167   H     0.26040   0.06990   0.07510   0.01267  Uiso   1.00
H168   H     0.08450   0.06430   0.12050   0.01267  Uiso   1.00
H169   H     0.18660   0.21580   0.11130   0.01267  Uiso   1.00
H170   H     0.02640   0.22210   0.16080   0.01267  Uiso   1.00
H171   H     0.88860   0.18930   0.20490   0.01267  Uiso   1.00
H172   H     0.71920   0.15530   0.23390   0.01267  Uiso   1.00
H173   H     0.66260   0.06170   0.21170   0.01267  Uiso   1.00
H174   H     0.91860   0.96690   0.12770   0.01267  Uiso   1.00
H175   H     0.60970   0.97310   0.18190   0.01267  Uiso   1.00
H176   H     0.63770   0.87950   0.14890   0.01267  Uiso   1.00
H177   H     0.80300   0.82570   0.10080   0.01267  Uiso   1.00
H178   H     0.92490   0.85630   0.10030   0.01267  Uiso   1.00
H179   H     0.66130   0.90590   0.06110   0.01267  Uiso   1.00
H180   H     0.36800   0.08440   0.00590   0.01267  Uiso   1.00
H181   H     0.96770   0.83760   0.03230   0.01267  Uiso   1.00
H182   H     0.06190   0.15500   0.03810   0.01267  Uiso   1.00
C237   C     0.78100   0.88240   0.97100   0.01267  Uiso   1.00
C238   C     0.74900   0.89010   0.92650   0.01267  Uiso   1.00
C239   C     0.91260   0.89650   0.87670   0.01267  Uiso   1.00
C240   C     0.85530   0.81490   0.88150   0.01267  Uiso   1.00
C241   C     0.94400   0.81060   0.85430   0.01267  Uiso   1.00
C242   C     0.08320   0.88230   0.83310   0.01267  Uiso   1.00
C243   C     0.13890   0.84710   0.80340   0.01267  Uiso   1.00
C244   C     0.23760   0.86750   0.78590   0.01267  Uiso   1.00
C245   C     0.27070   0.92250   0.79870   0.01267  Uiso   1.00
C246   C     0.20180   0.95190   0.82690   0.01267  Uiso   1.00
C247   C     0.15560   0.04330   0.86380   0.01267  Uiso   1.00
C248   C     0.32550   0.04060   0.83370   0.01267  Uiso   1.00
C249   C     0.31040   0.09050   0.85170   0.01267  Uiso   1.00
C250   C     0.15910   0.13930   0.90370   0.01267  Uiso   1.00
C251   C     0.18060   0.12920   0.94690   0.01267  Uiso   1.00
C252   C     0.28120   0.10620   0.95830   0.01267  Uiso   1.00
C253   C     0.70190   0.89930   0.00140   0.01267  Uiso   1.00
C254   C     0.10190   0.14640   0.97570   0.01267  Uiso   1.00
C255   C     0.88180   0.85810   0.98150   0.01267  Uiso   1.00
C256   C     0.21900   0.11760   0.02900   0.01267  Uiso   1.00
C257   C     0.25100   0.10990   0.07350   0.01267  Uiso   1.00
C258   C     0.08740   0.10350   0.12330   0.01267  Uiso   1.00
C259   C     0.14470   0.18510   0.11850   0.01267  Uiso   1.00
C260   C     0.05600   0.18940   0.14570   0.01267  Uiso   1.00
C261   C     0.91680   0.11770   0.16690   0.01267  Uiso   1.00
C262   C     0.86110   0.15290   0.19660   0.01267  Uiso   1.00
C263   C     0.76240   0.13250   0.21410   0.01267  Uiso   1.00
C264   C     0.72930   0.07750   0.20130   0.01267  Uiso   1.00
C265   C     0.79820   0.04810   0.17310   0.01267  Uiso   1.00
C266   C     0.84440   0.95670   0.13620   0.01267  Uiso   1.00
C267   C     0.67450   0.95940   0.16630   0.01267  Uiso   1.00
C268   C     0.68960   0.90950   0.14830   0.01267  Uiso   1.00
C269   C     0.84090   0.86070   0.09630   0.01267  Uiso   1.00
C270   C     0.81940   0.87080   0.05310   0.01267  Uiso   1.00
C271   C     0.71880   0.89380   0.04170   0.01267  Uiso   1.00
C272   C     0.29810   0.10070   0.99860   0.01267  Uiso   1.00
C273   C     0.89810   0.85360   0.02430   0.01267  Uiso   1.00
C274   C     0.11820   0.14190   0.01850   0.01267  Uiso   1.00
N21    N     0.83460   0.86750   0.89680   0.01267  Uiso   1.00
N22    N     0.98110   0.86500   0.85370   0.01267  Uiso   1.00
N23    N     0.11080   0.93310   0.84430   0.01267  Uiso   1.00
N24    N     0.22700   0.01100   0.84180   0.01267  Uiso   1.00
N25    N     0.20370   0.09280   0.87230   0.01267  Uiso   1.00
N26    N     0.16540   0.13250   0.10320   0.01267  Uiso   1.00
N27    N     0.01890   0.13500   0.14630   0.01267  Uiso   1.00
N28    N     0.88920   0.06690   0.15570   0.01267  Uiso   1.00
N29    N     0.77300   0.98900   0.15820   0.01267  Uiso   1.00
N30    N     0.79630   0.90720   0.12770   0.01267  Uiso   1.00
H183   H     0.68740   0.30470   0.07920   0.01267  Uiso   1.00
H184   H     0.56410   0.33410   0.07900   0.01267  Uiso   1.00
H185   H     0.56230   0.44190   0.11870   0.01267  Uiso   1.00
H186   H     0.84490   0.35190   0.13630   0.01267  Uiso   1.00
H187   H     0.86360   0.43620   0.17760   0.01267  Uiso   1.00
H188   H     0.81280   0.52030   0.21480   0.01267  Uiso   1.00
H189   H     0.75540   0.61510   0.24370   0.01267  Uiso   1.00
H190   H     0.59180   0.65530   0.21740   0.01267  Uiso   1.00
H191   H     0.40150   0.54190   0.11780   0.01267  Uiso   1.00
H192   H     0.46510   0.69380   0.17790   0.01267  Uiso   1.00
H193   H     0.29500   0.70190   0.13400   0.01267  Uiso   1.00
H194   H     0.15860   0.61930   0.08790   0.01267  Uiso   1.00
H195   H     0.22030   0.56060   0.07730   0.01267  Uiso   1.00
H196   H     0.12620   0.59070   0.01680   0.01267  Uiso   1.00
H197   H     0.17120   0.60480   0.94570   0.01267  Uiso   1.00
H198   H     0.53230   0.32570   0.01050   0.01267  Uiso   1.00
H199   H     0.42970   0.64760   0.05110   0.01267  Uiso   1.00
H200   H     0.31260   0.69530   0.92080   0.01267  Uiso   1.00
H201   H     0.43590   0.66590   0.92100   0.01267  Uiso   1.00
H202   H     0.43770   0.55810   0.88130   0.01267  Uiso   1.00
H203   H     0.15510   0.64810   0.86370   0.01267  Uiso   1.00
H204   H     0.13640   0.56380   0.82240   0.01267  Uiso   1.00
H205   H     0.18720   0.47970   0.78520   0.01267  Uiso   1.00
H206   H     0.24460   0.38490   0.75630   0.01267  Uiso   1.00
H207   H     0.40820   0.34470   0.78260   0.01267  Uiso   1.00
H208   H     0.59850   0.45810   0.88220   0.01267  Uiso   1.00
H209   H     0.53490   0.30620   0.82210   0.01267  Uiso   1.00
H210   H     0.70500   0.29810   0.86600   0.01267  Uiso   1.00
H211   H     0.84140   0.38070   0.91210   0.01267  Uiso   1.00
H212   H     0.77970   0.43940   0.92270   0.01267  Uiso   1.00
H213   H     0.87380   0.40930   0.98320   0.01267  Uiso   1.00
H214   H     0.82880   0.39520   0.05430   0.01267  Uiso   1.00
H215   H     0.46770   0.67430   0.98950   0.01267  Uiso   1.00
H216   H     0.57030   0.35240   0.94890   0.01267  Uiso   1.00
C275   C     0.64830   0.34050   0.07750   0.01267  Uiso   1.00
C276   C     0.63510   0.43040   0.12760   0.01267  Uiso   1.00
C277   C     0.79180   0.38180   0.13810   0.01267  Uiso   1.00
C278   C     0.80080   0.42610   0.16000   0.01267  Uiso   1.00
C279   C     0.67770   0.51490   0.17410   0.01267  Uiso   1.00
C280   C     0.74820   0.53870   0.20530   0.01267  Uiso   1.00
C281   C     0.71290   0.59540   0.22220   0.01267  Uiso   1.00
C282   C     0.61800   0.61950   0.20680   0.01267  Uiso   1.00
C283   C     0.56260   0.58660   0.17320   0.01267  Uiso   1.00
C284   C     0.39540   0.58040   0.12690   0.01267  Uiso   1.00
C285   C     0.43000   0.66470   0.16050   0.01267  Uiso   1.00
C286   C     0.33800   0.66930   0.13610   0.01267  Uiso   1.00
C287   C     0.23330   0.60100   0.08040   0.01267  Uiso   1.00
C288   C     0.27190   0.61700   0.04000   0.01267  Uiso   1.00
C289   C     0.19880   0.60590   0.01090   0.01267  Uiso   1.00
C290   C     0.22340   0.61600   0.96710   0.01267  Uiso   1.00
C291   C     0.67460   0.35780   0.03880   0.01267  Uiso   1.00
C292   C     0.60180   0.34500   0.00680   0.01267  Uiso   1.00
C293   C     0.37300   0.64060   0.03060   0.01267  Uiso   1.00
C294   C     0.35170   0.65950   0.92250   0.01267  Uiso   1.00
C295   C     0.36490   0.56960   0.87240   0.01267  Uiso   1.00
C296   C     0.20820   0.61820   0.86190   0.01267  Uiso   1.00
C297   C     0.19920   0.57390   0.84000   0.01267  Uiso   1.00
C298   C     0.32230   0.48510   0.82590   0.01267  Uiso   1.00
C299   C     0.25180   0.46130   0.79470   0.01267  Uiso   1.00
C300   C     0.28710   0.40460   0.77780   0.01267  Uiso   1.00
C301   C     0.38200   0.38050   0.79320   0.01267  Uiso   1.00
C302   C     0.43740   0.41340   0.82680   0.01267  Uiso   1.00
C303   C     0.60460   0.41960   0.87310   0.01267  Uiso   1.00
C304   C     0.57000   0.33530   0.83950   0.01267  Uiso   1.00
C305   C     0.66200   0.33070   0.86390   0.01267  Uiso   1.00
C306   C     0.76670   0.39900   0.91960   0.01267  Uiso   1.00
C307   C     0.72810   0.38300   0.96000   0.01267  Uiso   1.00
C308   C     0.80120   0.39410   0.98910   0.01267  Uiso   1.00
C309   C     0.77660   0.38400   0.03290   0.01267  Uiso   1.00
C310   C     0.32540   0.64220   0.96120   0.01267  Uiso   1.00
C311   C     0.39820   0.65500   0.99320   0.01267  Uiso   1.00
C312   C     0.62700   0.35940   0.96940   0.01267  Uiso   1.00
N31    N     0.68550   0.38300   0.11530   0.01267  Uiso   1.00
N32    N     0.70400   0.46010   0.15510   0.01267  Uiso   1.00
N33    N     0.58650   0.53640   0.15720   0.01267  Uiso   1.00
N34    N     0.46220   0.61130   0.15550   0.01267  Uiso   1.00
N35    N     0.31900   0.61660   0.11450   0.01267  Uiso   1.00
N36    N     0.31450   0.61700   0.88470   0.01267  Uiso   1.00
N37    N     0.29600   0.53990   0.84490   0.01267  Uiso   1.00
N38    N     0.41350   0.46360   0.84280   0.01267  Uiso   1.00
N39    N     0.53780   0.38870   0.84450   0.01267  Uiso   1.00
N40    N     0.68100   0.38340   0.88550   0.01267  Uiso   1.00
