data_image0
_cell_length_a       23.47
_cell_length_b       22.051
_cell_length_c       52.645
_cell_angle_alpha    90
_cell_angle_beta     90
_cell_angle_gamma    90

_symmetry_space_group_name_H-M    "P 1"
_symmetry_int_tables_number       1

loop_
  _symmetry_equiv_pos_as_xyz
  'x, y, z'

loop_
  _atom_site_label
  _atom_site_occupancy
  _atom_site_fract_x
  _atom_site_fract_y
  _atom_site_fract_z
  _atom_site_thermal_displace_type
  _atom_site_B_iso_or_equiv
  _atom_site_type_symbol
  Cu1      1.0000 0.46416  0.92484  0.13644  Biso   1.000  Cu
  C1       1.0000 0.29264  0.99331  0.97558  Biso   1.000  C
  Cu2      1.0000 0.44759  0.72608  0.10342  Biso   1.000  Cu
  C2       1.0000 0.24750  0.94938  0.97937  Biso   1.000  C
  C3       1.0000 0.24403  0.99262  0.95925  Biso   1.000  C
  C4       1.0000 0.34357  0.01577  0.98336  Biso   1.000  C
  C5       1.0000 0.22599  0.90205  0.99231  Biso   1.000  C
  C6       1.0000 0.21457  0.01816  0.93971  Biso   1.000  C
  C7       1.0000 0.44274  0.14267  0.96544  Biso   1.000  C
  H1       1.0000 0.46770  0.17070  0.97340  Biso   1.000  H
  C8       1.0000 0.37615  0.05928  0.96820  Biso   1.000  C
  C9       1.0000 0.37165  0.05914  0.94153  Biso   1.000  C
  H2       1.0000 0.34830  0.02980  0.93340  Biso   1.000  H
  C10      1.0000 0.40110  0.10149  0.92701  Biso   1.000  C
  H3       1.0000 0.39680  0.10210  0.90910  Biso   1.000  H
  C11      1.0000 0.43675  0.14269  0.93883  Biso   1.000  C
  C12      1.0000 0.46719  0.18589  0.92367  Biso   1.000  C
  N1       1.0000 0.49238  0.21941  0.91170  Biso   1.000  N
  C13      1.0000 0.41241  0.10217  0.97975  Biso   1.000  C
  H4       1.0000 0.41580  0.10290  0.99770  Biso   1.000  H
  C14      1.0000 0.36506  0.99649  0.00871  Biso   1.000  C
  C15      1.0000 0.42198  0.97982  0.01241  Biso   1.000  C
  H5       1.0000 0.44740  0.97970  0.99840  Biso   1.000  H
  C16      1.0000 0.44173  0.96343  0.03625  Biso   1.000  C
  H6       1.0000 0.48050  0.95260  0.03860  Biso   1.000  H
  C17      1.0000 0.40422  0.96310  0.05652  Biso   1.000  C
  C18      1.0000 0.42395  0.94792  0.08120  Biso   1.000  C
  N2       1.0000 0.44053  0.93639  0.10127  Biso   1.000  N
  C19      1.0000 0.34628  0.97968  0.05322  Biso   1.000  C
  H7       1.0000 0.32070  0.97940  0.06720  Biso   1.000  H
  C20      1.0000 0.32776  0.99623  0.02938  Biso   1.000  C
  H8       1.0000 0.28910  0.00760  0.02700  Biso   1.000  H
  C21      1.0000 0.25898  0.87016  0.01168  Biso   1.000  C
  C22      1.0000 0.31803  0.85992  0.00778  Biso   1.000  C
  H9       1.0000 0.33590  0.87400  0.99270  Biso   1.000  H
  C23      1.0000 0.34987  0.82920  0.02602  Biso   1.000  C
  H10      1.0000 0.38930  0.82190  0.02340  Biso   1.000  H
  C24      1.0000 0.32331  0.80924  0.04811  Biso   1.000  C
  C25      1.0000 0.35675  0.77639  0.06699  Biso   1.000  C
  N3       1.0000 0.38328  0.75218  0.08169  Biso   1.000  N
  C26      1.0000 0.26491  0.81720  0.05163  Biso   1.000  C
  H11      1.0000 0.24670  0.80100  0.06620  Biso   1.000  H
  C27      1.0000 0.23425  0.84837  0.03402  Biso   1.000  C
  H12      1.0000 0.19490  0.85550  0.03700  Biso   1.000  H
  C28      1.0000 0.16725  0.88173  0.98705  Biso   1.000  C
  C29      1.0000 0.15420  0.81926  0.98624  Biso   1.000  C
  H13      1.0000 0.18340  0.79030  0.98920  Biso   1.000  H
  C30      1.0000 0.09890  0.79966  0.98120  Biso   1.000  C
  H14      1.0000 0.09060  0.75750  0.98040  Biso   1.000  H
  C31      1.0000 0.05560  0.84250  0.97736  Biso   1.000  C
  C32      1.0000 0.99864  0.81980  0.97325  Biso   1.000  C
  N4       1.0000 0.95335  0.80300  0.96951  Biso   1.000  N
  C33      1.0000 0.06825  0.90354  0.97869  Biso   1.000  C
  H15      1.0000 0.03870  0.93230  0.97620  Biso   1.000  H
  C34      1.0000 0.12249  0.92360  0.98349  Biso   1.000  C
  H16      1.0000 0.13000  0.96590  0.98440  Biso   1.000  H
  C35      1.0000 0.16367  0.98655  0.92964  Biso   1.000  C
  C36      1.0000 0.16493  0.92443  0.92650  Biso   1.000  C
  H17      1.0000 0.19940  0.90310  0.92960  Biso   1.000  H
  C37      1.0000 0.11700  0.89251  0.91893  Biso   1.000  C
  H18      1.0000 0.11840  0.84970  0.91700  Biso   1.000  H
  C38      1.0000 0.06617  0.92452  0.91409  Biso   1.000  C
  C39      1.0000 0.01690  0.88997  0.90826  Biso   1.000  C
  N5       1.0000 0.97990  0.85650  0.90423  Biso   1.000  N
  C40      1.0000 0.06473  0.98804  0.91662  Biso   1.000  C
  H19      1.0000 0.03050  0.00960  0.91330  Biso   1.000  H
  C41      1.0000 0.11352  0.01917  0.92394  Biso   1.000  C
  H20      1.0000 0.11310  0.06220  0.92510  Biso   1.000  H
  C42      1.0000 0.23280  0.07678  0.92944  Biso   1.000  C
  C43      1.0000 0.23088  0.08954  0.90308  Biso   1.000  C
  H21      1.0000 0.21590  0.06020  0.89170  Biso   1.000  H
  C44      1.0000 0.25039  0.14387  0.89392  Biso   1.000  C
  H22      1.0000 0.24980  0.15160  0.87620  Biso   1.000  H
  C45      1.0000 0.27115  0.18774  0.91055  Biso   1.000  C
  C46      1.0000 0.29061  0.24462  0.90109  Biso   1.000  C
  N6       1.0000 0.30602  0.29120  0.89356  Biso   1.000  N
  C47      1.0000 0.27221  0.17683  0.93666  Biso   1.000  C
  H23      1.0000 0.28580  0.20710  0.94800  Biso   1.000  H
  C48      1.0000 0.25336  0.12170  0.94587  Biso   1.000  C
  H24      1.0000 0.25430  0.11410  0.96360  Biso   1.000  H
  C49      1.0000 0.69690  0.19829  0.22908  Biso   1.000  C
  C50      1.0000 0.74135  0.20172  0.21057  Biso   1.000  C
  C51      1.0000 0.74226  0.24051  0.23245  Biso   1.000  C
  C52      1.0000 0.64615  0.17359  0.23708  Biso   1.000  C
  C53      1.0000 0.76541  0.18213  0.18881  Biso   1.000  C
  C54      1.0000 0.76461  0.28726  0.24565  Biso   1.000  C
  C55      1.0000 0.62805  0.18304  0.26336  Biso   1.000  C
  C56      1.0000 0.66903  0.18767  0.28264  Biso   1.000  C
  H25      1.0000 0.70810  0.18280  0.27850  Biso   1.000  H
  C57      1.0000 0.65393  0.19924  0.30764  Biso   1.000  C
  H26      1.0000 0.68240  0.20280  0.32040  Biso   1.000  H
  C58      1.0000 0.59689  0.20554  0.31390  Biso   1.000  C
  C59      1.0000 0.57954  0.21739  0.33950  Biso   1.000  C
  N7       1.0000 0.56733  0.22588  0.36023  Biso   1.000  N
  C60      1.0000 0.55428  0.19889  0.29506  Biso   1.000  C
  H27      1.0000 0.51510  0.20180  0.29950  Biso   1.000  H
  C61      1.0000 0.57036  0.18803  0.27014  Biso   1.000  C
  H28      1.0000 0.54190  0.18390  0.25740  Biso   1.000  H
  C62      1.0000 0.61136  0.13897  0.21915  Biso   1.000  C
  C63      1.0000 0.58183  0.08675  0.22663  Biso   1.000  C
  H29      1.0000 0.58300  0.07430  0.24390  Biso   1.000  H
  C64      1.0000 0.55102  0.05316  0.20934  Biso   1.000  C
  H30      1.0000 0.53090  0.01810  0.21480  Biso   1.000  H
  C65      1.0000 0.54949  0.07079  0.18376  Biso   1.000  C
  C66      1.0000 0.51981  0.03306  0.16593  Biso   1.000  C
  N8       1.0000 0.49766  0.99936  0.15248  Biso   1.000  N
  C67      1.0000 0.57677  0.12384  0.17614  Biso   1.000  C
  H31      1.0000 0.57400  0.13710  0.15900  Biso   1.000  H
  C68      1.0000 0.60787  0.15718  0.19351  Biso   1.000  C
  H32      1.0000 0.62710  0.19280  0.18810  Biso   1.000  H
  C69      1.0000 0.74295  0.12767  0.17609  Biso   1.000  C
  C70      1.0000 0.72050  0.07923  0.19032  Biso   1.000  C
  H33      1.0000 0.72310  0.08010  0.20830  Biso   1.000  H
  C71      1.0000 0.69494  0.03080  0.17854  Biso   1.000  C
  H34      1.0000 0.67960  0.99840  0.18830  Biso   1.000  H
  C72      1.0000 0.69167  0.02957  0.15220  Biso   1.000  C
  C73      1.0000 0.66221  0.98063  0.13963  Biso   1.000  C
  N9       1.0000 0.63745  0.94262  0.12952  Biso   1.000  N
  C74      1.0000 0.71616  0.07634  0.13756  Biso   1.000  C
  H35      1.0000 0.71460  0.07470  0.11950  Biso   1.000  H
  C75      1.0000 0.74208  0.12389  0.14930  Biso   1.000  C
  H36      1.0000 0.75970  0.15470  0.13940  Biso   1.000  H
  C76      1.0000 0.81209  0.21786  0.17731  Biso   1.000  C
  C77      1.0000 0.86074  0.19108  0.16746  Biso   1.000  C
  H37      1.0000 0.86400  0.14810  0.16730  Biso   1.000  H
  C78      1.0000 0.90485  0.22637  0.15787  Biso   1.000  C
  H38      1.0000 0.93890  0.20800  0.15180  Biso   1.000  H
  C79      1.0000 0.89832  0.28955  0.15726  Biso   1.000  C
  C80      1.0000 0.94403  0.32746  0.14860  Biso   1.000  C
  N10      1.0000 0.97872  0.36053  0.14212  Biso   1.000  N
  C81      1.0000 0.84829  0.31668  0.16632  Biso   1.000  C
  H39      1.0000 0.84340  0.35940  0.16540  Biso   1.000  H
  C82      1.0000 0.80635  0.28071  0.17662  Biso   1.000  C
  H40      1.0000 0.77300  0.29900  0.18340  Biso   1.000  H
  C83      1.0000 0.82023  0.31441  0.23878  Biso   1.000  C
  C84      1.0000 0.86591  0.27664  0.23157  Biso   1.000  C
  H41      1.0000 0.86110  0.23390  0.23130  Biso   1.000  H
  C85      1.0000 0.91789  0.30182  0.22483  Biso   1.000  C
  H42      1.0000 0.94880  0.27650  0.22000  Biso   1.000  H
  C86      1.0000 0.92429  0.36378  0.22525  Biso   1.000  C
  C87      1.0000 0.97717  0.39180  0.21844  Biso   1.000  C
  N11      1.0000 0.01930  0.41701  0.21240  Biso   1.000  N
  C88      1.0000 0.87948  0.40235  0.23234  Biso   1.000  C
  H43      1.0000 0.88430  0.44510  0.23220  Biso   1.000  H
  C89      1.0000 0.82776  0.37668  0.23962  Biso   1.000  C
  H44      1.0000 0.79750  0.40200  0.24520  Biso   1.000  H
  C90      1.0000 0.73118  0.31538  0.26645  Biso   1.000  C
  C91      1.0000 0.75721  0.33350  0.28884  Biso   1.000  C
  H45      1.0000 0.79740  0.32980  0.29060  Biso   1.000  H
  C92      1.0000 0.72530  0.35691  0.30874  Biso   1.000  C
  H46      1.0000 0.74340  0.36910  0.32410  Biso   1.000  H
  C93      1.0000 0.66628  0.36229  0.30598  Biso   1.000  C
  C94      1.0000 0.63103  0.38414  0.32638  Biso   1.000  C
  N12      1.0000 0.60146  0.40126  0.34196  Biso   1.000  N
  C95      1.0000 0.63896  0.34484  0.28324  Biso   1.000  C
  H47      1.0000 0.59890  0.34900  0.28130  Biso   1.000  H
  C96      1.0000 0.67205  0.32143  0.26381  Biso   1.000  C
  H48      1.0000 0.65430  0.30930  0.24840  Biso   1.000  H
  Cu3      1.0000 0.03584  0.07516  0.63644  Biso   1.000  Cu
  C97      1.0000 0.20736  0.00669  0.47558  Biso   1.000  C
  Cu4      1.0000 0.05241  0.27392  0.60342  Biso   1.000  Cu
  C98      1.0000 0.25250  0.05062  0.47937  Biso   1.000  C
  C99      1.0000 0.25597  0.00738  0.45925  Biso   1.000  C
  C100     1.0000 0.15643  0.98423  0.48336  Biso   1.000  C
  C101     1.0000 0.27401  0.09795  0.49231  Biso   1.000  C
  C102     1.0000 0.28543  0.98184  0.43971  Biso   1.000  C
  C103     1.0000 0.05726  0.85733  0.46544  Biso   1.000  C
  H49      1.0000 0.03230  0.82930  0.47340  Biso   1.000  H
  C104     1.0000 0.12385  0.94072  0.46820  Biso   1.000  C
  C105     1.0000 0.12835  0.94086  0.44153  Biso   1.000  C
  H50      1.0000 0.15170  0.97020  0.43340  Biso   1.000  H
  C106     1.0000 0.09890  0.89851  0.42701  Biso   1.000  C
  H51      1.0000 0.10320  0.89790  0.40910  Biso   1.000  H
  C107     1.0000 0.06325  0.85731  0.43883  Biso   1.000  C
  C108     1.0000 0.03281  0.81411  0.42367  Biso   1.000  C
  N13      1.0000 0.00762  0.78059  0.41170  Biso   1.000  N
  C109     1.0000 0.08759  0.89783  0.47975  Biso   1.000  C
  H52      1.0000 0.08420  0.89710  0.49770  Biso   1.000  H
  C110     1.0000 0.13494  0.00351  0.50871  Biso   1.000  C
  C111     1.0000 0.07802  0.02018  0.51241  Biso   1.000  C
  H53      1.0000 0.05260  0.02030  0.49840  Biso   1.000  H
  C112     1.0000 0.05827  0.03657  0.53625  Biso   1.000  C
  H54      1.0000 0.01950  0.04740  0.53860  Biso   1.000  H
  C113     1.0000 0.09578  0.03690  0.55652  Biso   1.000  C
  C114     1.0000 0.07605  0.05208  0.58120  Biso   1.000  C
  N14      1.0000 0.05947  0.06361  0.60127  Biso   1.000  N
  C115     1.0000 0.15372  0.02032  0.55322  Biso   1.000  C
  H55      1.0000 0.17930  0.02060  0.56720  Biso   1.000  H
  C116     1.0000 0.17224  0.00377  0.52938  Biso   1.000  C
  H56      1.0000 0.21090  0.99240  0.52700  Biso   1.000  H
  C117     1.0000 0.24102  0.12984  0.51168  Biso   1.000  C
  C118     1.0000 0.18197  0.14008  0.50778  Biso   1.000  C
  H57      1.0000 0.16410  0.12600  0.49270  Biso   1.000  H
  C119     1.0000 0.15013  0.17080  0.52602  Biso   1.000  C
  H58      1.0000 0.11070  0.17810  0.52340  Biso   1.000  H
  C120     1.0000 0.17669  0.19076  0.54811  Biso   1.000  C
  C121     1.0000 0.14325  0.22361  0.56699  Biso   1.000  C
  N15      1.0000 0.11672  0.24782  0.58169  Biso   1.000  N
  C122     1.0000 0.23509  0.18280  0.55163  Biso   1.000  C
  H59      1.0000 0.25330  0.19900  0.56620  Biso   1.000  H
  C123     1.0000 0.26575  0.15163  0.53402  Biso   1.000  C
  H60      1.0000 0.30510  0.14450  0.53700  Biso   1.000  H
  C124     1.0000 0.33275  0.11827  0.48705  Biso   1.000  C
  C125     1.0000 0.34580  0.18074  0.48624  Biso   1.000  C
  H61      1.0000 0.31660  0.20970  0.48920  Biso   1.000  H
  C126     1.0000 0.40110  0.20034  0.48120  Biso   1.000  C
  H62      1.0000 0.40940  0.24250  0.48040  Biso   1.000  H
  C127     1.0000 0.44440  0.15750  0.47736  Biso   1.000  C
  C128     1.0000 0.50136  0.18020  0.47325  Biso   1.000  C
  N16      1.0000 0.54665  0.19700  0.46951  Biso   1.000  N
  C129     1.0000 0.43175  0.09646  0.47869  Biso   1.000  C
  H63      1.0000 0.46130  0.06770  0.47620  Biso   1.000  H
  C130     1.0000 0.37751  0.07640  0.48349  Biso   1.000  C
  H64      1.0000 0.37000  0.03410  0.48440  Biso   1.000  H
  C131     1.0000 0.33633  0.01345  0.42964  Biso   1.000  C
  C132     1.0000 0.33507  0.07557  0.42650  Biso   1.000  C
  H65      1.0000 0.30060  0.09690  0.42960  Biso   1.000  H
  C133     1.0000 0.38300  0.10749  0.41893  Biso   1.000  C
  H66      1.0000 0.38160  0.15030  0.41700  Biso   1.000  H
  C134     1.0000 0.43383  0.07548  0.41409  Biso   1.000  C
  C135     1.0000 0.48310  0.11003  0.40826  Biso   1.000  C
  N17      1.0000 0.52010  0.14350  0.40423  Biso   1.000  N
  C136     1.0000 0.43527  0.01196  0.41662  Biso   1.000  C
  H67      1.0000 0.46950  0.99040  0.41330  Biso   1.000  H
  C137     1.0000 0.38648  0.98083  0.42394  Biso   1.000  C
  H68      1.0000 0.38690  0.93780  0.42510  Biso   1.000  H
  C138     1.0000 0.26720  0.92322  0.42944  Biso   1.000  C
  C139     1.0000 0.26912  0.91046  0.40308  Biso   1.000  C
  H69      1.0000 0.28410  0.93980  0.39170  Biso   1.000  H
  C140     1.0000 0.24961  0.85613  0.39392  Biso   1.000  C
  H70      1.0000 0.25020  0.84840  0.37620  Biso   1.000  H
  C141     1.0000 0.22885  0.81226  0.41055  Biso   1.000  C
  C142     1.0000 0.20939  0.75538  0.40109  Biso   1.000  C
  N18      1.0000 0.19398  0.70880  0.39356  Biso   1.000  N
  C143     1.0000 0.22779  0.82317  0.43666  Biso   1.000  C
  H71      1.0000 0.21420  0.79290  0.44800  Biso   1.000  H
  C144     1.0000 0.24664  0.87830  0.44587  Biso   1.000  C
  H72      1.0000 0.24570  0.88590  0.46360  Biso   1.000  H
  C145     1.0000 0.80310  0.80171  0.72908  Biso   1.000  C
  C146     1.0000 0.75865  0.79828  0.71057  Biso   1.000  C
  C147     1.0000 0.75774  0.75949  0.73245  Biso   1.000  C
  C148     1.0000 0.85385  0.82641  0.73708  Biso   1.000  C
  C149     1.0000 0.73459  0.81787  0.68881  Biso   1.000  C
  C150     1.0000 0.73539  0.71274  0.74565  Biso   1.000  C
  C151     1.0000 0.87195  0.81696  0.76336  Biso   1.000  C
  C152     1.0000 0.83097  0.81233  0.78264  Biso   1.000  C
  H73      1.0000 0.79190  0.81720  0.77850  Biso   1.000  H
  C153     1.0000 0.84607  0.80076  0.80764  Biso   1.000  C
  H74      1.0000 0.81760  0.79720  0.82040  Biso   1.000  H
  C154     1.0000 0.90311  0.79446  0.81390  Biso   1.000  C
  C155     1.0000 0.92046  0.78261  0.83950  Biso   1.000  C
  N19      1.0000 0.93267  0.77412  0.86023  Biso   1.000  N
  C156     1.0000 0.94572  0.80111  0.79506  Biso   1.000  C
  H75      1.0000 0.98490  0.79820  0.79950  Biso   1.000  H
  C157     1.0000 0.92964  0.81197  0.77014  Biso   1.000  C
  H76      1.0000 0.95810  0.81610  0.75740  Biso   1.000  H
  C158     1.0000 0.88864  0.86103  0.71915  Biso   1.000  C
  C159     1.0000 0.91817  0.91325  0.72663  Biso   1.000  C
  H77      1.0000 0.91700  0.92570  0.74390  Biso   1.000  H
  C160     1.0000 0.94898  0.94684  0.70934  Biso   1.000  C
  H78      1.0000 0.96910  0.98190  0.71480  Biso   1.000  H
  C161     1.0000 0.95051  0.92921  0.68376  Biso   1.000  C
  C162     1.0000 0.98019  0.96694  0.66593  Biso   1.000  C
  N20      1.0000 0.00234  0.00064  0.65248  Biso   1.000  N
  C163     1.0000 0.92323  0.87616  0.67614  Biso   1.000  C
  H79      1.0000 0.92600  0.86290  0.65900  Biso   1.000  H
  C164     1.0000 0.89213  0.84282  0.69351  Biso   1.000  C
  H80      1.0000 0.87290  0.80720  0.68810  Biso   1.000  H
  C165     1.0000 0.75705  0.87233  0.67609  Biso   1.000  C
  C166     1.0000 0.77950  0.92077  0.69032  Biso   1.000  C
  H81      1.0000 0.77690  0.91990  0.70830  Biso   1.000  H
  C167     1.0000 0.80506  0.96920  0.67854  Biso   1.000  C
  H82      1.0000 0.82040  0.00160  0.68830  Biso   1.000  H
  C168     1.0000 0.80833  0.97043  0.65220  Biso   1.000  C
  C169     1.0000 0.83779  0.01937  0.63963  Biso   1.000  C
  N21      1.0000 0.86255  0.05738  0.62952  Biso   1.000  N
  C170     1.0000 0.78384  0.92366  0.63756  Biso   1.000  C
  H83      1.0000 0.78540  0.92530  0.61950  Biso   1.000  H
  C171     1.0000 0.75792  0.87611  0.64930  Biso   1.000  C
  H84      1.0000 0.74030  0.84530  0.63940  Biso   1.000  H
  C172     1.0000 0.68791  0.78214  0.67731  Biso   1.000  C
  C173     1.0000 0.63926  0.80892  0.66746  Biso   1.000  C
  H85      1.0000 0.63600  0.85190  0.66730  Biso   1.000  H
  C174     1.0000 0.59515  0.77363  0.65787  Biso   1.000  C
  H86      1.0000 0.56110  0.79200  0.65180  Biso   1.000  H
  C175     1.0000 0.60168  0.71045  0.65726  Biso   1.000  C
  C176     1.0000 0.55597  0.67254  0.64860  Biso   1.000  C
  N22      1.0000 0.52128  0.63947  0.64212  Biso   1.000  N
  C177     1.0000 0.65171  0.68332  0.66632  Biso   1.000  C
  H87      1.0000 0.65660  0.64060  0.66540  Biso   1.000  H
  C178     1.0000 0.69365  0.71929  0.67662  Biso   1.000  C
  H88      1.0000 0.72700  0.70100  0.68340  Biso   1.000  H
  C179     1.0000 0.67977  0.68559  0.73878  Biso   1.000  C
  C180     1.0000 0.63409  0.72336  0.73157  Biso   1.000  C
  H89      1.0000 0.63890  0.76610  0.73130  Biso   1.000  H
  C181     1.0000 0.58211  0.69818  0.72483  Biso   1.000  C
  H90      1.0000 0.55120  0.72350  0.72000  Biso   1.000  H
  C182     1.0000 0.57571  0.63622  0.72525  Biso   1.000  C
  C183     1.0000 0.52283  0.60820  0.71844  Biso   1.000  C
  N23      1.0000 0.48070  0.58299  0.71240  Biso   1.000  N
  C184     1.0000 0.62052  0.59765  0.73234  Biso   1.000  C
  H91      1.0000 0.61570  0.55490  0.73220  Biso   1.000  H
  C185     1.0000 0.67224  0.62332  0.73962  Biso   1.000  C
  H92      1.0000 0.70250  0.59800  0.74520  Biso   1.000  H
  C186     1.0000 0.76882  0.68462  0.76645  Biso   1.000  C
  C187     1.0000 0.74279  0.66650  0.78884  Biso   1.000  C
  H93      1.0000 0.70260  0.67020  0.79060  Biso   1.000  H
  C188     1.0000 0.77470  0.64309  0.80874  Biso   1.000  C
  H94      1.0000 0.75660  0.63090  0.82410  Biso   1.000  H
  C189     1.0000 0.83372  0.63771  0.80598  Biso   1.000  C
  C190     1.0000 0.86897  0.61586  0.82638  Biso   1.000  C
  N24      1.0000 0.89854  0.59874  0.84196  Biso   1.000  N
  C191     1.0000 0.86104  0.65516  0.78324  Biso   1.000  C
  H95      1.0000 0.90110  0.65100  0.78130  Biso   1.000  H
  C192     1.0000 0.82795  0.67857  0.76381  Biso   1.000  C
  H96      1.0000 0.84570  0.69070  0.74840  Biso   1.000  H
  Cu5      1.0000 0.53584  0.42484  0.36356  Biso   1.000  Cu
  C193     1.0000 0.70736  0.49331  0.52442  Biso   1.000  C
  Cu6      1.0000 0.55241  0.22608  0.39658  Biso   1.000  Cu
  C194     1.0000 0.75250  0.44938  0.52063  Biso   1.000  C
  C195     1.0000 0.75597  0.49262  0.54075  Biso   1.000  C
  C196     1.0000 0.65643  0.51577  0.51664  Biso   1.000  C
  C197     1.0000 0.77401  0.40205  0.50769  Biso   1.000  C
  C198     1.0000 0.78543  0.51816  0.56029  Biso   1.000  C
  C199     1.0000 0.55726  0.64267  0.53456  Biso   1.000  C
  H97      1.0000 0.53230  0.67070  0.52660  Biso   1.000  H
  C200     1.0000 0.62385  0.55928  0.53180  Biso   1.000  C
  C201     1.0000 0.62835  0.55914  0.55847  Biso   1.000  C
  H98      1.0000 0.65170  0.52980  0.56660  Biso   1.000  H
  C202     1.0000 0.59890  0.60149  0.57299  Biso   1.000  C
  H99      1.0000 0.60320  0.60210  0.59090  Biso   1.000  H
  C203     1.0000 0.56325  0.64269  0.56117  Biso   1.000  C
  C204     1.0000 0.53281  0.68589  0.57633  Biso   1.000  C
  N25      1.0000 0.50762  0.71941  0.58830  Biso   1.000  N
  C205     1.0000 0.58759  0.60217  0.52025  Biso   1.000  C
  H100     1.0000 0.58420  0.60290  0.50230  Biso   1.000  H
  C206     1.0000 0.63494  0.49649  0.49129  Biso   1.000  C
  C207     1.0000 0.57802  0.47982  0.48759  Biso   1.000  C
  H101     1.0000 0.55260  0.47970  0.50160  Biso   1.000  H
  C208     1.0000 0.55827  0.46343  0.46375  Biso   1.000  C
  H102     1.0000 0.51950  0.45260  0.46140  Biso   1.000  H
  C209     1.0000 0.59578  0.46310  0.44348  Biso   1.000  C
  C210     1.0000 0.57605  0.44792  0.41880  Biso   1.000  C
  N26      1.0000 0.55947  0.43639  0.39873  Biso   1.000  N
  C211     1.0000 0.65372  0.47968  0.44678  Biso   1.000  C
  H103     1.0000 0.67930  0.47940  0.43280  Biso   1.000  H
  C212     1.0000 0.67224  0.49623  0.47062  Biso   1.000  C
  H104     1.0000 0.71090  0.50760  0.47300  Biso   1.000  H
  C213     1.0000 0.74102  0.37016  0.48832  Biso   1.000  C
  C214     1.0000 0.68197  0.35992  0.49222  Biso   1.000  C
  H105     1.0000 0.66410  0.37400  0.50730  Biso   1.000  H
  C215     1.0000 0.65013  0.32920  0.47398  Biso   1.000  C
  H106     1.0000 0.61070  0.32190  0.47660  Biso   1.000  H
  C216     1.0000 0.67669  0.30924  0.45189  Biso   1.000  C
  C217     1.0000 0.64325  0.27639  0.43301  Biso   1.000  C
  N27      1.0000 0.61672  0.25218  0.41831  Biso   1.000  N
  C218     1.0000 0.73509  0.31720  0.44837  Biso   1.000  C
  H107     1.0000 0.75330  0.30100  0.43380  Biso   1.000  H
  C219     1.0000 0.76575  0.34837  0.46598  Biso   1.000  C
  H108     1.0000 0.80510  0.35550  0.46300  Biso   1.000  H
  C220     1.0000 0.83275  0.38173  0.51295  Biso   1.000  C
  C221     1.0000 0.84580  0.31926  0.51376  Biso   1.000  C
  H109     1.0000 0.81660  0.29030  0.51080  Biso   1.000  H
  C222     1.0000 0.90110  0.29966  0.51880  Biso   1.000  C
  H110     1.0000 0.90940  0.25750  0.51960  Biso   1.000  H
  C223     1.0000 0.94440  0.34250  0.52264  Biso   1.000  C
  C224     1.0000 0.00136  0.31980  0.52675  Biso   1.000  C
  N28      1.0000 0.04665  0.30300  0.53049  Biso   1.000  N
  C225     1.0000 0.93175  0.40354  0.52131  Biso   1.000  C
  H111     1.0000 0.96130  0.43230  0.52380  Biso   1.000  H
  C226     1.0000 0.87751  0.42360  0.51651  Biso   1.000  C
  H112     1.0000 0.87000  0.46590  0.51560  Biso   1.000  H
  C227     1.0000 0.83633  0.48655  0.57036  Biso   1.000  C
  C228     1.0000 0.83507  0.42443  0.57350  Biso   1.000  C
  H113     1.0000 0.80060  0.40310  0.57040  Biso   1.000  H
  C229     1.0000 0.88300  0.39251  0.58107  Biso   1.000  C
  H114     1.0000 0.88160  0.34970  0.58300  Biso   1.000  H
  C230     1.0000 0.93383  0.42452  0.58591  Biso   1.000  C
  C231     1.0000 0.98310  0.38997  0.59174  Biso   1.000  C
  N29      1.0000 0.02010  0.35650  0.59577  Biso   1.000  N
  C232     1.0000 0.93527  0.48804  0.58338  Biso   1.000  C
  H115     1.0000 0.96950  0.50960  0.58670  Biso   1.000  H
  C233     1.0000 0.88648  0.51917  0.57606  Biso   1.000  C
  H116     1.0000 0.88690  0.56220  0.57490  Biso   1.000  H
  C234     1.0000 0.76720  0.57678  0.57056  Biso   1.000  C
  C235     1.0000 0.76912  0.58954  0.59692  Biso   1.000  C
  H117     1.0000 0.78410  0.56020  0.60830  Biso   1.000  H
  C236     1.0000 0.74961  0.64387  0.60608  Biso   1.000  C
  H118     1.0000 0.75020  0.65160  0.62380  Biso   1.000  H
  C237     1.0000 0.72885  0.68774  0.58945  Biso   1.000  C
  C238     1.0000 0.70939  0.74462  0.59891  Biso   1.000  C
  N30      1.0000 0.69398  0.79120  0.60644  Biso   1.000  N
  C239     1.0000 0.72779  0.67683  0.56334  Biso   1.000  C
  H119     1.0000 0.71420  0.70710  0.55200  Biso   1.000  H
  C240     1.0000 0.74664  0.62170  0.55413  Biso   1.000  C
  H120     1.0000 0.74570  0.61410  0.53640  Biso   1.000  H
  C241     1.0000 0.30310  0.69829  0.27092  Biso   1.000  C
  C242     1.0000 0.25865  0.70172  0.28943  Biso   1.000  C
  C243     1.0000 0.25774  0.74051  0.26755  Biso   1.000  C
  C244     1.0000 0.35385  0.67359  0.26292  Biso   1.000  C
  C245     1.0000 0.23459  0.68213  0.31119  Biso   1.000  C
  C246     1.0000 0.23539  0.78726  0.25435  Biso   1.000  C
  C247     1.0000 0.37195  0.68304  0.23664  Biso   1.000  C
  C248     1.0000 0.33097  0.68767  0.21736  Biso   1.000  C
  H121     1.0000 0.29190  0.68280  0.22150  Biso   1.000  H
  C249     1.0000 0.34607  0.69924  0.19236  Biso   1.000  C
  H122     1.0000 0.31760  0.70280  0.17960  Biso   1.000  H
  C250     1.0000 0.40311  0.70554  0.18610  Biso   1.000  C
  C251     1.0000 0.42046  0.71739  0.16050  Biso   1.000  C
  N31      1.0000 0.43267  0.72588  0.13977  Biso   1.000  N
  C252     1.0000 0.44572  0.69889  0.20494  Biso   1.000  C
  H123     1.0000 0.48490  0.70180  0.20050  Biso   1.000  H
  C253     1.0000 0.42964  0.68803  0.22986  Biso   1.000  C
  H124     1.0000 0.45810  0.68390  0.24260  Biso   1.000  H
  C254     1.0000 0.38864  0.63897  0.28085  Biso   1.000  C
  C255     1.0000 0.41817  0.58675  0.27337  Biso   1.000  C
  H125     1.0000 0.41700  0.57430  0.25610  Biso   1.000  H
  C256     1.0000 0.44898  0.55316  0.29066  Biso   1.000  C
  H126     1.0000 0.46910  0.51810  0.28520  Biso   1.000  H
  C257     1.0000 0.45051  0.57079  0.31624  Biso   1.000  C
  C258     1.0000 0.48019  0.53306  0.33407  Biso   1.000  C
  N32      1.0000 0.50234  0.49936  0.34752  Biso   1.000  N
  C259     1.0000 0.42323  0.62384  0.32386  Biso   1.000  C
  H127     1.0000 0.42600  0.63710  0.34100  Biso   1.000  H
  C260     1.0000 0.39213  0.65718  0.30649  Biso   1.000  C
  H128     1.0000 0.37290  0.69280  0.31190  Biso   1.000  H
  C261     1.0000 0.25705  0.62767  0.32391  Biso   1.000  C
  C262     1.0000 0.27950  0.57923  0.30968  Biso   1.000  C
  H129     1.0000 0.27690  0.58010  0.29170  Biso   1.000  H
  C263     1.0000 0.30506  0.53080  0.32146  Biso   1.000  C
  H130     1.0000 0.32040  0.49840  0.31170  Biso   1.000  H
  C264     1.0000 0.30833  0.52957  0.34780  Biso   1.000  C
  C265     1.0000 0.33779  0.48063  0.36037  Biso   1.000  C
  N33      1.0000 0.36255  0.44262  0.37048  Biso   1.000  N
  C266     1.0000 0.28384  0.57634  0.36244  Biso   1.000  C
  H131     1.0000 0.28540  0.57470  0.38050  Biso   1.000  H
  C267     1.0000 0.25792  0.62389  0.35070  Biso   1.000  C
  H132     1.0000 0.24030  0.65470  0.36060  Biso   1.000  H
  C268     1.0000 0.18791  0.71786  0.32269  Biso   1.000  C
  C269     1.0000 0.13926  0.69108  0.33254  Biso   1.000  C
  H133     1.0000 0.13600  0.64810  0.33270  Biso   1.000  H
  C270     1.0000 0.09515  0.72637  0.34213  Biso   1.000  C
  H134     1.0000 0.06110  0.70800  0.34820  Biso   1.000  H
  C271     1.0000 0.10168  0.78955  0.34274  Biso   1.000  C
  C272     1.0000 0.05597  0.82746  0.35140  Biso   1.000  C
  N34      1.0000 0.02128  0.86053  0.35788  Biso   1.000  N
  C273     1.0000 0.15171  0.81668  0.33368  Biso   1.000  C
  H135     1.0000 0.15660  0.85940  0.33460  Biso   1.000  H
  C274     1.0000 0.19365  0.78071  0.32338  Biso   1.000  C
  H136     1.0000 0.22700  0.79900  0.31660  Biso   1.000  H
  C275     1.0000 0.17977  0.81441  0.26122  Biso   1.000  C
  C276     1.0000 0.13409  0.77664  0.26843  Biso   1.000  C
  H137     1.0000 0.13890  0.73390  0.26870  Biso   1.000  H
  C277     1.0000 0.08211  0.80182  0.27517  Biso   1.000  C
  H138     1.0000 0.05120  0.77650  0.28000  Biso   1.000  H
  C278     1.0000 0.07571  0.86378  0.27475  Biso   1.000  C
  C279     1.0000 0.02283  0.89180  0.28156  Biso   1.000  C
  N35      1.0000 0.98070  0.91701  0.28760  Biso   1.000  N
  C280     1.0000 0.12052  0.90235  0.26766  Biso   1.000  C
  H139     1.0000 0.11570  0.94510  0.26780  Biso   1.000  H
  C281     1.0000 0.17224  0.87668  0.26038  Biso   1.000  C
  H140     1.0000 0.20250  0.90200  0.25480  Biso   1.000  H
  C282     1.0000 0.26882  0.81538  0.23355  Biso   1.000  C
  C283     1.0000 0.24279  0.83350  0.21116  Biso   1.000  C
  H141     1.0000 0.20260  0.82980  0.20940  Biso   1.000  H
  C284     1.0000 0.27470  0.85691  0.19126  Biso   1.000  C
  H142     1.0000 0.25660  0.86910  0.17590  Biso   1.000  H
  C285     1.0000 0.33372  0.86229  0.19402  Biso   1.000  C
  C286     1.0000 0.36897  0.88414  0.17362  Biso   1.000  C
  N36      1.0000 0.39854  0.90126  0.15804  Biso   1.000  N
  C287     1.0000 0.36104  0.84484  0.21676  Biso   1.000  C
  H143     1.0000 0.40110  0.84900  0.21870  Biso   1.000  H
  C288     1.0000 0.32795  0.82143  0.23619  Biso   1.000  C
  H144     1.0000 0.34570  0.80930  0.25160  Biso   1.000  H
  Cu7      1.0000 0.96416  0.57516  0.86356  Biso   1.000  Cu
  C289     1.0000 0.79264  0.50669  0.02442  Biso   1.000  C
  Cu8      1.0000 0.94759  0.77392  0.89658  Biso   1.000  Cu
  C290     1.0000 0.74750  0.55062  0.02063  Biso   1.000  C
  C291     1.0000 0.74403  0.50738  0.04075  Biso   1.000  C
  C292     1.0000 0.84357  0.48423  0.01664  Biso   1.000  C
  C293     1.0000 0.72599  0.59795  0.00769  Biso   1.000  C
  C294     1.0000 0.71457  0.48184  0.06029  Biso   1.000  C
  C295     1.0000 0.94274  0.35733  0.03456  Biso   1.000  C
  H145     1.0000 0.96770  0.32930  0.02660  Biso   1.000  H
  C296     1.0000 0.87615  0.44072  0.03180  Biso   1.000  C
  C297     1.0000 0.87165  0.44086  0.05847  Biso   1.000  C
  H146     1.0000 0.84830  0.47020  0.06660  Biso   1.000  H
  C298     1.0000 0.90110  0.39851  0.07299  Biso   1.000  C
  H147     1.0000 0.89680  0.39790  0.09090  Biso   1.000  H
  C299     1.0000 0.93675  0.35731  0.06117  Biso   1.000  C
  C300     1.0000 0.96719  0.31411  0.07633  Biso   1.000  C
  N37      1.0000 0.99238  0.28059  0.08830  Biso   1.000  N
  C301     1.0000 0.91241  0.39783  0.02025  Biso   1.000  C
  H148     1.0000 0.91580  0.39710  0.00230  Biso   1.000  H
  C302     1.0000 0.86506  0.50351  0.99129  Biso   1.000  C
  C303     1.0000 0.92198  0.52018  0.98759  Biso   1.000  C
  H149     1.0000 0.94740  0.52030  0.00160  Biso   1.000  H
  C304     1.0000 0.94173  0.53657  0.96375  Biso   1.000  C
  H150     1.0000 0.98050  0.54740  0.96140  Biso   1.000  H
  C305     1.0000 0.90422  0.53690  0.94348  Biso   1.000  C
  C306     1.0000 0.92395  0.55208  0.91880  Biso   1.000  C
  N38      1.0000 0.94053  0.56361  0.89873  Biso   1.000  N
  C307     1.0000 0.84628  0.52032  0.94678  Biso   1.000  C
  H151     1.0000 0.82070  0.52060  0.93280  Biso   1.000  H
  C308     1.0000 0.82776  0.50377  0.97062  Biso   1.000  C
  H152     1.0000 0.78910  0.49240  0.97300  Biso   1.000  H
  C309     1.0000 0.75898  0.62984  0.98832  Biso   1.000  C
  C310     1.0000 0.81803  0.64008  0.99222  Biso   1.000  C
  H153     1.0000 0.83590  0.62600  0.00730  Biso   1.000  H
  C311     1.0000 0.84987  0.67080  0.97398  Biso   1.000  C
  H154     1.0000 0.88930  0.67810  0.97660  Biso   1.000  H
  C312     1.0000 0.82331  0.69076  0.95189  Biso   1.000  C
  C313     1.0000 0.85675  0.72361  0.93301  Biso   1.000  C
  N39      1.0000 0.88328  0.74782  0.91831  Biso   1.000  N
  C314     1.0000 0.76491  0.68280  0.94837  Biso   1.000  C
  H155     1.0000 0.74670  0.69900  0.93380  Biso   1.000  H
  C315     1.0000 0.73425  0.65163  0.96598  Biso   1.000  C
  H156     1.0000 0.69490  0.64450  0.96300  Biso   1.000  H
  C316     1.0000 0.66725  0.61827  0.01295  Biso   1.000  C
  C317     1.0000 0.65420  0.68074  0.01376  Biso   1.000  C
  H157     1.0000 0.68340  0.70970  0.01080  Biso   1.000  H
  C318     1.0000 0.59890  0.70034  0.01880  Biso   1.000  C
  H158     1.0000 0.59060  0.74250  0.01960  Biso   1.000  H
  C319     1.0000 0.55560  0.65750  0.02264  Biso   1.000  C
  C320     1.0000 0.49864  0.68020  0.02675  Biso   1.000  C
  N40      1.0000 0.45335  0.69700  0.03049  Biso   1.000  N
  C321     1.0000 0.56825  0.59646  0.02131  Biso   1.000  C
  H159     1.0000 0.53870  0.56770  0.02380  Biso   1.000  H
  C322     1.0000 0.62249  0.57640  0.01651  Biso   1.000  C
  H160     1.0000 0.63000  0.53410  0.01560  Biso   1.000  H
  C323     1.0000 0.66367  0.51345  0.07036  Biso   1.000  C
  C324     1.0000 0.66493  0.57557  0.07350  Biso   1.000  C
  H161     1.0000 0.69940  0.59690  0.07040  Biso   1.000  H
  C325     1.0000 0.61700  0.60749  0.08107  Biso   1.000  C
  H162     1.0000 0.61840  0.65030  0.08300  Biso   1.000  H
  C326     1.0000 0.56617  0.57548  0.08591  Biso   1.000  C
  C327     1.0000 0.51690  0.61003  0.09174  Biso   1.000  C
  N41      1.0000 0.47990  0.64350  0.09577  Biso   1.000  N
  C328     1.0000 0.56473  0.51196  0.08338  Biso   1.000  C
  H163     1.0000 0.53050  0.49040  0.08670  Biso   1.000  H
  C329     1.0000 0.61352  0.48083  0.07606  Biso   1.000  C
  H164     1.0000 0.61310  0.43780  0.07490  Biso   1.000  H
  C330     1.0000 0.73280  0.42322  0.07056  Biso   1.000  C
  C331     1.0000 0.73088  0.41046  0.09692  Biso   1.000  C
  H165     1.0000 0.71590  0.43980  0.10830  Biso   1.000  H
  C332     1.0000 0.75039  0.35613  0.10608  Biso   1.000  C
  H166     1.0000 0.74980  0.34840  0.12380  Biso   1.000  H
  C333     1.0000 0.77115  0.31226  0.08945  Biso   1.000  C
  C334     1.0000 0.79061  0.25538  0.09891  Biso   1.000  C
  N42      1.0000 0.80602  0.20880  0.10644  Biso   1.000  N
  C335     1.0000 0.77221  0.32317  0.06334  Biso   1.000  C
  H167     1.0000 0.78580  0.29290  0.05200  Biso   1.000  H
  C336     1.0000 0.75336  0.37830  0.05413  Biso   1.000  C
  H168     1.0000 0.75430  0.38590  0.03640  Biso   1.000  H
  C337     1.0000 0.19690  0.30171  0.77092  Biso   1.000  C
  C338     1.0000 0.24135  0.29828  0.78943  Biso   1.000  C
  C339     1.0000 0.24226  0.25949  0.76755  Biso   1.000  C
  C340     1.0000 0.14615  0.32641  0.76292  Biso   1.000  C
  C341     1.0000 0.26541  0.31787  0.81119  Biso   1.000  C
  C342     1.0000 0.26461  0.21274  0.75435  Biso   1.000  C
  C343     1.0000 0.12805  0.31696  0.73664  Biso   1.000  C
  C344     1.0000 0.16903  0.31233  0.71736  Biso   1.000  C
  H169     1.0000 0.20810  0.31720  0.72150  Biso   1.000  H
  C345     1.0000 0.15393  0.30076  0.69236  Biso   1.000  C
  H170     1.0000 0.18240  0.29720  0.67960  Biso   1.000  H
  C346     1.0000 0.09689  0.29446  0.68610  Biso   1.000  C
  C347     1.0000 0.07954  0.28261  0.66050  Biso   1.000  C
  N43      1.0000 0.06733  0.27412  0.63977  Biso   1.000  N
  C348     1.0000 0.05428  0.30111  0.70494  Biso   1.000  C
  H171     1.0000 0.01510  0.29820  0.70050  Biso   1.000  H
  C349     1.0000 0.07036  0.31197  0.72986  Biso   1.000  C
  H172     1.0000 0.04190  0.31610  0.74260  Biso   1.000  H
  C350     1.0000 0.11136  0.36103  0.78085  Biso   1.000  C
  C351     1.0000 0.08183  0.41325  0.77337  Biso   1.000  C
  H173     1.0000 0.08300  0.42570  0.75610  Biso   1.000  H
  C352     1.0000 0.05102  0.44684  0.79066  Biso   1.000  C
  H174     1.0000 0.03090  0.48190  0.78520  Biso   1.000  H
  C353     1.0000 0.04949  0.42921  0.81624  Biso   1.000  C
  C354     1.0000 0.01981  0.46694  0.83407  Biso   1.000  C
  N44      1.0000 0.99766  0.50064  0.84752  Biso   1.000  N
  C355     1.0000 0.07677  0.37616  0.82386  Biso   1.000  C
  H175     1.0000 0.07400  0.36290  0.84100  Biso   1.000  H
  C356     1.0000 0.10787  0.34282  0.80649  Biso   1.000  C
  H176     1.0000 0.12710  0.30720  0.81190  Biso   1.000  H
  C357     1.0000 0.24295  0.37233  0.82391  Biso   1.000  C
  C358     1.0000 0.22050  0.42077  0.80968  Biso   1.000  C
  H177     1.0000 0.22310  0.41990  0.79170  Biso   1.000  H
  C359     1.0000 0.19494  0.46920  0.82146  Biso   1.000  C
  H178     1.0000 0.17960  0.50160  0.81170  Biso   1.000  H
  C360     1.0000 0.19167  0.47043  0.84780  Biso   1.000  C
  C361     1.0000 0.16221  0.51937  0.86037  Biso   1.000  C
  N45      1.0000 0.13745  0.55738  0.87048  Biso   1.000  N
  C362     1.0000 0.21616  0.42366  0.86244  Biso   1.000  C
  H179     1.0000 0.21460  0.42530  0.88050  Biso   1.000  H
  C363     1.0000 0.24208  0.37611  0.85070  Biso   1.000  C
  H180     1.0000 0.25970  0.34530  0.86060  Biso   1.000  H
  C364     1.0000 0.31209  0.28214  0.82269  Biso   1.000  C
  C365     1.0000 0.36074  0.30892  0.83254  Biso   1.000  C
  H181     1.0000 0.36400  0.35190  0.83270  Biso   1.000  H
  C366     1.0000 0.40485  0.27363  0.84213  Biso   1.000  C
  H182     1.0000 0.43890  0.29200  0.84820  Biso   1.000  H
  C367     1.0000 0.39832  0.21045  0.84274  Biso   1.000  C
  C368     1.0000 0.44403  0.17254  0.85140  Biso   1.000  C
  N46      1.0000 0.47872  0.13947  0.85788  Biso   1.000  N
  C369     1.0000 0.34829  0.18332  0.83368  Biso   1.000  C
  H183     1.0000 0.34340  0.14060  0.83460  Biso   1.000  H
  C370     1.0000 0.30635  0.21929  0.82338  Biso   1.000  C
  H184     1.0000 0.27300  0.20100  0.81660  Biso   1.000  H
  C371     1.0000 0.32023  0.18559  0.76122  Biso   1.000  C
  C372     1.0000 0.36591  0.22336  0.76843  Biso   1.000  C
  H185     1.0000 0.36110  0.26610  0.76870  Biso   1.000  H
  C373     1.0000 0.41789  0.19818  0.77517  Biso   1.000  C
  H186     1.0000 0.44880  0.22350  0.78000  Biso   1.000  H
  C374     1.0000 0.42429  0.13622  0.77475  Biso   1.000  C
  C375     1.0000 0.47717  0.10820  0.78156  Biso   1.000  C
  N47      1.0000 0.51930  0.08299  0.78760  Biso   1.000  N
  C376     1.0000 0.37948  0.09765  0.76766  Biso   1.000  C
  H187     1.0000 0.38430  0.05490  0.76780  Biso   1.000  H
  C377     1.0000 0.32776  0.12332  0.76038  Biso   1.000  C
  H188     1.0000 0.29750  0.09800  0.75480  Biso   1.000  H
  C378     1.0000 0.23118  0.18462  0.73355  Biso   1.000  C
  C379     1.0000 0.25721  0.16650  0.71116  Biso   1.000  C
  H189     1.0000 0.29740  0.17020  0.70940  Biso   1.000  H
  C380     1.0000 0.22530  0.14309  0.69126  Biso   1.000  C
  H190     1.0000 0.24340  0.13090  0.67590  Biso   1.000  H
  C381     1.0000 0.16628  0.13771  0.69402  Biso   1.000  C
  C382     1.0000 0.13103  0.11586  0.67362  Biso   1.000  C
  N48      1.0000 0.10146  0.09874  0.65804  Biso   1.000  N
  C383     1.0000 0.13896  0.15516  0.71676  Biso   1.000  C
  H191     1.0000 0.09890  0.15100  0.71870  Biso   1.000  H
  C384     1.0000 0.17205  0.17857  0.73619  Biso   1.000  C
  H192     1.0000 0.15430  0.19070  0.75160  Biso   1.000  H
  Cu9      1.0000 0.53584  0.07516  0.86356  Biso   1.000  Cu
  C385     1.0000 0.70736  0.00669  0.02442  Biso   1.000  C
  Cu10     1.0000 0.55241  0.27392  0.89658  Biso   1.000  Cu
  C386     1.0000 0.75250  0.05062  0.02063  Biso   1.000  C
  C387     1.0000 0.75597  0.00738  0.04075  Biso   1.000  C
  C388     1.0000 0.65643  0.98423  0.01664  Biso   1.000  C
  C389     1.0000 0.77401  0.09795  0.00769  Biso   1.000  C
  C390     1.0000 0.78543  0.98184  0.06029  Biso   1.000  C
  C391     1.0000 0.55726  0.85733  0.03456  Biso   1.000  C
  H193     1.0000 0.53230  0.82930  0.02660  Biso   1.000  H
  C392     1.0000 0.62385  0.94072  0.03180  Biso   1.000  C
  C393     1.0000 0.62835  0.94086  0.05847  Biso   1.000  C
  H194     1.0000 0.65170  0.97020  0.06660  Biso   1.000  H
  C394     1.0000 0.59890  0.89851  0.07299  Biso   1.000  C
  H195     1.0000 0.60320  0.89790  0.09090  Biso   1.000  H
  C395     1.0000 0.56325  0.85731  0.06117  Biso   1.000  C
  C396     1.0000 0.53281  0.81411  0.07633  Biso   1.000  C
  N49      1.0000 0.50762  0.78059  0.08830  Biso   1.000  N
  C397     1.0000 0.58759  0.89783  0.02025  Biso   1.000  C
  H196     1.0000 0.58420  0.89710  0.00230  Biso   1.000  H
  C398     1.0000 0.63494  0.00351  0.99129  Biso   1.000  C
  C399     1.0000 0.57802  0.02018  0.98759  Biso   1.000  C
  H197     1.0000 0.55260  0.02030  0.00160  Biso   1.000  H
  C400     1.0000 0.55827  0.03657  0.96375  Biso   1.000  C
  H198     1.0000 0.51950  0.04740  0.96140  Biso   1.000  H
  C401     1.0000 0.59578  0.03690  0.94348  Biso   1.000  C
  C402     1.0000 0.57605  0.05208  0.91880  Biso   1.000  C
  N50      1.0000 0.55947  0.06361  0.89873  Biso   1.000  N
  C403     1.0000 0.65372  0.02032  0.94678  Biso   1.000  C
  H199     1.0000 0.67930  0.02060  0.93280  Biso   1.000  H
  C404     1.0000 0.67224  0.00377  0.97062  Biso   1.000  C
  H200     1.0000 0.71090  0.99240  0.97300  Biso   1.000  H
  C405     1.0000 0.74102  0.12984  0.98832  Biso   1.000  C
  C406     1.0000 0.68197  0.14008  0.99222  Biso   1.000  C
  H201     1.0000 0.66410  0.12600  0.00730  Biso   1.000  H
  C407     1.0000 0.65013  0.17080  0.97398  Biso   1.000  C
  H202     1.0000 0.61070  0.17810  0.97660  Biso   1.000  H
  C408     1.0000 0.67669  0.19076  0.95189  Biso   1.000  C
  C409     1.0000 0.64325  0.22361  0.93301  Biso   1.000  C
  N51      1.0000 0.61672  0.24782  0.91831  Biso   1.000  N
  C410     1.0000 0.73509  0.18280  0.94837  Biso   1.000  C
  H203     1.0000 0.75330  0.19900  0.93380  Biso   1.000  H
  C411     1.0000 0.76575  0.15163  0.96598  Biso   1.000  C
  H204     1.0000 0.80510  0.14450  0.96300  Biso   1.000  H
  C412     1.0000 0.83275  0.11827  0.01295  Biso   1.000  C
  C413     1.0000 0.84580  0.18074  0.01376  Biso   1.000  C
  H205     1.0000 0.81660  0.20970  0.01080  Biso   1.000  H
  C414     1.0000 0.90110  0.20034  0.01880  Biso   1.000  C
  H206     1.0000 0.90940  0.24250  0.01960  Biso   1.000  H
  C415     1.0000 0.94440  0.15750  0.02264  Biso   1.000  C
  C416     1.0000 0.00136  0.18020  0.02675  Biso   1.000  C
  N52      1.0000 0.04665  0.19700  0.03049  Biso   1.000  N
  C417     1.0000 0.93175  0.09646  0.02131  Biso   1.000  C
  H207     1.0000 0.96130  0.06770  0.02380  Biso   1.000  H
  C418     1.0000 0.87751  0.07640  0.01651  Biso   1.000  C
  H208     1.0000 0.87000  0.03410  0.01560  Biso   1.000  H
  C419     1.0000 0.83633  0.01345  0.07036  Biso   1.000  C
  C420     1.0000 0.83507  0.07557  0.07350  Biso   1.000  C
  H209     1.0000 0.80060  0.09690  0.07040  Biso   1.000  H
  C421     1.0000 0.88300  0.10749  0.08107  Biso   1.000  C
  H210     1.0000 0.88160  0.15030  0.08300  Biso   1.000  H
  C422     1.0000 0.93383  0.07548  0.08591  Biso   1.000  C
  C423     1.0000 0.98310  0.11003  0.09174  Biso   1.000  C
  N53      1.0000 0.02010  0.14350  0.09577  Biso   1.000  N
  C424     1.0000 0.93527  0.01196  0.08338  Biso   1.000  C
  H211     1.0000 0.96950  0.99040  0.08670  Biso   1.000  H
  C425     1.0000 0.88648  0.98083  0.07606  Biso   1.000  C
  H212     1.0000 0.88690  0.93780  0.07490  Biso   1.000  H
  C426     1.0000 0.76720  0.92322  0.07056  Biso   1.000  C
  C427     1.0000 0.76912  0.91046  0.09692  Biso   1.000  C
  H213     1.0000 0.78410  0.93980  0.10830  Biso   1.000  H
  C428     1.0000 0.74961  0.85613  0.10608  Biso   1.000  C
  H214     1.0000 0.75020  0.84840  0.12380  Biso   1.000  H
  C429     1.0000 0.72885  0.81226  0.08945  Biso   1.000  C
  C430     1.0000 0.70939  0.75538  0.09891  Biso   1.000  C
  N54      1.0000 0.69398  0.70880  0.10644  Biso   1.000  N
  C431     1.0000 0.72779  0.82317  0.06334  Biso   1.000  C
  H215     1.0000 0.71420  0.79290  0.05200  Biso   1.000  H
  C432     1.0000 0.74664  0.87830  0.05413  Biso   1.000  C
  H216     1.0000 0.74570  0.88590  0.03640  Biso   1.000  H
  C433     1.0000 0.30310  0.80171  0.77092  Biso   1.000  C
  C434     1.0000 0.25865  0.79828  0.78943  Biso   1.000  C
  C435     1.0000 0.25774  0.75949  0.76755  Biso   1.000  C
  C436     1.0000 0.35385  0.82641  0.76292  Biso   1.000  C
  C437     1.0000 0.23459  0.81787  0.81119  Biso   1.000  C
  C438     1.0000 0.23539  0.71274  0.75435  Biso   1.000  C
  C439     1.0000 0.37195  0.81696  0.73664  Biso   1.000  C
  C440     1.0000 0.33097  0.81233  0.71736  Biso   1.000  C
  H217     1.0000 0.29190  0.81720  0.72150  Biso   1.000  H
  C441     1.0000 0.34607  0.80076  0.69236  Biso   1.000  C
  H218     1.0000 0.31760  0.79720  0.67960  Biso   1.000  H
  C442     1.0000 0.40311  0.79446  0.68610  Biso   1.000  C
  C443     1.0000 0.42046  0.78261  0.66050  Biso   1.000  C
  N55      1.0000 0.43267  0.77412  0.63977  Biso   1.000  N
  C444     1.0000 0.44572  0.80111  0.70494  Biso   1.000  C
  H219     1.0000 0.48490  0.79820  0.70050  Biso   1.000  H
  C445     1.0000 0.42964  0.81197  0.72986  Biso   1.000  C
  H220     1.0000 0.45810  0.81610  0.74260  Biso   1.000  H
  C446     1.0000 0.38864  0.86103  0.78085  Biso   1.000  C
  C447     1.0000 0.41817  0.91325  0.77337  Biso   1.000  C
  H221     1.0000 0.41700  0.92570  0.75610  Biso   1.000  H
  C448     1.0000 0.44898  0.94684  0.79066  Biso   1.000  C
  H222     1.0000 0.46910  0.98190  0.78520  Biso   1.000  H
  C449     1.0000 0.45051  0.92921  0.81624  Biso   1.000  C
  C450     1.0000 0.48019  0.96694  0.83407  Biso   1.000  C
  N56      1.0000 0.50234  0.00064  0.84752  Biso   1.000  N
  C451     1.0000 0.42323  0.87616  0.82386  Biso   1.000  C
  H223     1.0000 0.42600  0.86290  0.84100  Biso   1.000  H
  C452     1.0000 0.39213  0.84282  0.80649  Biso   1.000  C
  H224     1.0000 0.37290  0.80720  0.81190  Biso   1.000  H
  C453     1.0000 0.25705  0.87233  0.82391  Biso   1.000  C
  C454     1.0000 0.27950  0.92077  0.80968  Biso   1.000  C
  H225     1.0000 0.27690  0.91990  0.79170  Biso   1.000  H
  C455     1.0000 0.30506  0.96920  0.82146  Biso   1.000  C
  H226     1.0000 0.32040  0.00160  0.81170  Biso   1.000  H
  C456     1.0000 0.30833  0.97043  0.84780  Biso   1.000  C
  C457     1.0000 0.33779  0.01937  0.86037  Biso   1.000  C
  N57      1.0000 0.36255  0.05738  0.87048  Biso   1.000  N
  C458     1.0000 0.28384  0.92366  0.86244  Biso   1.000  C
  H227     1.0000 0.28540  0.92530  0.88050  Biso   1.000  H
  C459     1.0000 0.25792  0.87611  0.85070  Biso   1.000  C
  H228     1.0000 0.24030  0.84530  0.86060  Biso   1.000  H
  C460     1.0000 0.18791  0.78214  0.82269  Biso   1.000  C
  C461     1.0000 0.13926  0.80892  0.83254  Biso   1.000  C
  H229     1.0000 0.13600  0.85190  0.83270  Biso   1.000  H
  C462     1.0000 0.09515  0.77363  0.84213  Biso   1.000  C
  H230     1.0000 0.06110  0.79200  0.84820  Biso   1.000  H
  C463     1.0000 0.10168  0.71045  0.84274  Biso   1.000  C
  C464     1.0000 0.05597  0.67254  0.85140  Biso   1.000  C
  N58      1.0000 0.02128  0.63947  0.85788  Biso   1.000  N
  C465     1.0000 0.15171  0.68332  0.83368  Biso   1.000  C
  H231     1.0000 0.15660  0.64060  0.83460  Biso   1.000  H
  C466     1.0000 0.19365  0.71929  0.82338  Biso   1.000  C
  H232     1.0000 0.22700  0.70100  0.81660  Biso   1.000  H
  C467     1.0000 0.17977  0.68559  0.76122  Biso   1.000  C
  C468     1.0000 0.13409  0.72336  0.76843  Biso   1.000  C
  H233     1.0000 0.13890  0.76610  0.76870  Biso   1.000  H
  C469     1.0000 0.08211  0.69818  0.77517  Biso   1.000  C
  H234     1.0000 0.05120  0.72350  0.78000  Biso   1.000  H
  C470     1.0000 0.07571  0.63622  0.77475  Biso   1.000  C
  C471     1.0000 0.02283  0.60820  0.78156  Biso   1.000  C
  N59      1.0000 0.98070  0.58299  0.78760  Biso   1.000  N
  C472     1.0000 0.12052  0.59765  0.76766  Biso   1.000  C
  H235     1.0000 0.11570  0.55490  0.76780  Biso   1.000  H
  C473     1.0000 0.17224  0.62332  0.76038  Biso   1.000  C
  H236     1.0000 0.20250  0.59800  0.75480  Biso   1.000  H
  C474     1.0000 0.26882  0.68462  0.73355  Biso   1.000  C
  C475     1.0000 0.24279  0.66650  0.71116  Biso   1.000  C
  H237     1.0000 0.20260  0.67020  0.70940  Biso   1.000  H
  C476     1.0000 0.27470  0.64309  0.69126  Biso   1.000  C
  H238     1.0000 0.25660  0.63090  0.67590  Biso   1.000  H
  C477     1.0000 0.33372  0.63771  0.69402  Biso   1.000  C
  C478     1.0000 0.36897  0.61586  0.67362  Biso   1.000  C
  N60      1.0000 0.39854  0.59874  0.65804  Biso   1.000  N
  C479     1.0000 0.36104  0.65516  0.71676  Biso   1.000  C
  H239     1.0000 0.40110  0.65100  0.71870  Biso   1.000  H
  C480     1.0000 0.32795  0.67857  0.73619  Biso   1.000  C
  H240     1.0000 0.34570  0.69070  0.75160  Biso   1.000  H
  Cu11     1.0000 0.96416  0.92484  0.36356  Biso   1.000  Cu
  C481     1.0000 0.79264  0.99331  0.52442  Biso   1.000  C
  Cu12     1.0000 0.94759  0.72608  0.39658  Biso   1.000  Cu
  C482     1.0000 0.74750  0.94938  0.52063  Biso   1.000  C
  C483     1.0000 0.74403  0.99262  0.54075  Biso   1.000  C
  C484     1.0000 0.84357  0.01577  0.51664  Biso   1.000  C
  C485     1.0000 0.72599  0.90205  0.50769  Biso   1.000  C
  C486     1.0000 0.71457  0.01816  0.56029  Biso   1.000  C
  C487     1.0000 0.94274  0.14267  0.53456  Biso   1.000  C
  H241     1.0000 0.96770  0.17070  0.52660  Biso   1.000  H
  C488     1.0000 0.87615  0.05928  0.53180  Biso   1.000  C
  C489     1.0000 0.87165  0.05914  0.55847  Biso   1.000  C
  H242     1.0000 0.84830  0.02980  0.56660  Biso   1.000  H
  C490     1.0000 0.90110  0.10149  0.57299  Biso   1.000  C
  H243     1.0000 0.89680  0.10210  0.59090  Biso   1.000  H
  C491     1.0000 0.93675  0.14269  0.56117  Biso   1.000  C
  C492     1.0000 0.96719  0.18589  0.57633  Biso   1.000  C
  N61      1.0000 0.99238  0.21941  0.58830  Biso   1.000  N
  C493     1.0000 0.91241  0.10217  0.52025  Biso   1.000  C
  H244     1.0000 0.91580  0.10290  0.50230  Biso   1.000  H
  C494     1.0000 0.86506  0.99649  0.49129  Biso   1.000  C
  C495     1.0000 0.92198  0.97982  0.48759  Biso   1.000  C
  H245     1.0000 0.94740  0.97970  0.50160  Biso   1.000  H
  C496     1.0000 0.94173  0.96343  0.46375  Biso   1.000  C
  H246     1.0000 0.98050  0.95260  0.46140  Biso   1.000  H
  C497     1.0000 0.90422  0.96310  0.44348  Biso   1.000  C
  C498     1.0000 0.92395  0.94792  0.41880  Biso   1.000  C
  N62      1.0000 0.94053  0.93639  0.39873  Biso   1.000  N
  C499     1.0000 0.84628  0.97968  0.44678  Biso   1.000  C
  H247     1.0000 0.82070  0.97940  0.43280  Biso   1.000  H
  C500     1.0000 0.82776  0.99623  0.47062  Biso   1.000  C
  H248     1.0000 0.78910  0.00760  0.47300  Biso   1.000  H
  C501     1.0000 0.75898  0.87016  0.48832  Biso   1.000  C
  C502     1.0000 0.81803  0.85992  0.49222  Biso   1.000  C
  H249     1.0000 0.83590  0.87400  0.50730  Biso   1.000  H
  C503     1.0000 0.84987  0.82920  0.47398  Biso   1.000  C
  H250     1.0000 0.88930  0.82190  0.47660  Biso   1.000  H
  C504     1.0000 0.82331  0.80924  0.45189  Biso   1.000  C
  C505     1.0000 0.85675  0.77639  0.43301  Biso   1.000  C
  N63      1.0000 0.88328  0.75218  0.41831  Biso   1.000  N
  C506     1.0000 0.76491  0.81720  0.44837  Biso   1.000  C
  H251     1.0000 0.74670  0.80100  0.43380  Biso   1.000  H
  C507     1.0000 0.73425  0.84837  0.46598  Biso   1.000  C
  H252     1.0000 0.69490  0.85550  0.46300  Biso   1.000  H
  C508     1.0000 0.66725  0.88173  0.51295  Biso   1.000  C
  C509     1.0000 0.65420  0.81926  0.51376  Biso   1.000  C
  H253     1.0000 0.68340  0.79030  0.51080  Biso   1.000  H
  C510     1.0000 0.59890  0.79966  0.51880  Biso   1.000  C
  H254     1.0000 0.59060  0.75750  0.51960  Biso   1.000  H
  C511     1.0000 0.55560  0.84250  0.52264  Biso   1.000  C
  C512     1.0000 0.49864  0.81980  0.52675  Biso   1.000  C
  N64      1.0000 0.45335  0.80300  0.53049  Biso   1.000  N
  C513     1.0000 0.56825  0.90354  0.52131  Biso   1.000  C
  H255     1.0000 0.53870  0.93230  0.52380  Biso   1.000  H
  C514     1.0000 0.62249  0.92360  0.51651  Biso   1.000  C
  H256     1.0000 0.63000  0.96590  0.51560  Biso   1.000  H
  C515     1.0000 0.66367  0.98655  0.57036  Biso   1.000  C
  C516     1.0000 0.66493  0.92443  0.57350  Biso   1.000  C
  H257     1.0000 0.69940  0.90310  0.57040  Biso   1.000  H
  C517     1.0000 0.61700  0.89251  0.58107  Biso   1.000  C
  H258     1.0000 0.61840  0.84970  0.58300  Biso   1.000  H
  C518     1.0000 0.56617  0.92452  0.58591  Biso   1.000  C
  C519     1.0000 0.51690  0.88997  0.59174  Biso   1.000  C
  N65      1.0000 0.47990  0.85650  0.59577  Biso   1.000  N
  C520     1.0000 0.56473  0.98804  0.58338  Biso   1.000  C
  H259     1.0000 0.53050  0.00960  0.58670  Biso   1.000  H
  C521     1.0000 0.61352  0.01917  0.57606  Biso   1.000  C
  H260     1.0000 0.61310  0.06220  0.57490  Biso   1.000  H
  C522     1.0000 0.73280  0.07678  0.57056  Biso   1.000  C
  C523     1.0000 0.73088  0.08954  0.59692  Biso   1.000  C
  H261     1.0000 0.71590  0.06020  0.60830  Biso   1.000  H
  C524     1.0000 0.75039  0.14387  0.60608  Biso   1.000  C
  H262     1.0000 0.74980  0.15160  0.62380  Biso   1.000  H
  C525     1.0000 0.77115  0.18774  0.58945  Biso   1.000  C
  C526     1.0000 0.79061  0.24462  0.59891  Biso   1.000  C
  N66      1.0000 0.80602  0.29120  0.60644  Biso   1.000  N
  C527     1.0000 0.77221  0.17683  0.56334  Biso   1.000  C
  H263     1.0000 0.78580  0.20710  0.55200  Biso   1.000  H
  C528     1.0000 0.75336  0.12170  0.55413  Biso   1.000  C
  H264     1.0000 0.75430  0.11410  0.53640  Biso   1.000  H
  C529     1.0000 0.19690  0.19829  0.27092  Biso   1.000  C
  C530     1.0000 0.24135  0.20172  0.28943  Biso   1.000  C
  C531     1.0000 0.24226  0.24051  0.26755  Biso   1.000  C
  C532     1.0000 0.14615  0.17359  0.26292  Biso   1.000  C
  C533     1.0000 0.26541  0.18213  0.31119  Biso   1.000  C
  C534     1.0000 0.26461  0.28726  0.25435  Biso   1.000  C
  C535     1.0000 0.12805  0.18304  0.23664  Biso   1.000  C
  C536     1.0000 0.16903  0.18767  0.21736  Biso   1.000  C
  H265     1.0000 0.20810  0.18280  0.22150  Biso   1.000  H
  C537     1.0000 0.15393  0.19924  0.19236  Biso   1.000  C
  H266     1.0000 0.18240  0.20280  0.17960  Biso   1.000  H
  C538     1.0000 0.09689  0.20554  0.18610  Biso   1.000  C
  C539     1.0000 0.07954  0.21739  0.16050  Biso   1.000  C
  N67      1.0000 0.06733  0.22588  0.13977  Biso   1.000  N
  C540     1.0000 0.05428  0.19889  0.20494  Biso   1.000  C
  H267     1.0000 0.01510  0.20180  0.20050  Biso   1.000  H
  C541     1.0000 0.07036  0.18803  0.22986  Biso   1.000  C
  H268     1.0000 0.04190  0.18390  0.24260  Biso   1.000  H
  C542     1.0000 0.11136  0.13897  0.28085  Biso   1.000  C
  C543     1.0000 0.08183  0.08675  0.27337  Biso   1.000  C
  H269     1.0000 0.08300  0.07430  0.25610  Biso   1.000  H
  C544     1.0000 0.05102  0.05316  0.29066  Biso   1.000  C
  H270     1.0000 0.03090  0.01810  0.28520  Biso   1.000  H
  C545     1.0000 0.04949  0.07079  0.31624  Biso   1.000  C
  C546     1.0000 0.01981  0.03306  0.33407  Biso   1.000  C
  N68      1.0000 0.99766  0.99936  0.34752  Biso   1.000  N
  C547     1.0000 0.07677  0.12384  0.32386  Biso   1.000  C
  H271     1.0000 0.07400  0.13710  0.34100  Biso   1.000  H
  C548     1.0000 0.10787  0.15718  0.30649  Biso   1.000  C
  H272     1.0000 0.12710  0.19280  0.31190  Biso   1.000  H
  C549     1.0000 0.24295  0.12767  0.32391  Biso   1.000  C
  C550     1.0000 0.22050  0.07923  0.30968  Biso   1.000  C
  H273     1.0000 0.22310  0.08010  0.29170  Biso   1.000  H
  C551     1.0000 0.19494  0.03080  0.32146  Biso   1.000  C
  H274     1.0000 0.17960  0.99840  0.31170  Biso   1.000  H
  C552     1.0000 0.19167  0.02957  0.34780  Biso   1.000  C
  C553     1.0000 0.16221  0.98063  0.36037  Biso   1.000  C
  N69      1.0000 0.13745  0.94262  0.37048  Biso   1.000  N
  C554     1.0000 0.21616  0.07634  0.36244  Biso   1.000  C
  H275     1.0000 0.21460  0.07470  0.38050  Biso   1.000  H
  C555     1.0000 0.24208  0.12389  0.35070  Biso   1.000  C
  H276     1.0000 0.25970  0.15470  0.36060  Biso   1.000  H
  C556     1.0000 0.31209  0.21786  0.32269  Biso   1.000  C
  C557     1.0000 0.36074  0.19108  0.33254  Biso   1.000  C
  H277     1.0000 0.36400  0.14810  0.33270  Biso   1.000  H
  C558     1.0000 0.40485  0.22637  0.34213  Biso   1.000  C
  H278     1.0000 0.43890  0.20800  0.34820  Biso   1.000  H
  C559     1.0000 0.39832  0.28955  0.34274  Biso   1.000  C
  C560     1.0000 0.44403  0.32746  0.35140  Biso   1.000  C
  N70      1.0000 0.47872  0.36053  0.35788  Biso   1.000  N
  C561     1.0000 0.34829  0.31668  0.33368  Biso   1.000  C
  H279     1.0000 0.34340  0.35940  0.33460  Biso   1.000  H
  C562     1.0000 0.30635  0.28071  0.32338  Biso   1.000  C
  H280     1.0000 0.27300  0.29900  0.31660  Biso   1.000  H
  C563     1.0000 0.32023  0.31441  0.26122  Biso   1.000  C
  C564     1.0000 0.36591  0.27664  0.26843  Biso   1.000  C
  H281     1.0000 0.36110  0.23390  0.26870  Biso   1.000  H
  C565     1.0000 0.41789  0.30182  0.27517  Biso   1.000  C
  H282     1.0000 0.44880  0.27650  0.28000  Biso   1.000  H
  C566     1.0000 0.42429  0.36378  0.27475  Biso   1.000  C
  C567     1.0000 0.47717  0.39180  0.28156  Biso   1.000  C
  N71      1.0000 0.51930  0.41701  0.28760  Biso   1.000  N
  C568     1.0000 0.37948  0.40235  0.26766  Biso   1.000  C
  H283     1.0000 0.38430  0.44510  0.26780  Biso   1.000  H
  C569     1.0000 0.32776  0.37668  0.26038  Biso   1.000  C
  H284     1.0000 0.29750  0.40200  0.25480  Biso   1.000  H
  C570     1.0000 0.23118  0.31538  0.23355  Biso   1.000  C
  C571     1.0000 0.25721  0.33350  0.21116  Biso   1.000  C
  H285     1.0000 0.29740  0.32980  0.20940  Biso   1.000  H
  C572     1.0000 0.22530  0.35691  0.19126  Biso   1.000  C
  H286     1.0000 0.24340  0.36910  0.17590  Biso   1.000  H
  C573     1.0000 0.16628  0.36229  0.19402  Biso   1.000  C
  C574     1.0000 0.13103  0.38414  0.17362  Biso   1.000  C
  N72      1.0000 0.10146  0.40126  0.15804  Biso   1.000  N
  C575     1.0000 0.13896  0.34484  0.21676  Biso   1.000  C
  H287     1.0000 0.09890  0.34900  0.21870  Biso   1.000  H
  C576     1.0000 0.17205  0.32143  0.23619  Biso   1.000  C
  H288     1.0000 0.15430  0.30930  0.25160  Biso   1.000  H
  Cu13     1.0000 0.46416  0.57516  0.63644  Biso   1.000  Cu
  C577     1.0000 0.29264  0.50669  0.47558  Biso   1.000  C
  Cu14     1.0000 0.44759  0.77392  0.60342  Biso   1.000  Cu
  C578     1.0000 0.24750  0.55062  0.47937  Biso   1.000  C
  C579     1.0000 0.24403  0.50738  0.45925  Biso   1.000  C
  C580     1.0000 0.34357  0.48423  0.48336  Biso   1.000  C
  C581     1.0000 0.22599  0.59795  0.49231  Biso   1.000  C
  C582     1.0000 0.21457  0.48184  0.43971  Biso   1.000  C
  C583     1.0000 0.44274  0.35733  0.46544  Biso   1.000  C
  H289     1.0000 0.46770  0.32930  0.47340  Biso   1.000  H
  C584     1.0000 0.37615  0.44072  0.46820  Biso   1.000  C
  C585     1.0000 0.37165  0.44086  0.44153  Biso   1.000  C
  H290     1.0000 0.34830  0.47020  0.43340  Biso   1.000  H
  C586     1.0000 0.40110  0.39851  0.42701  Biso   1.000  C
  H291     1.0000 0.39680  0.39790  0.40910  Biso   1.000  H
  C587     1.0000 0.43675  0.35731  0.43883  Biso   1.000  C
  C588     1.0000 0.46719  0.31411  0.42367  Biso   1.000  C
  N73      1.0000 0.49238  0.28059  0.41170  Biso   1.000  N
  C589     1.0000 0.41241  0.39783  0.47975  Biso   1.000  C
  H292     1.0000 0.41580  0.39710  0.49770  Biso   1.000  H
  C590     1.0000 0.36506  0.50351  0.50871  Biso   1.000  C
  C591     1.0000 0.42198  0.52018  0.51241  Biso   1.000  C
  H293     1.0000 0.44740  0.52030  0.49840  Biso   1.000  H
  C592     1.0000 0.44173  0.53657  0.53625  Biso   1.000  C
  H294     1.0000 0.48050  0.54740  0.53860  Biso   1.000  H
  C593     1.0000 0.40422  0.53690  0.55652  Biso   1.000  C
  C594     1.0000 0.42395  0.55208  0.58120  Biso   1.000  C
  N74      1.0000 0.44053  0.56361  0.60127  Biso   1.000  N
  C595     1.0000 0.34628  0.52032  0.55322  Biso   1.000  C
  H295     1.0000 0.32070  0.52060  0.56720  Biso   1.000  H
  C596     1.0000 0.32776  0.50377  0.52938  Biso   1.000  C
  H296     1.0000 0.28910  0.49240  0.52700  Biso   1.000  H
  C597     1.0000 0.25898  0.62984  0.51168  Biso   1.000  C
  C598     1.0000 0.31803  0.64008  0.50778  Biso   1.000  C
  H297     1.0000 0.33590  0.62600  0.49270  Biso   1.000  H
  C599     1.0000 0.34987  0.67080  0.52602  Biso   1.000  C
  H298     1.0000 0.38930  0.67810  0.52340  Biso   1.000  H
  C600     1.0000 0.32331  0.69076  0.54811  Biso   1.000  C
  C601     1.0000 0.35675  0.72361  0.56699  Biso   1.000  C
  N75      1.0000 0.38328  0.74782  0.58169  Biso   1.000  N
  C602     1.0000 0.26491  0.68280  0.55163  Biso   1.000  C
  H299     1.0000 0.24670  0.69900  0.56620  Biso   1.000  H
  C603     1.0000 0.23425  0.65163  0.53402  Biso   1.000  C
  H300     1.0000 0.19490  0.64450  0.53700  Biso   1.000  H
  C604     1.0000 0.16725  0.61827  0.48705  Biso   1.000  C
  C605     1.0000 0.15420  0.68074  0.48624  Biso   1.000  C
  H301     1.0000 0.18340  0.70970  0.48920  Biso   1.000  H
  C606     1.0000 0.09890  0.70034  0.48120  Biso   1.000  C
  H302     1.0000 0.09060  0.74250  0.48040  Biso   1.000  H
  C607     1.0000 0.05560  0.65750  0.47736  Biso   1.000  C
  C608     1.0000 0.99864  0.68020  0.47325  Biso   1.000  C
  N76      1.0000 0.95335  0.69700  0.46951  Biso   1.000  N
  C609     1.0000 0.06825  0.59646  0.47869  Biso   1.000  C
  H303     1.0000 0.03870  0.56770  0.47620  Biso   1.000  H
  C610     1.0000 0.12249  0.57640  0.48349  Biso   1.000  C
  H304     1.0000 0.13000  0.53410  0.48440  Biso   1.000  H
  C611     1.0000 0.16367  0.51345  0.42964  Biso   1.000  C
  C612     1.0000 0.16493  0.57557  0.42650  Biso   1.000  C
  H305     1.0000 0.19940  0.59690  0.42960  Biso   1.000  H
  C613     1.0000 0.11700  0.60749  0.41893  Biso   1.000  C
  H306     1.0000 0.11840  0.65030  0.41700  Biso   1.000  H
  C614     1.0000 0.06617  0.57548  0.41409  Biso   1.000  C
  C615     1.0000 0.01690  0.61003  0.40826  Biso   1.000  C
  N77      1.0000 0.97990  0.64350  0.40423  Biso   1.000  N
  C616     1.0000 0.06473  0.51196  0.41662  Biso   1.000  C
  H307     1.0000 0.03050  0.49040  0.41330  Biso   1.000  H
  C617     1.0000 0.11352  0.48083  0.42394  Biso   1.000  C
  H308     1.0000 0.11310  0.43780  0.42510  Biso   1.000  H
  C618     1.0000 0.23280  0.42322  0.42944  Biso   1.000  C
  C619     1.0000 0.23088  0.41046  0.40308  Biso   1.000  C
  H309     1.0000 0.21590  0.43980  0.39170  Biso   1.000  H
  C620     1.0000 0.25039  0.35613  0.39392  Biso   1.000  C
  H310     1.0000 0.24980  0.34840  0.37620  Biso   1.000  H
  C621     1.0000 0.27115  0.31226  0.41055  Biso   1.000  C
  C622     1.0000 0.29061  0.25538  0.40109  Biso   1.000  C
  N78      1.0000 0.30602  0.20880  0.39356  Biso   1.000  N
  C623     1.0000 0.27221  0.32317  0.43666  Biso   1.000  C
  H311     1.0000 0.28580  0.29290  0.44800  Biso   1.000  H
  C624     1.0000 0.25336  0.37830  0.44587  Biso   1.000  C
  H312     1.0000 0.25430  0.38590  0.46360  Biso   1.000  H
  C625     1.0000 0.69690  0.30171  0.72908  Biso   1.000  C
  C626     1.0000 0.74135  0.29828  0.71057  Biso   1.000  C
  C627     1.0000 0.74226  0.25949  0.73245  Biso   1.000  C
  C628     1.0000 0.64615  0.32641  0.73708  Biso   1.000  C
  C629     1.0000 0.76541  0.31787  0.68881  Biso   1.000  C
  C630     1.0000 0.76461  0.21274  0.74565  Biso   1.000  C
  C631     1.0000 0.62805  0.31696  0.76336  Biso   1.000  C
  C632     1.0000 0.66903  0.31233  0.78264  Biso   1.000  C
  H313     1.0000 0.70810  0.31720  0.77850  Biso   1.000  H
  C633     1.0000 0.65393  0.30076  0.80764  Biso   1.000  C
  H314     1.0000 0.68240  0.29720  0.82040  Biso   1.000  H
  C634     1.0000 0.59689  0.29446  0.81390  Biso   1.000  C
  C635     1.0000 0.57954  0.28261  0.83950  Biso   1.000  C
  N79      1.0000 0.56733  0.27412  0.86023  Biso   1.000  N
  C636     1.0000 0.55428  0.30111  0.79506  Biso   1.000  C
  H315     1.0000 0.51510  0.29820  0.79950  Biso   1.000  H
  C637     1.0000 0.57036  0.31197  0.77014  Biso   1.000  C
  H316     1.0000 0.54190  0.31610  0.75740  Biso   1.000  H
  C638     1.0000 0.61136  0.36103  0.71915  Biso   1.000  C
  C639     1.0000 0.58183  0.41325  0.72663  Biso   1.000  C
  H317     1.0000 0.58300  0.42570  0.74390  Biso   1.000  H
  C640     1.0000 0.55102  0.44684  0.70934  Biso   1.000  C
  H318     1.0000 0.53090  0.48190  0.71480  Biso   1.000  H
  C641     1.0000 0.54949  0.42921  0.68376  Biso   1.000  C
  C642     1.0000 0.51981  0.46694  0.66593  Biso   1.000  C
  N80      1.0000 0.49766  0.50064  0.65248  Biso   1.000  N
  C643     1.0000 0.57677  0.37616  0.67614  Biso   1.000  C
  H319     1.0000 0.57400  0.36290  0.65900  Biso   1.000  H
  C644     1.0000 0.60787  0.34282  0.69351  Biso   1.000  C
  H320     1.0000 0.62710  0.30720  0.68810  Biso   1.000  H
  C645     1.0000 0.74295  0.37233  0.67609  Biso   1.000  C
  C646     1.0000 0.72050  0.42077  0.69032  Biso   1.000  C
  H321     1.0000 0.72310  0.41990  0.70830  Biso   1.000  H
  C647     1.0000 0.69494  0.46920  0.67854  Biso   1.000  C
  H322     1.0000 0.67960  0.50160  0.68830  Biso   1.000  H
  C648     1.0000 0.69167  0.47043  0.65220  Biso   1.000  C
  C649     1.0000 0.66221  0.51937  0.63963  Biso   1.000  C
  N81      1.0000 0.63745  0.55738  0.62952  Biso   1.000  N
  C650     1.0000 0.71616  0.42366  0.63756  Biso   1.000  C
  H323     1.0000 0.71460  0.42530  0.61950  Biso   1.000  H
  C651     1.0000 0.74208  0.37611  0.64930  Biso   1.000  C
  H324     1.0000 0.75970  0.34530  0.63940  Biso   1.000  H
  C652     1.0000 0.81209  0.28214  0.67731  Biso   1.000  C
  C653     1.0000 0.86074  0.30892  0.66746  Biso   1.000  C
  H325     1.0000 0.86400  0.35190  0.66730  Biso   1.000  H
  C654     1.0000 0.90485  0.27363  0.65787  Biso   1.000  C
  H326     1.0000 0.93890  0.29200  0.65180  Biso   1.000  H
  C655     1.0000 0.89832  0.21045  0.65726  Biso   1.000  C
  C656     1.0000 0.94403  0.17254  0.64860  Biso   1.000  C
  N82      1.0000 0.97872  0.13947  0.64212  Biso   1.000  N
  C657     1.0000 0.84829  0.18332  0.66632  Biso   1.000  C
  H327     1.0000 0.84340  0.14060  0.66540  Biso   1.000  H
  C658     1.0000 0.80635  0.21929  0.67662  Biso   1.000  C
  H328     1.0000 0.77300  0.20100  0.68340  Biso   1.000  H
  C659     1.0000 0.82023  0.18559  0.73878  Biso   1.000  C
  C660     1.0000 0.86591  0.22336  0.73157  Biso   1.000  C
  H329     1.0000 0.86110  0.26610  0.73130  Biso   1.000  H
  C661     1.0000 0.91789  0.19818  0.72483  Biso   1.000  C
  H330     1.0000 0.94880  0.22350  0.72000  Biso   1.000  H
  C662     1.0000 0.92429  0.13622  0.72525  Biso   1.000  C
  C663     1.0000 0.97717  0.10820  0.71844  Biso   1.000  C
  N83      1.0000 0.01930  0.08299  0.71240  Biso   1.000  N
  C664     1.0000 0.87948  0.09765  0.73234  Biso   1.000  C
  H331     1.0000 0.88430  0.05490  0.73220  Biso   1.000  H
  C665     1.0000 0.82776  0.12332  0.73962  Biso   1.000  C
  H332     1.0000 0.79750  0.09800  0.74520  Biso   1.000  H
  C666     1.0000 0.73118  0.18462  0.76645  Biso   1.000  C
  C667     1.0000 0.75721  0.16650  0.78884  Biso   1.000  C
  H333     1.0000 0.79740  0.17020  0.79060  Biso   1.000  H
  C668     1.0000 0.72530  0.14309  0.80874  Biso   1.000  C
  H334     1.0000 0.74340  0.13090  0.82410  Biso   1.000  H
  C669     1.0000 0.66628  0.13771  0.80598  Biso   1.000  C
  C670     1.0000 0.63103  0.11586  0.82638  Biso   1.000  C
  N84      1.0000 0.60146  0.09874  0.84196  Biso   1.000  N
  C671     1.0000 0.63896  0.15516  0.78324  Biso   1.000  C
  H335     1.0000 0.59890  0.15100  0.78130  Biso   1.000  H
  C672     1.0000 0.67205  0.17857  0.76381  Biso   1.000  C
  H336     1.0000 0.65430  0.19070  0.74840  Biso   1.000  H
  Cu15     1.0000 0.03584  0.42484  0.13644  Biso   1.000  Cu
  C673     1.0000 0.20736  0.49331  0.97558  Biso   1.000  C
  Cu16     1.0000 0.05241  0.22608  0.10342  Biso   1.000  Cu
  C674     1.0000 0.25250  0.44938  0.97937  Biso   1.000  C
  C675     1.0000 0.25597  0.49262  0.95925  Biso   1.000  C
  C676     1.0000 0.15643  0.51577  0.98336  Biso   1.000  C
  C677     1.0000 0.27401  0.40205  0.99231  Biso   1.000  C
  C678     1.0000 0.28543  0.51816  0.93971  Biso   1.000  C
  C679     1.0000 0.05726  0.64267  0.96544  Biso   1.000  C
  H337     1.0000 0.03230  0.67070  0.97340  Biso   1.000  H
  C680     1.0000 0.12385  0.55928  0.96820  Biso   1.000  C
  C681     1.0000 0.12835  0.55914  0.94153  Biso   1.000  C
  H338     1.0000 0.15170  0.52980  0.93340  Biso   1.000  H
  C682     1.0000 0.09890  0.60149  0.92701  Biso   1.000  C
  H339     1.0000 0.10320  0.60210  0.90910  Biso   1.000  H
  C683     1.0000 0.06325  0.64269  0.93883  Biso   1.000  C
  C684     1.0000 0.03281  0.68589  0.92367  Biso   1.000  C
  N85      1.0000 0.00762  0.71941  0.91170  Biso   1.000  N
  C685     1.0000 0.08759  0.60217  0.97975  Biso   1.000  C
  H340     1.0000 0.08420  0.60290  0.99770  Biso   1.000  H
  C686     1.0000 0.13494  0.49649  0.00871  Biso   1.000  C
  C687     1.0000 0.07802  0.47982  0.01241  Biso   1.000  C
  H341     1.0000 0.05260  0.47970  0.99840  Biso   1.000  H
  C688     1.0000 0.05827  0.46343  0.03625  Biso   1.000  C
  H342     1.0000 0.01950  0.45260  0.03860  Biso   1.000  H
  C689     1.0000 0.09578  0.46310  0.05652  Biso   1.000  C
  C690     1.0000 0.07605  0.44792  0.08120  Biso   1.000  C
  N86      1.0000 0.05947  0.43639  0.10127  Biso   1.000  N
  C691     1.0000 0.15372  0.47968  0.05322  Biso   1.000  C
  H343     1.0000 0.17930  0.47940  0.06720  Biso   1.000  H
  C692     1.0000 0.17224  0.49623  0.02938  Biso   1.000  C
  H344     1.0000 0.21090  0.50760  0.02700  Biso   1.000  H
  C693     1.0000 0.24102  0.37016  0.01168  Biso   1.000  C
  C694     1.0000 0.18197  0.35992  0.00778  Biso   1.000  C
  H345     1.0000 0.16410  0.37400  0.99270  Biso   1.000  H
  C695     1.0000 0.15013  0.32920  0.02602  Biso   1.000  C
  H346     1.0000 0.11070  0.32190  0.02340  Biso   1.000  H
  C696     1.0000 0.17669  0.30924  0.04811  Biso   1.000  C
  C697     1.0000 0.14325  0.27639  0.06699  Biso   1.000  C
  N87      1.0000 0.11672  0.25218  0.08169  Biso   1.000  N
  C698     1.0000 0.23509  0.31720  0.05163  Biso   1.000  C
  H347     1.0000 0.25330  0.30100  0.06620  Biso   1.000  H
  C699     1.0000 0.26575  0.34837  0.03402  Biso   1.000  C
  H348     1.0000 0.30510  0.35550  0.03700  Biso   1.000  H
  C700     1.0000 0.33275  0.38173  0.98705  Biso   1.000  C
  C701     1.0000 0.34580  0.31926  0.98624  Biso   1.000  C
  H349     1.0000 0.31660  0.29030  0.98920  Biso   1.000  H
  C702     1.0000 0.40110  0.29966  0.98120  Biso   1.000  C
  H350     1.0000 0.40940  0.25750  0.98040  Biso   1.000  H
  C703     1.0000 0.44440  0.34250  0.97736  Biso   1.000  C
  C704     1.0000 0.50136  0.31980  0.97325  Biso   1.000  C
  N88      1.0000 0.54665  0.30300  0.96951  Biso   1.000  N
  C705     1.0000 0.43175  0.40354  0.97869  Biso   1.000  C
  H351     1.0000 0.46130  0.43230  0.97620  Biso   1.000  H
  C706     1.0000 0.37751  0.42360  0.98349  Biso   1.000  C
  H352     1.0000 0.37000  0.46590  0.98440  Biso   1.000  H
  C707     1.0000 0.33633  0.48655  0.92964  Biso   1.000  C
  C708     1.0000 0.33507  0.42443  0.92650  Biso   1.000  C
  H353     1.0000 0.30060  0.40310  0.92960  Biso   1.000  H
  C709     1.0000 0.38300  0.39251  0.91893  Biso   1.000  C
  H354     1.0000 0.38160  0.34970  0.91700  Biso   1.000  H
  C710     1.0000 0.43383  0.42452  0.91409  Biso   1.000  C
  C711     1.0000 0.48310  0.38997  0.90826  Biso   1.000  C
  N89      1.0000 0.52010  0.35650  0.90423  Biso   1.000  N
  C712     1.0000 0.43527  0.48804  0.91662  Biso   1.000  C
  H355     1.0000 0.46950  0.50960  0.91330  Biso   1.000  H
  C713     1.0000 0.38648  0.51917  0.92394  Biso   1.000  C
  H356     1.0000 0.38690  0.56220  0.92510  Biso   1.000  H
  C714     1.0000 0.26720  0.57678  0.92944  Biso   1.000  C
  C715     1.0000 0.26912  0.58954  0.90308  Biso   1.000  C
  H357     1.0000 0.28410  0.56020  0.89170  Biso   1.000  H
  C716     1.0000 0.24961  0.64387  0.89392  Biso   1.000  C
  H358     1.0000 0.25020  0.65160  0.87620  Biso   1.000  H
  C717     1.0000 0.22885  0.68774  0.91055  Biso   1.000  C
  C718     1.0000 0.20939  0.74462  0.90109  Biso   1.000  C
  N90      1.0000 0.19398  0.79120  0.89356  Biso   1.000  N
  C719     1.0000 0.22779  0.67683  0.93666  Biso   1.000  C
  H359     1.0000 0.21420  0.70710  0.94800  Biso   1.000  H
  C720     1.0000 0.24664  0.62170  0.94587  Biso   1.000  C
  H360     1.0000 0.24570  0.61410  0.96360  Biso   1.000  H
  C721     1.0000 0.80310  0.69829  0.22908  Biso   1.000  C
  C722     1.0000 0.75865  0.70172  0.21057  Biso   1.000  C
  C723     1.0000 0.75774  0.74051  0.23245  Biso   1.000  C
  C724     1.0000 0.85385  0.67359  0.23708  Biso   1.000  C
  C725     1.0000 0.73459  0.68213  0.18881  Biso   1.000  C
  C726     1.0000 0.73539  0.78726  0.24565  Biso   1.000  C
  C727     1.0000 0.87195  0.68304  0.26336  Biso   1.000  C
  C728     1.0000 0.83097  0.68767  0.28264  Biso   1.000  C
  H361     1.0000 0.79190  0.68280  0.27850  Biso   1.000  H
  C729     1.0000 0.84607  0.69924  0.30764  Biso   1.000  C
  H362     1.0000 0.81760  0.70280  0.32040  Biso   1.000  H
  C730     1.0000 0.90311  0.70554  0.31390  Biso   1.000  C
  C731     1.0000 0.92046  0.71739  0.33950  Biso   1.000  C
  N91      1.0000 0.93267  0.72588  0.36023  Biso   1.000  N
  C732     1.0000 0.94572  0.69889  0.29506  Biso   1.000  C
  H363     1.0000 0.98490  0.70180  0.29950  Biso   1.000  H
  C733     1.0000 0.92964  0.68803  0.27014  Biso   1.000  C
  H364     1.0000 0.95810  0.68390  0.25740  Biso   1.000  H
  C734     1.0000 0.88864  0.63897  0.21915  Biso   1.000  C
  C735     1.0000 0.91817  0.58675  0.22663  Biso   1.000  C
  H365     1.0000 0.91700  0.57430  0.24390  Biso   1.000  H
  C736     1.0000 0.94898  0.55316  0.20934  Biso   1.000  C
  H366     1.0000 0.96910  0.51810  0.21480  Biso   1.000  H
  C737     1.0000 0.95051  0.57079  0.18376  Biso   1.000  C
  C738     1.0000 0.98019  0.53306  0.16593  Biso   1.000  C
  N92      1.0000 0.00234  0.49936  0.15248  Biso   1.000  N
  C739     1.0000 0.92323  0.62384  0.17614  Biso   1.000  C
  H367     1.0000 0.92600  0.63710  0.15900  Biso   1.000  H
  C740     1.0000 0.89213  0.65718  0.19351  Biso   1.000  C
  H368     1.0000 0.87290  0.69280  0.18810  Biso   1.000  H
  C741     1.0000 0.75705  0.62767  0.17609  Biso   1.000  C
  C742     1.0000 0.77950  0.57923  0.19032  Biso   1.000  C
  H369     1.0000 0.77690  0.58010  0.20830  Biso   1.000  H
  C743     1.0000 0.80506  0.53080  0.17854  Biso   1.000  C
  H370     1.0000 0.82040  0.49840  0.18830  Biso   1.000  H
  C744     1.0000 0.80833  0.52957  0.15220  Biso   1.000  C
  C745     1.0000 0.83779  0.48063  0.13963  Biso   1.000  C
  N93      1.0000 0.86255  0.44262  0.12952  Biso   1.000  N
  C746     1.0000 0.78384  0.57634  0.13756  Biso   1.000  C
  H371     1.0000 0.78540  0.57470  0.11950  Biso   1.000  H
  C747     1.0000 0.75792  0.62389  0.14930  Biso   1.000  C
  H372     1.0000 0.74030  0.65470  0.13940  Biso   1.000  H
  C748     1.0000 0.68791  0.71786  0.17731  Biso   1.000  C
  C749     1.0000 0.63926  0.69108  0.16746  Biso   1.000  C
  H373     1.0000 0.63600  0.64810  0.16730  Biso   1.000  H
  C750     1.0000 0.59515  0.72637  0.15787  Biso   1.000  C
  H374     1.0000 0.56110  0.70800  0.15180  Biso   1.000  H
  C751     1.0000 0.60168  0.78955  0.15726  Biso   1.000  C
  C752     1.0000 0.55597  0.82746  0.14860  Biso   1.000  C
  N94      1.0000 0.52128  0.86053  0.14212  Biso   1.000  N
  C753     1.0000 0.65171  0.81668  0.16632  Biso   1.000  C
  H375     1.0000 0.65660  0.85940  0.16540  Biso   1.000  H
  C754     1.0000 0.69365  0.78071  0.17662  Biso   1.000  C
  H376     1.0000 0.72700  0.79900  0.18340  Biso   1.000  H
  C755     1.0000 0.67977  0.81441  0.23878  Biso   1.000  C
  C756     1.0000 0.63409  0.77664  0.23157  Biso   1.000  C
  H377     1.0000 0.63890  0.73390  0.23130  Biso   1.000  H
  C757     1.0000 0.58211  0.80182  0.22483  Biso   1.000  C
  H378     1.0000 0.55120  0.77650  0.22000  Biso   1.000  H
  C758     1.0000 0.57571  0.86378  0.22525  Biso   1.000  C
  C759     1.0000 0.52283  0.89180  0.21844  Biso   1.000  C
  N95      1.0000 0.48070  0.91701  0.21240  Biso   1.000  N
  C760     1.0000 0.62052  0.90235  0.23234  Biso   1.000  C
  H379     1.0000 0.61570  0.94510  0.23220  Biso   1.000  H
  C761     1.0000 0.67224  0.87668  0.23962  Biso   1.000  C
  H380     1.0000 0.70250  0.90200  0.24520  Biso   1.000  H
  C762     1.0000 0.76882  0.81538  0.26645  Biso   1.000  C
  C763     1.0000 0.74279  0.83350  0.28884  Biso   1.000  C
  H381     1.0000 0.70260  0.82980  0.29060  Biso   1.000  H
  C764     1.0000 0.77470  0.85691  0.30874  Biso   1.000  C
  H382     1.0000 0.75660  0.86910  0.32410  Biso   1.000  H
  C765     1.0000 0.83372  0.86229  0.30598  Biso   1.000  C
  C766     1.0000 0.86897  0.88414  0.32638  Biso   1.000  C
  N96      1.0000 0.89854  0.90126  0.34196  Biso   1.000  N
  C767     1.0000 0.86104  0.84484  0.28324  Biso   1.000  C
  H383     1.0000 0.90110  0.84900  0.28130  Biso   1.000  H
  C768     1.0000 0.82795  0.82143  0.26381  Biso   1.000  C
  H384     1.0000 0.84570  0.80930  0.24840  Biso   1.000  H
