data_ZIDNEH_clean
_audit_creation_date              2014-07-02
_audit_creation_method            'Materials Studio'
_symmetry_space_group_name_H-M    'P1'
_symmetry_Int_Tables_number       1
_symmetry_cell_setting            triclinic
loop_
_symmetry_equiv_pos_as_xyz
  x,y,z
_cell_length_a                    21.5588
_cell_length_b                    23.5970
_cell_length_c                    43.7550
_cell_angle_alpha                 92.3438
_cell_angle_beta                  90.0000
_cell_angle_gamma                 117.1820
loop_
_atom_site_label
_atom_site_type_symbol
_atom_site_fract_x
_atom_site_fract_y
_atom_site_fract_z
_atom_site_U_iso_or_equiv
_atom_site_adp_type
_atom_site_occupancy
In1    In    0.34434   0.58502   0.49501   0.01267  Uiso   1.00
In2    In    0.28075   0.07960   0.74405   0.01267  Uiso   1.00
In3    In    0.24068   0.58502   0.99501   0.01267  Uiso   1.00
In4    In    0.79885   0.07960   0.24405   0.01267  Uiso   1.00
H1     H     0.27650   0.86980   0.77350   0.01267  Uiso   1.00
H2     H     0.21400   0.75140   0.58420   0.01267  Uiso   1.00
H3     H     0.22900   0.68080   0.54940   0.01267  Uiso   1.00
H4     H     0.43150   0.75340   0.57670   0.01267  Uiso   1.00
H5     H     0.41650   0.82400   0.61140   0.01267  Uiso   1.00
H6     H     0.37680   0.30600   0.81930   0.01267  Uiso   1.00
H7     H     0.36780   0.37760   0.85540   0.01267  Uiso   1.00
H8     H     0.16640   0.25140   0.86920   0.01267  Uiso   1.00
H9     H     0.17530   0.17980   0.83310   0.01267  Uiso   1.00
H10    H     0.36170   0.40820   0.90370   0.01267  Uiso   1.00
H11    H     0.35450   0.48260   0.93870   0.01267  Uiso   1.00
H12    H     0.15050   0.41720   0.91540   0.01267  Uiso   1.00
H13    H     0.15760   0.34260   0.88050   0.01267  Uiso   1.00
H14    H     0.30580   0.29960   0.71500   0.01267  Uiso   1.00
H15    H     0.29360   0.30060   0.77160   0.01267  Uiso   1.00
H16    H     0.30350   0.02580   0.63090   0.01267  Uiso   1.00
H17    H     0.41940   0.29680   0.67180   0.01267  Uiso   1.00
H18    H     0.42610   0.36460   0.63300   0.01267  Uiso   1.00
H19    H     0.22020   0.25620   0.61360   0.01267  Uiso   1.00
H20    H     0.21340   0.18840   0.65250   0.01267  Uiso   1.00
H21    H     0.35210   0.90560   0.87440   0.01267  Uiso   1.00
H22    H     0.35880   0.97520   0.83660   0.01267  Uiso   1.00
H23    H     0.15100   0.87220   0.81960   0.01267  Uiso   1.00
H24    H     0.14430   0.80260   0.85750   0.01267  Uiso   1.00
H25    H     0.27730   0.86460   0.71540   0.01267  Uiso   1.00
H26    H     0.26250   0.13320   0.85840   0.01267  Uiso   1.00
H27    H     0.30610   0.13260   0.62970   0.01267  Uiso   1.00
H28    H     0.40250   0.91300   0.61950   0.01267  Uiso   1.00
H29    H     0.39110   0.98480   0.65470   0.01267  Uiso   1.00
H30    H     0.19160   0.85500   0.66950   0.01267  Uiso   1.00
H31    H     0.20290   0.78320   0.63420   0.01267  Uiso   1.00
H32    H     0.33210   0.73860   0.92300   0.01267  Uiso   1.00
H33    H     0.13250   0.69980   0.94080   0.01267  Uiso   1.00
H34    H     0.13830   0.77320   0.90520   0.01267  Uiso   1.00
H35    H     0.33800   0.81220   0.88740   0.01267  Uiso   1.00
H36    H     0.44000   0.40300   0.59050   0.01267  Uiso   1.00
H37    H     0.23100   0.34060   0.59250   0.01267  Uiso   1.00
H38    H     0.24020   0.41320   0.55580   0.01267  Uiso   1.00
H39    H     0.44930   0.47560   0.55380   0.01267  Uiso   1.00
H40    H     0.25800   0.02920   0.85800   0.01267  Uiso   1.00
H41    H     0.59330   0.86980   0.27350   0.01267  Uiso   1.00
H42    H     0.53740   0.75140   0.08420   0.01267  Uiso   1.00
H43    H     0.45180   0.68080   0.04940   0.01267  Uiso   1.00
H44    H     0.32190   0.75340   0.07670   0.01267  Uiso   1.00
H45    H     0.40750   0.82400   0.11140   0.01267  Uiso   1.00
H46    H     0.92920   0.30600   0.31930   0.01267  Uiso   1.00
H47    H     0.00980   0.37760   0.35540   0.01267  Uiso   1.00
H48    H     0.08500   0.25140   0.36920   0.01267  Uiso   1.00
H49    H     0.00450   0.17980   0.33310   0.01267  Uiso   1.00
H50    H     0.04650   0.40820   0.40370   0.01267  Uiso   1.00
H51    H     0.12810   0.48260   0.43870   0.01267  Uiso   1.00
H52    H     0.26670   0.41720   0.41540   0.01267  Uiso   1.00
H53    H     0.18500   0.34260   0.38050   0.01267  Uiso   1.00
H54    H     0.99380   0.29960   0.21500   0.01267  Uiso   1.00
H55    H     0.00700   0.30060   0.27160   0.01267  Uiso   1.00
H56    H     0.72230   0.02580   0.13090   0.01267  Uiso   1.00
H57    H     0.87740   0.29680   0.17180   0.01267  Uiso   1.00
H58    H     0.93850   0.36460   0.13300   0.01267  Uiso   1.00
H59    H     0.03600   0.25620   0.11360   0.01267  Uiso   1.00
H60    H     0.97500   0.18840   0.15250   0.01267  Uiso   1.00
H61    H     0.55350   0.90560   0.37440   0.01267  Uiso   1.00
H62    H     0.61640   0.97520   0.33660   0.01267  Uiso   1.00
H63    H     0.72120   0.87220   0.31960   0.01267  Uiso   1.00
H64    H     0.65830   0.80260   0.35750   0.01267  Uiso   1.00
H65    H     0.58730   0.86460   0.21540   0.01267  Uiso   1.00
H66    H     0.87070   0.13320   0.35840   0.01267  Uiso   1.00
H67    H     0.82650   0.13260   0.12970   0.01267  Uiso   1.00
H68    H     0.51050   0.91300   0.11950   0.01267  Uiso   1.00
H69    H     0.59370   0.98480   0.15470   0.01267  Uiso   1.00
H70    H     0.66340   0.85500   0.16950   0.01267  Uiso   1.00
H71    H     0.58030   0.78320   0.13420   0.01267  Uiso   1.00
H72    H     0.40650   0.73860   0.42300   0.01267  Uiso   1.00
H73    H     0.56730   0.69980   0.44080   0.01267  Uiso   1.00
H74    H     0.63490   0.77320   0.40520   0.01267  Uiso   1.00
H75    H     0.47420   0.81220   0.38740   0.01267  Uiso   1.00
H76    H     0.96300   0.40300   0.09050   0.01267  Uiso   1.00
H77    H     0.10960   0.34060   0.09250   0.01267  Uiso   1.00
H78    H     0.17300   0.41320   0.05580   0.01267  Uiso   1.00
H79    H     0.02630   0.47560   0.05380   0.01267  Uiso   1.00
H80    H     0.77120   0.02920   0.35800   0.01267  Uiso   1.00
C1     C     0.22900   0.66860   0.96040   0.01267  Uiso   1.00
C2     C     0.26160   0.95240   0.77100   0.01267  Uiso   1.00
C3     C     0.35020   0.50200   0.53070   0.01267  Uiso   1.00
C4     C     0.27230   0.89920   0.76050   0.01267  Uiso   1.00
C5     C     0.28740   0.20640   0.76860   0.01267  Uiso   1.00
C6     C     0.25880   0.02860   0.80970   0.01267  Uiso   1.00
C7     C     0.28090   0.19120   0.79940   0.01267  Uiso   1.00
C8     C     0.25810   0.75180   0.58270   0.01267  Uiso   1.00
C9     C     0.26702   0.70984   0.56202   0.01267  Uiso   1.00
C10    C     0.33163   0.71046   0.55979   0.01267  Uiso   1.00
C11    C     0.38730   0.75300   0.57820   0.01267  Uiso   1.00
C12    C     0.37850   0.79500   0.59885   0.01267  Uiso   1.00
C13    C     0.31390   0.79440   0.60108   0.01267  Uiso   1.00
C14    C     0.27080   0.12980   0.80940   0.01267  Uiso   1.00
C15    C     0.27680   0.23600   0.82277   0.01267  Uiso   1.00
C16    C     0.33400   0.29480   0.82940   0.01267  Uiso   1.00
C17    C     0.32870   0.33740   0.85090   0.01267  Uiso   1.00
C18    C     0.26630   0.32120   0.86572   0.01267  Uiso   1.00
C19    C     0.20900   0.26240   0.85910   0.01267  Uiso   1.00
C20    C     0.21435   0.21990   0.83760   0.01267  Uiso   1.00
C21    C     0.26030   0.36840   0.88880   0.01267  Uiso   1.00
C22    C     0.31880   0.41000   0.90610   0.01267  Uiso   1.00
C23    C     0.31460   0.45420   0.92680   0.01267  Uiso   1.00
C24    C     0.25180   0.45680   0.93030   0.01267  Uiso   1.00
C25    C     0.19340   0.41540   0.91310   0.01267  Uiso   1.00
C26    C     0.19750   0.37100   0.89230   0.01267  Uiso   1.00
C27    C     0.30100   0.26660   0.72800   0.01267  Uiso   1.00
C28    C     0.30010   0.03260   0.68040   0.01267  Uiso   1.00
C29    C     0.34450   0.66660   0.53620   0.01267  Uiso   1.00
C30    C     0.29410   0.26720   0.75890   0.01267  Uiso   1.00
C31    C     0.30260   0.05080   0.64830   0.01267  Uiso   1.00
C32    C     0.25850   0.97360   0.79980   0.01267  Uiso   1.00
C33    C     0.30040   0.12740   0.67790   0.01267  Uiso   1.00
C34    C     0.31580   0.23620   0.66580   0.01267  Uiso   1.00
C35    C     0.37900   0.28860   0.66000   0.01267  Uiso   1.00
C36    C     0.38290   0.32880   0.63690   0.01267  Uiso   1.00
C37    C     0.32380   0.31680   0.61960   0.01267  Uiso   1.00
C38    C     0.26060   0.26440   0.62540   0.01267  Uiso   1.00
C39    C     0.25660   0.22420   0.64850   0.01267  Uiso   1.00
C40    C     0.30380   0.18480   0.68890   0.01267  Uiso   1.00
C41    C     0.27560   0.95680   0.72120   0.01267  Uiso   1.00
C42    C     0.24750   0.84740   0.86950   0.01267  Uiso   1.00
C43    C     0.31130   0.89880   0.86330   0.01267  Uiso   1.00
C44    C     0.31520   0.94000   0.84080   0.01267  Uiso   1.00
C45    C     0.25550   0.93020   0.82450   0.01267  Uiso   1.00
C46    C     0.19180   0.87900   0.83070   0.01267  Uiso   1.00
C47    C     0.18790   0.83760   0.85320   0.01267  Uiso   1.00
C48    C     0.27550   0.89660   0.72870   0.01267  Uiso   1.00
C49    C     0.29990   0.20540   0.71820   0.01267  Uiso   1.00
C50    C     0.26390   0.10920   0.84070   0.01267  Uiso   1.00
C51    C     0.30370   0.10940   0.64730   0.01267  Uiso   1.00
C52    C     0.30380   0.84140   0.62353   0.01267  Uiso   1.00
C53    C     0.35960   0.90120   0.62960   0.01267  Uiso   1.00
C54    C     0.35291   0.94382   0.65060   0.01267  Uiso   1.00
C55    C     0.29020   0.92660   0.66544   0.01267  Uiso   1.00
C56    C     0.23440   0.86680   0.65930   0.01267  Uiso   1.00
C57    C     0.24115   0.82410   0.63840   0.01267  Uiso   1.00
C58    C     0.28280   0.97060   0.68950   0.01267  Uiso   1.00
C59    C     0.29270   0.74560   0.91940   0.01267  Uiso   1.00
C60    C     0.23180   0.71240   0.93520   0.01267  Uiso   1.00
C61    C     0.17420   0.72260   0.92990   0.01267  Uiso   1.00
C62    C     0.17760   0.76620   0.90880   0.01267  Uiso   1.00
C63    C     0.23870   0.79960   0.89290   0.01267  Uiso   1.00
C64    C     0.29630   0.78940   0.89820   0.01267  Uiso   1.00
C65    C     0.39950   0.40500   0.58350   0.01267  Uiso   1.00
C66    C     0.33470   0.36500   0.59500   0.01267  Uiso   1.00
C67    C     0.27530   0.36800   0.58470   0.01267  Uiso   1.00
C68    C     0.28080   0.41120   0.56290   0.01267  Uiso   1.00
C69    C     0.34560   0.45120   0.55140   0.01267  Uiso   1.00
C70    C     0.40500   0.44820   0.56170   0.01267  Uiso   1.00
C71    C     0.25990   0.05180   0.84030   0.01267  Uiso   1.00
C72    C     0.24700   0.50480   0.95230   0.01267  Uiso   1.00
C73    C     0.43960   0.66860   0.46040   0.01267  Uiso   1.00
C74    C     0.69080   0.95240   0.27100   0.01267  Uiso   1.00
C75    C     0.15180   0.50200   0.03070   0.01267  Uiso   1.00
C76    C     0.62690   0.89920   0.26050   0.01267  Uiso   1.00
C77    C     0.91900   0.20640   0.26860   0.01267  Uiso   1.00
C78    C     0.76980   0.02860   0.30970   0.01267  Uiso   1.00
C79    C     0.91030   0.19120   0.29940   0.01267  Uiso   1.00
C80    C     0.49370   0.75180   0.08270   0.01267  Uiso   1.00
C81    C     0.44282   0.70984   0.06202   0.01267  Uiso   1.00
C82    C     0.37883   0.71046   0.05979   0.01267  Uiso   1.00
C83    C     0.36570   0.75300   0.07820   0.01267  Uiso   1.00
C84    C     0.41650   0.79500   0.09885   0.01267  Uiso   1.00
C85    C     0.48050   0.79440   0.10108   0.01267  Uiso   1.00
C86    C     0.85900   0.12980   0.30940   0.01267  Uiso   1.00
C87    C     0.95920   0.23600   0.32277   0.01267  Uiso   1.00
C88    C     0.96080   0.29480   0.32940   0.01267  Uiso   1.00
C89    C     0.00870   0.33740   0.35090   0.01267  Uiso   1.00
C90    C     0.05490   0.32120   0.36572   0.01267  Uiso   1.00
C91    C     0.05340   0.26240   0.35910   0.01267  Uiso   1.00
C92    C     0.00555   0.21990   0.33760   0.01267  Uiso   1.00
C93    C     0.10810   0.36840   0.38880   0.01267  Uiso   1.00
C94    C     0.09120   0.41000   0.40610   0.01267  Uiso   1.00
C95    C     0.13960   0.45420   0.42680   0.01267  Uiso   1.00
C96    C     0.20500   0.45680   0.43030   0.01267  Uiso   1.00
C97    C     0.22200   0.41540   0.41310   0.01267  Uiso   1.00
C98    C     0.17350   0.37100   0.39230   0.01267  Uiso   1.00
C99    C     0.96560   0.26660   0.22800   0.01267  Uiso   1.00
C100   C     0.73250   0.03260   0.18040   0.01267  Uiso   1.00
C101   C     0.32210   0.66660   0.03620   0.01267  Uiso   1.00
C102   C     0.97310   0.26720   0.25890   0.01267  Uiso   1.00
C103   C     0.74820   0.05080   0.14830   0.01267  Uiso   1.00
C104   C     0.71510   0.97360   0.29980   0.01267  Uiso   1.00
C105   C     0.82700   0.12740   0.17790   0.01267  Uiso   1.00
C106   C     0.92040   0.23620   0.16580   0.01267  Uiso   1.00
C107   C     0.90960   0.28860   0.16000   0.01267  Uiso   1.00
C108   C     0.94590   0.32880   0.13690   0.01267  Uiso   1.00
C109   C     0.99300   0.31680   0.11960   0.01267  Uiso   1.00
C110   C     0.00380   0.26440   0.12540   0.01267  Uiso   1.00
C111   C     0.96760   0.22420   0.14850   0.01267  Uiso   1.00
C112   C     0.88100   0.18480   0.18890   0.01267  Uiso   1.00
C113   C     0.68120   0.95680   0.22120   0.01267  Uiso   1.00
C114   C     0.59990   0.84740   0.36950   0.01267  Uiso   1.00
C115   C     0.58750   0.89880   0.36330   0.01267  Uiso   1.00
C116   C     0.62480   0.94000   0.34080   0.01267  Uiso   1.00
C117   C     0.67470   0.93020   0.32450   0.01267  Uiso   1.00
C118   C     0.68720   0.87900   0.33070   0.01267  Uiso   1.00
C119   C     0.64970   0.83760   0.35320   0.01267  Uiso   1.00
C120   C     0.62110   0.89660   0.22870   0.01267  Uiso   1.00
C121   C     0.90550   0.20540   0.21820   0.01267  Uiso   1.00
C122   C     0.84530   0.10920   0.34070   0.01267  Uiso   1.00
C123   C     0.80570   0.10940   0.14730   0.01267  Uiso   1.00
C124   C     0.53760   0.84140   0.12353   0.01267  Uiso   1.00
C125   C     0.54160   0.90120   0.12960   0.01267  Uiso   1.00
C126   C     0.59091   0.94382   0.15060   0.01267  Uiso   1.00
C127   C     0.63640   0.92660   0.16544   0.01267  Uiso   1.00
C128   C     0.63240   0.86680   0.15930   0.01267  Uiso   1.00
C129   C     0.58295   0.82410   0.13840   0.01267  Uiso   1.00
C130   C     0.68780   0.97060   0.18950   0.01267  Uiso   1.00
C131   C     0.45290   0.74560   0.41940   0.01267  Uiso   1.00
C132   C     0.48060   0.71240   0.43520   0.01267  Uiso   1.00
C133   C     0.54840   0.72260   0.42990   0.01267  Uiso   1.00
C134   C     0.58860   0.76620   0.40880   0.01267  Uiso   1.00
C135   C     0.56090   0.79960   0.39290   0.01267  Uiso   1.00
C136   C     0.49310   0.78940   0.39820   0.01267  Uiso   1.00
C137   C     0.00550   0.40500   0.08350   0.01267  Uiso   1.00
C138   C     0.03030   0.36500   0.09500   0.01267  Uiso   1.00
C139   C     0.09270   0.36800   0.08470   0.01267  Uiso   1.00
C140   C     0.13040   0.41120   0.06290   0.01267  Uiso   1.00
C141   C     0.10560   0.45120   0.05140   0.01267  Uiso   1.00
C142   C     0.04320   0.44820   0.06170   0.01267  Uiso   1.00
C143   C     0.79190   0.05180   0.34030   0.01267  Uiso   1.00
C144   C     0.25780   0.50480   0.45230   0.01267  Uiso   1.00
N1     N     0.26790   0.07500   0.79050   0.01267  Uiso   1.00
N2     N     0.29390   0.08000   0.69690   0.01267  Uiso   1.00
N3     N     0.29200   0.17120   0.74420   0.01267  Uiso   1.00
N4     N     0.26660   0.98820   0.74340   0.01267  Uiso   1.00
N5     N     0.80710   0.07500   0.29050   0.01267  Uiso   1.00
N6     N     0.78610   0.08000   0.19690   0.01267  Uiso   1.00
N7     N     0.87920   0.17120   0.24420   0.01267  Uiso   1.00
N8     N     0.72160   0.98820   0.24340   0.01267  Uiso   1.00
O1     O     0.18740   0.50600   0.95580   0.01267  Uiso   1.00
O2     O     0.28220   0.65740   0.96030   0.01267  Uiso   1.00
O3     O     0.39770   0.66420   0.53390   0.01267  Uiso   1.00
O4     O     0.29870   0.50780   0.52670   0.01267  Uiso   1.00
O5     O     0.17680   0.63800   0.97400   0.01267  Uiso   1.00
O6     O     0.29110   0.63100   0.51890   0.01267  Uiso   1.00
O7     O     0.40220   0.53780   0.52040   0.01267  Uiso   1.00
O8     O     0.30090   0.54060   0.96770   0.01267  Uiso   1.00
O9     O     0.31860   0.50600   0.45580   0.01267  Uiso   1.00
O10    O     0.37520   0.65740   0.46030   0.01267  Uiso   1.00
O11    O     0.26650   0.66420   0.03390   0.01267  Uiso   1.00
O12    O     0.20910   0.50780   0.02670   0.01267  Uiso   1.00
O13    O     0.46120   0.63800   0.47400   0.01267  Uiso   1.00
O14    O     0.33990   0.63100   0.01890   0.01267  Uiso   1.00
O15    O     0.13560   0.53780   0.02040   0.01267  Uiso   1.00
O16    O     0.23970   0.54060   0.46770   0.01267  Uiso   1.00
In5    In    0.08634   0.08518   0.36953   0.01267  Uiso   1.00
In6    In    0.03990   0.58528   0.61840   0.01267  Uiso   1.00
In7    In    0.99884   0.08518   0.86953   0.01267  Uiso   1.00
In8    In    0.54538   0.58528   0.11840   0.01267  Uiso   1.00
H81    H     0.00380   0.67900   0.51030   0.01267  Uiso   1.00
H82    H     0.01490   0.75140   0.47320   0.01267  Uiso   1.00
H83    H     0.17240   0.89220   0.52320   0.01267  Uiso   1.00
H84    H     0.16120   0.81960   0.56030   0.01267  Uiso   1.00
H85    H     0.05480   0.38060   0.64940   0.01267  Uiso   1.00
H86    H     0.07500   0.38360   0.59340   0.01267  Uiso   1.00
H87    H     0.18450   0.24740   0.45040   0.01267  Uiso   1.00
H88    H     0.18220   0.32340   0.48580   0.01267  Uiso   1.00
H89    H     0.98350   0.27500   0.45920   0.01267  Uiso   1.00
H90    H     0.98590   0.19920   0.42380   0.01267  Uiso   1.00
H91    H     0.04070   0.80140   0.64430   0.01267  Uiso   1.00
H92    H     0.10390   0.54640   0.50620   0.01267  Uiso   1.00
H93    H     0.11770   0.65680   0.50840   0.01267  Uiso   1.00
H94    H     0.91280   0.83880   0.76070   0.01267  Uiso   1.00
H95    H     0.12310   0.92200   0.77140   0.01267  Uiso   1.00
H96    H     0.11850   0.99780   0.80620   0.01267  Uiso   1.00
H97    H     0.90820   0.91460   0.79550   0.01267  Uiso   1.00
H98    H     0.19660   0.91760   0.46650   0.01267  Uiso   1.00
H99    H     0.19680   0.99000   0.43150   0.01267  Uiso   1.00
H100   H     0.98560   0.90660   0.43220   0.01267  Uiso   1.00
H101   H     0.98540   0.83420   0.46730   0.01267  Uiso   1.00
H102   H     0.18130   0.41700   0.49590   0.01267  Uiso   1.00
H103   H     0.17740   0.49240   0.53140   0.01267  Uiso   1.00
H104   H     0.97200   0.37680   0.54380   0.01267  Uiso   1.00
H105   H     0.97600   0.30160   0.50840   0.01267  Uiso   1.00
H106   H     0.92850   0.29380   0.72060   0.01267  Uiso   1.00
H107   H     0.93780   0.36660   0.68400   0.01267  Uiso   1.00
H108   H     0.11870   0.49760   0.72430   0.01267  Uiso   1.00
H109   H     0.10950   0.42480   0.76090   0.01267  Uiso   1.00
H110   H     0.05460   0.80340   0.58850   0.01267  Uiso   1.00
H111   H     0.02550   0.64300   0.73290   0.01267  Uiso   1.00
H112   H     0.90860   0.25000   0.76180   0.01267  Uiso   1.00
H113   H     0.90080   0.17460   0.79670   0.01267  Uiso   1.00
H114   H     0.11070   0.26640   0.80960   0.01267  Uiso   1.00
H115   H     0.11850   0.34180   0.77470   0.01267  Uiso   1.00
H116   H     0.93030   0.73120   0.68230   0.01267  Uiso   1.00
H117   H     0.92580   0.80260   0.71990   0.01267  Uiso   1.00
H118   H     0.11290   0.83120   0.75430   0.01267  Uiso   1.00
H119   H     0.11740   0.75980   0.71670   0.01267  Uiso   1.00
H120   H     0.01740   0.53440   0.73230   0.01267  Uiso   1.00
H121   H     0.67520   0.67900   0.01030   0.01267  Uiso   1.00
H122   H     0.73650   0.75140   0.97320   0.01267  Uiso   1.00
H123   H     0.71980   0.89220   0.02320   0.01267  Uiso   1.00
H124   H     0.65840   0.81960   0.06030   0.01267  Uiso   1.00
H125   H     0.32580   0.38060   0.14940   0.01267  Uiso   1.00
H126   H     0.30860   0.38360   0.09340   0.01267  Uiso   1.00
H127   H     0.06290   0.24740   0.95040   0.01267  Uiso   1.00
H128   H     0.14120   0.32340   0.98580   0.01267  Uiso   1.00
H129   H     0.29150   0.27500   0.95920   0.01267  Uiso   1.00
H130   H     0.21330   0.19920   0.92380   0.01267  Uiso   1.00
H131   H     0.76070   0.80140   0.14430   0.01267  Uiso   1.00
H132   H     0.44250   0.54640   0.00620   0.01267  Uiso   1.00
H133   H     0.53910   0.65680   0.00840   0.01267  Uiso   1.00
H134   H     0.92600   0.83880   0.26070   0.01267  Uiso   1.00
H135   H     0.79890   0.92200   0.27140   0.01267  Uiso   1.00
H136   H     0.87930   0.99780   0.30620   0.01267  Uiso   1.00
H137   H     0.00640   0.91460   0.29550   0.01267  Uiso   1.00
H138   H     0.72100   0.91760   0.96650   0.01267  Uiso   1.00
H139   H     0.79320   0.99000   0.93150   0.01267  Uiso   1.00
H140   H     0.92100   0.90660   0.93220   0.01267  Uiso   1.00
H141   H     0.84880   0.83420   0.96730   0.01267  Uiso   1.00
H142   H     0.23570   0.41700   0.99590   0.01267  Uiso   1.00
H143   H     0.31500   0.49240   0.03140   0.01267  Uiso   1.00
H144   H     0.40480   0.37680   0.04380   0.01267  Uiso   1.00
H145   H     0.32560   0.30160   0.00840   0.01267  Uiso   1.00
H146   H     0.36530   0.29380   0.22060   0.01267  Uiso   1.00
H147   H     0.42880   0.36660   0.18400   0.01267  Uiso   1.00
H148   H     0.37890   0.49760   0.22430   0.01267  Uiso   1.00
H149   H     0.31530   0.42480   0.26090   0.01267  Uiso   1.00
H150   H     0.74880   0.80340   0.08850   0.01267  Uiso   1.00
H151   H     0.61750   0.64300   0.23290   0.01267  Uiso   1.00
H152   H     0.34140   0.25000   0.26180   0.01267  Uiso   1.00
H153   H     0.27380   0.17460   0.29670   0.01267  Uiso   1.00
H154   H     0.15570   0.26640   0.30960   0.01267  Uiso   1.00
H155   H     0.22330   0.34180   0.27470   0.01267  Uiso   1.00
H156   H     0.80090   0.73120   0.18230   0.01267  Uiso   1.00
H157   H     0.87680   0.80260   0.21990   0.01267  Uiso   1.00
H158   H     0.71830   0.83120   0.25430   0.01267  Uiso   1.00
H159   H     0.64240   0.75980   0.21670   0.01267  Uiso   1.00
H160   H     0.51700   0.53440   0.23230   0.01267  Uiso   1.00
C145   C     0.07820   0.54620   0.55430   0.01267  Uiso   1.00
C146   C     0.03070   0.54000   0.68480   0.01267  Uiso   1.00
C147   C     0.08155   0.74250   0.53879   0.01267  Uiso   1.00
C148   C     0.03802   0.72224   0.51290   0.01267  Uiso   1.00
C149   C     0.04470   0.76540   0.49091   0.01267  Uiso   1.00
C150   C     0.09460   0.82860   0.49472   0.01267  Uiso   1.00
C151   C     0.13816   0.84892   0.52060   0.01267  Uiso   1.00
C152   C     0.13150   0.80580   0.54260   0.01267  Uiso   1.00
C153   C     0.07740   0.63960   0.55310   0.01267  Uiso   1.00
C154   C     0.01480   0.00940   0.82790   0.01267  Uiso   1.00
C155   C     0.07550   0.69760   0.56310   0.01267  Uiso   1.00
C156   C     0.05810   0.46620   0.59490   0.01267  Uiso   1.00
C157   C     0.05640   0.41220   0.63620   0.01267  Uiso   1.00
C158   C     0.06540   0.41280   0.60550   0.01267  Uiso   1.00
C159   C     0.05980   0.71520   0.59290   0.01267  Uiso   1.00
C160   C     0.04960   0.46820   0.64510   0.01267  Uiso   1.00
C161   C     0.14370   0.25300   0.45220   0.01267  Uiso   1.00
C162   C     0.14240   0.29820   0.47320   0.01267  Uiso   1.00
C163   C     0.08270   0.30640   0.47587   0.01267  Uiso   1.00
C164   C     0.02430   0.26940   0.45740   0.01267  Uiso   1.00
C165   C     0.02570   0.22440   0.43637   0.01267  Uiso   1.00
C166   C     0.08537   0.21614   0.43373   0.01267  Uiso   1.00
C167   C     0.04520   0.76960   0.63180   0.01267  Uiso   1.00
C168   C     0.06780   0.48760   0.56470   0.01267  Uiso   1.00
C169   C     0.04440   0.71240   0.64290   0.01267  Uiso   1.00
C170   C     0.09670   0.56860   0.52330   0.01267  Uiso   1.00
C171   C     0.10120   0.62780   0.52440   0.01267  Uiso   1.00
C172   C     0.95450   0.87100   0.76990   0.01267  Uiso   1.00
C173   C     0.01840   0.87320   0.76280   0.01267  Uiso   1.00
C174   C     0.07950   0.92060   0.77630   0.01267  Uiso   1.00
C175   C     0.07680   0.96560   0.79690   0.01267  Uiso   1.00
C176   C     0.01290   0.96340   0.80410   0.01267  Uiso   1.00
C177   C     0.95180   0.91620   0.79060   0.01267  Uiso   1.00
C178   C     0.09090   0.86900   0.47019   0.01267  Uiso   1.00
C179   C     0.15380   0.91540   0.45960   0.01267  Uiso   1.00
C180   C     0.15386   0.95832   0.43870   0.01267  Uiso   1.00
C181   C     0.09120   0.95500   0.42856   0.01267  Uiso   1.00
C182   C     0.02840   0.90880   0.43920   0.01267  Uiso   1.00
C183   C     0.02830   0.86580   0.46000   0.01267  Uiso   1.00
C184   C     0.03690   0.63700   0.68470   0.01267  Uiso   1.00
C185   C     0.03180   0.48320   0.67620   0.01267  Uiso   1.00
C186   C     0.07902   0.35224   0.49884   0.01267  Uiso   1.00
C187   C     0.13890   0.40900   0.50566   0.01267  Uiso   1.00
C188   C     0.13650   0.45360   0.52671   0.01267  Uiso   1.00
C189   C     0.07431   0.44162   0.54093   0.01267  Uiso   1.00
C190   C     0.01450   0.38500   0.53411   0.01267  Uiso   1.00
C191   C     0.01683   0.34026   0.51310   0.01267  Uiso   1.00
C192   C     0.96705   0.33510   0.72130   0.01267  Uiso   1.00
C193   C     0.97260   0.37840   0.69958   0.01267  Uiso   1.00
C194   C     0.02910   0.43900   0.70067   0.01267  Uiso   1.00
C195   C     0.08010   0.45620   0.72350   0.01267  Uiso   1.00
C196   C     0.07460   0.41300   0.74528   0.01267  Uiso   1.00
C197   C     0.01810   0.35240   0.74420   0.01267  Uiso   1.00
C198   C     0.05330   0.77160   0.60150   0.01267  Uiso   1.00
C199   C     0.03170   0.69200   0.67440   0.01267  Uiso   1.00
C200   C     0.02810   0.61880   0.71550   0.01267  Uiso   1.00
C201   C     0.01430   0.30300   0.76493   0.01267  Uiso   1.00
C202   C     0.94970   0.25340   0.77150   0.01267  Uiso   1.00
C203   C     0.94500   0.20860   0.79220   0.01267  Uiso   1.00
C204   C     0.00500   0.21340   0.80641   0.01267  Uiso   1.00
C205   C     0.06970   0.26320   0.79990   0.01267  Uiso   1.00
C206   C     0.07430   0.30780   0.77910   0.01267  Uiso   1.00
C207   C     0.02430   0.73880   0.69600   0.01267  Uiso   1.00
C208   C     0.96740   0.75140   0.69690   0.01267  Uiso   1.00
C209   C     0.96470   0.79380   0.71920   0.01267  Uiso   1.00
C210   C     0.01890   0.82360   0.74062   0.01267  Uiso   1.00
C211   C     0.07580   0.81080   0.73970   0.01267  Uiso   1.00
C212   C     0.07850   0.76840   0.71740   0.01267  Uiso   1.00
C213   C     0.02390   0.55920   0.71490   0.01267  Uiso   1.00
C214   C     0.00060   0.16600   0.83070   0.01267  Uiso   1.00
C215   C     0.08660   0.16700   0.41280   0.01267  Uiso   1.00
C216   C     0.08470   0.99980   0.40570   0.01267  Uiso   1.00
C217   C     0.46800   0.54620   0.05430   0.01267  Uiso   1.00
C218   C     0.50930   0.54000   0.18480   0.01267  Uiso   1.00
C219   C     0.66095   0.74250   0.03879   0.01267  Uiso   1.00
C220   C     0.68422   0.72224   0.01290   0.01267  Uiso   1.00
C221   C     0.72070   0.76540   0.99091   0.01267  Uiso   1.00
C222   C     0.73400   0.82860   0.99472   0.01267  Uiso   1.00
C223   C     0.71076   0.84892   0.02060   0.01267  Uiso   1.00
C224   C     0.67430   0.80580   0.04260   0.01267  Uiso   1.00
C225   C     0.56220   0.63960   0.05310   0.01267  Uiso   1.00
C226   C     0.99460   0.00940   0.32790   0.01267  Uiso   1.00
C227   C     0.62210   0.69760   0.06310   0.01267  Uiso   1.00
C228   C     0.40810   0.46620   0.09490   0.01267  Uiso   1.00
C229   C     0.35580   0.41220   0.13620   0.01267  Uiso   1.00
C230   C     0.34740   0.41280   0.10550   0.01267  Uiso   1.00
C231   C     0.65540   0.71520   0.09290   0.01267  Uiso   1.00
C232   C     0.41860   0.46820   0.14510   0.01267  Uiso   1.00
C233   C     0.10930   0.25300   0.95220   0.01267  Uiso   1.00
C234   C     0.15580   0.29820   0.97320   0.01267  Uiso   1.00
C235   C     0.22370   0.30640   0.97587   0.01267  Uiso   1.00
C236   C     0.24510   0.26940   0.95740   0.01267  Uiso   1.00
C237   C     0.19870   0.22440   0.93637   0.01267  Uiso   1.00
C238   C     0.13077   0.21614   0.93373   0.01267  Uiso   1.00
C239   C     0.72440   0.76960   0.13180   0.01267  Uiso   1.00
C240   C     0.41980   0.48760   0.06470   0.01267  Uiso   1.00
C241   C     0.66800   0.71240   0.14290   0.01267  Uiso   1.00
C242   C     0.47190   0.56860   0.02330   0.01267  Uiso   1.00
C243   C     0.52660   0.62780   0.02440   0.01267  Uiso   1.00
C244   C     0.91650   0.87100   0.26990   0.01267  Uiso   1.00
C245   C     0.85480   0.87320   0.26280   0.01267  Uiso   1.00
C246   C     0.84110   0.92060   0.27630   0.01267  Uiso   1.00
C247   C     0.88880   0.96560   0.29690   0.01267  Uiso   1.00
C248   C     0.95050   0.96340   0.30410   0.01267  Uiso   1.00
C249   C     0.96440   0.91620   0.29060   0.01267  Uiso   1.00
C250   C     0.77810   0.86900   0.97019   0.01267  Uiso   1.00
C251   C     0.76160   0.91540   0.95960   0.01267  Uiso   1.00
C252   C     0.80446   0.95832   0.93870   0.01267  Uiso   1.00
C253   C     0.86380   0.95500   0.92856   0.01267  Uiso   1.00
C254   C     0.88040   0.90880   0.93920   0.01267  Uiso   1.00
C255   C     0.83750   0.86580   0.96000   0.01267  Uiso   1.00
C256   C     0.60010   0.63700   0.18470   0.01267  Uiso   1.00
C257   C     0.45140   0.48320   0.17620   0.01267  Uiso   1.00
C258   C     0.27322   0.35224   0.99884   0.01267  Uiso   1.00
C259   C     0.27010   0.40900   0.00566   0.01267  Uiso   1.00
C260   C     0.31710   0.45360   0.02671   0.01267  Uiso   1.00
C261   C     0.36731   0.44162   0.04093   0.01267  Uiso   1.00
C262   C     0.37050   0.38500   0.03411   0.01267  Uiso   1.00
C263   C     0.32343   0.34026   0.01310   0.01267  Uiso   1.00
C264   C     0.36805   0.33510   0.22130   0.01267  Uiso   1.00
C265   C     0.40580   0.37840   0.19958   0.01267  Uiso   1.00
C266   C     0.40990   0.43900   0.20067   0.01267  Uiso   1.00
C267   C     0.37610   0.45620   0.22350   0.01267  Uiso   1.00
C268   C     0.33840   0.41300   0.24528   0.01267  Uiso   1.00
C269   C     0.33430   0.35240   0.24420   0.01267  Uiso   1.00
C270   C     0.71830   0.77160   0.10150   0.01267  Uiso   1.00
C271   C     0.66030   0.69200   0.17440   0.01267  Uiso   1.00
C272   C     0.59070   0.61880   0.21550   0.01267  Uiso   1.00
C273   C     0.28870   0.30300   0.26493   0.01267  Uiso   1.00
C274   C     0.30370   0.25340   0.27150   0.01267  Uiso   1.00
C275   C     0.26360   0.20860   0.29220   0.01267  Uiso   1.00
C276   C     0.20840   0.21340   0.30641   0.01267  Uiso   1.00
C277   C     0.19350   0.26320   0.29990   0.01267  Uiso   1.00
C278   C     0.23350   0.30780   0.27910   0.01267  Uiso   1.00
C279   C     0.71450   0.73880   0.19600   0.01267  Uiso   1.00
C280   C     0.78400   0.75140   0.19690   0.01267  Uiso   1.00
C281   C     0.82910   0.79380   0.21920   0.01267  Uiso   1.00
C282   C     0.80470   0.82360   0.24062   0.01267  Uiso   1.00
C283   C     0.73500   0.81080   0.23970   0.01267  Uiso   1.00
C284   C     0.68990   0.76840   0.21740   0.01267  Uiso   1.00
C285   C     0.53530   0.55920   0.21490   0.01267  Uiso   1.00
C286   C     0.16540   0.16600   0.33070   0.01267  Uiso   1.00
C287   C     0.08040   0.16700   0.91280   0.01267  Uiso   1.00
C288   C     0.91510   0.99980   0.90570   0.01267  Uiso   1.00
N9     N     0.05500   0.67800   0.61730   0.01267  Uiso   1.00
N10    N     0.06850   0.58900   0.57090   0.01267  Uiso   1.00
N11    N     0.05080   0.50360   0.61940   0.01267  Uiso   1.00
N12    N     0.04030   0.58920   0.66600   0.01267  Uiso   1.00
N13    N     0.62300   0.67800   0.11730   0.01267  Uiso   1.00
N14    N     0.52050   0.58900   0.07090   0.01267  Uiso   1.00
N15    N     0.45280   0.50360   0.11940   0.01267  Uiso   1.00
N16    N     0.54890   0.58920   0.16600   0.01267  Uiso   1.00
O17    O     0.14150   0.16380   0.40870   0.01267  Uiso   1.00
O18    O     0.03280   0.00480   0.40210   0.01267  Uiso   1.00
O19    O     0.05180   0.16280   0.83770   0.01267  Uiso   1.00
O20    O     0.06570   0.04340   0.84310   0.01267  Uiso   1.00
O21    O     0.03510   0.13240   0.39620   0.01267  Uiso   1.00
O22    O     0.14140   0.03540   0.39240   0.01267  Uiso   1.00
O23    O     0.95740   0.01140   0.83110   0.01267  Uiso   1.00
O24    O     0.93640   0.13160   0.84100   0.01267  Uiso   1.00
O25    O     0.02230   0.16380   0.90870   0.01267  Uiso   1.00
O26    O     0.97200   0.00480   0.90210   0.01267  Uiso   1.00
O27    O     0.11100   0.16280   0.33770   0.01267  Uiso   1.00
O28    O     0.97770   0.04340   0.34310   0.01267  Uiso   1.00
O29    O     0.09730   0.13240   0.89620   0.01267  Uiso   1.00
O30    O     0.89400   0.03540   0.89240   0.01267  Uiso   1.00
O31    O     0.05400   0.01140   0.33110   0.01267  Uiso   1.00
O32    O     0.19520   0.13160   0.34100   0.01267  Uiso   1.00
In9    In    0.77536   0.63896   0.93853   0.01267  Uiso   1.00
In10   In    0.79634   0.13060   0.68796   0.01267  Uiso   1.00
In11   In    0.86360   0.63896   0.43853   0.01267  Uiso   1.00
In12   In    0.33426   0.13060   0.18796   0.01267  Uiso   1.00
H161   H     0.79940   0.34340   0.65930   0.01267  Uiso   1.00
H162   H     0.79350   0.34180   0.71420   0.01267  Uiso   1.00
H163   H     0.78170   0.91420   0.71780   0.01267  Uiso   1.00
H164   H     0.87280   0.90160   0.84700   0.01267  Uiso   1.00
H165   H     0.87350   0.82740   0.88070   0.01267  Uiso   1.00
H166   H     0.66390   0.72480   0.87000   0.01267  Uiso   1.00
H167   H     0.66320   0.79900   0.83630   0.01267  Uiso   1.00
H168   H     0.85010   0.28020   0.79360   0.01267  Uiso   1.00
H169   H     0.84970   0.35540   0.83010   0.01267  Uiso   1.00
H170   H     0.67320   0.34280   0.79090   0.01267  Uiso   1.00
H171   H     0.67380   0.26780   0.75440   0.01267  Uiso   1.00
H172   H     0.73620   0.15980   0.79860   0.01267  Uiso   1.00
H173   H     0.73650   0.05740   0.79920   0.01267  Uiso   1.00
H174   H     0.83580   0.08800   0.57690   0.01267  Uiso   1.00
H175   H     0.68430   0.83040   0.78780   0.01267  Uiso   1.00
H176   H     0.83930   0.97760   0.83570   0.01267  Uiso   1.00
H177   H     0.84380   0.04700   0.79810   0.01267  Uiso   1.00
H178   H     0.68880   0.89980   0.75020   0.01267  Uiso   1.00
H179   H     0.80960   0.17720   0.57170   0.01267  Uiso   1.00
H180   H     0.90290   0.34980   0.62280   0.01267  Uiso   1.00
H181   H     0.91030   0.42160   0.58600   0.01267  Uiso   1.00
H182   H     0.72420   0.29220   0.54930   0.01267  Uiso   1.00
H183   H     0.71670   0.22020   0.58610   0.01267  Uiso   1.00
H184   H     0.87410   0.54080   0.87160   0.01267  Uiso   1.00
H185   H     0.87210   0.46260   0.83640   0.01267  Uiso   1.00
H186   H     0.66100   0.37080   0.83920   0.01267  Uiso   1.00
H187   H     0.66300   0.44900   0.87440   0.01267  Uiso   1.00
H188   H     0.92620   0.93840   0.58270   0.01267  Uiso   1.00
H189   H     0.91500   0.00980   0.61840   0.01267  Uiso   1.00
H190   H     0.71150   0.94100   0.59340   0.01267  Uiso   1.00
H191   H     0.72270   0.86980   0.55780   0.01267  Uiso   1.00
H192   H     0.93020   0.45000   0.54090   0.01267  Uiso   1.00
H193   H     0.94570   0.52820   0.50630   0.01267  Uiso   1.00
H194   H     0.73620   0.46040   0.49890   0.01267  Uiso   1.00
H195   H     0.72070   0.38220   0.53350   0.01267  Uiso   1.00
H196   H     0.76350   0.77720   0.48030   0.01267  Uiso   1.00
H197   H     0.92910   0.78040   0.52560   0.01267  Uiso   1.00
H198   H     0.92290   0.85160   0.56280   0.01267  Uiso   1.00
H199   H     0.75730   0.84840   0.51750   0.01267  Uiso   1.00
H200   H     0.83410   0.93780   0.66790   0.01267  Uiso   1.00
H201   H     0.54400   0.34340   0.15930   0.01267  Uiso   1.00
H202   H     0.54830   0.34180   0.21420   0.01267  Uiso   1.00
H203   H     0.13250   0.91420   0.21780   0.01267  Uiso   1.00
H204   H     0.02880   0.90160   0.34700   0.01267  Uiso   1.00
H205   H     0.95390   0.82740   0.38070   0.01267  Uiso   1.00
H206   H     0.06090   0.72480   0.37000   0.01267  Uiso   1.00
H207   H     0.13580   0.79900   0.33630   0.01267  Uiso   1.00
H208   H     0.43010   0.28020   0.29360   0.01267  Uiso   1.00
H209   H     0.50570   0.35540   0.33010   0.01267  Uiso   1.00
H210   H     0.66960   0.34280   0.29090   0.01267  Uiso   1.00
H211   H     0.59400   0.26780   0.25440   0.01267  Uiso   1.00
H212   H     0.42360   0.15980   0.29860   0.01267  Uiso   1.00
H213   H     0.32090   0.05740   0.29920   0.01267  Uiso   1.00
H214   H     0.25220   0.08800   0.07690   0.01267  Uiso   1.00
H215   H     0.14610   0.83040   0.28780   0.01267  Uiso   1.00
H216   H     0.13830   0.97760   0.33570   0.01267  Uiso   1.00
H217   H     0.20320   0.04700   0.29810   0.01267  Uiso   1.00
H218   H     0.21100   0.89980   0.25020   0.01267  Uiso   1.00
H219   H     0.36760   0.17720   0.07170   0.01267  Uiso   1.00
H220   H     0.44690   0.34980   0.12280   0.01267  Uiso   1.00
H221   H     0.51130   0.42160   0.08600   0.01267  Uiso   1.00
H222   H     0.56800   0.29220   0.04930   0.01267  Uiso   1.00
H223   H     0.50350   0.22020   0.08610   0.01267  Uiso   1.00
H224   H     0.66670   0.54080   0.37160   0.01267  Uiso   1.00
H225   H     0.59050   0.46260   0.33640   0.01267  Uiso   1.00
H226   H     0.70980   0.37080   0.33920   0.01267  Uiso   1.00
H227   H     0.78600   0.44900   0.37440   0.01267  Uiso   1.00
H228   H     0.01220   0.93840   0.08270   0.01267  Uiso   1.00
H229   H     0.09480   0.00980   0.11840   0.01267  Uiso   1.00
H230   H     0.22950   0.94100   0.09340   0.01267  Uiso   1.00
H231   H     0.14710   0.86980   0.05780   0.01267  Uiso   1.00
H232   H     0.51980   0.45000   0.04090   0.01267  Uiso   1.00
H233   H     0.58250   0.52820   0.00630   0.01267  Uiso   1.00
H234   H     0.72420   0.46040   0.99890   0.01267  Uiso   1.00
H235   H     0.66150   0.38220   0.03350   0.01267  Uiso   1.00
H236   H     0.01370   0.77720   0.98030   0.01267  Uiso   1.00
H237   H     0.85130   0.78040   0.02560   0.01267  Uiso   1.00
H238   H     0.92870   0.85160   0.06280   0.01267  Uiso   1.00
H239   H     0.09110   0.84840   0.01750   0.01267  Uiso   1.00
H240   H     0.10370   0.93780   0.16790   0.01267  Uiso   1.00
C289   C     0.77890   0.02580   0.74590   0.01267  Uiso   1.00
C290   C     0.80320   0.17380   0.62080   0.01267  Uiso   1.00
C291   C     0.77090   0.07800   0.75390   0.01267  Uiso   1.00
C292   C     0.76700   0.72160   0.89960   0.01267  Uiso   1.00
C293   C     0.78200   0.00380   0.71490   0.01267  Uiso   1.00
C294   C     0.75940   0.16740   0.75180   0.01267  Uiso   1.00
C295   C     0.79830   0.31080   0.67160   0.01267  Uiso   1.00
C296   C     0.79240   0.30720   0.70200   0.01267  Uiso   1.00
C297   C     0.77130   0.55200   0.90020   0.01267  Uiso   1.00
C298   C     0.79040   0.95020   0.70620   0.01267  Uiso   1.00
C299   C     0.76800   0.85740   0.83850   0.01267  Uiso   1.00
C300   C     0.83040   0.86580   0.85170   0.01267  Uiso   1.00
C301   C     0.83080   0.82160   0.87170   0.01267  Uiso   1.00
C302   C     0.76880   0.76920   0.87850   0.01267  Uiso   1.00
C303   C     0.70620   0.76060   0.86530   0.01267  Uiso   1.00
C304   C     0.70590   0.80480   0.84530   0.01267  Uiso   1.00
C305   C     0.80540   0.01060   0.66270   0.01267  Uiso   1.00
C306   C     0.80500   0.23260   0.63200   0.01267  Uiso   1.00
C307   C     0.80110   0.08040   0.62200   0.01267  Uiso   1.00
C308   C     0.76200   0.26700   0.77060   0.01267  Uiso   1.00
C309   C     0.81430   0.29300   0.79310   0.01267  Uiso   1.00
C310   C     0.81400   0.33760   0.81470   0.01267  Uiso   1.00
C311   C     0.76140   0.35620   0.81390   0.01267  Uiso   1.00
C312   C     0.70920   0.33020   0.79140   0.01267  Uiso   1.00
C313   C     0.70950   0.28560   0.76980   0.01267  Uiso   1.00
C314   C     0.74590   0.13980   0.78130   0.01267  Uiso   1.00
C315   C     0.78470   0.25220   0.71520   0.01267  Uiso   1.00
C316   C     0.74790   0.08500   0.78270   0.01267  Uiso   1.00
C317   C     0.81920   0.10600   0.59270   0.01267  Uiso   1.00
C318   C     0.77010   0.22940   0.74430   0.01267  Uiso   1.00
C319   C     0.71670   0.87440   0.78990   0.01267  Uiso   1.00
C320   C     0.76130   0.89740   0.81530   0.01267  Uiso   1.00
C321   C     0.80870   0.96180   0.81840   0.01267  Uiso   1.00
C322   C     0.81140   0.00300   0.79600   0.01267  Uiso   1.00
C323   C     0.76660   0.97980   0.77060   0.01267  Uiso   1.00
C324   C     0.71930   0.91560   0.76760   0.01267  Uiso   1.00
C325   C     0.81060   0.15680   0.58980   0.01267  Uiso   1.00
C326   C     0.80960   0.03100   0.63310   0.01267  Uiso   1.00
C327   C     0.80910   0.27820   0.60790   0.01267  Uiso   1.00
C328   C     0.86660   0.33800   0.60790   0.01267  Uiso   1.00
C329   C     0.87100   0.38080   0.58610   0.01267  Uiso   1.00
C330   C     0.81790   0.36360   0.56420   0.01267  Uiso   1.00
C331   C     0.76040   0.30380   0.56420   0.01267  Uiso   1.00
C332   C     0.75600   0.26120   0.58610   0.01267  Uiso   1.00
C333   C     0.83080   0.50620   0.86500   0.01267  Uiso   1.00
C334   C     0.82970   0.45980   0.84410   0.01267  Uiso   1.00
C335   C     0.76630   0.40920   0.83450   0.01267  Uiso   1.00
C336   C     0.70430   0.40540   0.84580   0.01267  Uiso   1.00
C337   C     0.70550   0.45180   0.86670   0.01267  Uiso   1.00
C338   C     0.76870   0.50220   0.87630   0.01267  Uiso   1.00
C339   C     0.80250   0.25440   0.66210   0.01267  Uiso   1.00
C340   C     0.82550   0.89740   0.56690   0.01267  Uiso   1.00
C341   C     0.88260   0.93900   0.58490   0.01267  Uiso   1.00
C342   C     0.87600   0.98140   0.60610   0.01267  Uiso   1.00
C343   C     0.81230   0.98220   0.60920   0.01267  Uiso   1.00
C344   C     0.75510   0.94060   0.59120   0.01267  Uiso   1.00
C345   C     0.76180   0.89820   0.57010   0.01267  Uiso   1.00
C346   C     0.82400   0.40880   0.54040   0.01267  Uiso   1.00
C347   C     0.89080   0.45220   0.53240   0.01267  Uiso   1.00
C348   C     0.90000   0.49860   0.51180   0.01267  Uiso   1.00
C349   C     0.84240   0.50160   0.49930   0.01267  Uiso   1.00
C350   C     0.77550   0.45820   0.50740   0.01267  Uiso   1.00
C351   C     0.76630   0.41180   0.52800   0.01267  Uiso   1.00
C352   C     0.85010   0.72460   0.47840   0.01267  Uiso   1.00
C353   C     0.84680   0.55020   0.47700   0.01267  Uiso   1.00
C354   C     0.79590   0.79240   0.49700   0.01267  Uiso   1.00
C355   C     0.84700   0.77220   0.49940   0.01267  Uiso   1.00
C356   C     0.89430   0.79420   0.52390   0.01267  Uiso   1.00
C357   C     0.89050   0.83640   0.54600   0.01267  Uiso   1.00
C358   C     0.83950   0.85660   0.54360   0.01267  Uiso   1.00
C359   C     0.79220   0.83460   0.51910   0.01267  Uiso   1.00
C360   C     0.81340   0.96140   0.67770   0.01267  Uiso   1.00
C361   C     0.24690   0.02580   0.24590   0.01267  Uiso   1.00
C362   C     0.37060   0.17380   0.12080   0.01267  Uiso   1.00
C363   C     0.30710   0.07800   0.25390   0.01267  Uiso   1.00
C364   C     0.95460   0.72160   0.39960   0.01267  Uiso   1.00
C365   C     0.22180   0.00380   0.21490   0.01267  Uiso   1.00
C366   C     0.40800   0.16740   0.25180   0.01267  Uiso   1.00
C367   C     0.51250   0.31080   0.17160   0.01267  Uiso   1.00
C368   C     0.51480   0.30720   0.20200   0.01267  Uiso   1.00
C369   C     0.78070   0.55200   0.40020   0.01267  Uiso   1.00
C370   C     0.15980   0.95020   0.20620   0.01267  Uiso   1.00
C371   C     0.08940   0.85740   0.33850   0.01267  Uiso   1.00
C372   C     0.03540   0.86580   0.35170   0.01267  Uiso   1.00
C373   C     0.99080   0.82160   0.37170   0.01267  Uiso   1.00
C374   C     0.00040   0.76920   0.37850   0.01267  Uiso   1.00
C375   C     0.05440   0.76060   0.36530   0.01267  Uiso   1.00
C376   C     0.09890   0.80480   0.34530   0.01267  Uiso   1.00
C377   C     0.20520   0.01060   0.16270   0.01267  Uiso   1.00
C378   C     0.42760   0.23260   0.13200   0.01267  Uiso   1.00
C379   C     0.27930   0.08040   0.12200   0.01267  Uiso   1.00
C380   C     0.50500   0.26700   0.27060   0.01267  Uiso   1.00
C381   C     0.47870   0.29300   0.29310   0.01267  Uiso   1.00
C382   C     0.52360   0.33760   0.31470   0.01267  Uiso   1.00
C383   C     0.59480   0.35620   0.31390   0.01267  Uiso   1.00
C384   C     0.62100   0.33020   0.29140   0.01267  Uiso   1.00
C385   C     0.57610   0.28560   0.26980   0.01267  Uiso   1.00
C386   C     0.39390   0.13980   0.28130   0.01267  Uiso   1.00
C387   C     0.46750   0.25220   0.21520   0.01267  Uiso   1.00
C388   C     0.33710   0.08500   0.28270   0.01267  Uiso   1.00
C389   C     0.28680   0.10600   0.09270   0.01267  Uiso   1.00
C390   C     0.45930   0.22940   0.24430   0.01267  Uiso   1.00
C391   C     0.15770   0.87440   0.28990   0.01267  Uiso   1.00
C392   C     0.13610   0.89740   0.31530   0.01267  Uiso   1.00
C393   C     0.15310   0.96180   0.31840   0.01267  Uiso   1.00
C394   C     0.19160   0.00300   0.29600   0.01267  Uiso   1.00
C395   C     0.21320   0.97980   0.27060   0.01267  Uiso   1.00
C396   C     0.19630   0.91560   0.26760   0.01267  Uiso   1.00
C397   C     0.34620   0.15680   0.08980   0.01267  Uiso   1.00
C398   C     0.22140   0.03100   0.13310   0.01267  Uiso   1.00
C399   C     0.46910   0.27820   0.10790   0.01267  Uiso   1.00
C400   C     0.47140   0.33800   0.10790   0.01267  Uiso   1.00
C401   C     0.50980   0.38080   0.08610   0.01267  Uiso   1.00
C402   C     0.54570   0.36360   0.06420   0.01267  Uiso   1.00
C403   C     0.54340   0.30380   0.06420   0.01267  Uiso   1.00
C404   C     0.50520   0.26120   0.08610   0.01267  Uiso   1.00
C405   C     0.67540   0.50620   0.36500   0.01267  Uiso   1.00
C406   C     0.63010   0.45980   0.34410   0.01267  Uiso   1.00
C407   C     0.64290   0.40920   0.33450   0.01267  Uiso   1.00
C408   C     0.70110   0.40540   0.34580   0.01267  Uiso   1.00
C409   C     0.74630   0.45180   0.36670   0.01267  Uiso   1.00
C410   C     0.73350   0.50220   0.37630   0.01267  Uiso   1.00
C411   C     0.45190   0.25440   0.16210   0.01267  Uiso   1.00
C412   C     0.07190   0.89740   0.06690   0.01267  Uiso   1.00
C413   C     0.05640   0.93900   0.08490   0.01267  Uiso   1.00
C414   C     0.10540   0.98140   0.10610   0.01267  Uiso   1.00
C415   C     0.16990   0.98220   0.10920   0.01267  Uiso   1.00
C416   C     0.18550   0.94060   0.09120   0.01267  Uiso   1.00
C417   C     0.13640   0.89820   0.07010   0.01267  Uiso   1.00
C418   C     0.58480   0.40880   0.04040   0.01267  Uiso   1.00
C419   C     0.56140   0.45220   0.03240   0.01267  Uiso   1.00
C420   C     0.59860   0.49860   0.01180   0.01267  Uiso   1.00
C421   C     0.65920   0.50160   0.99930   0.01267  Uiso   1.00
C422   C     0.68270   0.45820   0.00740   0.01267  Uiso   1.00
C423   C     0.64550   0.41180   0.02800   0.01267  Uiso   1.00
C424   C     0.87450   0.72460   0.97840   0.01267  Uiso   1.00
C425   C     0.70340   0.55020   0.97700   0.01267  Uiso   1.00
C426   C     0.99650   0.79240   0.99700   0.01267  Uiso   1.00
C427   C     0.92520   0.77220   0.99940   0.01267  Uiso   1.00
C428   C     0.89990   0.79420   0.02390   0.01267  Uiso   1.00
C429   C     0.94590   0.83640   0.04600   0.01267  Uiso   1.00
C430   C     0.01710   0.85660   0.04360   0.01267  Uiso   1.00
C431   C     0.04240   0.83460   0.01910   0.01267  Uiso   1.00
C432   C     0.14800   0.96140   0.17770   0.01267  Uiso   1.00
N17    N     0.77560   0.12300   0.73560   0.01267  Uiso   1.00
N18    N     0.79870   0.12580   0.64050   0.01267  Uiso   1.00
N19    N     0.78860   0.03920   0.68910   0.01267  Uiso   1.00
N20    N     0.79430   0.22200   0.68860   0.01267  Uiso   1.00
N21    N     0.34740   0.12300   0.23560   0.01267  Uiso   1.00
N22    N     0.32710   0.12580   0.14050   0.01267  Uiso   1.00
N23    N     0.25060   0.03920   0.18910   0.01267  Uiso   1.00
N24    N     0.42770   0.22200   0.18860   0.01267  Uiso   1.00
O33    O     0.82870   0.59200   0.91190   0.01267  Uiso   1.00
O34    O     0.82250   0.71700   0.90440   0.01267  Uiso   1.00
O35    O     0.72510   0.69040   0.91840   0.01267  Uiso   1.00
O36    O     0.71500   0.55720   0.90420   0.01267  Uiso   1.00
O37    O     0.89710   0.71060   0.47670   0.01267  Uiso   1.00
O38    O     0.79140   0.55540   0.46940   0.01267  Uiso   1.00
O39    O     0.81220   0.69840   0.45810   0.01267  Uiso   1.00
O40    O     0.90690   0.59320   0.46780   0.01267  Uiso   1.00
O41    O     0.76330   0.59200   0.41190   0.01267  Uiso   1.00
O42    O     0.89450   0.71700   0.40440   0.01267  Uiso   1.00
O43    O     0.96530   0.69040   0.41840   0.01267  Uiso   1.00
O44    O     0.84220   0.55720   0.40420   0.01267  Uiso   1.00
O45    O     0.81350   0.71060   0.97670   0.01267  Uiso   1.00
O46    O     0.76400   0.55540   0.96940   0.01267  Uiso   1.00
O47    O     0.88620   0.69840   0.95810   0.01267  Uiso   1.00
O48    O     0.68630   0.59320   0.96780   0.01267  Uiso   1.00
In13   In    0.53245   0.52134   0.84068   0.01267  Uiso   1.00
In14   In    0.45317   0.00956   0.08868   0.01267  Uiso   1.00
In15   In    0.98889   0.52134   0.34068   0.01267  Uiso   1.00
In16   In    0.55639   0.00956   0.58868   0.01267  Uiso   1.00
H241   H     0.45120   0.11420   0.64760   0.01267  Uiso   1.00
H242   H     0.44690   0.19020   0.68230   0.01267  Uiso   1.00
H243   H     0.65570   0.26580   0.69710   0.01267  Uiso   1.00
H244   H     0.66000   0.18980   0.66230   0.01267  Uiso   1.00
H245   H     0.53540   0.30840   0.81060   0.01267  Uiso   1.00
H246   H     0.53190   0.73020   0.81220   0.01267  Uiso   1.00
H247   H     0.59080   0.83860   0.00250   0.01267  Uiso   1.00
H248   H     0.57620   0.90820   0.03800   0.01267  Uiso   1.00
H249   H     0.37300   0.83540   0.01180   0.01267  Uiso   1.00
H250   H     0.38760   0.76580   0.97630   0.01267  Uiso   1.00
H251   H     0.44620   0.22980   0.72850   0.01267  Uiso   1.00
H252   H     0.44240   0.30440   0.76440   0.01267  Uiso   1.00
H253   H     0.64570   0.42360   0.74920   0.01267  Uiso   1.00
H254   H     0.64930   0.34880   0.71340   0.01267  Uiso   1.00
H255   H     0.56820   0.17240   0.01930   0.01267  Uiso   1.00
H256   H     0.57530   0.24640   0.98370   0.01267  Uiso   1.00
H257   H     0.36640   0.18320   0.98810   0.01267  Uiso   1.00
H258   H     0.35940   0.10940   0.02370   0.01267  Uiso   1.00
H259   H     0.38340   0.21920   0.93860   0.01267  Uiso   1.00
H260   H     0.39780   0.29460   0.90260   0.01267  Uiso   1.00
H261   H     0.58420   0.41580   0.94220   0.01267  Uiso   1.00
H262   H     0.56970   0.34040   0.97820   0.01267  Uiso   1.00
H263   H     0.48410   0.45760   0.95420   0.01267  Uiso   1.00
H264   H     0.50480   0.30080   0.86570   0.01267  Uiso   1.00
H265   H     0.51650   0.57580   0.95530   0.01267  Uiso   1.00
H266   H     0.56750   0.57780   0.72580   0.01267  Uiso   1.00
H267   H     0.46180   0.77680   0.69460   0.01267  Uiso   1.00
H268   H     0.46260   0.84600   0.65760   0.01267  Uiso   1.00
H269   H     0.67060   0.91000   0.64790   0.01267  Uiso   1.00
H270   H     0.66980   0.84080   0.68490   0.01267  Uiso   1.00
H271   H     0.56150   0.47080   0.72570   0.01267  Uiso   1.00
H272   H     0.52940   0.73560   0.86980   0.01267  Uiso   1.00
H273   H     0.66380   0.70200   0.74860   0.01267  Uiso   1.00
H274   H     0.66330   0.76740   0.71000   0.01267  Uiso   1.00
H275   H     0.46780   0.73420   0.73280   0.01267  Uiso   1.00
H276   H     0.46820   0.66860   0.77140   0.01267  Uiso   1.00
H277   H     0.41330   0.60820   0.93030   0.01267  Uiso   1.00
H278   H     0.39940   0.67600   0.96720   0.01267  Uiso   1.00
H279   H     0.60120   0.80620   0.95770   0.01267  Uiso   1.00
H280   H     0.61500   0.73840   0.92080   0.01267  Uiso   1.00
H281   H     0.66300   0.11420   0.14760   0.01267  Uiso   1.00
H282   H     0.74330   0.19020   0.18230   0.01267  Uiso   1.00
H283   H     0.61010   0.26580   0.19710   0.01267  Uiso   1.00
H284   H     0.52980   0.18980   0.16230   0.01267  Uiso   1.00
H285   H     0.77300   0.30840   0.31060   0.01267  Uiso   1.00
H286   H     0.19830   0.73020   0.31220   0.01267  Uiso   1.00
H287   H     0.24780   0.83860   0.50250   0.01267  Uiso   1.00
H288   H     0.33200   0.90820   0.53800   0.01267  Uiso   1.00
H289   H     0.46240   0.83540   0.51180   0.01267  Uiso   1.00
H290   H     0.37820   0.76580   0.47630   0.01267  Uiso   1.00
H291   H     0.78360   0.22980   0.22850   0.01267  Uiso   1.00
H292   H     0.86200   0.30440   0.26440   0.01267  Uiso   1.00
H293   H     0.77790   0.42360   0.24920   0.01267  Uiso   1.00
H294   H     0.69950   0.34880   0.21340   0.01267  Uiso   1.00
H295   H     0.60420   0.17240   0.51930   0.01267  Uiso   1.00
H296   H     0.67110   0.24640   0.48370   0.01267  Uiso   1.00
H297   H     0.81680   0.18320   0.48810   0.01267  Uiso   1.00
H298   H     0.75000   0.10940   0.52370   0.01267  Uiso   1.00
H299   H     0.83580   0.21920   0.43860   0.01267  Uiso   1.00
H300   H     0.89680   0.29460   0.40260   0.01267  Uiso   1.00
H301   H     0.83160   0.41580   0.44220   0.01267  Uiso   1.00
H302   H     0.77070   0.34040   0.47820   0.01267  Uiso   1.00
H303   H     0.97350   0.45760   0.45420   0.01267  Uiso   1.00
H304   H     0.79600   0.30080   0.36570   0.01267  Uiso   1.00
H305   H     0.05930   0.57580   0.45530   0.01267  Uiso   1.00
H306   H     0.01030   0.57780   0.22580   0.01267  Uiso   1.00
H307   H     0.31500   0.77680   0.19460   0.01267  Uiso   1.00
H308   H     0.38340   0.84600   0.15760   0.01267  Uiso   1.00
H309   H     0.23940   0.91000   0.14790   0.01267  Uiso   1.00
H310   H     0.17100   0.84080   0.18490   0.01267  Uiso   1.00
H311   H     0.90930   0.47080   0.22570   0.01267  Uiso   1.00
H312   H     0.20620   0.73560   0.36980   0.01267  Uiso   1.00
H313   H     0.03820   0.70200   0.24860   0.01267  Uiso   1.00
H314   H     0.10410   0.76740   0.21000   0.01267  Uiso   1.00
H315   H     0.26640   0.73420   0.23280   0.01267  Uiso   1.00
H316   H     0.20040   0.66860   0.27140   0.01267  Uiso   1.00
H317   H     0.19490   0.60820   0.43030   0.01267  Uiso   1.00
H318   H     0.27660   0.67600   0.46720   0.01267  Uiso   1.00
H319   H     0.20500   0.80620   0.45770   0.01267  Uiso   1.00
H320   H     0.12340   0.73840   0.42080   0.01267  Uiso   1.00
C433   C     0.56390   0.57300   0.77540   0.01267  Uiso   1.00
C434   C     0.55599   0.14478   0.65168   0.01267  Uiso   1.00
C435   C     0.49268   0.14496   0.65761   0.01267  Uiso   1.00
C436   C     0.49020   0.19020   0.67830   0.01267  Uiso   1.00
C437   C     0.55092   0.23524   0.69298   0.01267  Uiso   1.00
C438   C     0.61420   0.23500   0.68700   0.01267  Uiso   1.00
C439   C     0.61670   0.18980   0.66640   0.01267  Uiso   1.00
C440   C     0.46390   0.92540   0.05110   0.01267  Uiso   1.00
C441   C     0.51630   0.56240   0.90520   0.01267  Uiso   1.00
C442   C     0.52780   0.33820   0.82330   0.01267  Uiso   1.00
C443   C     0.50790   0.46960   0.90590   0.01267  Uiso   1.00
C444   C     0.54960   0.47640   0.77440   0.01267  Uiso   1.00
C445   C     0.53390   0.70000   0.82540   0.01267  Uiso   1.00
C446   C     0.49050   0.79560   0.98606   0.01267  Uiso   1.00
C447   C     0.54660   0.83800   0.00440   0.01267  Uiso   1.00
C448   C     0.53800   0.87940   0.02550   0.01267  Uiso   1.00
C449   C     0.47330   0.87840   0.02830   0.01267  Uiso   1.00
C450   C     0.41720   0.83600   0.00990   0.01267  Uiso   1.00
C451   C     0.42590   0.79480   0.98883   0.01267  Uiso   1.00
C452   C     0.45650   0.08580   0.04800   0.01267  Uiso   1.00
C453   C     0.54818   0.28236   0.71756   0.01267  Uiso   1.00
C454   C     0.48669   0.26918   0.73272   0.01267  Uiso   1.00
C455   C     0.48450   0.31360   0.75403   0.01267  Uiso   1.00
C456   C     0.54371   0.37102   0.76019   0.01267  Uiso   1.00
C457   C     0.60521   0.38422   0.74500   0.01267  Uiso   1.00
C458   C     0.60730   0.33980   0.72372   0.01267  Uiso   1.00
C459   C     0.46314   0.13388   0.02480   0.01267  Uiso   1.00
C460   C     0.52720   0.17460   0.01290   0.01267  Uiso   1.00
C461   C     0.53150   0.21860   0.99180   0.01267  Uiso   1.00
C462   C     0.47149   0.22178   0.98251   0.01267  Uiso   1.00
C463   C     0.40740   0.18100   0.99440   0.01267  Uiso   1.00
C464   C     0.40320   0.13720   0.01550   0.01267  Uiso   1.00
C465   C     0.47511   0.27262   0.96182   0.01267  Uiso   1.00
C466   C     0.42412   0.25904   0.93936   0.01267  Uiso   1.00
C467   C     0.43270   0.30380   0.91796   0.01267  Uiso   1.00
C468   C     0.49235   0.36230   0.91903   0.01267  Uiso   1.00
C469   C     0.54344   0.37588   0.94150   0.01267  Uiso   1.00
C470   C     0.53480   0.33100   0.96289   0.01267  Uiso   1.00
C471   C     0.52900   0.39540   0.81560   0.01267  Uiso   1.00
C472   C     0.54050   0.64440   0.81570   0.01267  Uiso   1.00
C473   C     0.49760   0.48520   0.93750   0.01267  Uiso   1.00
C474   C     0.51320   0.33600   0.85360   0.01267  Uiso   1.00
C475   C     0.54070   0.41840   0.78450   0.01267  Uiso   1.00
C476   C     0.51130   0.54800   0.93800   0.01267  Uiso   1.00
C477   C     0.52960   0.62560   0.89740   0.01267  Uiso   1.00
C478   C     0.51230   0.39200   0.86460   0.01267  Uiso   1.00
C479   C     0.53100   0.64460   0.86540   0.01267  Uiso   1.00
C480   C     0.50230   0.40900   0.89530   0.01267  Uiso   1.00
C481   C     0.56430   0.55360   0.74310   0.01267  Uiso   1.00
C482   C     0.56580   0.80240   0.69320   0.01267  Uiso   1.00
C483   C     0.50420   0.80380   0.68510   0.01267  Uiso   1.00
C484   C     0.50470   0.84500   0.66312   0.01267  Uiso   1.00
C485   C     0.56670   0.88460   0.64930   0.01267  Uiso   1.00
C486   C     0.62820   0.88300   0.65740   0.01267  Uiso   1.00
C487   C     0.62770   0.84180   0.67930   0.01267  Uiso   1.00
C488   C     0.55930   0.49540   0.74300   0.01267  Uiso   1.00
C489   C     0.56060   0.63060   0.78710   0.01267  Uiso   1.00
C490   C     0.56020   0.09820   0.62980   0.01267  Uiso   1.00
C491   C     0.53100   0.70300   0.85690   0.01267  Uiso   1.00
C492   C     0.56890   0.93180   0.62570   0.01267  Uiso   1.00
C493   C     0.56605   0.67910   0.76365   0.01267  Uiso   1.00
C494   C     0.62390   0.70840   0.74540   0.01267  Uiso   1.00
C495   C     0.62370   0.74740   0.72247   0.01267  Uiso   1.00
C496   C     0.56550   0.75700   0.71775   0.01267  Uiso   1.00
C497   C     0.50750   0.72760   0.73600   0.01267  Uiso   1.00
C498   C     0.50780   0.68860   0.75893   0.01267  Uiso   1.00
C499   C     0.51550   0.66700   0.92205   0.01267  Uiso   1.00
C500   C     0.45142   0.64844   0.93580   0.01267  Uiso   1.00
C501   C     0.44310   0.68860   0.95780   0.01267  Uiso   1.00
C502   C     0.49890   0.74740   0.96592   0.01267  Uiso   1.00
C503   C     0.56298   0.76596   0.95210   0.01267  Uiso   1.00
C504   C     0.57130   0.72580   0.93020   0.01267  Uiso   1.00
C505   C     0.00910   0.57300   0.27540   0.01267  Uiso   1.00
C506   C     0.58879   0.14478   0.15168   0.01267  Uiso   1.00
C507   C     0.65228   0.14496   0.15761   0.01267  Uiso   1.00
C508   C     0.70000   0.19020   0.17830   0.01267  Uiso   1.00
C509   C     0.68432   0.23524   0.19298   0.01267  Uiso   1.00
C510   C     0.62080   0.23500   0.18700   0.01267  Uiso   1.00
C511   C     0.57310   0.18980   0.16640   0.01267  Uiso   1.00
C512   C     0.46150   0.92540   0.55110   0.01267  Uiso   1.00
C513   C     0.04610   0.56240   0.40520   0.01267  Uiso   1.00
C514   C     0.81040   0.33820   0.32330   0.01267  Uiso   1.00
C515   C     0.96170   0.46960   0.40590   0.01267  Uiso   1.00
C516   C     0.92680   0.47640   0.27440   0.01267  Uiso   1.00
C517   C     0.16610   0.70000   0.32540   0.01267  Uiso   1.00
C518   C     0.30510   0.79560   0.48606   0.01267  Uiso   1.00
C519   C     0.29140   0.83800   0.50440   0.01267  Uiso   1.00
C520   C     0.34140   0.87940   0.52550   0.01267  Uiso   1.00
C521   C     0.40510   0.87840   0.52830   0.01267  Uiso   1.00
C522   C     0.41880   0.83600   0.50990   0.01267  Uiso   1.00
C523   C     0.36890   0.79480   0.48883   0.01267  Uiso   1.00
C524   C     0.62930   0.08580   0.54800   0.01267  Uiso   1.00
C525   C     0.73418   0.28236   0.21756   0.01267  Uiso   1.00
C526   C     0.78249   0.26918   0.23272   0.01267  Uiso   1.00
C527   C     0.82910   0.31360   0.25403   0.01267  Uiso   1.00
C528   C     0.82731   0.37102   0.26019   0.01267  Uiso   1.00
C529   C     0.77901   0.38422   0.24500   0.01267  Uiso   1.00
C530   C     0.73250   0.33980   0.22372   0.01267  Uiso   1.00
C531   C     0.67074   0.13388   0.52480   0.01267  Uiso   1.00
C532   C     0.64740   0.17460   0.51290   0.01267  Uiso   1.00
C533   C     0.68710   0.21860   0.49180   0.01267  Uiso   1.00
C534   C     0.75029   0.22178   0.48251   0.01267  Uiso   1.00
C535   C     0.77360   0.18100   0.49440   0.01267  Uiso   1.00
C536   C     0.73400   0.13720   0.51550   0.01267  Uiso   1.00
C537   C     0.79751   0.27262   0.46182   0.01267  Uiso   1.00
C538   C     0.83492   0.25904   0.43936   0.01267  Uiso   1.00
C539   C     0.87110   0.30380   0.41796   0.01267  Uiso   1.00
C540   C     0.86995   0.36230   0.41903   0.01267  Uiso   1.00
C541   C     0.83244   0.37588   0.44150   0.01267  Uiso   1.00
C542   C     0.79620   0.33100   0.46289   0.01267  Uiso   1.00
C543   C     0.86640   0.39540   0.31560   0.01267  Uiso   1.00
C544   C     0.10390   0.64440   0.31570   0.01267  Uiso   1.00
C545   C     0.98760   0.48520   0.43750   0.01267  Uiso   1.00
C546   C     0.82280   0.33600   0.35360   0.01267  Uiso   1.00
C547   C     0.87770   0.41840   0.28450   0.01267  Uiso   1.00
C548   C     0.03670   0.54800   0.43800   0.01267  Uiso   1.00
C549   C     0.09600   0.62560   0.39740   0.01267  Uiso   1.00
C550   C     0.87970   0.39200   0.36460   0.01267  Uiso   1.00
C551   C     0.11360   0.64460   0.36540   0.01267  Uiso   1.00
C552   C     0.90670   0.40900   0.39530   0.01267  Uiso   1.00
C553   C     0.98930   0.55360   0.24310   0.01267  Uiso   1.00
C554   C     0.23660   0.80240   0.19320   0.01267  Uiso   1.00
C555   C     0.29960   0.80380   0.18510   0.01267  Uiso   1.00
C556   C     0.34030   0.84500   0.16312   0.01267  Uiso   1.00
C557   C     0.31790   0.88460   0.14930   0.01267  Uiso   1.00
C558   C     0.25480   0.88300   0.15740   0.01267  Uiso   1.00
C559   C     0.21410   0.84180   0.17930   0.01267  Uiso   1.00
C560   C     0.93610   0.49540   0.24300   0.01267  Uiso   1.00
C561   C     0.07000   0.63060   0.28710   0.01267  Uiso   1.00
C562   C     0.53800   0.09820   0.12980   0.01267  Uiso   1.00
C563   C     0.17200   0.70300   0.35690   0.01267  Uiso   1.00
C564   C     0.36290   0.93180   0.12570   0.01267  Uiso   1.00
C565   C     0.11305   0.67910   0.26365   0.01267  Uiso   1.00
C566   C     0.08450   0.70840   0.24540   0.01267  Uiso   1.00
C567   C     0.12370   0.74740   0.22247   0.01267  Uiso   1.00
C568   C     0.19150   0.75700   0.21775   0.01267  Uiso   1.00
C569   C     0.22010   0.72760   0.23600   0.01267  Uiso   1.00
C570   C     0.18080   0.68860   0.25893   0.01267  Uiso   1.00
C571   C     0.15150   0.66700   0.42205   0.01267  Uiso   1.00
C572   C     0.19702   0.64844   0.43580   0.01267  Uiso   1.00
C573   C     0.24550   0.68860   0.45780   0.01267  Uiso   1.00
C574   C     0.24850   0.74740   0.46592   0.01267  Uiso   1.00
C575   C     0.20298   0.76596   0.45210   0.01267  Uiso   1.00
C576   C     0.15450   0.72580   0.43020   0.01267  Uiso   1.00
N25    N     0.51780   0.51740   0.88750   0.01267  Uiso   1.00
N26    N     0.52400   0.42740   0.84000   0.01267  Uiso   1.00
N27    N     0.53910   0.61060   0.84030   0.01267  Uiso   1.00
N28    N     0.55200   0.52260   0.79170   0.01267  Uiso   1.00
N29    N     0.99960   0.51740   0.38750   0.01267  Uiso   1.00
N30    N     0.90340   0.42740   0.34000   0.01267  Uiso   1.00
N31    N     0.07150   0.61060   0.34030   0.01267  Uiso   1.00
N32    N     0.97060   0.52260   0.29170   0.01267  Uiso   1.00
O49    O     0.40630   0.92500   0.05280   0.01267  Uiso   1.00
O50    O     0.49910   0.05880   0.61470   0.01267  Uiso   1.00
O51    O     0.61970   0.96380   0.61150   0.01267  Uiso   1.00
O52    O     0.40010   0.05380   0.05970   0.01267  Uiso   1.00
O53    O     0.51380   0.08720   0.05550   0.01267  Uiso   1.00
O54    O     0.51810   0.96140   0.06740   0.01267  Uiso   1.00
O55    O     0.61180   0.09300   0.62433   0.01267  Uiso   1.00
O56    O     0.51620   0.93940   0.62470   0.01267  Uiso   1.00
O57    O     0.51870   0.92500   0.55280   0.01267  Uiso   1.00
O58    O     0.55970   0.05880   0.11470   0.01267  Uiso   1.00
O59    O     0.34410   0.96380   0.11150   0.01267  Uiso   1.00
O60    O     0.65370   0.05380   0.55970   0.01267  Uiso   1.00
O61    O     0.57340   0.08720   0.55550   0.01267  Uiso   1.00
O62    O     0.44330   0.96140   0.56740   0.01267  Uiso   1.00
O63    O     0.48120   0.09300   0.12433   0.01267  Uiso   1.00
O64    O     0.42320   0.93940   0.12470   0.01267  Uiso   1.00
