data_image0
_cell_length_a       33.0001
_cell_length_b       33.0001
_cell_length_c       33.0001
_cell_angle_alpha    90
_cell_angle_beta     90
_cell_angle_gamma    90

_symmetry_space_group_name_H-M    "P 1"
_symmetry_int_tables_number       1

loop_
  _symmetry_equiv_pos_as_xyz
  'x, y, z'

loop_
  _atom_site_label
  _atom_site_occupancy
  _atom_site_fract_x
  _atom_site_fract_y
  _atom_site_fract_z
  _atom_site_thermal_displace_type
  _atom_site_B_iso_or_equiv
  _atom_site_type_symbol
  O1       1.0000 0.04630  0.65030  0.03270  Biso   1.000  O
  O2       1.0000 0.04040  0.58840  0.05650  Biso   1.000  O
  C1       1.0000 0.21520  0.67430  0.17170  Biso   1.000  C
  H1       1.0000 0.19090  0.68430  0.18190  Biso   1.000  H
  C2       1.0000 0.21390  0.64640  0.14070  Biso   1.000  C
  C3       1.0000 0.17260  0.63510  0.11930  Biso   1.000  C
  C4       1.0000 0.16390  0.59650  0.10500  Biso   1.000  C
  H2       1.0000 0.18170  0.57530  0.11010  Biso   1.000  H
  C5       1.0000 0.12850  0.58950  0.08330  Biso   1.000  C
  H3       1.0000 0.12270  0.56370  0.07370  Biso   1.000  H
  C6       1.0000 0.10180  0.62120  0.07580  Biso   1.000  C
  C7       1.0000 0.11050  0.65990  0.09000  Biso   1.000  C
  H4       1.0000 0.09260  0.68110  0.08500  Biso   1.000  H
  C8       1.0000 0.14590  0.66690  0.11180  Biso   1.000  C
  H5       1.0000 0.15170  0.69270  0.12130  Biso   1.000  H
  C9       1.0000 0.06340  0.61350  0.04790  Biso   1.000  C
  O3       1.0000 0.54630  0.15030  0.53270  Biso   1.000  O
  O4       1.0000 0.54040  0.08840  0.55650  Biso   1.000  O
  C10      1.0000 0.71520  0.17430  0.67170  Biso   1.000  C
  H6       1.0000 0.69090  0.18430  0.68190  Biso   1.000  H
  C11      1.0000 0.71390  0.14640  0.64070  Biso   1.000  C
  C12      1.0000 0.67260  0.13510  0.61930  Biso   1.000  C
  C13      1.0000 0.66390  0.09650  0.60500  Biso   1.000  C
  H7       1.0000 0.68170  0.07530  0.61010  Biso   1.000  H
  C14      1.0000 0.62850  0.08950  0.58330  Biso   1.000  C
  H8       1.0000 0.62270  0.06370  0.57370  Biso   1.000  H
  C15      1.0000 0.60180  0.12120  0.57580  Biso   1.000  C
  C16      1.0000 0.61050  0.15990  0.59000  Biso   1.000  C
  H9       1.0000 0.59260  0.18110  0.58500  Biso   1.000  H
  C17      1.0000 0.64590  0.16690  0.61180  Biso   1.000  C
  H10      1.0000 0.65170  0.19270  0.62130  Biso   1.000  H
  C18      1.0000 0.56340  0.11350  0.54790  Biso   1.000  C
  O5       1.0000 0.95370  0.34970  0.03270  Biso   1.000  O
  O6       1.0000 0.95960  0.41160  0.05650  Biso   1.000  O
  C19      1.0000 0.78480  0.32570  0.17170  Biso   1.000  C
  H11      1.0000 0.80910  0.31570  0.18190  Biso   1.000  H
  C20      1.0000 0.78610  0.35360  0.14070  Biso   1.000  C
  C21      1.0000 0.82740  0.36490  0.11930  Biso   1.000  C
  C22      1.0000 0.83610  0.40350  0.10500  Biso   1.000  C
  H12      1.0000 0.81830  0.42470  0.11010  Biso   1.000  H
  C23      1.0000 0.87150  0.41050  0.08330  Biso   1.000  C
  H13      1.0000 0.87730  0.43630  0.07370  Biso   1.000  H
  C24      1.0000 0.89820  0.37880  0.07580  Biso   1.000  C
  C25      1.0000 0.88950  0.34010  0.09000  Biso   1.000  C
  H14      1.0000 0.90740  0.31890  0.08500  Biso   1.000  H
  C26      1.0000 0.85410  0.33310  0.11180  Biso   1.000  C
  H15      1.0000 0.84830  0.30730  0.12130  Biso   1.000  H
  C27      1.0000 0.93660  0.38650  0.04790  Biso   1.000  C
  O7       1.0000 0.45370  0.84970  0.53270  Biso   1.000  O
  O8       1.0000 0.45960  0.91160  0.55650  Biso   1.000  O
  C28      1.0000 0.28480  0.82570  0.67170  Biso   1.000  C
  H16      1.0000 0.30910  0.81570  0.68190  Biso   1.000  H
  C29      1.0000 0.28610  0.85360  0.64070  Biso   1.000  C
  C30      1.0000 0.32740  0.86490  0.61930  Biso   1.000  C
  C31      1.0000 0.33610  0.90350  0.60500  Biso   1.000  C
  H17      1.0000 0.31830  0.92470  0.61010  Biso   1.000  H
  C32      1.0000 0.37150  0.91050  0.58330  Biso   1.000  C
  H18      1.0000 0.37730  0.93630  0.57370  Biso   1.000  H
  C33      1.0000 0.39820  0.87880  0.57580  Biso   1.000  C
  C34      1.0000 0.38950  0.84010  0.59000  Biso   1.000  C
  H19      1.0000 0.40740  0.81890  0.58500  Biso   1.000  H
  C35      1.0000 0.35410  0.83310  0.61180  Biso   1.000  C
  H20      1.0000 0.34830  0.80730  0.62130  Biso   1.000  H
  C36      1.0000 0.43660  0.88650  0.54790  Biso   1.000  C
  O9       1.0000 0.95370  0.65030  0.96730  Biso   1.000  O
  O10      1.0000 0.95960  0.58840  0.94350  Biso   1.000  O
  C37      1.0000 0.78480  0.67430  0.82830  Biso   1.000  C
  H21      1.0000 0.80910  0.68430  0.81810  Biso   1.000  H
  C38      1.0000 0.78610  0.64640  0.85930  Biso   1.000  C
  C39      1.0000 0.82740  0.63510  0.88070  Biso   1.000  C
  C40      1.0000 0.83610  0.59650  0.89500  Biso   1.000  C
  H22      1.0000 0.81830  0.57530  0.88990  Biso   1.000  H
  C41      1.0000 0.87150  0.58950  0.91670  Biso   1.000  C
  H23      1.0000 0.87730  0.56370  0.92630  Biso   1.000  H
  C42      1.0000 0.89820  0.62120  0.92420  Biso   1.000  C
  C43      1.0000 0.88950  0.65990  0.91000  Biso   1.000  C
  H24      1.0000 0.90740  0.68110  0.91500  Biso   1.000  H
  C44      1.0000 0.85410  0.66690  0.88820  Biso   1.000  C
  H25      1.0000 0.84830  0.69270  0.87870  Biso   1.000  H
  C45      1.0000 0.93660  0.61350  0.95210  Biso   1.000  C
  O11      1.0000 0.45370  0.15030  0.46730  Biso   1.000  O
  O12      1.0000 0.45960  0.08840  0.44350  Biso   1.000  O
  C46      1.0000 0.28480  0.17430  0.32830  Biso   1.000  C
  H26      1.0000 0.30910  0.18430  0.31810  Biso   1.000  H
  C47      1.0000 0.28610  0.14640  0.35930  Biso   1.000  C
  C48      1.0000 0.32740  0.13510  0.38070  Biso   1.000  C
  C49      1.0000 0.33610  0.09650  0.39500  Biso   1.000  C
  H27      1.0000 0.31830  0.07530  0.38990  Biso   1.000  H
  C50      1.0000 0.37150  0.08950  0.41670  Biso   1.000  C
  H28      1.0000 0.37730  0.06370  0.42630  Biso   1.000  H
  C51      1.0000 0.39820  0.12120  0.42420  Biso   1.000  C
  C52      1.0000 0.38950  0.15990  0.41000  Biso   1.000  C
  H29      1.0000 0.40740  0.18110  0.41500  Biso   1.000  H
  C53      1.0000 0.35410  0.16690  0.38820  Biso   1.000  C
  H30      1.0000 0.34830  0.19270  0.37870  Biso   1.000  H
  C54      1.0000 0.43660  0.11350  0.45210  Biso   1.000  C
  O13      1.0000 0.04630  0.34970  0.96730  Biso   1.000  O
  O14      1.0000 0.04040  0.41160  0.94350  Biso   1.000  O
  C55      1.0000 0.21520  0.32570  0.82830  Biso   1.000  C
  H31      1.0000 0.19090  0.31570  0.81810  Biso   1.000  H
  C56      1.0000 0.21390  0.35360  0.85930  Biso   1.000  C
  C57      1.0000 0.17260  0.36490  0.88070  Biso   1.000  C
  C58      1.0000 0.16390  0.40350  0.89500  Biso   1.000  C
  H32      1.0000 0.18170  0.42470  0.88990  Biso   1.000  H
  C59      1.0000 0.12850  0.41050  0.91670  Biso   1.000  C
  H33      1.0000 0.12270  0.43630  0.92630  Biso   1.000  H
  C60      1.0000 0.10180  0.37880  0.92420  Biso   1.000  C
  C61      1.0000 0.11050  0.34010  0.91000  Biso   1.000  C
  H34      1.0000 0.09260  0.31890  0.91500  Biso   1.000  H
  C62      1.0000 0.14590  0.33310  0.88820  Biso   1.000  C
  H35      1.0000 0.15170  0.30730  0.87870  Biso   1.000  H
  C63      1.0000 0.06340  0.38650  0.95210  Biso   1.000  C
  O15      1.0000 0.54630  0.84970  0.46730  Biso   1.000  O
  O16      1.0000 0.54040  0.91160  0.44350  Biso   1.000  O
  C64      1.0000 0.71520  0.82570  0.32830  Biso   1.000  C
  H36      1.0000 0.69090  0.81570  0.31810  Biso   1.000  H
  C65      1.0000 0.71390  0.85360  0.35930  Biso   1.000  C
  C66      1.0000 0.67260  0.86490  0.38070  Biso   1.000  C
  C67      1.0000 0.66390  0.90350  0.39500  Biso   1.000  C
  H37      1.0000 0.68170  0.92470  0.38990  Biso   1.000  H
  C68      1.0000 0.62850  0.91050  0.41670  Biso   1.000  C
  H38      1.0000 0.62270  0.93630  0.42630  Biso   1.000  H
  C69      1.0000 0.60180  0.87880  0.42420  Biso   1.000  C
  C70      1.0000 0.61050  0.84010  0.41000  Biso   1.000  C
  H39      1.0000 0.59260  0.81890  0.41500  Biso   1.000  H
  C71      1.0000 0.64590  0.83310  0.38820  Biso   1.000  C
  H40      1.0000 0.65170  0.80730  0.37870  Biso   1.000  H
  C72      1.0000 0.56340  0.88650  0.45210  Biso   1.000  C
  O17      1.0000 0.03270  0.04630  0.65030  Biso   1.000  O
  O18      1.0000 0.05650  0.04040  0.58840  Biso   1.000  O
  C73      1.0000 0.17170  0.21520  0.67430  Biso   1.000  C
  H41      1.0000 0.18190  0.19090  0.68430  Biso   1.000  H
  C74      1.0000 0.14070  0.21390  0.64640  Biso   1.000  C
  C75      1.0000 0.11930  0.17260  0.63510  Biso   1.000  C
  C76      1.0000 0.10500  0.16390  0.59650  Biso   1.000  C
  H42      1.0000 0.11010  0.18170  0.57530  Biso   1.000  H
  C77      1.0000 0.08330  0.12850  0.58950  Biso   1.000  C
  H43      1.0000 0.07370  0.12270  0.56370  Biso   1.000  H
  C78      1.0000 0.07580  0.10180  0.62120  Biso   1.000  C
  C79      1.0000 0.09000  0.11050  0.65990  Biso   1.000  C
  H44      1.0000 0.08500  0.09260  0.68110  Biso   1.000  H
  C80      1.0000 0.11180  0.14590  0.66690  Biso   1.000  C
  H45      1.0000 0.12130  0.15170  0.69270  Biso   1.000  H
  C81      1.0000 0.04790  0.06340  0.61350  Biso   1.000  C
  O19      1.0000 0.53270  0.54630  0.15030  Biso   1.000  O
  O20      1.0000 0.55650  0.54040  0.08840  Biso   1.000  O
  C82      1.0000 0.67170  0.71520  0.17430  Biso   1.000  C
  H46      1.0000 0.68190  0.69090  0.18430  Biso   1.000  H
  C83      1.0000 0.64070  0.71390  0.14640  Biso   1.000  C
  C84      1.0000 0.61930  0.67260  0.13510  Biso   1.000  C
  C85      1.0000 0.60500  0.66390  0.09650  Biso   1.000  C
  H47      1.0000 0.61010  0.68170  0.07530  Biso   1.000  H
  C86      1.0000 0.58330  0.62850  0.08950  Biso   1.000  C
  H48      1.0000 0.57370  0.62270  0.06370  Biso   1.000  H
  C87      1.0000 0.57580  0.60180  0.12120  Biso   1.000  C
  C88      1.0000 0.59000  0.61050  0.15990  Biso   1.000  C
  H49      1.0000 0.58500  0.59260  0.18110  Biso   1.000  H
  C89      1.0000 0.61180  0.64590  0.16690  Biso   1.000  C
  H50      1.0000 0.62130  0.65170  0.19270  Biso   1.000  H
  C90      1.0000 0.54790  0.56340  0.11350  Biso   1.000  C
  O21      1.0000 0.03270  0.95370  0.34970  Biso   1.000  O
  O22      1.0000 0.05650  0.95960  0.41160  Biso   1.000  O
  C91      1.0000 0.17170  0.78480  0.32570  Biso   1.000  C
  H51      1.0000 0.18190  0.80910  0.31570  Biso   1.000  H
  C92      1.0000 0.14070  0.78610  0.35360  Biso   1.000  C
  C93      1.0000 0.11930  0.82740  0.36490  Biso   1.000  C
  C94      1.0000 0.10500  0.83610  0.40350  Biso   1.000  C
  H52      1.0000 0.11010  0.81830  0.42470  Biso   1.000  H
  C95      1.0000 0.08330  0.87150  0.41050  Biso   1.000  C
  H53      1.0000 0.07370  0.87730  0.43630  Biso   1.000  H
  C96      1.0000 0.07580  0.89820  0.37880  Biso   1.000  C
  C97      1.0000 0.09000  0.88950  0.34010  Biso   1.000  C
  H54      1.0000 0.08500  0.90740  0.31890  Biso   1.000  H
  C98      1.0000 0.11180  0.85410  0.33310  Biso   1.000  C
  H55      1.0000 0.12130  0.84830  0.30730  Biso   1.000  H
  C99      1.0000 0.04790  0.93660  0.38650  Biso   1.000  C
  O23      1.0000 0.53270  0.45370  0.84970  Biso   1.000  O
  O24      1.0000 0.55650  0.45960  0.91160  Biso   1.000  O
  C100     1.0000 0.67170  0.28480  0.82570  Biso   1.000  C
  H56      1.0000 0.68190  0.30910  0.81570  Biso   1.000  H
  C101     1.0000 0.64070  0.28610  0.85360  Biso   1.000  C
  C102     1.0000 0.61930  0.32740  0.86490  Biso   1.000  C
  C103     1.0000 0.60500  0.33610  0.90350  Biso   1.000  C
  H57      1.0000 0.61010  0.31830  0.92470  Biso   1.000  H
  C104     1.0000 0.58330  0.37150  0.91050  Biso   1.000  C
  H58      1.0000 0.57370  0.37730  0.93630  Biso   1.000  H
  C105     1.0000 0.57580  0.39820  0.87880  Biso   1.000  C
  C106     1.0000 0.59000  0.38950  0.84010  Biso   1.000  C
  H59      1.0000 0.58500  0.40740  0.81890  Biso   1.000  H
  C107     1.0000 0.61180  0.35410  0.83310  Biso   1.000  C
  H60      1.0000 0.62130  0.34830  0.80730  Biso   1.000  H
  C108     1.0000 0.54790  0.43660  0.88650  Biso   1.000  C
  O25      1.0000 0.96730  0.95370  0.65030  Biso   1.000  O
  O26      1.0000 0.94350  0.95960  0.58840  Biso   1.000  O
  C109     1.0000 0.82830  0.78480  0.67430  Biso   1.000  C
  H61      1.0000 0.81810  0.80910  0.68430  Biso   1.000  H
  C110     1.0000 0.85930  0.78610  0.64640  Biso   1.000  C
  C111     1.0000 0.88070  0.82740  0.63510  Biso   1.000  C
  C112     1.0000 0.89500  0.83610  0.59650  Biso   1.000  C
  H62      1.0000 0.88990  0.81830  0.57530  Biso   1.000  H
  C113     1.0000 0.91670  0.87150  0.58950  Biso   1.000  C
  H63      1.0000 0.92630  0.87730  0.56370  Biso   1.000  H
  C114     1.0000 0.92420  0.89820  0.62120  Biso   1.000  C
  C115     1.0000 0.91000  0.88950  0.65990  Biso   1.000  C
  H64      1.0000 0.91500  0.90740  0.68110  Biso   1.000  H
  C116     1.0000 0.88820  0.85410  0.66690  Biso   1.000  C
  H65      1.0000 0.87870  0.84830  0.69270  Biso   1.000  H
  C117     1.0000 0.95210  0.93660  0.61350  Biso   1.000  C
  O27      1.0000 0.46730  0.45370  0.15030  Biso   1.000  O
  O28      1.0000 0.44350  0.45960  0.08840  Biso   1.000  O
  C118     1.0000 0.32830  0.28480  0.17430  Biso   1.000  C
  H66      1.0000 0.31810  0.30910  0.18430  Biso   1.000  H
  C119     1.0000 0.35930  0.28610  0.14640  Biso   1.000  C
  C120     1.0000 0.38070  0.32740  0.13510  Biso   1.000  C
  C121     1.0000 0.39500  0.33610  0.09650  Biso   1.000  C
  H67      1.0000 0.38990  0.31830  0.07530  Biso   1.000  H
  C122     1.0000 0.41670  0.37150  0.08950  Biso   1.000  C
  H68      1.0000 0.42630  0.37730  0.06370  Biso   1.000  H
  C123     1.0000 0.42420  0.39820  0.12120  Biso   1.000  C
  C124     1.0000 0.41000  0.38950  0.15990  Biso   1.000  C
  H69      1.0000 0.41500  0.40740  0.18110  Biso   1.000  H
  C125     1.0000 0.38820  0.35410  0.16690  Biso   1.000  C
  H70      1.0000 0.37870  0.34830  0.19270  Biso   1.000  H
  C126     1.0000 0.45210  0.43660  0.11350  Biso   1.000  C
  O29      1.0000 0.96730  0.04630  0.34970  Biso   1.000  O
  O30      1.0000 0.94350  0.04040  0.41160  Biso   1.000  O
  C127     1.0000 0.82830  0.21520  0.32570  Biso   1.000  C
  H71      1.0000 0.81810  0.19090  0.31570  Biso   1.000  H
  C128     1.0000 0.85930  0.21390  0.35360  Biso   1.000  C
  C129     1.0000 0.88070  0.17260  0.36490  Biso   1.000  C
  C130     1.0000 0.89500  0.16390  0.40350  Biso   1.000  C
  H72      1.0000 0.88990  0.18170  0.42470  Biso   1.000  H
  C131     1.0000 0.91670  0.12850  0.41050  Biso   1.000  C
  H73      1.0000 0.92630  0.12270  0.43630  Biso   1.000  H
  C132     1.0000 0.92420  0.10180  0.37880  Biso   1.000  C
  C133     1.0000 0.91000  0.11050  0.34010  Biso   1.000  C
  H74      1.0000 0.91500  0.09260  0.31890  Biso   1.000  H
  C134     1.0000 0.88820  0.14590  0.33310  Biso   1.000  C
  H75      1.0000 0.87870  0.15170  0.30730  Biso   1.000  H
  C135     1.0000 0.95210  0.06340  0.38650  Biso   1.000  C
  O31      1.0000 0.46730  0.54630  0.84970  Biso   1.000  O
  O32      1.0000 0.44350  0.54040  0.91160  Biso   1.000  O
  C136     1.0000 0.32830  0.71520  0.82570  Biso   1.000  C
  H76      1.0000 0.31810  0.69090  0.81570  Biso   1.000  H
  C137     1.0000 0.35930  0.71390  0.85360  Biso   1.000  C
  C138     1.0000 0.38070  0.67260  0.86490  Biso   1.000  C
  C139     1.0000 0.39500  0.66390  0.90350  Biso   1.000  C
  H77      1.0000 0.38990  0.68170  0.92470  Biso   1.000  H
  C140     1.0000 0.41670  0.62850  0.91050  Biso   1.000  C
  H78      1.0000 0.42630  0.62270  0.93630  Biso   1.000  H
  C141     1.0000 0.42420  0.60180  0.87880  Biso   1.000  C
  C142     1.0000 0.41000  0.61050  0.84010  Biso   1.000  C
  H79      1.0000 0.41500  0.59260  0.81890  Biso   1.000  H
  C143     1.0000 0.38820  0.64590  0.83310  Biso   1.000  C
  H80      1.0000 0.37870  0.65170  0.80730  Biso   1.000  H
  C144     1.0000 0.45210  0.56340  0.88650  Biso   1.000  C
  O33      1.0000 0.65030  0.03270  0.04630  Biso   1.000  O
  O34      1.0000 0.58840  0.05650  0.04040  Biso   1.000  O
  C145     1.0000 0.67430  0.17170  0.21520  Biso   1.000  C
  H81      1.0000 0.68430  0.18190  0.19090  Biso   1.000  H
  C146     1.0000 0.64640  0.14070  0.21390  Biso   1.000  C
  C147     1.0000 0.63510  0.11930  0.17260  Biso   1.000  C
  C148     1.0000 0.59650  0.10500  0.16390  Biso   1.000  C
  H82      1.0000 0.57530  0.11010  0.18170  Biso   1.000  H
  C149     1.0000 0.58950  0.08330  0.12850  Biso   1.000  C
  H83      1.0000 0.56370  0.07370  0.12270  Biso   1.000  H
  C150     1.0000 0.62120  0.07580  0.10180  Biso   1.000  C
  C151     1.0000 0.65990  0.09000  0.11050  Biso   1.000  C
  H84      1.0000 0.68110  0.08500  0.09260  Biso   1.000  H
  C152     1.0000 0.66690  0.11180  0.14590  Biso   1.000  C
  H85      1.0000 0.69270  0.12130  0.15170  Biso   1.000  H
  C153     1.0000 0.61350  0.04790  0.06340  Biso   1.000  C
  O35      1.0000 0.15030  0.53270  0.54630  Biso   1.000  O
  O36      1.0000 0.08840  0.55650  0.54040  Biso   1.000  O
  C154     1.0000 0.17430  0.67170  0.71520  Biso   1.000  C
  H86      1.0000 0.18430  0.68190  0.69090  Biso   1.000  H
  C155     1.0000 0.14640  0.64070  0.71390  Biso   1.000  C
  C156     1.0000 0.13510  0.61930  0.67260  Biso   1.000  C
  C157     1.0000 0.09650  0.60500  0.66390  Biso   1.000  C
  H87      1.0000 0.07530  0.61010  0.68170  Biso   1.000  H
  C158     1.0000 0.08950  0.58330  0.62850  Biso   1.000  C
  H88      1.0000 0.06370  0.57370  0.62270  Biso   1.000  H
  C159     1.0000 0.12120  0.57580  0.60180  Biso   1.000  C
  C160     1.0000 0.15990  0.59000  0.61050  Biso   1.000  C
  H89      1.0000 0.18110  0.58500  0.59260  Biso   1.000  H
  C161     1.0000 0.16690  0.61180  0.64590  Biso   1.000  C
  H90      1.0000 0.19270  0.62130  0.65170  Biso   1.000  H
  C162     1.0000 0.11350  0.54790  0.56340  Biso   1.000  C
  O37      1.0000 0.34970  0.03270  0.95370  Biso   1.000  O
  O38      1.0000 0.41160  0.05650  0.95960  Biso   1.000  O
  C163     1.0000 0.32570  0.17170  0.78480  Biso   1.000  C
  H91      1.0000 0.31570  0.18190  0.80910  Biso   1.000  H
  C164     1.0000 0.35360  0.14070  0.78610  Biso   1.000  C
  C165     1.0000 0.36490  0.11930  0.82740  Biso   1.000  C
  C166     1.0000 0.40350  0.10500  0.83610  Biso   1.000  C
  H92      1.0000 0.42470  0.11010  0.81830  Biso   1.000  H
  C167     1.0000 0.41050  0.08330  0.87150  Biso   1.000  C
  H93      1.0000 0.43630  0.07370  0.87730  Biso   1.000  H
  C168     1.0000 0.37880  0.07580  0.89820  Biso   1.000  C
  C169     1.0000 0.34010  0.09000  0.88950  Biso   1.000  C
  H94      1.0000 0.31890  0.08500  0.90740  Biso   1.000  H
  C170     1.0000 0.33310  0.11180  0.85410  Biso   1.000  C
  H95      1.0000 0.30730  0.12130  0.84830  Biso   1.000  H
  C171     1.0000 0.38650  0.04790  0.93660  Biso   1.000  C
  O39      1.0000 0.84970  0.53270  0.45370  Biso   1.000  O
  O40      1.0000 0.91160  0.55650  0.45960  Biso   1.000  O
  C172     1.0000 0.82570  0.67170  0.28480  Biso   1.000  C
  H96      1.0000 0.81570  0.68190  0.30910  Biso   1.000  H
  C173     1.0000 0.85360  0.64070  0.28610  Biso   1.000  C
  C174     1.0000 0.86490  0.61930  0.32740  Biso   1.000  C
  C175     1.0000 0.90350  0.60500  0.33610  Biso   1.000  C
  H97      1.0000 0.92470  0.61010  0.31830  Biso   1.000  H
  C176     1.0000 0.91050  0.58330  0.37150  Biso   1.000  C
  H98      1.0000 0.93630  0.57370  0.37730  Biso   1.000  H
  C177     1.0000 0.87880  0.57580  0.39820  Biso   1.000  C
  C178     1.0000 0.84010  0.59000  0.38950  Biso   1.000  C
  H99      1.0000 0.81890  0.58500  0.40740  Biso   1.000  H
  C179     1.0000 0.83310  0.61180  0.35410  Biso   1.000  C
  H100     1.0000 0.80730  0.62130  0.34830  Biso   1.000  H
  C180     1.0000 0.88650  0.54790  0.43660  Biso   1.000  C
  O41      1.0000 0.65030  0.96730  0.95370  Biso   1.000  O
  O42      1.0000 0.58840  0.94350  0.95960  Biso   1.000  O
  C181     1.0000 0.67430  0.82830  0.78480  Biso   1.000  C
  H101     1.0000 0.68430  0.81810  0.80910  Biso   1.000  H
  C182     1.0000 0.64640  0.85930  0.78610  Biso   1.000  C
  C183     1.0000 0.63510  0.88070  0.82740  Biso   1.000  C
  C184     1.0000 0.59650  0.89500  0.83610  Biso   1.000  C
  H102     1.0000 0.57530  0.88990  0.81830  Biso   1.000  H
  C185     1.0000 0.58950  0.91670  0.87150  Biso   1.000  C
  H103     1.0000 0.56370  0.92630  0.87730  Biso   1.000  H
  C186     1.0000 0.62120  0.92420  0.89820  Biso   1.000  C
  C187     1.0000 0.65990  0.91000  0.88950  Biso   1.000  C
  H104     1.0000 0.68110  0.91500  0.90740  Biso   1.000  H
  C188     1.0000 0.66690  0.88820  0.85410  Biso   1.000  C
  H105     1.0000 0.69270  0.87870  0.84830  Biso   1.000  H
  C189     1.0000 0.61350  0.95210  0.93660  Biso   1.000  C
  O43      1.0000 0.15030  0.46730  0.45370  Biso   1.000  O
  O44      1.0000 0.08840  0.44350  0.45960  Biso   1.000  O
  C190     1.0000 0.17430  0.32830  0.28480  Biso   1.000  C
  H106     1.0000 0.18430  0.31810  0.30910  Biso   1.000  H
  C191     1.0000 0.14640  0.35930  0.28610  Biso   1.000  C
  C192     1.0000 0.13510  0.38070  0.32740  Biso   1.000  C
  C193     1.0000 0.09650  0.39500  0.33610  Biso   1.000  C
  H107     1.0000 0.07530  0.38990  0.31830  Biso   1.000  H
  C194     1.0000 0.08950  0.41670  0.37150  Biso   1.000  C
  H108     1.0000 0.06370  0.42630  0.37730  Biso   1.000  H
  C195     1.0000 0.12120  0.42420  0.39820  Biso   1.000  C
  C196     1.0000 0.15990  0.41000  0.38950  Biso   1.000  C
  H109     1.0000 0.18110  0.41500  0.40740  Biso   1.000  H
  C197     1.0000 0.16690  0.38820  0.35410  Biso   1.000  C
  H110     1.0000 0.19270  0.37870  0.34830  Biso   1.000  H
  C198     1.0000 0.11350  0.45210  0.43660  Biso   1.000  C
  O45      1.0000 0.34970  0.96730  0.04630  Biso   1.000  O
  O46      1.0000 0.41160  0.94350  0.04040  Biso   1.000  O
  C199     1.0000 0.32570  0.82830  0.21520  Biso   1.000  C
  H111     1.0000 0.31570  0.81810  0.19090  Biso   1.000  H
  C200     1.0000 0.35360  0.85930  0.21390  Biso   1.000  C
  C201     1.0000 0.36490  0.88070  0.17260  Biso   1.000  C
  C202     1.0000 0.40350  0.89500  0.16390  Biso   1.000  C
  H112     1.0000 0.42470  0.88990  0.18170  Biso   1.000  H
  C203     1.0000 0.41050  0.91670  0.12850  Biso   1.000  C
  H113     1.0000 0.43630  0.92630  0.12270  Biso   1.000  H
  C204     1.0000 0.37880  0.92420  0.10180  Biso   1.000  C
  C205     1.0000 0.34010  0.91000  0.11050  Biso   1.000  C
  H114     1.0000 0.31890  0.91500  0.09260  Biso   1.000  H
  C206     1.0000 0.33310  0.88820  0.14590  Biso   1.000  C
  H115     1.0000 0.30730  0.87870  0.15170  Biso   1.000  H
  C207     1.0000 0.38650  0.95210  0.06340  Biso   1.000  C
  O47      1.0000 0.84970  0.46730  0.54630  Biso   1.000  O
  O48      1.0000 0.91160  0.44350  0.54040  Biso   1.000  O
  C208     1.0000 0.82570  0.32830  0.71520  Biso   1.000  C
  H116     1.0000 0.81570  0.31810  0.69090  Biso   1.000  H
  C209     1.0000 0.85360  0.35930  0.71390  Biso   1.000  C
  C210     1.0000 0.86490  0.38070  0.67260  Biso   1.000  C
  C211     1.0000 0.90350  0.39500  0.66390  Biso   1.000  C
  H117     1.0000 0.92470  0.38990  0.68170  Biso   1.000  H
  C212     1.0000 0.91050  0.41670  0.62850  Biso   1.000  C
  H118     1.0000 0.93630  0.42630  0.62270  Biso   1.000  H
  C213     1.0000 0.87880  0.42420  0.60180  Biso   1.000  C
  C214     1.0000 0.84010  0.41000  0.61050  Biso   1.000  C
  H119     1.0000 0.81890  0.41500  0.59260  Biso   1.000  H
  C215     1.0000 0.83310  0.38820  0.64590  Biso   1.000  C
  H120     1.0000 0.80730  0.37870  0.65170  Biso   1.000  H
  C216     1.0000 0.88650  0.45210  0.56340  Biso   1.000  C
  O49      1.0000 0.65030  0.04630  0.96730  Biso   1.000  O
  O50      1.0000 0.58840  0.04040  0.94350  Biso   1.000  O
  C217     1.0000 0.67430  0.21520  0.82830  Biso   1.000  C
  H121     1.0000 0.68430  0.19090  0.81810  Biso   1.000  H
  C218     1.0000 0.64640  0.21390  0.85930  Biso   1.000  C
  C219     1.0000 0.63510  0.17260  0.88070  Biso   1.000  C
  C220     1.0000 0.59650  0.16390  0.89500  Biso   1.000  C
  H122     1.0000 0.57530  0.18170  0.88990  Biso   1.000  H
  C221     1.0000 0.58950  0.12850  0.91670  Biso   1.000  C
  H123     1.0000 0.56370  0.12270  0.92630  Biso   1.000  H
  C222     1.0000 0.62120  0.10180  0.92420  Biso   1.000  C
  C223     1.0000 0.65990  0.11050  0.91000  Biso   1.000  C
  H124     1.0000 0.68110  0.09260  0.91500  Biso   1.000  H
  C224     1.0000 0.66690  0.14590  0.88820  Biso   1.000  C
  H125     1.0000 0.69270  0.15170  0.87870  Biso   1.000  H
  C225     1.0000 0.61350  0.06340  0.95210  Biso   1.000  C
  O51      1.0000 0.15030  0.54630  0.46730  Biso   1.000  O
  O52      1.0000 0.08840  0.54040  0.44350  Biso   1.000  O
  C226     1.0000 0.17430  0.71520  0.32830  Biso   1.000  C
  H126     1.0000 0.18430  0.69090  0.31810  Biso   1.000  H
  C227     1.0000 0.14640  0.71390  0.35930  Biso   1.000  C
  C228     1.0000 0.13510  0.67260  0.38070  Biso   1.000  C
  C229     1.0000 0.09650  0.66390  0.39500  Biso   1.000  C
  H127     1.0000 0.07530  0.68170  0.38990  Biso   1.000  H
  C230     1.0000 0.08950  0.62850  0.41670  Biso   1.000  C
  H128     1.0000 0.06370  0.62270  0.42630  Biso   1.000  H
  C231     1.0000 0.12120  0.60180  0.42420  Biso   1.000  C
  C232     1.0000 0.15990  0.61050  0.41000  Biso   1.000  C
  H129     1.0000 0.18110  0.59260  0.41500  Biso   1.000  H
  C233     1.0000 0.16690  0.64590  0.38820  Biso   1.000  C
  H130     1.0000 0.19270  0.65170  0.37870  Biso   1.000  H
  C234     1.0000 0.11350  0.56340  0.45210  Biso   1.000  C
  O53      1.0000 0.34970  0.95370  0.96730  Biso   1.000  O
  O54      1.0000 0.41160  0.95960  0.94350  Biso   1.000  O
  C235     1.0000 0.32570  0.78480  0.82830  Biso   1.000  C
  H131     1.0000 0.31570  0.80910  0.81810  Biso   1.000  H
  C236     1.0000 0.35360  0.78610  0.85930  Biso   1.000  C
  C237     1.0000 0.36490  0.82740  0.88070  Biso   1.000  C
  C238     1.0000 0.40350  0.83610  0.89500  Biso   1.000  C
  H132     1.0000 0.42470  0.81830  0.88990  Biso   1.000  H
  C239     1.0000 0.41050  0.87150  0.91670  Biso   1.000  C
  H133     1.0000 0.43630  0.87730  0.92630  Biso   1.000  H
  C240     1.0000 0.37880  0.89820  0.92420  Biso   1.000  C
  C241     1.0000 0.34010  0.88950  0.91000  Biso   1.000  C
  H134     1.0000 0.31890  0.90740  0.91500  Biso   1.000  H
  C242     1.0000 0.33310  0.85410  0.88820  Biso   1.000  C
  H135     1.0000 0.30730  0.84830  0.87870  Biso   1.000  H
  C243     1.0000 0.38650  0.93660  0.95210  Biso   1.000  C
  O55      1.0000 0.84970  0.45370  0.46730  Biso   1.000  O
  O56      1.0000 0.91160  0.45960  0.44350  Biso   1.000  O
  C244     1.0000 0.82570  0.28480  0.32830  Biso   1.000  C
  H136     1.0000 0.81570  0.30910  0.31810  Biso   1.000  H
  C245     1.0000 0.85360  0.28610  0.35930  Biso   1.000  C
  C246     1.0000 0.86490  0.32740  0.38070  Biso   1.000  C
  C247     1.0000 0.90350  0.33610  0.39500  Biso   1.000  C
  H137     1.0000 0.92470  0.31830  0.38990  Biso   1.000  H
  C248     1.0000 0.91050  0.37150  0.41670  Biso   1.000  C
  H138     1.0000 0.93630  0.37730  0.42630  Biso   1.000  H
  C249     1.0000 0.87880  0.39820  0.42420  Biso   1.000  C
  C250     1.0000 0.84010  0.38950  0.41000  Biso   1.000  C
  H139     1.0000 0.81890  0.40740  0.41500  Biso   1.000  H
  C251     1.0000 0.83310  0.35410  0.38820  Biso   1.000  C
  H140     1.0000 0.80730  0.34830  0.37870  Biso   1.000  H
  C252     1.0000 0.88650  0.43660  0.45210  Biso   1.000  C
  O57      1.0000 0.65030  0.95370  0.03270  Biso   1.000  O
  O58      1.0000 0.58840  0.95960  0.05650  Biso   1.000  O
  C253     1.0000 0.67430  0.78480  0.17170  Biso   1.000  C
  H141     1.0000 0.68430  0.80910  0.18190  Biso   1.000  H
  C254     1.0000 0.64640  0.78610  0.14070  Biso   1.000  C
  C255     1.0000 0.63510  0.82740  0.11930  Biso   1.000  C
  C256     1.0000 0.59650  0.83610  0.10500  Biso   1.000  C
  H142     1.0000 0.57530  0.81830  0.11010  Biso   1.000  H
  C257     1.0000 0.58950  0.87150  0.08330  Biso   1.000  C
  H143     1.0000 0.56370  0.87730  0.07370  Biso   1.000  H
  C258     1.0000 0.62120  0.89820  0.07580  Biso   1.000  C
  C259     1.0000 0.65990  0.88950  0.09000  Biso   1.000  C
  H144     1.0000 0.68110  0.90740  0.08500  Biso   1.000  H
  C260     1.0000 0.66690  0.85410  0.11180  Biso   1.000  C
  H145     1.0000 0.69270  0.84830  0.12130  Biso   1.000  H
  C261     1.0000 0.61350  0.93660  0.04790  Biso   1.000  C
  O59      1.0000 0.15030  0.45370  0.53270  Biso   1.000  O
  O60      1.0000 0.08840  0.45960  0.55650  Biso   1.000  O
  C262     1.0000 0.17430  0.28480  0.67170  Biso   1.000  C
  H146     1.0000 0.18430  0.30910  0.68190  Biso   1.000  H
  C263     1.0000 0.14640  0.28610  0.64070  Biso   1.000  C
  C264     1.0000 0.13510  0.32740  0.61930  Biso   1.000  C
  C265     1.0000 0.09650  0.33610  0.60500  Biso   1.000  C
  H147     1.0000 0.07530  0.31830  0.61010  Biso   1.000  H
  C266     1.0000 0.08950  0.37150  0.58330  Biso   1.000  C
  H148     1.0000 0.06370  0.37730  0.57370  Biso   1.000  H
  C267     1.0000 0.12120  0.39820  0.57580  Biso   1.000  C
  C268     1.0000 0.15990  0.38950  0.59000  Biso   1.000  C
  H149     1.0000 0.18110  0.40740  0.58500  Biso   1.000  H
  C269     1.0000 0.16690  0.35410  0.61180  Biso   1.000  C
  H150     1.0000 0.19270  0.34830  0.62130  Biso   1.000  H
  C270     1.0000 0.11350  0.43660  0.54790  Biso   1.000  C
  O61      1.0000 0.34970  0.04630  0.03270  Biso   1.000  O
  O62      1.0000 0.41160  0.04040  0.05650  Biso   1.000  O
  C271     1.0000 0.32570  0.21520  0.17170  Biso   1.000  C
  H151     1.0000 0.31570  0.19090  0.18190  Biso   1.000  H
  C272     1.0000 0.35360  0.21390  0.14070  Biso   1.000  C
  C273     1.0000 0.36490  0.17260  0.11930  Biso   1.000  C
  C274     1.0000 0.40350  0.16390  0.10500  Biso   1.000  C
  H152     1.0000 0.42470  0.18170  0.11010  Biso   1.000  H
  C275     1.0000 0.41050  0.12850  0.08330  Biso   1.000  C
  H153     1.0000 0.43630  0.12270  0.07370  Biso   1.000  H
  C276     1.0000 0.37880  0.10180  0.07580  Biso   1.000  C
  C277     1.0000 0.34010  0.11050  0.09000  Biso   1.000  C
  H154     1.0000 0.31890  0.09260  0.08500  Biso   1.000  H
  C278     1.0000 0.33310  0.14590  0.11180  Biso   1.000  C
  H155     1.0000 0.30730  0.15170  0.12130  Biso   1.000  H
  C279     1.0000 0.38650  0.06340  0.04790  Biso   1.000  C
  O63      1.0000 0.84970  0.54630  0.53270  Biso   1.000  O
  O64      1.0000 0.91160  0.54040  0.55650  Biso   1.000  O
  C280     1.0000 0.82570  0.71520  0.67170  Biso   1.000  C
  H156     1.0000 0.81570  0.69090  0.68190  Biso   1.000  H
  C281     1.0000 0.85360  0.71390  0.64070  Biso   1.000  C
  C282     1.0000 0.86490  0.67260  0.61930  Biso   1.000  C
  C283     1.0000 0.90350  0.66390  0.60500  Biso   1.000  C
  H157     1.0000 0.92470  0.68170  0.61010  Biso   1.000  H
  C284     1.0000 0.91050  0.62850  0.58330  Biso   1.000  C
  H158     1.0000 0.93630  0.62270  0.57370  Biso   1.000  H
  C285     1.0000 0.87880  0.60180  0.57580  Biso   1.000  C
  C286     1.0000 0.84010  0.61050  0.59000  Biso   1.000  C
  H159     1.0000 0.81890  0.59260  0.58500  Biso   1.000  H
  C287     1.0000 0.83310  0.64590  0.61180  Biso   1.000  C
  H160     1.0000 0.80730  0.65170  0.62130  Biso   1.000  H
  C288     1.0000 0.88650  0.56340  0.54790  Biso   1.000  C
  O65      1.0000 0.04630  0.03270  0.34970  Biso   1.000  O
  O66      1.0000 0.04040  0.05650  0.41160  Biso   1.000  O
  C289     1.0000 0.21520  0.17170  0.32570  Biso   1.000  C
  H161     1.0000 0.19090  0.18190  0.31570  Biso   1.000  H
  C290     1.0000 0.21390  0.14070  0.35360  Biso   1.000  C
  C291     1.0000 0.17260  0.11930  0.36490  Biso   1.000  C
  C292     1.0000 0.16390  0.10500  0.40350  Biso   1.000  C
  H162     1.0000 0.18170  0.11010  0.42470  Biso   1.000  H
  C293     1.0000 0.12850  0.08330  0.41050  Biso   1.000  C
  H163     1.0000 0.12270  0.07370  0.43630  Biso   1.000  H
  C294     1.0000 0.10180  0.07580  0.37880  Biso   1.000  C
  C295     1.0000 0.11050  0.09000  0.34010  Biso   1.000  C
  H164     1.0000 0.09260  0.08500  0.31890  Biso   1.000  H
  C296     1.0000 0.14590  0.11180  0.33310  Biso   1.000  C
  H165     1.0000 0.15170  0.12130  0.30730  Biso   1.000  H
  C297     1.0000 0.06340  0.04790  0.38650  Biso   1.000  C
  O67      1.0000 0.54630  0.53270  0.84970  Biso   1.000  O
  O68      1.0000 0.54040  0.55650  0.91160  Biso   1.000  O
  C298     1.0000 0.71520  0.67170  0.82570  Biso   1.000  C
  H166     1.0000 0.69090  0.68190  0.81570  Biso   1.000  H
  C299     1.0000 0.71390  0.64070  0.85360  Biso   1.000  C
  C300     1.0000 0.67260  0.61930  0.86490  Biso   1.000  C
  C301     1.0000 0.66390  0.60500  0.90350  Biso   1.000  C
  H167     1.0000 0.68170  0.61010  0.92470  Biso   1.000  H
  C302     1.0000 0.62850  0.58330  0.91050  Biso   1.000  C
  H168     1.0000 0.62270  0.57370  0.93630  Biso   1.000  H
  C303     1.0000 0.60180  0.57580  0.87880  Biso   1.000  C
  C304     1.0000 0.61050  0.59000  0.84010  Biso   1.000  C
  H169     1.0000 0.59260  0.58500  0.81890  Biso   1.000  H
  C305     1.0000 0.64590  0.61180  0.83310  Biso   1.000  C
  H170     1.0000 0.65170  0.62130  0.80730  Biso   1.000  H
  C306     1.0000 0.56340  0.54790  0.88650  Biso   1.000  C
  O69      1.0000 0.95370  0.03270  0.65030  Biso   1.000  O
  O70      1.0000 0.95960  0.05650  0.58840  Biso   1.000  O
  C307     1.0000 0.78480  0.17170  0.67430  Biso   1.000  C
  H171     1.0000 0.80910  0.18190  0.68430  Biso   1.000  H
  C308     1.0000 0.78610  0.14070  0.64640  Biso   1.000  C
  C309     1.0000 0.82740  0.11930  0.63510  Biso   1.000  C
  C310     1.0000 0.83610  0.10500  0.59650  Biso   1.000  C
  H172     1.0000 0.81830  0.11010  0.57530  Biso   1.000  H
  C311     1.0000 0.87150  0.08330  0.58950  Biso   1.000  C
  H173     1.0000 0.87730  0.07370  0.56370  Biso   1.000  H
  C312     1.0000 0.89820  0.07580  0.62120  Biso   1.000  C
  C313     1.0000 0.88950  0.09000  0.65990  Biso   1.000  C
  H174     1.0000 0.90740  0.08500  0.68110  Biso   1.000  H
  C314     1.0000 0.85410  0.11180  0.66690  Biso   1.000  C
  H175     1.0000 0.84830  0.12130  0.69270  Biso   1.000  H
  C315     1.0000 0.93660  0.04790  0.61350  Biso   1.000  C
  O71      1.0000 0.45370  0.53270  0.15030  Biso   1.000  O
  O72      1.0000 0.45960  0.55650  0.08840  Biso   1.000  O
  C316     1.0000 0.28480  0.67170  0.17430  Biso   1.000  C
  H176     1.0000 0.30910  0.68190  0.18430  Biso   1.000  H
  C317     1.0000 0.28610  0.64070  0.14640  Biso   1.000  C
  C318     1.0000 0.32740  0.61930  0.13510  Biso   1.000  C
  C319     1.0000 0.33610  0.60500  0.09650  Biso   1.000  C
  H177     1.0000 0.31830  0.61010  0.07530  Biso   1.000  H
  C320     1.0000 0.37150  0.58330  0.08950  Biso   1.000  C
  H178     1.0000 0.37730  0.57370  0.06370  Biso   1.000  H
  C321     1.0000 0.39820  0.57580  0.12120  Biso   1.000  C
  C322     1.0000 0.38950  0.59000  0.15990  Biso   1.000  C
  H179     1.0000 0.40740  0.58500  0.18110  Biso   1.000  H
  C323     1.0000 0.35410  0.61180  0.16690  Biso   1.000  C
  H180     1.0000 0.34830  0.62130  0.19270  Biso   1.000  H
  C324     1.0000 0.43660  0.54790  0.11350  Biso   1.000  C
  O73      1.0000 0.95370  0.96730  0.34970  Biso   1.000  O
  O74      1.0000 0.95960  0.94350  0.41160  Biso   1.000  O
  C325     1.0000 0.78480  0.82830  0.32570  Biso   1.000  C
  H181     1.0000 0.80910  0.81810  0.31570  Biso   1.000  H
  C326     1.0000 0.78610  0.85930  0.35360  Biso   1.000  C
  C327     1.0000 0.82740  0.88070  0.36490  Biso   1.000  C
  C328     1.0000 0.83610  0.89500  0.40350  Biso   1.000  C
  H182     1.0000 0.81830  0.88990  0.42470  Biso   1.000  H
  C329     1.0000 0.87150  0.91670  0.41050  Biso   1.000  C
  H183     1.0000 0.87730  0.92630  0.43630  Biso   1.000  H
  C330     1.0000 0.89820  0.92420  0.37880  Biso   1.000  C
  C331     1.0000 0.88950  0.91000  0.34010  Biso   1.000  C
  H184     1.0000 0.90740  0.91500  0.31890  Biso   1.000  H
  C332     1.0000 0.85410  0.88820  0.33310  Biso   1.000  C
  H185     1.0000 0.84830  0.87870  0.30730  Biso   1.000  H
  C333     1.0000 0.93660  0.95210  0.38650  Biso   1.000  C
  O75      1.0000 0.45370  0.46730  0.84970  Biso   1.000  O
  O76      1.0000 0.45960  0.44350  0.91160  Biso   1.000  O
  C334     1.0000 0.28480  0.32830  0.82570  Biso   1.000  C
  H186     1.0000 0.30910  0.31810  0.81570  Biso   1.000  H
  C335     1.0000 0.28610  0.35930  0.85360  Biso   1.000  C
  C336     1.0000 0.32740  0.38070  0.86490  Biso   1.000  C
  C337     1.0000 0.33610  0.39500  0.90350  Biso   1.000  C
  H187     1.0000 0.31830  0.38990  0.92470  Biso   1.000  H
  C338     1.0000 0.37150  0.41670  0.91050  Biso   1.000  C
  H188     1.0000 0.37730  0.42630  0.93630  Biso   1.000  H
  C339     1.0000 0.39820  0.42420  0.87880  Biso   1.000  C
  C340     1.0000 0.38950  0.41000  0.84010  Biso   1.000  C
  H189     1.0000 0.40740  0.41500  0.81890  Biso   1.000  H
  C341     1.0000 0.35410  0.38820  0.83310  Biso   1.000  C
  H190     1.0000 0.34830  0.37870  0.80730  Biso   1.000  H
  C342     1.0000 0.43660  0.45210  0.88650  Biso   1.000  C
  O77      1.0000 0.04630  0.96730  0.65030  Biso   1.000  O
  O78      1.0000 0.04040  0.94350  0.58840  Biso   1.000  O
  C343     1.0000 0.21520  0.82830  0.67430  Biso   1.000  C
  H191     1.0000 0.19090  0.81810  0.68430  Biso   1.000  H
  C344     1.0000 0.21390  0.85930  0.64640  Biso   1.000  C
  C345     1.0000 0.17260  0.88070  0.63510  Biso   1.000  C
  C346     1.0000 0.16390  0.89500  0.59650  Biso   1.000  C
  H192     1.0000 0.18170  0.88990  0.57530  Biso   1.000  H
  C347     1.0000 0.12850  0.91670  0.58950  Biso   1.000  C
  H193     1.0000 0.12270  0.92630  0.56370  Biso   1.000  H
  C348     1.0000 0.10180  0.92420  0.62120  Biso   1.000  C
  C349     1.0000 0.11050  0.91000  0.65990  Biso   1.000  C
  H194     1.0000 0.09260  0.91500  0.68110  Biso   1.000  H
  C350     1.0000 0.14590  0.88820  0.66690  Biso   1.000  C
  H195     1.0000 0.15170  0.87870  0.69270  Biso   1.000  H
  C351     1.0000 0.06340  0.95210  0.61350  Biso   1.000  C
  O79      1.0000 0.54630  0.46730  0.15030  Biso   1.000  O
  O80      1.0000 0.54040  0.44350  0.08840  Biso   1.000  O
  C352     1.0000 0.71520  0.32830  0.17430  Biso   1.000  C
  H196     1.0000 0.69090  0.31810  0.18430  Biso   1.000  H
  C353     1.0000 0.71390  0.35930  0.14640  Biso   1.000  C
  C354     1.0000 0.67260  0.38070  0.13510  Biso   1.000  C
  C355     1.0000 0.66390  0.39500  0.09650  Biso   1.000  C
  H197     1.0000 0.68170  0.38990  0.07530  Biso   1.000  H
  C356     1.0000 0.62850  0.41670  0.08950  Biso   1.000  C
  H198     1.0000 0.62270  0.42630  0.06370  Biso   1.000  H
  C357     1.0000 0.60180  0.42420  0.12120  Biso   1.000  C
  C358     1.0000 0.61050  0.41000  0.15990  Biso   1.000  C
  H199     1.0000 0.59260  0.41500  0.18110  Biso   1.000  H
  C359     1.0000 0.64590  0.38820  0.16690  Biso   1.000  C
  H200     1.0000 0.65170  0.37870  0.19270  Biso   1.000  H
  C360     1.0000 0.56340  0.45210  0.11350  Biso   1.000  C
  O81      1.0000 0.03270  0.65030  0.95370  Biso   1.000  O
  O82      1.0000 0.05650  0.58840  0.95960  Biso   1.000  O
  C361     1.0000 0.17170  0.67430  0.78480  Biso   1.000  C
  H201     1.0000 0.18190  0.68430  0.80910  Biso   1.000  H
  C362     1.0000 0.14070  0.64640  0.78610  Biso   1.000  C
  C363     1.0000 0.11930  0.63510  0.82740  Biso   1.000  C
  C364     1.0000 0.10500  0.59650  0.83610  Biso   1.000  C
  H202     1.0000 0.11010  0.57530  0.81830  Biso   1.000  H
  C365     1.0000 0.08330  0.58950  0.87150  Biso   1.000  C
  H203     1.0000 0.07370  0.56370  0.87730  Biso   1.000  H
  C366     1.0000 0.07580  0.62120  0.89820  Biso   1.000  C
  C367     1.0000 0.09000  0.65990  0.88950  Biso   1.000  C
  H204     1.0000 0.08500  0.68110  0.90740  Biso   1.000  H
  C368     1.0000 0.11180  0.66690  0.85410  Biso   1.000  C
  H205     1.0000 0.12130  0.69270  0.84830  Biso   1.000  H
  C369     1.0000 0.04790  0.61350  0.93660  Biso   1.000  C
  O83      1.0000 0.53270  0.15030  0.45370  Biso   1.000  O
  O84      1.0000 0.55650  0.08840  0.45960  Biso   1.000  O
  C370     1.0000 0.67170  0.17430  0.28480  Biso   1.000  C
  H206     1.0000 0.68190  0.18430  0.30910  Biso   1.000  H
  C371     1.0000 0.64070  0.14640  0.28610  Biso   1.000  C
  C372     1.0000 0.61930  0.13510  0.32740  Biso   1.000  C
  C373     1.0000 0.60500  0.09650  0.33610  Biso   1.000  C
  H207     1.0000 0.61010  0.07530  0.31830  Biso   1.000  H
  C374     1.0000 0.58330  0.08950  0.37150  Biso   1.000  C
  H208     1.0000 0.57370  0.06370  0.37730  Biso   1.000  H
  C375     1.0000 0.57580  0.12120  0.39820  Biso   1.000  C
  C376     1.0000 0.59000  0.15990  0.38950  Biso   1.000  C
  H209     1.0000 0.58500  0.18110  0.40740  Biso   1.000  H
  C377     1.0000 0.61180  0.16690  0.35410  Biso   1.000  C
  H210     1.0000 0.62130  0.19270  0.34830  Biso   1.000  H
  C378     1.0000 0.54790  0.11350  0.43660  Biso   1.000  C
  O85      1.0000 0.03270  0.34970  0.04630  Biso   1.000  O
  O86      1.0000 0.05650  0.41160  0.04040  Biso   1.000  O
  C379     1.0000 0.17170  0.32570  0.21520  Biso   1.000  C
  H211     1.0000 0.18190  0.31570  0.19090  Biso   1.000  H
  C380     1.0000 0.14070  0.35360  0.21390  Biso   1.000  C
  C381     1.0000 0.11930  0.36490  0.17260  Biso   1.000  C
  C382     1.0000 0.10500  0.40350  0.16390  Biso   1.000  C
  H212     1.0000 0.11010  0.42470  0.18170  Biso   1.000  H
  C383     1.0000 0.08330  0.41050  0.12850  Biso   1.000  C
  H213     1.0000 0.07370  0.43630  0.12270  Biso   1.000  H
  C384     1.0000 0.07580  0.37880  0.10180  Biso   1.000  C
  C385     1.0000 0.09000  0.34010  0.11050  Biso   1.000  C
  H214     1.0000 0.08500  0.31890  0.09260  Biso   1.000  H
  C386     1.0000 0.11180  0.33310  0.14590  Biso   1.000  C
  H215     1.0000 0.12130  0.30730  0.15170  Biso   1.000  H
  C387     1.0000 0.04790  0.38650  0.06340  Biso   1.000  C
  O87      1.0000 0.53270  0.84970  0.54630  Biso   1.000  O
  O88      1.0000 0.55650  0.91160  0.54040  Biso   1.000  O
  C388     1.0000 0.67170  0.82570  0.71520  Biso   1.000  C
  H216     1.0000 0.68190  0.81570  0.69090  Biso   1.000  H
  C389     1.0000 0.64070  0.85360  0.71390  Biso   1.000  C
  C390     1.0000 0.61930  0.86490  0.67260  Biso   1.000  C
  C391     1.0000 0.60500  0.90350  0.66390  Biso   1.000  C
  H217     1.0000 0.61010  0.92470  0.68170  Biso   1.000  H
  C392     1.0000 0.58330  0.91050  0.62850  Biso   1.000  C
  H218     1.0000 0.57370  0.93630  0.62270  Biso   1.000  H
  C393     1.0000 0.57580  0.87880  0.60180  Biso   1.000  C
  C394     1.0000 0.59000  0.84010  0.61050  Biso   1.000  C
  H219     1.0000 0.58500  0.81890  0.59260  Biso   1.000  H
  C395     1.0000 0.61180  0.83310  0.64590  Biso   1.000  C
  H220     1.0000 0.62130  0.80730  0.65170  Biso   1.000  H
  C396     1.0000 0.54790  0.88650  0.56340  Biso   1.000  C
  O89      1.0000 0.96730  0.65030  0.04630  Biso   1.000  O
  O90      1.0000 0.94350  0.58840  0.04040  Biso   1.000  O
  C397     1.0000 0.82830  0.67430  0.21520  Biso   1.000  C
  H221     1.0000 0.81810  0.68430  0.19090  Biso   1.000  H
  C398     1.0000 0.85930  0.64640  0.21390  Biso   1.000  C
  C399     1.0000 0.88070  0.63510  0.17260  Biso   1.000  C
  C400     1.0000 0.89500  0.59650  0.16390  Biso   1.000  C
  H222     1.0000 0.88990  0.57530  0.18170  Biso   1.000  H
  C401     1.0000 0.91670  0.58950  0.12850  Biso   1.000  C
  H223     1.0000 0.92630  0.56370  0.12270  Biso   1.000  H
  C402     1.0000 0.92420  0.62120  0.10180  Biso   1.000  C
  C403     1.0000 0.91000  0.65990  0.11050  Biso   1.000  C
  H224     1.0000 0.91500  0.68110  0.09260  Biso   1.000  H
  C404     1.0000 0.88820  0.66690  0.14590  Biso   1.000  C
  H225     1.0000 0.87870  0.69270  0.15170  Biso   1.000  H
  C405     1.0000 0.95210  0.61350  0.06340  Biso   1.000  C
  O91      1.0000 0.46730  0.15030  0.54630  Biso   1.000  O
  O92      1.0000 0.44350  0.08840  0.54040  Biso   1.000  O
  C406     1.0000 0.32830  0.17430  0.71520  Biso   1.000  C
  H226     1.0000 0.31810  0.18430  0.69090  Biso   1.000  H
  C407     1.0000 0.35930  0.14640  0.71390  Biso   1.000  C
  C408     1.0000 0.38070  0.13510  0.67260  Biso   1.000  C
  C409     1.0000 0.39500  0.09650  0.66390  Biso   1.000  C
  H227     1.0000 0.38990  0.07530  0.68170  Biso   1.000  H
  C410     1.0000 0.41670  0.08950  0.62850  Biso   1.000  C
  H228     1.0000 0.42630  0.06370  0.62270  Biso   1.000  H
  C411     1.0000 0.42420  0.12120  0.60180  Biso   1.000  C
  C412     1.0000 0.41000  0.15990  0.61050  Biso   1.000  C
  H229     1.0000 0.41500  0.18110  0.59260  Biso   1.000  H
  C413     1.0000 0.38820  0.16690  0.64590  Biso   1.000  C
  H230     1.0000 0.37870  0.19270  0.65170  Biso   1.000  H
  C414     1.0000 0.45210  0.11350  0.56340  Biso   1.000  C
  O93      1.0000 0.96730  0.34970  0.95370  Biso   1.000  O
  O94      1.0000 0.94350  0.41160  0.95960  Biso   1.000  O
  C415     1.0000 0.82830  0.32570  0.78480  Biso   1.000  C
  H231     1.0000 0.81810  0.31570  0.80910  Biso   1.000  H
  C416     1.0000 0.85930  0.35360  0.78610  Biso   1.000  C
  C417     1.0000 0.88070  0.36490  0.82740  Biso   1.000  C
  C418     1.0000 0.89500  0.40350  0.83610  Biso   1.000  C
  H232     1.0000 0.88990  0.42470  0.81830  Biso   1.000  H
  C419     1.0000 0.91670  0.41050  0.87150  Biso   1.000  C
  H233     1.0000 0.92630  0.43630  0.87730  Biso   1.000  H
  C420     1.0000 0.92420  0.37880  0.89820  Biso   1.000  C
  C421     1.0000 0.91000  0.34010  0.88950  Biso   1.000  C
  H234     1.0000 0.91500  0.31890  0.90740  Biso   1.000  H
  C422     1.0000 0.88820  0.33310  0.85410  Biso   1.000  C
  H235     1.0000 0.87870  0.30730  0.84830  Biso   1.000  H
  C423     1.0000 0.95210  0.38650  0.93660  Biso   1.000  C
  O95      1.0000 0.46730  0.84970  0.45370  Biso   1.000  O
  O96      1.0000 0.44350  0.91160  0.45960  Biso   1.000  O
  C424     1.0000 0.32830  0.82570  0.28480  Biso   1.000  C
  H236     1.0000 0.31810  0.81570  0.30910  Biso   1.000  H
  C425     1.0000 0.35930  0.85360  0.28610  Biso   1.000  C
  C426     1.0000 0.38070  0.86490  0.32740  Biso   1.000  C
  C427     1.0000 0.39500  0.90350  0.33610  Biso   1.000  C
  H237     1.0000 0.38990  0.92470  0.31830  Biso   1.000  H
  C428     1.0000 0.41670  0.91050  0.37150  Biso   1.000  C
  H238     1.0000 0.42630  0.93630  0.37730  Biso   1.000  H
  C429     1.0000 0.42420  0.87880  0.39820  Biso   1.000  C
  C430     1.0000 0.41000  0.84010  0.38950  Biso   1.000  C
  H239     1.0000 0.41500  0.81890  0.40740  Biso   1.000  H
  C431     1.0000 0.38820  0.83310  0.35410  Biso   1.000  C
  H240     1.0000 0.37870  0.80730  0.34830  Biso   1.000  H
  C432     1.0000 0.45210  0.88650  0.43660  Biso   1.000  C
  Tb1      1.0000 0.00000  0.60602  0.00000  Biso   1.000  Tb
  Tb2      1.0000 0.50000  0.10602  0.50000  Biso   1.000  Tb
  Tb3      1.0000 0.00000  0.39398  0.00000  Biso   1.000  Tb
  Tb4      1.0000 0.50000  0.89398  0.50000  Biso   1.000  Tb
  Tb5      1.0000 0.00000  0.00000  0.60602  Biso   1.000  Tb
  Tb6      1.0000 0.50000  0.50000  0.10602  Biso   1.000  Tb
  Tb7      1.0000 0.00000  0.00000  0.39398  Biso   1.000  Tb
  Tb8      1.0000 0.50000  0.50000  0.89398  Biso   1.000  Tb
  Tb9      1.0000 0.60602  0.00000  0.00000  Biso   1.000  Tb
  Tb10     1.0000 0.10602  0.50000  0.50000  Biso   1.000  Tb
  Tb11     1.0000 0.39398  0.00000  0.00000  Biso   1.000  Tb
  Tb12     1.0000 0.89398  0.50000  0.50000  Biso   1.000  Tb
  C433     1.0000 0.28020  0.75000  0.21980  Biso   1.000  C
  H241     1.0000 0.30010  0.75000  0.19990  Biso   1.000  H
  C434     1.0000 0.71980  0.25000  0.21980  Biso   1.000  C
  H242     1.0000 0.69990  0.25000  0.19990  Biso   1.000  H
  C435     1.0000 0.71980  0.75000  0.78020  Biso   1.000  C
  H243     1.0000 0.69990  0.75000  0.80010  Biso   1.000  H
  C436     1.0000 0.28020  0.25000  0.78020  Biso   1.000  C
  H244     1.0000 0.30010  0.25000  0.80010  Biso   1.000  H
  C437     1.0000 0.21980  0.28020  0.75000  Biso   1.000  C
  H245     1.0000 0.19990  0.30010  0.75000  Biso   1.000  H
  C438     1.0000 0.21980  0.71980  0.25000  Biso   1.000  C
  H246     1.0000 0.19990  0.69990  0.25000  Biso   1.000  H
  C439     1.0000 0.78020  0.71980  0.75000  Biso   1.000  C
  H247     1.0000 0.80010  0.69990  0.75000  Biso   1.000  H
  C440     1.0000 0.78020  0.28020  0.25000  Biso   1.000  C
  H248     1.0000 0.80010  0.30010  0.25000  Biso   1.000  H
  C441     1.0000 0.75000  0.21980  0.28020  Biso   1.000  C
  H249     1.0000 0.75000  0.19990  0.30010  Biso   1.000  H
  C442     1.0000 0.25000  0.21980  0.71980  Biso   1.000  C
  H250     1.0000 0.25000  0.19990  0.69990  Biso   1.000  H
  C443     1.0000 0.75000  0.78020  0.71980  Biso   1.000  C
  H251     1.0000 0.75000  0.80010  0.69990  Biso   1.000  H
  C444     1.0000 0.25000  0.78020  0.28020  Biso   1.000  C
  H252     1.0000 0.25000  0.80010  0.30010  Biso   1.000  H
  C445     1.0000 0.75000  0.28020  0.78020  Biso   1.000  C
  H253     1.0000 0.75000  0.30010  0.80010  Biso   1.000  H
  C446     1.0000 0.25000  0.71980  0.78020  Biso   1.000  C
  H254     1.0000 0.25000  0.69990  0.80010  Biso   1.000  H
  C447     1.0000 0.75000  0.71980  0.21980  Biso   1.000  C
  H255     1.0000 0.75000  0.69990  0.19990  Biso   1.000  H
  C448     1.0000 0.25000  0.28020  0.21980  Biso   1.000  C
  H256     1.0000 0.25000  0.30010  0.19990  Biso   1.000  H
  C449     1.0000 0.28020  0.21980  0.25000  Biso   1.000  C
  H257     1.0000 0.30010  0.19990  0.25000  Biso   1.000  H
  C450     1.0000 0.71980  0.21980  0.75000  Biso   1.000  C
  H258     1.0000 0.69990  0.19990  0.75000  Biso   1.000  H
  C451     1.0000 0.71980  0.78020  0.25000  Biso   1.000  C
  H259     1.0000 0.69990  0.80010  0.25000  Biso   1.000  H
  C452     1.0000 0.28020  0.78020  0.75000  Biso   1.000  C
  H260     1.0000 0.30010  0.80010  0.75000  Biso   1.000  H
  C453     1.0000 0.21980  0.75000  0.71980  Biso   1.000  C
  H261     1.0000 0.19990  0.75000  0.69990  Biso   1.000  H
  C454     1.0000 0.21980  0.25000  0.28020  Biso   1.000  C
  H262     1.0000 0.19990  0.25000  0.30010  Biso   1.000  H
  C455     1.0000 0.78020  0.75000  0.28020  Biso   1.000  C
  H263     1.0000 0.80010  0.75000  0.30010  Biso   1.000  H
  C456     1.0000 0.78020  0.25000  0.71980  Biso   1.000  C
  H264     1.0000 0.80010  0.25000  0.69990  Biso   1.000  H
  C457     1.0000 0.25000  0.71950  0.21950  Biso   1.000  C
  C458     1.0000 0.25000  0.68760  0.18760  Biso   1.000  C
  C459     1.0000 0.25000  0.63120  0.13120  Biso   1.000  C
  H265     1.0000 0.25000  0.61130  0.11130  Biso   1.000  H
  C460     1.0000 0.75000  0.28050  0.21950  Biso   1.000  C
  C461     1.0000 0.75000  0.31240  0.18760  Biso   1.000  C
  C462     1.0000 0.75000  0.36880  0.13120  Biso   1.000  C
  H266     1.0000 0.75000  0.38870  0.11130  Biso   1.000  H
  C463     1.0000 0.25000  0.78050  0.71950  Biso   1.000  C
  C464     1.0000 0.25000  0.81240  0.68760  Biso   1.000  C
  C465     1.0000 0.25000  0.86880  0.63120  Biso   1.000  C
  H267     1.0000 0.25000  0.88870  0.61130  Biso   1.000  H
  C466     1.0000 0.75000  0.71950  0.78050  Biso   1.000  C
  C467     1.0000 0.75000  0.68760  0.81240  Biso   1.000  C
  C468     1.0000 0.75000  0.63120  0.86880  Biso   1.000  C
  H268     1.0000 0.75000  0.61130  0.88870  Biso   1.000  H
  C469     1.0000 0.25000  0.28050  0.78050  Biso   1.000  C
  C470     1.0000 0.25000  0.31240  0.81240  Biso   1.000  C
  C471     1.0000 0.25000  0.36880  0.86880  Biso   1.000  C
  H269     1.0000 0.25000  0.38870  0.88870  Biso   1.000  H
  C472     1.0000 0.21950  0.25000  0.71950  Biso   1.000  C
  C473     1.0000 0.18760  0.25000  0.68760  Biso   1.000  C
  C474     1.0000 0.13120  0.25000  0.63120  Biso   1.000  C
  H270     1.0000 0.11130  0.25000  0.61130  Biso   1.000  H
  C475     1.0000 0.21950  0.75000  0.28050  Biso   1.000  C
  C476     1.0000 0.18760  0.75000  0.31240  Biso   1.000  C
  C477     1.0000 0.13120  0.75000  0.36880  Biso   1.000  C
  H271     1.0000 0.11130  0.75000  0.38870  Biso   1.000  H
  C478     1.0000 0.71950  0.25000  0.78050  Biso   1.000  C
  C479     1.0000 0.68760  0.25000  0.81240  Biso   1.000  C
  C480     1.0000 0.63120  0.25000  0.86880  Biso   1.000  C
  H272     1.0000 0.61130  0.25000  0.88870  Biso   1.000  H
  C481     1.0000 0.78050  0.75000  0.71950  Biso   1.000  C
  C482     1.0000 0.81240  0.75000  0.68760  Biso   1.000  C
  C483     1.0000 0.86880  0.75000  0.63120  Biso   1.000  C
  H273     1.0000 0.88870  0.75000  0.61130  Biso   1.000  H
  C484     1.0000 0.78050  0.25000  0.28050  Biso   1.000  C
  C485     1.0000 0.81240  0.25000  0.31240  Biso   1.000  C
  C486     1.0000 0.86880  0.25000  0.36880  Biso   1.000  C
  H274     1.0000 0.88870  0.25000  0.38870  Biso   1.000  H
  C487     1.0000 0.71950  0.21950  0.25000  Biso   1.000  C
  C488     1.0000 0.68760  0.18760  0.25000  Biso   1.000  C
  C489     1.0000 0.63120  0.13120  0.25000  Biso   1.000  C
  H275     1.0000 0.61130  0.11130  0.25000  Biso   1.000  H
  C490     1.0000 0.28050  0.21950  0.75000  Biso   1.000  C
  C491     1.0000 0.31240  0.18760  0.75000  Biso   1.000  C
  C492     1.0000 0.36880  0.13120  0.75000  Biso   1.000  C
  H276     1.0000 0.38870  0.11130  0.75000  Biso   1.000  H
  C493     1.0000 0.78050  0.71950  0.25000  Biso   1.000  C
  C494     1.0000 0.81240  0.68760  0.25000  Biso   1.000  C
  C495     1.0000 0.86880  0.63120  0.25000  Biso   1.000  C
  H277     1.0000 0.88870  0.61130  0.25000  Biso   1.000  H
  C496     1.0000 0.71950  0.78050  0.75000  Biso   1.000  C
  C497     1.0000 0.68760  0.81240  0.75000  Biso   1.000  C
  C498     1.0000 0.63120  0.86880  0.75000  Biso   1.000  C
  H278     1.0000 0.61130  0.88870  0.75000  Biso   1.000  H
  C499     1.0000 0.28050  0.78050  0.25000  Biso   1.000  C
  C500     1.0000 0.31240  0.81240  0.25000  Biso   1.000  C
  C501     1.0000 0.36880  0.86880  0.25000  Biso   1.000  C
  H279     1.0000 0.38870  0.88870  0.25000  Biso   1.000  H
  C502     1.0000 0.28050  0.75000  0.78050  Biso   1.000  C
  C503     1.0000 0.31240  0.75000  0.81240  Biso   1.000  C
  C504     1.0000 0.36880  0.75000  0.86880  Biso   1.000  C
  H280     1.0000 0.38870  0.75000  0.88870  Biso   1.000  H
  C505     1.0000 0.71950  0.75000  0.21950  Biso   1.000  C
  C506     1.0000 0.68760  0.75000  0.18760  Biso   1.000  C
  C507     1.0000 0.63120  0.75000  0.13120  Biso   1.000  C
  H281     1.0000 0.61130  0.75000  0.11130  Biso   1.000  H
  C508     1.0000 0.28050  0.25000  0.21950  Biso   1.000  C
  C509     1.0000 0.31240  0.25000  0.18760  Biso   1.000  C
  C510     1.0000 0.36880  0.25000  0.13120  Biso   1.000  C
  H282     1.0000 0.38870  0.25000  0.11130  Biso   1.000  H
  C511     1.0000 0.25000  0.21950  0.28050  Biso   1.000  C
  C512     1.0000 0.25000  0.18760  0.31240  Biso   1.000  C
  C513     1.0000 0.25000  0.13120  0.36880  Biso   1.000  C
  H283     1.0000 0.25000  0.11130  0.38870  Biso   1.000  H
  C514     1.0000 0.75000  0.21950  0.71950  Biso   1.000  C
  C515     1.0000 0.75000  0.18760  0.68760  Biso   1.000  C
  C516     1.0000 0.75000  0.13120  0.63120  Biso   1.000  C
  H284     1.0000 0.75000  0.11130  0.61130  Biso   1.000  H
  C517     1.0000 0.75000  0.78050  0.28050  Biso   1.000  C
  C518     1.0000 0.75000  0.81240  0.31240  Biso   1.000  C
  C519     1.0000 0.75000  0.86880  0.36880  Biso   1.000  C
  H285     1.0000 0.75000  0.88870  0.38870  Biso   1.000  H
  C520     1.0000 0.21950  0.71950  0.75000  Biso   1.000  C
  C521     1.0000 0.18760  0.68760  0.75000  Biso   1.000  C
  C522     1.0000 0.13120  0.63120  0.75000  Biso   1.000  C
  H286     1.0000 0.11130  0.61130  0.75000  Biso   1.000  H
  C523     1.0000 0.21950  0.28050  0.25000  Biso   1.000  C
  C524     1.0000 0.18760  0.31240  0.25000  Biso   1.000  C
  C525     1.0000 0.13120  0.36880  0.25000  Biso   1.000  C
  H287     1.0000 0.11130  0.38870  0.25000  Biso   1.000  H
  C526     1.0000 0.78050  0.28050  0.75000  Biso   1.000  C
  C527     1.0000 0.81240  0.31240  0.75000  Biso   1.000  C
  C528     1.0000 0.86880  0.36880  0.75000  Biso   1.000  C
  H288     1.0000 0.88870  0.38870  0.75000  Biso   1.000  H
