data_image0
_cell_length_a       38.9881
_cell_length_b       38.9881
_cell_length_c       22.2962
_cell_angle_alpha    90
_cell_angle_beta     90
_cell_angle_gamma    120

_symmetry_space_group_name_H-M    "P 1"
_symmetry_int_tables_number       1

loop_
  _symmetry_equiv_pos_as_xyz
  'x, y, z'

loop_
  _atom_site_label
  _atom_site_occupancy
  _atom_site_fract_x
  _atom_site_fract_y
  _atom_site_fract_z
  _atom_site_thermal_displace_type
  _atom_site_B_iso_or_equiv
  _atom_site_type_symbol
  Mn1      1.0000 0.66392  0.73824  0.09236  Biso   1.000  Mn
  Mn2      1.0000 0.58001  0.65563  0.03378  Biso   1.000  Mn
  O1       1.0000 0.39461  0.91990  0.99762  Biso   1.000  O
  O2       1.0000 0.37348  0.89757  0.08970  Biso   1.000  O
  O3       1.0000 0.68342  0.94699  0.91477  Biso   1.000  O
  O4       1.0000 0.71682  0.00845  0.94560  Biso   1.000  O
  O5       1.0000 0.66782  0.04718  0.12943  Biso   1.000  O
  O6       1.0000 0.61038  0.00212  0.16789  Biso   1.000  O
  O7       1.0000 0.57184  0.70428  0.01038  Biso   1.000  O
  O8       1.0000 0.61268  0.74257  0.08365  Biso   1.000  O
  C1       1.0000 0.58846  0.73516  0.04267  Biso   1.000  C
  C2       1.0000 0.57754  0.76614  0.02633  Biso   1.000  C
  C3       1.0000 0.55582  0.76316  0.97364  Biso   1.000  C
  H1       1.0000 0.54780  0.74190  0.94750  Biso   1.000  H
  C4       1.0000 0.54700  0.79271  0.96234  Biso   1.000  C
  H2       1.0000 0.53290  0.79110  0.92780  Biso   1.000  H
  C5       1.0000 0.55818  0.82428  0.99985  Biso   1.000  C
  C6       1.0000 0.57927  0.82658  0.04937  Biso   1.000  C
  H3       1.0000 0.58700  0.84790  0.07520  Biso   1.000  H
  C7       1.0000 0.58984  0.79837  0.06319  Biso   1.000  C
  H4       1.0000 0.60510  0.80130  0.09700  Biso   1.000  H
  C8       1.0000 0.54660  0.85563  0.98649  Biso   1.000  C
  H5       1.0000 0.56050  0.86980  0.95060  Biso   1.000  H
  H6       1.0000 0.51850  0.84220  0.97770  Biso   1.000  H
  C9       1.0000 0.52654  0.87268  0.07963  Biso   1.000  C
  H7       1.0000 0.54060  0.88550  0.11610  Biso   1.000  H
  H8       1.0000 0.51480  0.84440  0.08570  Biso   1.000  H
  C10      1.0000 0.49390  0.88152  0.07191  Biso   1.000  C
  C11      1.0000 0.46625  0.87314  0.11464  Biso   1.000  C
  H9       1.0000 0.46810  0.86230  0.15080  Biso   1.000  H
  C12      1.0000 0.43518  0.88041  0.10578  Biso   1.000  C
  H10      1.0000 0.41630  0.87350  0.13580  Biso   1.000  H
  C13      1.0000 0.43157  0.89675  0.05611  Biso   1.000  C
  C14      1.0000 0.45882  0.90663  0.01050  Biso   1.000  C
  H11      1.0000 0.45680  0.91820  0.97510  Biso   1.000  H
  C15      1.0000 0.48938  0.89857  0.01967  Biso   1.000  C
  H12      1.0000 0.50790  0.90490  0.98920  Biso   1.000  H
  C16      1.0000 0.59075  0.92076  0.03437  Biso   1.000  C
  C17      1.0000 0.59672  0.94909  0.07733  Biso   1.000  C
  H13      1.0000 0.57670  0.94370  0.10490  Biso   1.000  H
  C18      1.0000 0.63122  0.98473  0.08010  Biso   1.000  C
  C19      1.0000 0.66093  0.99328  0.03736  Biso   1.000  C
  H14      1.0000 0.68420  0.01770  0.03750  Biso   1.000  H
  C20      1.0000 0.65511  0.96520  0.99555  Biso   1.000  C
  C21      1.0000 0.62103  0.92933  0.99430  Biso   1.000  C
  H15      1.0000 0.61820  0.91050  0.96620  Biso   1.000  H
  C22      1.0000 0.39760  0.90537  0.04851  Biso   1.000  C
  C23      1.0000 0.68669  0.97374  0.94921  Biso   1.000  C
  C24      1.0000 0.63692  0.01381  0.12945  Biso   1.000  C
  N1       1.0000 0.55461  0.88388  0.03299  Biso   1.000  N
  Mn3      1.0000 0.33059  0.07157  0.42569  Biso   1.000  Mn
  Mn4      1.0000 0.24667  0.98897  0.36712  Biso   1.000  Mn
  O9       1.0000 0.06128  0.25323  0.33095  Biso   1.000  O
  O10      1.0000 0.04015  0.23090  0.42303  Biso   1.000  O
  O11      1.0000 0.35009  0.28032  0.24810  Biso   1.000  O
  O12      1.0000 0.38349  0.34178  0.27893  Biso   1.000  O
  O13      1.0000 0.33449  0.38051  0.46276  Biso   1.000  O
  O14      1.0000 0.27705  0.33545  0.50122  Biso   1.000  O
  O15      1.0000 0.23851  0.03761  0.34371  Biso   1.000  O
  O16      1.0000 0.27935  0.07590  0.41698  Biso   1.000  O
  C25      1.0000 0.25513  0.06849  0.37600  Biso   1.000  C
  C26      1.0000 0.24421  0.09947  0.35966  Biso   1.000  C
  C27      1.0000 0.22249  0.09649  0.30697  Biso   1.000  C
  H16      1.0000 0.21447  0.07523  0.28083  Biso   1.000  H
  C28      1.0000 0.21367  0.12604  0.29567  Biso   1.000  C
  H17      1.0000 0.19957  0.12443  0.26113  Biso   1.000  H
  C29      1.0000 0.22485  0.15761  0.33318  Biso   1.000  C
  C30      1.0000 0.24594  0.15991  0.38270  Biso   1.000  C
  H18      1.0000 0.25367  0.18123  0.40853  Biso   1.000  H
  C31      1.0000 0.25651  0.13170  0.39652  Biso   1.000  C
  H19      1.0000 0.27177  0.13463  0.43033  Biso   1.000  H
  C32      1.0000 0.21327  0.18896  0.31982  Biso   1.000  C
  H20      1.0000 0.22717  0.20313  0.28393  Biso   1.000  H
  H21      1.0000 0.18517  0.17553  0.31103  Biso   1.000  H
  C33      1.0000 0.19321  0.20601  0.41296  Biso   1.000  C
  H22      1.0000 0.20727  0.21883  0.44943  Biso   1.000  H
  H23      1.0000 0.18147  0.17773  0.41903  Biso   1.000  H
  C34      1.0000 0.16057  0.21485  0.40524  Biso   1.000  C
  C35      1.0000 0.13292  0.20647  0.44797  Biso   1.000  C
  H24      1.0000 0.13477  0.19563  0.48413  Biso   1.000  H
  C36      1.0000 0.10185  0.21374  0.43911  Biso   1.000  C
  H25      1.0000 0.08297  0.20683  0.46913  Biso   1.000  H
  C37      1.0000 0.09824  0.23008  0.38944  Biso   1.000  C
  C38      1.0000 0.12549  0.23996  0.34383  Biso   1.000  C
  H26      1.0000 0.12347  0.25153  0.30843  Biso   1.000  H
  C39      1.0000 0.15605  0.23190  0.35300  Biso   1.000  C
  H27      1.0000 0.17457  0.23823  0.32253  Biso   1.000  H
  C40      1.0000 0.25742  0.25409  0.36770  Biso   1.000  C
  C41      1.0000 0.26339  0.28242  0.41066  Biso   1.000  C
  H28      1.0000 0.24337  0.27703  0.43823  Biso   1.000  H
  C42      1.0000 0.29789  0.31806  0.41343  Biso   1.000  C
  C43      1.0000 0.32760  0.32661  0.37069  Biso   1.000  C
  H29      1.0000 0.35087  0.35103  0.37083  Biso   1.000  H
  C44      1.0000 0.32178  0.29853  0.32888  Biso   1.000  C
  C45      1.0000 0.28770  0.26266  0.32763  Biso   1.000  C
  H30      1.0000 0.28487  0.24383  0.29953  Biso   1.000  H
  C46      1.0000 0.06427  0.23870  0.38184  Biso   1.000  C
  C47      1.0000 0.35336  0.30707  0.28254  Biso   1.000  C
  C48      1.0000 0.30359  0.34714  0.46278  Biso   1.000  C
  N2       1.0000 0.22128  0.21721  0.36632  Biso   1.000  N
  Mn5      1.0000 0.99725  0.40490  0.75903  Biso   1.000  Mn
  Mn6      1.0000 0.91334  0.32230  0.70045  Biso   1.000  Mn
  O17      1.0000 0.72794  0.58657  0.66429  Biso   1.000  O
  O18      1.0000 0.70681  0.56424  0.75637  Biso   1.000  O
  O19      1.0000 0.01675  0.61366  0.58144  Biso   1.000  O
  O20      1.0000 0.05015  0.67512  0.61227  Biso   1.000  O
  O21      1.0000 0.00115  0.71385  0.79610  Biso   1.000  O
  O22      1.0000 0.94371  0.66879  0.83456  Biso   1.000  O
  O23      1.0000 0.90517  0.37095  0.67705  Biso   1.000  O
  O24      1.0000 0.94601  0.40924  0.75032  Biso   1.000  O
  C49      1.0000 0.92179  0.40183  0.70934  Biso   1.000  C
  C50      1.0000 0.91087  0.43281  0.69300  Biso   1.000  C
  C51      1.0000 0.88915  0.42983  0.64031  Biso   1.000  C
  H31      1.0000 0.88113  0.40857  0.61417  Biso   1.000  H
  C52      1.0000 0.88033  0.45938  0.62901  Biso   1.000  C
  H32      1.0000 0.86623  0.45777  0.59447  Biso   1.000  H
  C53      1.0000 0.89151  0.49095  0.66652  Biso   1.000  C
  C54      1.0000 0.91260  0.49325  0.71604  Biso   1.000  C
  H33      1.0000 0.92033  0.51457  0.74187  Biso   1.000  H
  C55      1.0000 0.92317  0.46504  0.72986  Biso   1.000  C
  H34      1.0000 0.93843  0.46797  0.76367  Biso   1.000  H
  C56      1.0000 0.87993  0.52230  0.65316  Biso   1.000  C
  H35      1.0000 0.89383  0.53647  0.61727  Biso   1.000  H
  H36      1.0000 0.85183  0.50887  0.64437  Biso   1.000  H
  C57      1.0000 0.85987  0.53935  0.74630  Biso   1.000  C
  H37      1.0000 0.87393  0.55217  0.78277  Biso   1.000  H
  H38      1.0000 0.84813  0.51107  0.75237  Biso   1.000  H
  C58      1.0000 0.82723  0.54819  0.73858  Biso   1.000  C
  C59      1.0000 0.79958  0.53981  0.78131  Biso   1.000  C
  H39      1.0000 0.80143  0.52897  0.81747  Biso   1.000  H
  C60      1.0000 0.76851  0.54708  0.77245  Biso   1.000  C
  H40      1.0000 0.74963  0.54017  0.80247  Biso   1.000  H
  C61      1.0000 0.76490  0.56342  0.72278  Biso   1.000  C
  C62      1.0000 0.79215  0.57330  0.67717  Biso   1.000  C
  H41      1.0000 0.79013  0.58487  0.64177  Biso   1.000  H
  C63      1.0000 0.82271  0.56524  0.68634  Biso   1.000  C
  H42      1.0000 0.84123  0.57157  0.65587  Biso   1.000  H
  C64      1.0000 0.92408  0.58743  0.70104  Biso   1.000  C
  C65      1.0000 0.93005  0.61576  0.74400  Biso   1.000  C
  H43      1.0000 0.91003  0.61037  0.77157  Biso   1.000  H
  C66      1.0000 0.96455  0.65140  0.74677  Biso   1.000  C
  C67      1.0000 0.99426  0.65995  0.70403  Biso   1.000  C
  H44      1.0000 0.01753  0.68437  0.70417  Biso   1.000  H
  C68      1.0000 0.98844  0.63187  0.66222  Biso   1.000  C
  C69      1.0000 0.95436  0.59600  0.66097  Biso   1.000  C
  H45      1.0000 0.95153  0.57717  0.63287  Biso   1.000  H
  C70      1.0000 0.73093  0.57204  0.71518  Biso   1.000  C
  C71      1.0000 0.02002  0.64041  0.61588  Biso   1.000  C
  C72      1.0000 0.97025  0.68048  0.79612  Biso   1.000  C
  N3       1.0000 0.88794  0.55055  0.69966  Biso   1.000  N
  Mn7      1.0000 0.26176  0.92568  0.09236  Biso   1.000  Mn
  Mn8      1.0000 0.34437  0.92437  0.03378  Biso   1.000  Mn
  O25      1.0000 0.08010  0.47471  0.99762  Biso   1.000  O
  O26      1.0000 0.10243  0.47591  0.08970  Biso   1.000  O
  O27      1.0000 0.05301  0.73643  0.91477  Biso   1.000  O
  O28      1.0000 0.99155  0.70837  0.94560  Biso   1.000  O
  O29      1.0000 0.95282  0.62064  0.12943  Biso   1.000  O
  O30      1.0000 0.99788  0.60826  0.16789  Biso   1.000  O
  O31      1.0000 0.29572  0.86756  0.01038  Biso   1.000  O
  O32      1.0000 0.25743  0.87011  0.08365  Biso   1.000  O
  C73      1.0000 0.26484  0.85330  0.04267  Biso   1.000  C
  C74      1.0000 0.23386  0.81140  0.02633  Biso   1.000  C
  C75      1.0000 0.23684  0.79266  0.97364  Biso   1.000  C
  H46      1.0000 0.25810  0.80590  0.94750  Biso   1.000  H
  C76      1.0000 0.20729  0.75429  0.96234  Biso   1.000  C
  H47      1.0000 0.20890  0.74180  0.92780  Biso   1.000  H
  C77      1.0000 0.17572  0.73390  0.99985  Biso   1.000  C
  C78      1.0000 0.17342  0.75269  0.04937  Biso   1.000  C
  H48      1.0000 0.15210  0.73910  0.07520  Biso   1.000  H
  C79      1.0000 0.20163  0.79147  0.06319  Biso   1.000  C
  H49      1.0000 0.19870  0.80380  0.09700  Biso   1.000  H
  C80      1.0000 0.14437  0.69097  0.98649  Biso   1.000  C
  H50      1.0000 0.13020  0.69070  0.95060  Biso   1.000  H
  H51      1.0000 0.15780  0.67630  0.97770  Biso   1.000  H
  C81      1.0000 0.12732  0.65386  0.07963  Biso   1.000  C
  H52      1.0000 0.11450  0.65510  0.11610  Biso   1.000  H
  H53      1.0000 0.15560  0.67040  0.08570  Biso   1.000  H
  C82      1.0000 0.11848  0.61238  0.07191  Biso   1.000  C
  C83      1.0000 0.12686  0.59311  0.11464  Biso   1.000  C
  H54      1.0000 0.13770  0.60580  0.15080  Biso   1.000  H
  C84      1.0000 0.11959  0.55477  0.10578  Biso   1.000  C
  H55      1.0000 0.12650  0.54280  0.13580  Biso   1.000  H
  C85      1.0000 0.10325  0.53482  0.05611  Biso   1.000  C
  C86      1.0000 0.09337  0.55219  0.01050  Biso   1.000  C
  H56      1.0000 0.08180  0.53860  0.97510  Biso   1.000  H
  C87      1.0000 0.10143  0.59081  0.01967  Biso   1.000  C
  H57      1.0000 0.09510  0.60300  0.98920  Biso   1.000  H
  C88      1.0000 0.07924  0.66999  0.03437  Biso   1.000  C
  C89      1.0000 0.05091  0.64763  0.07733  Biso   1.000  C
  H58      1.0000 0.05630  0.63300  0.10490  Biso   1.000  H
  C90      1.0000 0.01527  0.64649  0.08010  Biso   1.000  C
  C91      1.0000 0.00672  0.66765  0.03736  Biso   1.000  C
  H59      1.0000 0.98230  0.66650  0.03750  Biso   1.000  H
  C92      1.0000 0.03480  0.68991  0.99555  Biso   1.000  C
  C93      1.0000 0.07067  0.69170  0.99430  Biso   1.000  C
  H60      1.0000 0.08950  0.70770  0.96620  Biso   1.000  H
  C94      1.0000 0.09463  0.49223  0.04851  Biso   1.000  C
  C95      1.0000 0.02626  0.71295  0.94921  Biso   1.000  C
  C96      1.0000 0.98619  0.62311  0.12945  Biso   1.000  C
  N4       1.0000 0.11612  0.67073  0.03299  Biso   1.000  N
  Mn9      1.0000 0.92843  0.25901  0.42569  Biso   1.000  Mn
  Mn10     1.0000 0.01103  0.25771  0.36712  Biso   1.000  Mn
  O33      1.0000 0.74677  0.80804  0.33095  Biso   1.000  O
  O34      1.0000 0.76910  0.80924  0.42303  Biso   1.000  O
  O35      1.0000 0.71968  0.06976  0.24810  Biso   1.000  O
  O36      1.0000 0.65822  0.04170  0.27893  Biso   1.000  O
  O37      1.0000 0.61949  0.95397  0.46276  Biso   1.000  O
  O38      1.0000 0.66455  0.94159  0.50122  Biso   1.000  O
  O39      1.0000 0.96239  0.20089  0.34371  Biso   1.000  O
  O40      1.0000 0.92410  0.20344  0.41698  Biso   1.000  O
  C97      1.0000 0.93151  0.18663  0.37600  Biso   1.000  C
  C98      1.0000 0.90053  0.14473  0.35966  Biso   1.000  C
  C99      1.0000 0.90351  0.12599  0.30697  Biso   1.000  C
  H61      1.0000 0.92477  0.13923  0.28083  Biso   1.000  H
  C100     1.0000 0.87396  0.08762  0.29567  Biso   1.000  C
  H62      1.0000 0.87557  0.07513  0.26113  Biso   1.000  H
  C101     1.0000 0.84239  0.06723  0.33318  Biso   1.000  C
  C102     1.0000 0.84009  0.08602  0.38270  Biso   1.000  C
  H63      1.0000 0.81877  0.07243  0.40853  Biso   1.000  H
  C103     1.0000 0.86830  0.12480  0.39652  Biso   1.000  C
  H64      1.0000 0.86537  0.13713  0.43033  Biso   1.000  H
  C104     1.0000 0.81104  0.02430  0.31982  Biso   1.000  C
  H65      1.0000 0.79687  0.02403  0.28393  Biso   1.000  H
  H66      1.0000 0.82447  0.00963  0.31103  Biso   1.000  H
  C105     1.0000 0.79399  0.98719  0.41296  Biso   1.000  C
  H67      1.0000 0.78117  0.98843  0.44943  Biso   1.000  H
  H68      1.0000 0.82227  0.00373  0.41903  Biso   1.000  H
  C106     1.0000 0.78515  0.94571  0.40524  Biso   1.000  C
  C107     1.0000 0.79353  0.92644  0.44797  Biso   1.000  C
  H69      1.0000 0.80437  0.93913  0.48413  Biso   1.000  H
  C108     1.0000 0.78626  0.88810  0.43911  Biso   1.000  C
  H70      1.0000 0.79317  0.87613  0.46913  Biso   1.000  H
  C109     1.0000 0.76992  0.86815  0.38944  Biso   1.000  C
  C110     1.0000 0.76004  0.88552  0.34383  Biso   1.000  C
  H71      1.0000 0.74847  0.87193  0.30843  Biso   1.000  H
  C111     1.0000 0.76810  0.92414  0.35300  Biso   1.000  C
  H72      1.0000 0.76177  0.93633  0.32253  Biso   1.000  H
  C112     1.0000 0.74591  0.00332  0.36770  Biso   1.000  C
  C113     1.0000 0.71758  0.98096  0.41066  Biso   1.000  C
  H73      1.0000 0.72297  0.96633  0.43823  Biso   1.000  H
  C114     1.0000 0.68194  0.97982  0.41343  Biso   1.000  C
  C115     1.0000 0.67339  0.00098  0.37069  Biso   1.000  C
  H74      1.0000 0.64897  0.99983  0.37083  Biso   1.000  H
  C116     1.0000 0.70147  0.02324  0.32888  Biso   1.000  C
  C117     1.0000 0.73734  0.02503  0.32763  Biso   1.000  C
  H75      1.0000 0.75617  0.04103  0.29953  Biso   1.000  H
  C118     1.0000 0.76130  0.82556  0.38184  Biso   1.000  C
  C119     1.0000 0.69293  0.04628  0.28254  Biso   1.000  C
  C120     1.0000 0.65286  0.95644  0.46278  Biso   1.000  C
  N5       1.0000 0.78279  0.00406  0.36632  Biso   1.000  N
  Mn11     1.0000 0.59510  0.59235  0.75903  Biso   1.000  Mn
  Mn12     1.0000 0.67770  0.59104  0.70045  Biso   1.000  Mn
  O41      1.0000 0.41343  0.14138  0.66429  Biso   1.000  O
  O42      1.0000 0.43576  0.14258  0.75637  Biso   1.000  O
  O43      1.0000 0.38634  0.40310  0.58144  Biso   1.000  O
  O44      1.0000 0.32488  0.37504  0.61227  Biso   1.000  O
  O45      1.0000 0.28615  0.28731  0.79610  Biso   1.000  O
  O46      1.0000 0.33121  0.27493  0.83456  Biso   1.000  O
  O47      1.0000 0.62905  0.53423  0.67705  Biso   1.000  O
  O48      1.0000 0.59076  0.53678  0.75032  Biso   1.000  O
  C121     1.0000 0.59817  0.51997  0.70934  Biso   1.000  C
  C122     1.0000 0.56719  0.47807  0.69300  Biso   1.000  C
  C123     1.0000 0.57017  0.45933  0.64031  Biso   1.000  C
  H76      1.0000 0.59143  0.47257  0.61417  Biso   1.000  H
  C124     1.0000 0.54062  0.42096  0.62901  Biso   1.000  C
  H77      1.0000 0.54223  0.40847  0.59447  Biso   1.000  H
  C125     1.0000 0.50905  0.40057  0.66652  Biso   1.000  C
  C126     1.0000 0.50675  0.41936  0.71604  Biso   1.000  C
  H78      1.0000 0.48543  0.40577  0.74187  Biso   1.000  H
  C127     1.0000 0.53496  0.45814  0.72986  Biso   1.000  C
  H79      1.0000 0.53203  0.47047  0.76367  Biso   1.000  H
  C128     1.0000 0.47770  0.35764  0.65316  Biso   1.000  C
  H80      1.0000 0.46353  0.35737  0.61727  Biso   1.000  H
  H81      1.0000 0.49113  0.34297  0.64437  Biso   1.000  H
  C129     1.0000 0.46065  0.32053  0.74630  Biso   1.000  C
  H82      1.0000 0.44783  0.32177  0.78277  Biso   1.000  H
  H83      1.0000 0.48893  0.33707  0.75237  Biso   1.000  H
  C130     1.0000 0.45181  0.27905  0.73858  Biso   1.000  C
  C131     1.0000 0.46019  0.25978  0.78131  Biso   1.000  C
  H84      1.0000 0.47103  0.27247  0.81747  Biso   1.000  H
  C132     1.0000 0.45292  0.22144  0.77245  Biso   1.000  C
  H85      1.0000 0.45983  0.20947  0.80247  Biso   1.000  H
  C133     1.0000 0.43658  0.20149  0.72278  Biso   1.000  C
  C134     1.0000 0.42670  0.21886  0.67717  Biso   1.000  C
  H86      1.0000 0.41513  0.20527  0.64177  Biso   1.000  H
  C135     1.0000 0.43476  0.25748  0.68634  Biso   1.000  C
  H87      1.0000 0.42843  0.26967  0.65587  Biso   1.000  H
  C136     1.0000 0.41257  0.33666  0.70104  Biso   1.000  C
  C137     1.0000 0.38424  0.31430  0.74400  Biso   1.000  C
  H88      1.0000 0.38963  0.29967  0.77157  Biso   1.000  H
  C138     1.0000 0.34860  0.31316  0.74677  Biso   1.000  C
  C139     1.0000 0.34005  0.33432  0.70403  Biso   1.000  C
  H89      1.0000 0.31563  0.33317  0.70417  Biso   1.000  H
  C140     1.0000 0.36813  0.35658  0.66222  Biso   1.000  C
  C141     1.0000 0.40400  0.35837  0.66097  Biso   1.000  C
  H90      1.0000 0.42283  0.37437  0.63287  Biso   1.000  H
  C142     1.0000 0.42796  0.15890  0.71518  Biso   1.000  C
  C143     1.0000 0.35959  0.37962  0.61588  Biso   1.000  C
  C144     1.0000 0.31952  0.28978  0.79612  Biso   1.000  C
  N6       1.0000 0.44945  0.33740  0.69966  Biso   1.000  N
  Mn13     1.0000 0.07432  0.33608  0.09236  Biso   1.000  Mn
  Mn14     1.0000 0.07563  0.41999  0.03378  Biso   1.000  Mn
  O49      1.0000 0.52529  0.60539  0.99762  Biso   1.000  O
  O50      1.0000 0.52409  0.62652  0.08970  Biso   1.000  O
  O51      1.0000 0.26357  0.31658  0.91477  Biso   1.000  O
  O52      1.0000 0.29163  0.28318  0.94560  Biso   1.000  O
  O53      1.0000 0.37936  0.33218  0.12943  Biso   1.000  O
  O54      1.0000 0.39174  0.38962  0.16789  Biso   1.000  O
  O55      1.0000 0.13244  0.42816  0.01038  Biso   1.000  O
  O56      1.0000 0.12989  0.38732  0.08365  Biso   1.000  O
  C145     1.0000 0.14670  0.41154  0.04267  Biso   1.000  C
  C146     1.0000 0.18860  0.42246  0.02633  Biso   1.000  C
  C147     1.0000 0.20734  0.44418  0.97364  Biso   1.000  C
  H91      1.0000 0.19410  0.45220  0.94750  Biso   1.000  H
  C148     1.0000 0.24571  0.45300  0.96234  Biso   1.000  C
  H92      1.0000 0.25820  0.46710  0.92780  Biso   1.000  H
  C149     1.0000 0.26610  0.44182  0.99985  Biso   1.000  C
  C150     1.0000 0.24731  0.42073  0.04937  Biso   1.000  C
  H93      1.0000 0.26090  0.41300  0.07520  Biso   1.000  H
  C151     1.0000 0.20853  0.41016  0.06319  Biso   1.000  C
  H94      1.0000 0.19620  0.39490  0.09700  Biso   1.000  H
  C152     1.0000 0.30903  0.45340  0.98649  Biso   1.000  C
  H95      1.0000 0.30930  0.43950  0.95060  Biso   1.000  H
  H96      1.0000 0.32370  0.48150  0.97770  Biso   1.000  H
  C153     1.0000 0.34614  0.47346  0.07963  Biso   1.000  C
  H97      1.0000 0.34490  0.45940  0.11610  Biso   1.000  H
  H98      1.0000 0.32960  0.48520  0.08570  Biso   1.000  H
  C154     1.0000 0.38762  0.50610  0.07191  Biso   1.000  C
  C155     1.0000 0.40689  0.53375  0.11464  Biso   1.000  C
  H99      1.0000 0.39420  0.53190  0.15080  Biso   1.000  H
  C156     1.0000 0.44523  0.56482  0.10578  Biso   1.000  C
  H100     1.0000 0.45720  0.58370  0.13580  Biso   1.000  H
  C157     1.0000 0.46518  0.56843  0.05611  Biso   1.000  C
  C158     1.0000 0.44781  0.54118  0.01050  Biso   1.000  C
  H101     1.0000 0.46140  0.54320  0.97510  Biso   1.000  H
  C159     1.0000 0.40919  0.51062  0.01967  Biso   1.000  C
  H102     1.0000 0.39700  0.49210  0.98920  Biso   1.000  H
  C160     1.0000 0.33001  0.40925  0.03437  Biso   1.000  C
  C161     1.0000 0.35237  0.40328  0.07733  Biso   1.000  C
  H103     1.0000 0.36700  0.42330  0.10490  Biso   1.000  H
  C162     1.0000 0.35351  0.36878  0.08010  Biso   1.000  C
  C163     1.0000 0.33235  0.33907  0.03736  Biso   1.000  C
  H104     1.0000 0.33350  0.31580  0.03750  Biso   1.000  H
  C164     1.0000 0.31009  0.34489  0.99555  Biso   1.000  C
  C165     1.0000 0.30830  0.37897  0.99430  Biso   1.000  C
  H105     1.0000 0.29230  0.38180  0.96620  Biso   1.000  H
  C166     1.0000 0.50777  0.60240  0.04851  Biso   1.000  C
  C167     1.0000 0.28705  0.31331  0.94921  Biso   1.000  C
  C168     1.0000 0.37689  0.36308  0.12945  Biso   1.000  C
  N7       1.0000 0.32927  0.44539  0.03299  Biso   1.000  N
  Mn15     1.0000 0.74099  0.66941  0.42569  Biso   1.000  Mn
  Mn16     1.0000 0.74229  0.75333  0.36712  Biso   1.000  Mn
  O57      1.0000 0.19196  0.93872  0.33095  Biso   1.000  O
  O58      1.0000 0.19076  0.95985  0.42303  Biso   1.000  O
  O59      1.0000 0.93024  0.64991  0.24810  Biso   1.000  O
  O60      1.0000 0.95830  0.61651  0.27893  Biso   1.000  O
  O61      1.0000 0.04603  0.66551  0.46276  Biso   1.000  O
  O62      1.0000 0.05841  0.72295  0.50122  Biso   1.000  O
  O63      1.0000 0.79911  0.76149  0.34371  Biso   1.000  O
  O64      1.0000 0.79656  0.72065  0.41698  Biso   1.000  O
  C169     1.0000 0.81337  0.74487  0.37600  Biso   1.000  C
  C170     1.0000 0.85527  0.75579  0.35966  Biso   1.000  C
  C171     1.0000 0.87401  0.77751  0.30697  Biso   1.000  C
  H106     1.0000 0.86077  0.78553  0.28083  Biso   1.000  H
  C172     1.0000 0.91238  0.78633  0.29567  Biso   1.000  C
  H107     1.0000 0.92487  0.80043  0.26113  Biso   1.000  H
  C173     1.0000 0.93277  0.77515  0.33318  Biso   1.000  C
  C174     1.0000 0.91398  0.75406  0.38270  Biso   1.000  C
  H108     1.0000 0.92757  0.74633  0.40853  Biso   1.000  H
  C175     1.0000 0.87520  0.74349  0.39652  Biso   1.000  C
  H109     1.0000 0.86287  0.72823  0.43033  Biso   1.000  H
  C176     1.0000 0.97570  0.78673  0.31982  Biso   1.000  C
  H110     1.0000 0.97597  0.77283  0.28393  Biso   1.000  H
  H111     1.0000 0.99037  0.81483  0.31103  Biso   1.000  H
  C177     1.0000 0.01281  0.80679  0.41296  Biso   1.000  C
  H112     1.0000 0.01157  0.79273  0.44943  Biso   1.000  H
  H113     1.0000 0.99627  0.81853  0.41903  Biso   1.000  H
  C178     1.0000 0.05429  0.83943  0.40524  Biso   1.000  C
  C179     1.0000 0.07356  0.86708  0.44797  Biso   1.000  C
  H114     1.0000 0.06087  0.86523  0.48413  Biso   1.000  H
  C180     1.0000 0.11190  0.89815  0.43911  Biso   1.000  C
  H115     1.0000 0.12387  0.91703  0.46913  Biso   1.000  H
  C181     1.0000 0.13185  0.90176  0.38944  Biso   1.000  C
  C182     1.0000 0.11448  0.87451  0.34383  Biso   1.000  C
  H116     1.0000 0.12807  0.87653  0.30843  Biso   1.000  H
  C183     1.0000 0.07586  0.84395  0.35300  Biso   1.000  C
  H117     1.0000 0.06367  0.82543  0.32253  Biso   1.000  H
  C184     1.0000 0.99668  0.74258  0.36770  Biso   1.000  C
  C185     1.0000 0.01904  0.73661  0.41066  Biso   1.000  C
  H118     1.0000 0.03367  0.75663  0.43823  Biso   1.000  H
  C186     1.0000 0.02018  0.70211  0.41343  Biso   1.000  C
  C187     1.0000 0.99902  0.67240  0.37069  Biso   1.000  C
  H119     1.0000 0.00017  0.64913  0.37083  Biso   1.000  H
  C188     1.0000 0.97676  0.67822  0.32888  Biso   1.000  C
  C189     1.0000 0.97497  0.71230  0.32763  Biso   1.000  C
  H120     1.0000 0.95897  0.71513  0.29953  Biso   1.000  H
  C190     1.0000 0.17444  0.93573  0.38184  Biso   1.000  C
  C191     1.0000 0.95372  0.64664  0.28254  Biso   1.000  C
  C192     1.0000 0.04356  0.69641  0.46278  Biso   1.000  C
  N8       1.0000 0.99594  0.77872  0.36632  Biso   1.000  N
  Mn17     1.0000 0.40765  0.00275  0.75903  Biso   1.000  Mn
  Mn18     1.0000 0.40896  0.08666  0.70045  Biso   1.000  Mn
  O65      1.0000 0.85862  0.27206  0.66429  Biso   1.000  O
  O66      1.0000 0.85742  0.29319  0.75637  Biso   1.000  O
  O67      1.0000 0.59690  0.98325  0.58144  Biso   1.000  O
  O68      1.0000 0.62496  0.94985  0.61227  Biso   1.000  O
  O69      1.0000 0.71269  0.99885  0.79610  Biso   1.000  O
  O70      1.0000 0.72507  0.05629  0.83456  Biso   1.000  O
  O71      1.0000 0.46577  0.09483  0.67705  Biso   1.000  O
  O72      1.0000 0.46322  0.05399  0.75032  Biso   1.000  O
  C193     1.0000 0.48003  0.07821  0.70934  Biso   1.000  C
  C194     1.0000 0.52193  0.08913  0.69300  Biso   1.000  C
  C195     1.0000 0.54067  0.11085  0.64031  Biso   1.000  C
  H121     1.0000 0.52743  0.11887  0.61417  Biso   1.000  H
  C196     1.0000 0.57904  0.11967  0.62901  Biso   1.000  C
  H122     1.0000 0.59153  0.13377  0.59447  Biso   1.000  H
  C197     1.0000 0.59943  0.10849  0.66652  Biso   1.000  C
  C198     1.0000 0.58064  0.08740  0.71604  Biso   1.000  C
  H123     1.0000 0.59423  0.07967  0.74187  Biso   1.000  H
  C199     1.0000 0.54186  0.07683  0.72986  Biso   1.000  C
  H124     1.0000 0.52953  0.06157  0.76367  Biso   1.000  H
  C200     1.0000 0.64236  0.12007  0.65316  Biso   1.000  C
  H125     1.0000 0.64263  0.10617  0.61727  Biso   1.000  H
  H126     1.0000 0.65703  0.14817  0.64437  Biso   1.000  H
  C201     1.0000 0.67947  0.14013  0.74630  Biso   1.000  C
  H127     1.0000 0.67823  0.12607  0.78277  Biso   1.000  H
  H128     1.0000 0.66293  0.15187  0.75237  Biso   1.000  H
  C202     1.0000 0.72095  0.17277  0.73858  Biso   1.000  C
  C203     1.0000 0.74022  0.20042  0.78131  Biso   1.000  C
  H129     1.0000 0.72753  0.19857  0.81747  Biso   1.000  H
  C204     1.0000 0.77856  0.23149  0.77245  Biso   1.000  C
  H130     1.0000 0.79053  0.25037  0.80247  Biso   1.000  H
  C205     1.0000 0.79851  0.23510  0.72278  Biso   1.000  C
  C206     1.0000 0.78114  0.20785  0.67717  Biso   1.000  C
  H131     1.0000 0.79473  0.20987  0.64177  Biso   1.000  H
  C207     1.0000 0.74252  0.17729  0.68634  Biso   1.000  C
  H132     1.0000 0.73033  0.15877  0.65587  Biso   1.000  H
  C208     1.0000 0.66334  0.07592  0.70104  Biso   1.000  C
  C209     1.0000 0.68570  0.06995  0.74400  Biso   1.000  C
  H133     1.0000 0.70033  0.08997  0.77157  Biso   1.000  H
  C210     1.0000 0.68684  0.03545  0.74677  Biso   1.000  C
  C211     1.0000 0.66568  0.00574  0.70403  Biso   1.000  C
  H134     1.0000 0.66683  0.98247  0.70417  Biso   1.000  H
  C212     1.0000 0.64342  0.01156  0.66222  Biso   1.000  C
  C213     1.0000 0.64163  0.04564  0.66097  Biso   1.000  C
  H135     1.0000 0.62563  0.04847  0.63287  Biso   1.000  H
  C214     1.0000 0.84110  0.26907  0.71518  Biso   1.000  C
  C215     1.0000 0.62038  0.97998  0.61588  Biso   1.000  C
  C216     1.0000 0.71022  0.02975  0.79612  Biso   1.000  C
  N9       1.0000 0.66260  0.11206  0.69966  Biso   1.000  N
  Mn19     1.0000 0.26176  0.33608  0.59236  Biso   1.000  Mn
  Mn20     1.0000 0.34437  0.41999  0.53378  Biso   1.000  Mn
  O73      1.0000 0.08010  0.60539  0.49762  Biso   1.000  O
  O74      1.0000 0.10243  0.62652  0.58970  Biso   1.000  O
  O75      1.0000 0.05301  0.31658  0.41477  Biso   1.000  O
  O76      1.0000 0.99155  0.28318  0.44560  Biso   1.000  O
  O77      1.0000 0.95282  0.33218  0.62943  Biso   1.000  O
  O78      1.0000 0.99788  0.38962  0.66789  Biso   1.000  O
  O79      1.0000 0.29572  0.42816  0.51038  Biso   1.000  O
  O80      1.0000 0.25743  0.38732  0.58365  Biso   1.000  O
  C217     1.0000 0.26484  0.41154  0.54267  Biso   1.000  C
  C218     1.0000 0.23386  0.42246  0.52633  Biso   1.000  C
  C219     1.0000 0.23684  0.44418  0.47364  Biso   1.000  C
  H136     1.0000 0.25810  0.45220  0.44750  Biso   1.000  H
  C220     1.0000 0.20729  0.45300  0.46234  Biso   1.000  C
  H137     1.0000 0.20890  0.46710  0.42780  Biso   1.000  H
  C221     1.0000 0.17572  0.44182  0.49985  Biso   1.000  C
  C222     1.0000 0.17342  0.42073  0.54937  Biso   1.000  C
  H138     1.0000 0.15210  0.41300  0.57520  Biso   1.000  H
  C223     1.0000 0.20163  0.41016  0.56319  Biso   1.000  C
  H139     1.0000 0.19870  0.39490  0.59700  Biso   1.000  H
  C224     1.0000 0.14437  0.45340  0.48649  Biso   1.000  C
  H140     1.0000 0.13020  0.43950  0.45060  Biso   1.000  H
  H141     1.0000 0.15780  0.48150  0.47770  Biso   1.000  H
  C225     1.0000 0.12732  0.47346  0.57963  Biso   1.000  C
  H142     1.0000 0.11450  0.45940  0.61610  Biso   1.000  H
  H143     1.0000 0.15560  0.48520  0.58570  Biso   1.000  H
  C226     1.0000 0.11848  0.50610  0.57191  Biso   1.000  C
  C227     1.0000 0.12686  0.53375  0.61464  Biso   1.000  C
  H144     1.0000 0.13770  0.53190  0.65080  Biso   1.000  H
  C228     1.0000 0.11959  0.56482  0.60578  Biso   1.000  C
  H145     1.0000 0.12650  0.58370  0.63580  Biso   1.000  H
  C229     1.0000 0.10325  0.56843  0.55611  Biso   1.000  C
  C230     1.0000 0.09337  0.54118  0.51050  Biso   1.000  C
  H146     1.0000 0.08180  0.54320  0.47510  Biso   1.000  H
  C231     1.0000 0.10143  0.51062  0.51967  Biso   1.000  C
  H147     1.0000 0.09510  0.49210  0.48920  Biso   1.000  H
  C232     1.0000 0.07924  0.40925  0.53437  Biso   1.000  C
  C233     1.0000 0.05091  0.40328  0.57733  Biso   1.000  C
  H148     1.0000 0.05630  0.42330  0.60490  Biso   1.000  H
  C234     1.0000 0.01527  0.36878  0.58010  Biso   1.000  C
  C235     1.0000 0.00672  0.33907  0.53736  Biso   1.000  C
  H149     1.0000 0.98230  0.31580  0.53750  Biso   1.000  H
  C236     1.0000 0.03480  0.34489  0.49555  Biso   1.000  C
  C237     1.0000 0.07067  0.37897  0.49430  Biso   1.000  C
  H150     1.0000 0.08950  0.38180  0.46620  Biso   1.000  H
  C238     1.0000 0.09463  0.60240  0.54851  Biso   1.000  C
  C239     1.0000 0.02626  0.31331  0.44921  Biso   1.000  C
  C240     1.0000 0.98619  0.36308  0.62945  Biso   1.000  C
  N10      1.0000 0.11612  0.44539  0.53299  Biso   1.000  N
  Mn21     1.0000 0.92843  0.66941  0.92569  Biso   1.000  Mn
  Mn22     1.0000 0.01103  0.75333  0.86712  Biso   1.000  Mn
  O81      1.0000 0.74677  0.93872  0.83095  Biso   1.000  O
  O82      1.0000 0.76910  0.95985  0.92303  Biso   1.000  O
  O83      1.0000 0.71968  0.64991  0.74810  Biso   1.000  O
  O84      1.0000 0.65822  0.61651  0.77893  Biso   1.000  O
  O85      1.0000 0.61949  0.66551  0.96276  Biso   1.000  O
  O86      1.0000 0.66455  0.72295  0.00122  Biso   1.000  O
  O87      1.0000 0.96239  0.76149  0.84371  Biso   1.000  O
  O88      1.0000 0.92410  0.72065  0.91698  Biso   1.000  O
  C241     1.0000 0.93151  0.74487  0.87600  Biso   1.000  C
  C242     1.0000 0.90053  0.75579  0.85966  Biso   1.000  C
  C243     1.0000 0.90351  0.77751  0.80697  Biso   1.000  C
  H151     1.0000 0.92477  0.78553  0.78083  Biso   1.000  H
  C244     1.0000 0.87396  0.78633  0.79567  Biso   1.000  C
  H152     1.0000 0.87557  0.80043  0.76113  Biso   1.000  H
  C245     1.0000 0.84239  0.77515  0.83318  Biso   1.000  C
  C246     1.0000 0.84009  0.75406  0.88270  Biso   1.000  C
  H153     1.0000 0.81877  0.74633  0.90853  Biso   1.000  H
  C247     1.0000 0.86830  0.74349  0.89652  Biso   1.000  C
  H154     1.0000 0.86537  0.72823  0.93033  Biso   1.000  H
  C248     1.0000 0.81104  0.78673  0.81982  Biso   1.000  C
  H155     1.0000 0.79687  0.77283  0.78393  Biso   1.000  H
  H156     1.0000 0.82447  0.81483  0.81103  Biso   1.000  H
  C249     1.0000 0.79399  0.80679  0.91296  Biso   1.000  C
  H157     1.0000 0.78117  0.79273  0.94943  Biso   1.000  H
  H158     1.0000 0.82227  0.81853  0.91903  Biso   1.000  H
  C250     1.0000 0.78515  0.83943  0.90524  Biso   1.000  C
  C251     1.0000 0.79353  0.86708  0.94797  Biso   1.000  C
  H159     1.0000 0.80437  0.86523  0.98413  Biso   1.000  H
  C252     1.0000 0.78626  0.89815  0.93911  Biso   1.000  C
  H160     1.0000 0.79317  0.91703  0.96913  Biso   1.000  H
  C253     1.0000 0.76992  0.90176  0.88944  Biso   1.000  C
  C254     1.0000 0.76004  0.87451  0.84383  Biso   1.000  C
  H161     1.0000 0.74847  0.87653  0.80843  Biso   1.000  H
  C255     1.0000 0.76810  0.84395  0.85300  Biso   1.000  C
  H162     1.0000 0.76177  0.82543  0.82253  Biso   1.000  H
  C256     1.0000 0.74591  0.74258  0.86770  Biso   1.000  C
  C257     1.0000 0.71758  0.73661  0.91066  Biso   1.000  C
  H163     1.0000 0.72297  0.75663  0.93823  Biso   1.000  H
  C258     1.0000 0.68194  0.70211  0.91343  Biso   1.000  C
  C259     1.0000 0.67339  0.67240  0.87069  Biso   1.000  C
  H164     1.0000 0.64897  0.64913  0.87083  Biso   1.000  H
  C260     1.0000 0.70147  0.67822  0.82888  Biso   1.000  C
  C261     1.0000 0.73734  0.71230  0.82763  Biso   1.000  C
  H165     1.0000 0.75617  0.71513  0.79953  Biso   1.000  H
  C262     1.0000 0.76130  0.93573  0.88184  Biso   1.000  C
  C263     1.0000 0.69293  0.64664  0.78254  Biso   1.000  C
  C264     1.0000 0.65286  0.69641  0.96278  Biso   1.000  C
  N11      1.0000 0.78279  0.77872  0.86632  Biso   1.000  N
  Mn23     1.0000 0.59510  0.00275  0.25903  Biso   1.000  Mn
  Mn24     1.0000 0.67770  0.08666  0.20045  Biso   1.000  Mn
  O89      1.0000 0.41343  0.27206  0.16429  Biso   1.000  O
  O90      1.0000 0.43576  0.29319  0.25637  Biso   1.000  O
  O91      1.0000 0.38634  0.98325  0.08144  Biso   1.000  O
  O92      1.0000 0.32488  0.94985  0.11227  Biso   1.000  O
  O93      1.0000 0.28615  0.99885  0.29610  Biso   1.000  O
  O94      1.0000 0.33121  0.05629  0.33456  Biso   1.000  O
  O95      1.0000 0.62905  0.09483  0.17705  Biso   1.000  O
  O96      1.0000 0.59076  0.05399  0.25032  Biso   1.000  O
  C265     1.0000 0.59817  0.07821  0.20934  Biso   1.000  C
  C266     1.0000 0.56719  0.08913  0.19300  Biso   1.000  C
  C267     1.0000 0.57017  0.11085  0.14031  Biso   1.000  C
  H166     1.0000 0.59143  0.11887  0.11417  Biso   1.000  H
  C268     1.0000 0.54062  0.11967  0.12901  Biso   1.000  C
  H167     1.0000 0.54223  0.13377  0.09447  Biso   1.000  H
  C269     1.0000 0.50905  0.10849  0.16652  Biso   1.000  C
  C270     1.0000 0.50675  0.08740  0.21604  Biso   1.000  C
  H168     1.0000 0.48543  0.07967  0.24187  Biso   1.000  H
  C271     1.0000 0.53496  0.07683  0.22986  Biso   1.000  C
  H169     1.0000 0.53203  0.06157  0.26367  Biso   1.000  H
  C272     1.0000 0.47770  0.12007  0.15316  Biso   1.000  C
  H170     1.0000 0.46353  0.10617  0.11727  Biso   1.000  H
  H171     1.0000 0.49113  0.14817  0.14437  Biso   1.000  H
  C273     1.0000 0.46065  0.14013  0.24630  Biso   1.000  C
  H172     1.0000 0.44783  0.12607  0.28277  Biso   1.000  H
  H173     1.0000 0.48893  0.15187  0.25237  Biso   1.000  H
  C274     1.0000 0.45181  0.17277  0.23858  Biso   1.000  C
  C275     1.0000 0.46019  0.20042  0.28131  Biso   1.000  C
  H174     1.0000 0.47103  0.19857  0.31747  Biso   1.000  H
  C276     1.0000 0.45292  0.23149  0.27245  Biso   1.000  C
  H175     1.0000 0.45983  0.25037  0.30247  Biso   1.000  H
  C277     1.0000 0.43658  0.23510  0.22278  Biso   1.000  C
  C278     1.0000 0.42670  0.20785  0.17717  Biso   1.000  C
  H176     1.0000 0.41513  0.20987  0.14177  Biso   1.000  H
  C279     1.0000 0.43476  0.17729  0.18634  Biso   1.000  C
  H177     1.0000 0.42843  0.15877  0.15587  Biso   1.000  H
  C280     1.0000 0.41257  0.07592  0.20104  Biso   1.000  C
  C281     1.0000 0.38424  0.06995  0.24400  Biso   1.000  C
  H178     1.0000 0.38963  0.08997  0.27157  Biso   1.000  H
  C282     1.0000 0.34860  0.03545  0.24677  Biso   1.000  C
  C283     1.0000 0.34005  0.00574  0.20403  Biso   1.000  C
  H179     1.0000 0.31563  0.98247  0.20417  Biso   1.000  H
  C284     1.0000 0.36813  0.01156  0.16222  Biso   1.000  C
  C285     1.0000 0.40400  0.04564  0.16097  Biso   1.000  C
  H180     1.0000 0.42283  0.04847  0.13287  Biso   1.000  H
  C286     1.0000 0.42796  0.26907  0.21518  Biso   1.000  C
  C287     1.0000 0.35959  0.97998  0.11588  Biso   1.000  C
  C288     1.0000 0.31952  0.02975  0.29612  Biso   1.000  C
  N12      1.0000 0.44945  0.11206  0.19966  Biso   1.000  N
  Mn25     1.0000 0.07432  0.73824  0.59236  Biso   1.000  Mn
  Mn26     1.0000 0.07563  0.65563  0.53378  Biso   1.000  Mn
  O97      1.0000 0.52529  0.91990  0.49762  Biso   1.000  O
  O98      1.0000 0.52409  0.89757  0.58970  Biso   1.000  O
  O99      1.0000 0.26357  0.94699  0.41477  Biso   1.000  O
  O100     1.0000 0.29163  0.00845  0.44560  Biso   1.000  O
  O101     1.0000 0.37936  0.04718  0.62943  Biso   1.000  O
  O102     1.0000 0.39174  0.00212  0.66789  Biso   1.000  O
  O103     1.0000 0.13244  0.70428  0.51038  Biso   1.000  O
  O104     1.0000 0.12989  0.74257  0.58365  Biso   1.000  O
  C289     1.0000 0.14670  0.73516  0.54267  Biso   1.000  C
  C290     1.0000 0.18860  0.76614  0.52633  Biso   1.000  C
  C291     1.0000 0.20734  0.76316  0.47364  Biso   1.000  C
  H181     1.0000 0.19410  0.74190  0.44750  Biso   1.000  H
  C292     1.0000 0.24571  0.79271  0.46234  Biso   1.000  C
  H182     1.0000 0.25820  0.79110  0.42780  Biso   1.000  H
  C293     1.0000 0.26610  0.82428  0.49985  Biso   1.000  C
  C294     1.0000 0.24731  0.82658  0.54937  Biso   1.000  C
  H183     1.0000 0.26090  0.84790  0.57520  Biso   1.000  H
  C295     1.0000 0.20853  0.79837  0.56319  Biso   1.000  C
  H184     1.0000 0.19620  0.80130  0.59700  Biso   1.000  H
  C296     1.0000 0.30903  0.85563  0.48649  Biso   1.000  C
  H185     1.0000 0.30930  0.86980  0.45060  Biso   1.000  H
  H186     1.0000 0.32370  0.84220  0.47770  Biso   1.000  H
  C297     1.0000 0.34614  0.87268  0.57963  Biso   1.000  C
  H187     1.0000 0.34490  0.88550  0.61610  Biso   1.000  H
  H188     1.0000 0.32960  0.84440  0.58570  Biso   1.000  H
  C298     1.0000 0.38762  0.88152  0.57191  Biso   1.000  C
  C299     1.0000 0.40689  0.87314  0.61464  Biso   1.000  C
  H189     1.0000 0.39420  0.86230  0.65080  Biso   1.000  H
  C300     1.0000 0.44523  0.88041  0.60578  Biso   1.000  C
  H190     1.0000 0.45720  0.87350  0.63580  Biso   1.000  H
  C301     1.0000 0.46518  0.89675  0.55611  Biso   1.000  C
  C302     1.0000 0.44781  0.90663  0.51050  Biso   1.000  C
  H191     1.0000 0.46140  0.91820  0.47510  Biso   1.000  H
  C303     1.0000 0.40919  0.89857  0.51967  Biso   1.000  C
  H192     1.0000 0.39700  0.90490  0.48920  Biso   1.000  H
  C304     1.0000 0.33001  0.92076  0.53437  Biso   1.000  C
  C305     1.0000 0.35237  0.94909  0.57733  Biso   1.000  C
  H193     1.0000 0.36700  0.94370  0.60490  Biso   1.000  H
  C306     1.0000 0.35351  0.98473  0.58010  Biso   1.000  C
  C307     1.0000 0.33235  0.99328  0.53736  Biso   1.000  C
  H194     1.0000 0.33350  0.01770  0.53750  Biso   1.000  H
  C308     1.0000 0.31009  0.96520  0.49555  Biso   1.000  C
  C309     1.0000 0.30830  0.92933  0.49430  Biso   1.000  C
  H195     1.0000 0.29230  0.91050  0.46620  Biso   1.000  H
  C310     1.0000 0.50777  0.90537  0.54851  Biso   1.000  C
  C311     1.0000 0.28705  0.97374  0.44921  Biso   1.000  C
  C312     1.0000 0.37689  0.01381  0.62945  Biso   1.000  C
  N13      1.0000 0.32927  0.88388  0.53299  Biso   1.000  N
  Mn27     1.0000 0.74099  0.07157  0.92569  Biso   1.000  Mn
  Mn28     1.0000 0.74229  0.98897  0.86712  Biso   1.000  Mn
  O105     1.0000 0.19196  0.25323  0.83095  Biso   1.000  O
  O106     1.0000 0.19076  0.23090  0.92303  Biso   1.000  O
  O107     1.0000 0.93024  0.28032  0.74810  Biso   1.000  O
  O108     1.0000 0.95830  0.34178  0.77893  Biso   1.000  O
  O109     1.0000 0.04603  0.38051  0.96276  Biso   1.000  O
  O110     1.0000 0.05841  0.33545  0.00122  Biso   1.000  O
  O111     1.0000 0.79911  0.03761  0.84371  Biso   1.000  O
  O112     1.0000 0.79656  0.07590  0.91698  Biso   1.000  O
  C313     1.0000 0.81337  0.06849  0.87600  Biso   1.000  C
  C314     1.0000 0.85527  0.09947  0.85966  Biso   1.000  C
  C315     1.0000 0.87401  0.09649  0.80697  Biso   1.000  C
  H196     1.0000 0.86077  0.07523  0.78083  Biso   1.000  H
  C316     1.0000 0.91238  0.12604  0.79567  Biso   1.000  C
  H197     1.0000 0.92487  0.12443  0.76113  Biso   1.000  H
  C317     1.0000 0.93277  0.15761  0.83318  Biso   1.000  C
  C318     1.0000 0.91398  0.15991  0.88270  Biso   1.000  C
  H198     1.0000 0.92757  0.18123  0.90853  Biso   1.000  H
  C319     1.0000 0.87520  0.13170  0.89652  Biso   1.000  C
  H199     1.0000 0.86287  0.13463  0.93033  Biso   1.000  H
  C320     1.0000 0.97570  0.18896  0.81982  Biso   1.000  C
  H200     1.0000 0.97597  0.20313  0.78393  Biso   1.000  H
  H201     1.0000 0.99037  0.17553  0.81103  Biso   1.000  H
  C321     1.0000 0.01281  0.20601  0.91296  Biso   1.000  C
  H202     1.0000 0.01157  0.21883  0.94943  Biso   1.000  H
  H203     1.0000 0.99627  0.17773  0.91903  Biso   1.000  H
  C322     1.0000 0.05429  0.21485  0.90524  Biso   1.000  C
  C323     1.0000 0.07356  0.20647  0.94797  Biso   1.000  C
  H204     1.0000 0.06087  0.19563  0.98413  Biso   1.000  H
  C324     1.0000 0.11190  0.21374  0.93911  Biso   1.000  C
  H205     1.0000 0.12387  0.20683  0.96913  Biso   1.000  H
  C325     1.0000 0.13185  0.23008  0.88944  Biso   1.000  C
  C326     1.0000 0.11448  0.23996  0.84383  Biso   1.000  C
  H206     1.0000 0.12807  0.25153  0.80843  Biso   1.000  H
  C327     1.0000 0.07586  0.23190  0.85300  Biso   1.000  C
  H207     1.0000 0.06367  0.23823  0.82253  Biso   1.000  H
  C328     1.0000 0.99668  0.25409  0.86770  Biso   1.000  C
  C329     1.0000 0.01904  0.28242  0.91066  Biso   1.000  C
  H208     1.0000 0.03367  0.27703  0.93823  Biso   1.000  H
  C330     1.0000 0.02018  0.31806  0.91343  Biso   1.000  C
  C331     1.0000 0.99902  0.32661  0.87069  Biso   1.000  C
  H209     1.0000 0.00017  0.35103  0.87083  Biso   1.000  H
  C332     1.0000 0.97676  0.29853  0.82888  Biso   1.000  C
  C333     1.0000 0.97497  0.26266  0.82763  Biso   1.000  C
  H210     1.0000 0.95897  0.24383  0.79953  Biso   1.000  H
  C334     1.0000 0.17444  0.23870  0.88184  Biso   1.000  C
  C335     1.0000 0.95372  0.30707  0.78254  Biso   1.000  C
  C336     1.0000 0.04356  0.34714  0.96278  Biso   1.000  C
  N14      1.0000 0.99594  0.21721  0.86632  Biso   1.000  N
  Mn29     1.0000 0.40765  0.40490  0.25903  Biso   1.000  Mn
  Mn30     1.0000 0.40896  0.32230  0.20045  Biso   1.000  Mn
  O113     1.0000 0.85862  0.58657  0.16429  Biso   1.000  O
  O114     1.0000 0.85742  0.56424  0.25637  Biso   1.000  O
  O115     1.0000 0.59690  0.61366  0.08144  Biso   1.000  O
  O116     1.0000 0.62496  0.67512  0.11227  Biso   1.000  O
  O117     1.0000 0.71269  0.71385  0.29610  Biso   1.000  O
  O118     1.0000 0.72507  0.66879  0.33456  Biso   1.000  O
  O119     1.0000 0.46577  0.37095  0.17705  Biso   1.000  O
  O120     1.0000 0.46322  0.40924  0.25032  Biso   1.000  O
  C337     1.0000 0.48003  0.40183  0.20934  Biso   1.000  C
  C338     1.0000 0.52193  0.43281  0.19300  Biso   1.000  C
  C339     1.0000 0.54067  0.42983  0.14031  Biso   1.000  C
  H211     1.0000 0.52743  0.40857  0.11417  Biso   1.000  H
  C340     1.0000 0.57904  0.45938  0.12901  Biso   1.000  C
  H212     1.0000 0.59153  0.45777  0.09447  Biso   1.000  H
  C341     1.0000 0.59943  0.49095  0.16652  Biso   1.000  C
  C342     1.0000 0.58064  0.49325  0.21604  Biso   1.000  C
  H213     1.0000 0.59423  0.51457  0.24187  Biso   1.000  H
  C343     1.0000 0.54186  0.46504  0.22986  Biso   1.000  C
  H214     1.0000 0.52953  0.46797  0.26367  Biso   1.000  H
  C344     1.0000 0.64236  0.52230  0.15316  Biso   1.000  C
  H215     1.0000 0.64263  0.53647  0.11727  Biso   1.000  H
  H216     1.0000 0.65703  0.50887  0.14437  Biso   1.000  H
  C345     1.0000 0.67947  0.53935  0.24630  Biso   1.000  C
  H217     1.0000 0.67823  0.55217  0.28277  Biso   1.000  H
  H218     1.0000 0.66293  0.51107  0.25237  Biso   1.000  H
  C346     1.0000 0.72095  0.54819  0.23858  Biso   1.000  C
  C347     1.0000 0.74022  0.53981  0.28131  Biso   1.000  C
  H219     1.0000 0.72753  0.52897  0.31747  Biso   1.000  H
  C348     1.0000 0.77856  0.54708  0.27245  Biso   1.000  C
  H220     1.0000 0.79053  0.54017  0.30247  Biso   1.000  H
  C349     1.0000 0.79851  0.56342  0.22278  Biso   1.000  C
  C350     1.0000 0.78114  0.57330  0.17717  Biso   1.000  C
  H221     1.0000 0.79473  0.58487  0.14177  Biso   1.000  H
  C351     1.0000 0.74252  0.56524  0.18634  Biso   1.000  C
  H222     1.0000 0.73033  0.57157  0.15587  Biso   1.000  H
  C352     1.0000 0.66334  0.58743  0.20104  Biso   1.000  C
  C353     1.0000 0.68570  0.61576  0.24400  Biso   1.000  C
  H223     1.0000 0.70033  0.61037  0.27157  Biso   1.000  H
  C354     1.0000 0.68684  0.65140  0.24677  Biso   1.000  C
  C355     1.0000 0.66568  0.65995  0.20403  Biso   1.000  C
  H224     1.0000 0.66683  0.68437  0.20417  Biso   1.000  H
  C356     1.0000 0.64342  0.63187  0.16222  Biso   1.000  C
  C357     1.0000 0.64163  0.59600  0.16097  Biso   1.000  C
  H225     1.0000 0.62563  0.57717  0.13287  Biso   1.000  H
  C358     1.0000 0.84110  0.57204  0.21518  Biso   1.000  C
  C359     1.0000 0.62038  0.64041  0.11588  Biso   1.000  C
  C360     1.0000 0.71022  0.68048  0.29612  Biso   1.000  C
  N15      1.0000 0.66260  0.55055  0.19966  Biso   1.000  N
  Mn31     1.0000 0.66392  0.92568  0.59236  Biso   1.000  Mn
  Mn32     1.0000 0.58001  0.92437  0.53378  Biso   1.000  Mn
  O121     1.0000 0.39461  0.47471  0.49762  Biso   1.000  O
  O122     1.0000 0.37348  0.47591  0.58970  Biso   1.000  O
  O123     1.0000 0.68342  0.73643  0.41477  Biso   1.000  O
  O124     1.0000 0.71682  0.70837  0.44560  Biso   1.000  O
  O125     1.0000 0.66782  0.62064  0.62943  Biso   1.000  O
  O126     1.0000 0.61038  0.60826  0.66789  Biso   1.000  O
  O127     1.0000 0.57184  0.86756  0.51038  Biso   1.000  O
  O128     1.0000 0.61268  0.87011  0.58365  Biso   1.000  O
  C361     1.0000 0.58846  0.85330  0.54267  Biso   1.000  C
  C362     1.0000 0.57754  0.81140  0.52633  Biso   1.000  C
  C363     1.0000 0.55582  0.79266  0.47364  Biso   1.000  C
  H226     1.0000 0.54780  0.80590  0.44750  Biso   1.000  H
  C364     1.0000 0.54700  0.75429  0.46234  Biso   1.000  C
  H227     1.0000 0.53290  0.74180  0.42780  Biso   1.000  H
  C365     1.0000 0.55818  0.73390  0.49985  Biso   1.000  C
  C366     1.0000 0.57927  0.75269  0.54937  Biso   1.000  C
  H228     1.0000 0.58700  0.73910  0.57520  Biso   1.000  H
  C367     1.0000 0.58984  0.79147  0.56319  Biso   1.000  C
  H229     1.0000 0.60510  0.80380  0.59700  Biso   1.000  H
  C368     1.0000 0.54660  0.69097  0.48649  Biso   1.000  C
  H230     1.0000 0.56050  0.69070  0.45060  Biso   1.000  H
  H231     1.0000 0.51850  0.67630  0.47770  Biso   1.000  H
  C369     1.0000 0.52654  0.65386  0.57963  Biso   1.000  C
  H232     1.0000 0.54060  0.65510  0.61610  Biso   1.000  H
  H233     1.0000 0.51480  0.67040  0.58570  Biso   1.000  H
  C370     1.0000 0.49390  0.61238  0.57191  Biso   1.000  C
  C371     1.0000 0.46625  0.59311  0.61464  Biso   1.000  C
  H234     1.0000 0.46810  0.60580  0.65080  Biso   1.000  H
  C372     1.0000 0.43518  0.55477  0.60578  Biso   1.000  C
  H235     1.0000 0.41630  0.54280  0.63580  Biso   1.000  H
  C373     1.0000 0.43157  0.53482  0.55611  Biso   1.000  C
  C374     1.0000 0.45882  0.55219  0.51050  Biso   1.000  C
  H236     1.0000 0.45680  0.53860  0.47510  Biso   1.000  H
  C375     1.0000 0.48938  0.59081  0.51967  Biso   1.000  C
  H237     1.0000 0.50790  0.60300  0.48920  Biso   1.000  H
  C376     1.0000 0.59075  0.66999  0.53437  Biso   1.000  C
  C377     1.0000 0.59672  0.64763  0.57733  Biso   1.000  C
  H238     1.0000 0.57670  0.63300  0.60490  Biso   1.000  H
  C378     1.0000 0.63122  0.64649  0.58010  Biso   1.000  C
  C379     1.0000 0.66093  0.66765  0.53736  Biso   1.000  C
  H239     1.0000 0.68420  0.66650  0.53750  Biso   1.000  H
  C380     1.0000 0.65511  0.68991  0.49555  Biso   1.000  C
  C381     1.0000 0.62103  0.69170  0.49430  Biso   1.000  C
  H240     1.0000 0.61820  0.70770  0.46620  Biso   1.000  H
  C382     1.0000 0.39760  0.49223  0.54851  Biso   1.000  C
  C383     1.0000 0.68669  0.71295  0.44921  Biso   1.000  C
  C384     1.0000 0.63692  0.62311  0.62945  Biso   1.000  C
  N16      1.0000 0.55461  0.67073  0.53299  Biso   1.000  N
  Mn33     1.0000 0.33059  0.25901  0.92569  Biso   1.000  Mn
  Mn34     1.0000 0.24667  0.25771  0.86712  Biso   1.000  Mn
  O129     1.0000 0.06128  0.80804  0.83095  Biso   1.000  O
  O130     1.0000 0.04015  0.80924  0.92303  Biso   1.000  O
  O131     1.0000 0.35009  0.06976  0.74810  Biso   1.000  O
  O132     1.0000 0.38349  0.04170  0.77893  Biso   1.000  O
  O133     1.0000 0.33449  0.95397  0.96276  Biso   1.000  O
  O134     1.0000 0.27705  0.94159  0.00122  Biso   1.000  O
  O135     1.0000 0.23851  0.20089  0.84371  Biso   1.000  O
  O136     1.0000 0.27935  0.20344  0.91698  Biso   1.000  O
  C385     1.0000 0.25513  0.18663  0.87600  Biso   1.000  C
  C386     1.0000 0.24421  0.14473  0.85966  Biso   1.000  C
  C387     1.0000 0.22249  0.12599  0.80697  Biso   1.000  C
  H241     1.0000 0.21447  0.13923  0.78083  Biso   1.000  H
  C388     1.0000 0.21367  0.08762  0.79567  Biso   1.000  C
  H242     1.0000 0.19957  0.07513  0.76113  Biso   1.000  H
  C389     1.0000 0.22485  0.06723  0.83318  Biso   1.000  C
  C390     1.0000 0.24594  0.08602  0.88270  Biso   1.000  C
  H243     1.0000 0.25367  0.07243  0.90853  Biso   1.000  H
  C391     1.0000 0.25651  0.12480  0.89652  Biso   1.000  C
  H244     1.0000 0.27177  0.13713  0.93033  Biso   1.000  H
  C392     1.0000 0.21327  0.02430  0.81982  Biso   1.000  C
  H245     1.0000 0.22717  0.02403  0.78393  Biso   1.000  H
  H246     1.0000 0.18517  0.00963  0.81103  Biso   1.000  H
  C393     1.0000 0.19321  0.98719  0.91296  Biso   1.000  C
  H247     1.0000 0.20727  0.98843  0.94943  Biso   1.000  H
  H248     1.0000 0.18147  0.00373  0.91903  Biso   1.000  H
  C394     1.0000 0.16057  0.94571  0.90524  Biso   1.000  C
  C395     1.0000 0.13292  0.92644  0.94797  Biso   1.000  C
  H249     1.0000 0.13477  0.93913  0.98413  Biso   1.000  H
  C396     1.0000 0.10185  0.88810  0.93911  Biso   1.000  C
  H250     1.0000 0.08297  0.87613  0.96913  Biso   1.000  H
  C397     1.0000 0.09824  0.86815  0.88944  Biso   1.000  C
  C398     1.0000 0.12549  0.88552  0.84383  Biso   1.000  C
  H251     1.0000 0.12347  0.87193  0.80843  Biso   1.000  H
  C399     1.0000 0.15605  0.92414  0.85300  Biso   1.000  C
  H252     1.0000 0.17457  0.93633  0.82253  Biso   1.000  H
  C400     1.0000 0.25742  0.00332  0.86770  Biso   1.000  C
  C401     1.0000 0.26339  0.98096  0.91066  Biso   1.000  C
  H253     1.0000 0.24337  0.96633  0.93823  Biso   1.000  H
  C402     1.0000 0.29789  0.97982  0.91343  Biso   1.000  C
  C403     1.0000 0.32760  0.00098  0.87069  Biso   1.000  C
  H254     1.0000 0.35087  0.99983  0.87083  Biso   1.000  H
  C404     1.0000 0.32178  0.02324  0.82888  Biso   1.000  C
  C405     1.0000 0.28770  0.02503  0.82763  Biso   1.000  C
  H255     1.0000 0.28487  0.04103  0.79953  Biso   1.000  H
  C406     1.0000 0.06427  0.82556  0.88184  Biso   1.000  C
  C407     1.0000 0.35336  0.04628  0.78254  Biso   1.000  C
  C408     1.0000 0.30359  0.95644  0.96278  Biso   1.000  C
  N17      1.0000 0.22128  0.00406  0.86632  Biso   1.000  N
  Mn35     1.0000 0.99725  0.59235  0.25903  Biso   1.000  Mn
  Mn36     1.0000 0.91334  0.59104  0.20045  Biso   1.000  Mn
  O137     1.0000 0.72794  0.14138  0.16429  Biso   1.000  O
  O138     1.0000 0.70681  0.14258  0.25637  Biso   1.000  O
  O139     1.0000 0.01675  0.40310  0.08144  Biso   1.000  O
  O140     1.0000 0.05015  0.37504  0.11227  Biso   1.000  O
  O141     1.0000 0.00115  0.28731  0.29610  Biso   1.000  O
  O142     1.0000 0.94371  0.27493  0.33456  Biso   1.000  O
  O143     1.0000 0.90517  0.53423  0.17705  Biso   1.000  O
  O144     1.0000 0.94601  0.53678  0.25032  Biso   1.000  O
  C409     1.0000 0.92179  0.51997  0.20934  Biso   1.000  C
  C410     1.0000 0.91087  0.47807  0.19300  Biso   1.000  C
  C411     1.0000 0.88915  0.45933  0.14031  Biso   1.000  C
  H256     1.0000 0.88113  0.47257  0.11417  Biso   1.000  H
  C412     1.0000 0.88033  0.42096  0.12901  Biso   1.000  C
  H257     1.0000 0.86623  0.40847  0.09447  Biso   1.000  H
  C413     1.0000 0.89151  0.40057  0.16652  Biso   1.000  C
  C414     1.0000 0.91260  0.41936  0.21604  Biso   1.000  C
  H258     1.0000 0.92033  0.40577  0.24187  Biso   1.000  H
  C415     1.0000 0.92317  0.45814  0.22986  Biso   1.000  C
  H259     1.0000 0.93843  0.47047  0.26367  Biso   1.000  H
  C416     1.0000 0.87993  0.35764  0.15316  Biso   1.000  C
  H260     1.0000 0.89383  0.35737  0.11727  Biso   1.000  H
  H261     1.0000 0.85183  0.34297  0.14437  Biso   1.000  H
  C417     1.0000 0.85987  0.32053  0.24630  Biso   1.000  C
  H262     1.0000 0.87393  0.32177  0.28277  Biso   1.000  H
  H263     1.0000 0.84813  0.33707  0.25237  Biso   1.000  H
  C418     1.0000 0.82723  0.27905  0.23858  Biso   1.000  C
  C419     1.0000 0.79958  0.25978  0.28131  Biso   1.000  C
  H264     1.0000 0.80143  0.27247  0.31747  Biso   1.000  H
  C420     1.0000 0.76851  0.22144  0.27245  Biso   1.000  C
  H265     1.0000 0.74963  0.20947  0.30247  Biso   1.000  H
  C421     1.0000 0.76490  0.20149  0.22278  Biso   1.000  C
  C422     1.0000 0.79215  0.21886  0.17717  Biso   1.000  C
  H266     1.0000 0.79013  0.20527  0.14177  Biso   1.000  H
  C423     1.0000 0.82271  0.25748  0.18634  Biso   1.000  C
  H267     1.0000 0.84123  0.26967  0.15587  Biso   1.000  H
  C424     1.0000 0.92408  0.33666  0.20104  Biso   1.000  C
  C425     1.0000 0.93005  0.31430  0.24400  Biso   1.000  C
  H268     1.0000 0.91003  0.29967  0.27157  Biso   1.000  H
  C426     1.0000 0.96455  0.31316  0.24677  Biso   1.000  C
  C427     1.0000 0.99426  0.33432  0.20403  Biso   1.000  C
  H269     1.0000 0.01753  0.33317  0.20417  Biso   1.000  H
  C428     1.0000 0.98844  0.35658  0.16222  Biso   1.000  C
  C429     1.0000 0.95436  0.35837  0.16097  Biso   1.000  C
  H270     1.0000 0.95153  0.37437  0.13287  Biso   1.000  H
  C430     1.0000 0.73093  0.15890  0.21518  Biso   1.000  C
  C431     1.0000 0.02002  0.37962  0.11588  Biso   1.000  C
  C432     1.0000 0.97025  0.28978  0.29612  Biso   1.000  C
  N18      1.0000 0.88794  0.33740  0.19966  Biso   1.000  N
