data_image0
_cell_length_a       23.316
_cell_length_b       28.011
_cell_length_c       36.079
_cell_angle_alpha    90
_cell_angle_beta     90
_cell_angle_gamma    90

_symmetry_space_group_name_H-M    "P 1"
_symmetry_int_tables_number       1

loop_
  _symmetry_equiv_pos_as_xyz
  'x, y, z'

loop_
  _atom_site_label
  _atom_site_occupancy
  _atom_site_fract_x
  _atom_site_fract_y
  _atom_site_fract_z
  _atom_site_thermal_displace_type
  _atom_site_B_iso_or_equiv
  _atom_site_type_symbol
  O1       1.0000 0.80900  0.16687  0.10009  Biso   1.000  O
  O2       1.0000 0.83164  0.18695  0.15779  Biso   1.000  O
  O3       1.0000 0.75033  0.32028  0.29450  Biso   1.000  O
  O4       1.0000 0.67843  0.36933  0.31201  Biso   1.000  O
  O5       1.0000 0.83431  0.53170  0.10511  Biso   1.000  O
  O6       1.0000 0.76570  0.57019  0.13513  Biso   1.000  O
  N1       1.0000 0.68206  0.30733  0.12180  Biso   1.000  N
  N2       1.0000 0.64359  0.35555  0.17735  Biso   1.000  N
  N3       1.0000 0.67980  0.40881  0.12030  Biso   1.000  N
  C1       1.0000 0.69934  0.28449  0.09088  Biso   1.000  C
  C2       1.0000 0.73809  0.24715  0.09209  Biso   1.000  C
  C3       1.0000 0.75981  0.23266  0.12613  Biso   1.000  C
  C4       1.0000 0.74250  0.25633  0.15810  Biso   1.000  C
  C5       1.0000 0.70388  0.29379  0.15503  Biso   1.000  C
  C6       1.0000 0.68400  0.32263  0.18632  Biso   1.000  C
  C7       1.0000 0.70518  0.31858  0.22204  Biso   1.000  C
  C8       1.0000 0.68331  0.34848  0.24933  Biso   1.000  C
  C9       1.0000 0.64074  0.38110  0.24011  Biso   1.000  C
  C10      1.0000 0.62247  0.38429  0.20401  Biso   1.000  C
  C11      1.0000 0.80299  0.19254  0.12843  Biso   1.000  C
  C12      1.0000 0.70630  0.34531  0.28885  Biso   1.000  C
  C13      1.0000 0.73677  0.40475  0.11608  Biso   1.000  C
  C14      1.0000 0.77212  0.44451  0.11492  Biso   1.000  C
  C15      1.0000 0.74840  0.48953  0.11923  Biso   1.000  C
  C16      1.0000 0.68970  0.49394  0.12322  Biso   1.000  C
  C17      1.0000 0.65593  0.45297  0.12328  Biso   1.000  C
  C18      1.0000 0.78580  0.53404  0.12043  Biso   1.000  C
  H1       1.0000 0.68000  0.29680  0.07030  Biso   1.000  H
  H2       1.0000 0.75620  0.23390  0.07320  Biso   1.000  H
  H3       1.0000 0.73590  0.29750  0.22760  Biso   1.000  H
  H4       1.0000 0.75690  0.24700  0.18170  Biso   1.000  H
  H5       1.0000 0.62490  0.40190  0.25800  Biso   1.000  H
  H6       1.0000 0.59420  0.40310  0.19410  Biso   1.000  H
  H7       1.0000 0.75150  0.37150  0.11780  Biso   1.000  H
  H8       1.0000 0.81020  0.43820  0.11570  Biso   1.000  H
  H9       1.0000 0.66920  0.52110  0.12560  Biso   1.000  H
  O7       1.0000 0.80900  0.66687  0.60009  Biso   1.000  O
  O8       1.0000 0.83164  0.68695  0.65779  Biso   1.000  O
  O9       1.0000 0.75033  0.82028  0.79450  Biso   1.000  O
  O10      1.0000 0.67843  0.86933  0.81201  Biso   1.000  O
  O11      1.0000 0.83431  0.03170  0.60511  Biso   1.000  O
  O12      1.0000 0.76570  0.07019  0.63513  Biso   1.000  O
  N4       1.0000 0.68206  0.80733  0.62180  Biso   1.000  N
  N5       1.0000 0.64359  0.85555  0.67735  Biso   1.000  N
  N6       1.0000 0.67980  0.90881  0.62030  Biso   1.000  N
  C19      1.0000 0.69934  0.78449  0.59088  Biso   1.000  C
  C20      1.0000 0.73809  0.74715  0.59209  Biso   1.000  C
  C21      1.0000 0.75981  0.73266  0.62613  Biso   1.000  C
  C22      1.0000 0.74250  0.75633  0.65810  Biso   1.000  C
  C23      1.0000 0.70388  0.79379  0.65503  Biso   1.000  C
  C24      1.0000 0.68400  0.82263  0.68632  Biso   1.000  C
  C25      1.0000 0.70518  0.81858  0.72204  Biso   1.000  C
  C26      1.0000 0.68331  0.84848  0.74933  Biso   1.000  C
  C27      1.0000 0.64074  0.88110  0.74011  Biso   1.000  C
  C28      1.0000 0.62247  0.88429  0.70401  Biso   1.000  C
  C29      1.0000 0.80299  0.69254  0.62843  Biso   1.000  C
  C30      1.0000 0.70630  0.84531  0.78885  Biso   1.000  C
  C31      1.0000 0.73677  0.90475  0.61608  Biso   1.000  C
  C32      1.0000 0.77212  0.94451  0.61492  Biso   1.000  C
  C33      1.0000 0.74840  0.98953  0.61923  Biso   1.000  C
  C34      1.0000 0.68970  0.99394  0.62322  Biso   1.000  C
  C35      1.0000 0.65593  0.95297  0.62328  Biso   1.000  C
  C36      1.0000 0.78580  0.03404  0.62043  Biso   1.000  C
  H10      1.0000 0.68000  0.79680  0.57030  Biso   1.000  H
  H11      1.0000 0.75620  0.73390  0.57320  Biso   1.000  H
  H12      1.0000 0.73590  0.79750  0.72760  Biso   1.000  H
  H13      1.0000 0.75690  0.74700  0.68170  Biso   1.000  H
  H14      1.0000 0.62490  0.90190  0.75800  Biso   1.000  H
  H15      1.0000 0.59420  0.90310  0.69410  Biso   1.000  H
  H16      1.0000 0.75150  0.87150  0.61780  Biso   1.000  H
  H17      1.0000 0.81020  0.93820  0.61570  Biso   1.000  H
  H18      1.0000 0.66920  0.02110  0.62560  Biso   1.000  H
  O13      1.0000 0.30900  0.16687  0.60009  Biso   1.000  O
  O14      1.0000 0.33164  0.18695  0.65779  Biso   1.000  O
  O15      1.0000 0.25033  0.32028  0.79450  Biso   1.000  O
  O16      1.0000 0.17843  0.36933  0.81201  Biso   1.000  O
  O17      1.0000 0.33431  0.53170  0.60511  Biso   1.000  O
  O18      1.0000 0.26570  0.57019  0.63513  Biso   1.000  O
  N7       1.0000 0.18206  0.30733  0.62180  Biso   1.000  N
  N8       1.0000 0.14359  0.35555  0.67735  Biso   1.000  N
  N9       1.0000 0.17980  0.40881  0.62030  Biso   1.000  N
  C37      1.0000 0.19934  0.28449  0.59088  Biso   1.000  C
  C38      1.0000 0.23809  0.24715  0.59209  Biso   1.000  C
  C39      1.0000 0.25981  0.23266  0.62613  Biso   1.000  C
  C40      1.0000 0.24250  0.25633  0.65810  Biso   1.000  C
  C41      1.0000 0.20388  0.29379  0.65503  Biso   1.000  C
  C42      1.0000 0.18400  0.32263  0.68632  Biso   1.000  C
  C43      1.0000 0.20518  0.31858  0.72204  Biso   1.000  C
  C44      1.0000 0.18331  0.34848  0.74933  Biso   1.000  C
  C45      1.0000 0.14074  0.38110  0.74011  Biso   1.000  C
  C46      1.0000 0.12247  0.38429  0.70401  Biso   1.000  C
  C47      1.0000 0.30299  0.19254  0.62843  Biso   1.000  C
  C48      1.0000 0.20630  0.34531  0.78885  Biso   1.000  C
  C49      1.0000 0.23677  0.40475  0.61608  Biso   1.000  C
  C50      1.0000 0.27212  0.44451  0.61492  Biso   1.000  C
  C51      1.0000 0.24840  0.48953  0.61923  Biso   1.000  C
  C52      1.0000 0.18970  0.49394  0.62322  Biso   1.000  C
  C53      1.0000 0.15593  0.45297  0.62328  Biso   1.000  C
  C54      1.0000 0.28580  0.53404  0.62043  Biso   1.000  C
  H19      1.0000 0.18000  0.29680  0.57030  Biso   1.000  H
  H20      1.0000 0.25620  0.23390  0.57320  Biso   1.000  H
  H21      1.0000 0.23590  0.29750  0.72760  Biso   1.000  H
  H22      1.0000 0.25690  0.24700  0.68170  Biso   1.000  H
  H23      1.0000 0.12490  0.40190  0.75800  Biso   1.000  H
  H24      1.0000 0.09420  0.40310  0.69410  Biso   1.000  H
  H25      1.0000 0.25150  0.37150  0.61780  Biso   1.000  H
  H26      1.0000 0.31020  0.43820  0.61570  Biso   1.000  H
  H27      1.0000 0.16920  0.52110  0.62560  Biso   1.000  H
  O19      1.0000 0.30900  0.66687  0.10009  Biso   1.000  O
  O20      1.0000 0.33164  0.68695  0.15779  Biso   1.000  O
  O21      1.0000 0.25033  0.82028  0.29450  Biso   1.000  O
  O22      1.0000 0.17843  0.86933  0.31201  Biso   1.000  O
  O23      1.0000 0.33431  0.03170  0.10511  Biso   1.000  O
  O24      1.0000 0.26570  0.07019  0.13513  Biso   1.000  O
  N10      1.0000 0.18206  0.80733  0.12180  Biso   1.000  N
  N11      1.0000 0.14359  0.85555  0.17735  Biso   1.000  N
  N12      1.0000 0.17980  0.90881  0.12030  Biso   1.000  N
  C55      1.0000 0.19934  0.78449  0.09088  Biso   1.000  C
  C56      1.0000 0.23809  0.74715  0.09209  Biso   1.000  C
  C57      1.0000 0.25981  0.73266  0.12613  Biso   1.000  C
  C58      1.0000 0.24250  0.75633  0.15810  Biso   1.000  C
  C59      1.0000 0.20388  0.79379  0.15503  Biso   1.000  C
  C60      1.0000 0.18400  0.82263  0.18632  Biso   1.000  C
  C61      1.0000 0.20518  0.81858  0.22204  Biso   1.000  C
  C62      1.0000 0.18331  0.84848  0.24933  Biso   1.000  C
  C63      1.0000 0.14074  0.88110  0.24011  Biso   1.000  C
  C64      1.0000 0.12247  0.88429  0.20401  Biso   1.000  C
  C65      1.0000 0.30299  0.69254  0.12843  Biso   1.000  C
  C66      1.0000 0.20630  0.84531  0.28885  Biso   1.000  C
  C67      1.0000 0.23677  0.90475  0.11608  Biso   1.000  C
  C68      1.0000 0.27212  0.94451  0.11492  Biso   1.000  C
  C69      1.0000 0.24840  0.98953  0.11923  Biso   1.000  C
  C70      1.0000 0.18970  0.99394  0.12322  Biso   1.000  C
  C71      1.0000 0.15593  0.95297  0.12328  Biso   1.000  C
  C72      1.0000 0.28580  0.03404  0.12043  Biso   1.000  C
  H28      1.0000 0.18000  0.79680  0.07030  Biso   1.000  H
  H29      1.0000 0.25620  0.73390  0.07320  Biso   1.000  H
  H30      1.0000 0.23590  0.79750  0.22760  Biso   1.000  H
  H31      1.0000 0.25690  0.74700  0.18170  Biso   1.000  H
  H32      1.0000 0.12490  0.90190  0.25800  Biso   1.000  H
  H33      1.0000 0.09420  0.90310  0.19410  Biso   1.000  H
  H34      1.0000 0.25150  0.87150  0.11780  Biso   1.000  H
  H35      1.0000 0.31020  0.93820  0.11570  Biso   1.000  H
  H36      1.0000 0.16920  0.02110  0.12560  Biso   1.000  H
  O25      1.0000 0.94100  0.58313  0.10009  Biso   1.000  O
  O26      1.0000 0.91836  0.56305  0.15779  Biso   1.000  O
  O27      1.0000 0.99967  0.42972  0.29450  Biso   1.000  O
  O28      1.0000 0.07157  0.38067  0.31201  Biso   1.000  O
  O29      1.0000 0.91569  0.21830  0.10511  Biso   1.000  O
  O30      1.0000 0.98430  0.17981  0.13513  Biso   1.000  O
  N13      1.0000 0.06794  0.44267  0.12180  Biso   1.000  N
  N14      1.0000 0.10641  0.39445  0.17735  Biso   1.000  N
  N15      1.0000 0.07020  0.34119  0.12030  Biso   1.000  N
  C73      1.0000 0.05066  0.46551  0.09088  Biso   1.000  C
  C74      1.0000 0.01191  0.50285  0.09209  Biso   1.000  C
  C75      1.0000 0.99019  0.51734  0.12613  Biso   1.000  C
  C76      1.0000 0.00750  0.49367  0.15810  Biso   1.000  C
  C77      1.0000 0.04612  0.45621  0.15503  Biso   1.000  C
  C78      1.0000 0.06600  0.42737  0.18632  Biso   1.000  C
  C79      1.0000 0.04482  0.43142  0.22204  Biso   1.000  C
  C80      1.0000 0.06669  0.40152  0.24933  Biso   1.000  C
  C81      1.0000 0.10926  0.36890  0.24011  Biso   1.000  C
  C82      1.0000 0.12753  0.36571  0.20401  Biso   1.000  C
  C83      1.0000 0.94701  0.55746  0.12843  Biso   1.000  C
  C84      1.0000 0.04370  0.40469  0.28885  Biso   1.000  C
  C85      1.0000 0.01323  0.34525  0.11608  Biso   1.000  C
  C86      1.0000 0.97788  0.30549  0.11492  Biso   1.000  C
  C87      1.0000 0.00160  0.26047  0.11923  Biso   1.000  C
  C88      1.0000 0.06030  0.25606  0.12322  Biso   1.000  C
  C89      1.0000 0.09407  0.29703  0.12328  Biso   1.000  C
  C90      1.0000 0.96420  0.21596  0.12043  Biso   1.000  C
  H37      1.0000 0.07000  0.45320  0.07030  Biso   1.000  H
  H38      1.0000 0.99380  0.51610  0.07320  Biso   1.000  H
  H39      1.0000 0.01410  0.45250  0.22760  Biso   1.000  H
  H40      1.0000 0.99310  0.50300  0.18170  Biso   1.000  H
  H41      1.0000 0.12510  0.34810  0.25800  Biso   1.000  H
  H42      1.0000 0.15580  0.34690  0.19410  Biso   1.000  H
  H43      1.0000 0.99850  0.37850  0.11780  Biso   1.000  H
  H44      1.0000 0.93980  0.31180  0.11570  Biso   1.000  H
  H45      1.0000 0.08080  0.22890  0.12560  Biso   1.000  H
  O31      1.0000 0.94100  0.08313  0.60009  Biso   1.000  O
  O32      1.0000 0.91836  0.06305  0.65779  Biso   1.000  O
  O33      1.0000 0.99967  0.92972  0.79450  Biso   1.000  O
  O34      1.0000 0.07157  0.88067  0.81201  Biso   1.000  O
  O35      1.0000 0.91569  0.71830  0.60511  Biso   1.000  O
  O36      1.0000 0.98430  0.67981  0.63513  Biso   1.000  O
  N16      1.0000 0.06794  0.94267  0.62180  Biso   1.000  N
  N17      1.0000 0.10641  0.89445  0.67735  Biso   1.000  N
  N18      1.0000 0.07020  0.84119  0.62030  Biso   1.000  N
  C91      1.0000 0.05066  0.96551  0.59088  Biso   1.000  C
  C92      1.0000 0.01191  0.00285  0.59209  Biso   1.000  C
  C93      1.0000 0.99019  0.01734  0.62613  Biso   1.000  C
  C94      1.0000 0.00750  0.99367  0.65810  Biso   1.000  C
  C95      1.0000 0.04612  0.95621  0.65503  Biso   1.000  C
  C96      1.0000 0.06600  0.92737  0.68632  Biso   1.000  C
  C97      1.0000 0.04482  0.93142  0.72204  Biso   1.000  C
  C98      1.0000 0.06669  0.90152  0.74933  Biso   1.000  C
  C99      1.0000 0.10926  0.86890  0.74011  Biso   1.000  C
  C100     1.0000 0.12753  0.86571  0.70401  Biso   1.000  C
  C101     1.0000 0.94701  0.05746  0.62843  Biso   1.000  C
  C102     1.0000 0.04370  0.90469  0.78885  Biso   1.000  C
  C103     1.0000 0.01323  0.84525  0.61608  Biso   1.000  C
  C104     1.0000 0.97788  0.80549  0.61492  Biso   1.000  C
  C105     1.0000 0.00160  0.76047  0.61923  Biso   1.000  C
  C106     1.0000 0.06030  0.75606  0.62322  Biso   1.000  C
  C107     1.0000 0.09407  0.79703  0.62328  Biso   1.000  C
  C108     1.0000 0.96420  0.71596  0.62043  Biso   1.000  C
  H46      1.0000 0.07000  0.95320  0.57030  Biso   1.000  H
  H47      1.0000 0.99380  0.01610  0.57320  Biso   1.000  H
  H48      1.0000 0.01410  0.95250  0.72760  Biso   1.000  H
  H49      1.0000 0.99310  0.00300  0.68170  Biso   1.000  H
  H50      1.0000 0.12510  0.84810  0.75800  Biso   1.000  H
  H51      1.0000 0.15580  0.84690  0.69410  Biso   1.000  H
  H52      1.0000 0.99850  0.87850  0.61780  Biso   1.000  H
  H53      1.0000 0.93980  0.81180  0.61570  Biso   1.000  H
  H54      1.0000 0.08080  0.72890  0.62560  Biso   1.000  H
  O37      1.0000 0.44100  0.58313  0.60009  Biso   1.000  O
  O38      1.0000 0.41836  0.56305  0.65779  Biso   1.000  O
  O39      1.0000 0.49967  0.42972  0.79450  Biso   1.000  O
  O40      1.0000 0.57157  0.38067  0.81201  Biso   1.000  O
  O41      1.0000 0.41569  0.21830  0.60511  Biso   1.000  O
  O42      1.0000 0.48430  0.17981  0.63513  Biso   1.000  O
  N19      1.0000 0.56794  0.44267  0.62180  Biso   1.000  N
  N20      1.0000 0.60641  0.39445  0.67735  Biso   1.000  N
  N21      1.0000 0.57020  0.34119  0.62030  Biso   1.000  N
  C109     1.0000 0.55066  0.46551  0.59088  Biso   1.000  C
  C110     1.0000 0.51191  0.50285  0.59209  Biso   1.000  C
  C111     1.0000 0.49019  0.51734  0.62613  Biso   1.000  C
  C112     1.0000 0.50750  0.49367  0.65810  Biso   1.000  C
  C113     1.0000 0.54612  0.45621  0.65503  Biso   1.000  C
  C114     1.0000 0.56600  0.42737  0.68632  Biso   1.000  C
  C115     1.0000 0.54482  0.43142  0.72204  Biso   1.000  C
  C116     1.0000 0.56669  0.40152  0.74933  Biso   1.000  C
  C117     1.0000 0.60926  0.36890  0.74011  Biso   1.000  C
  C118     1.0000 0.62753  0.36571  0.70401  Biso   1.000  C
  C119     1.0000 0.44701  0.55746  0.62843  Biso   1.000  C
  C120     1.0000 0.54370  0.40469  0.78885  Biso   1.000  C
  C121     1.0000 0.51323  0.34525  0.61608  Biso   1.000  C
  C122     1.0000 0.47788  0.30549  0.61492  Biso   1.000  C
  C123     1.0000 0.50160  0.26047  0.61923  Biso   1.000  C
  C124     1.0000 0.56030  0.25606  0.62322  Biso   1.000  C
  C125     1.0000 0.59407  0.29703  0.62328  Biso   1.000  C
  C126     1.0000 0.46420  0.21596  0.62043  Biso   1.000  C
  H55      1.0000 0.57000  0.45320  0.57030  Biso   1.000  H
  H56      1.0000 0.49380  0.51610  0.57320  Biso   1.000  H
  H57      1.0000 0.51410  0.45250  0.72760  Biso   1.000  H
  H58      1.0000 0.49310  0.50300  0.68170  Biso   1.000  H
  H59      1.0000 0.62510  0.34810  0.75800  Biso   1.000  H
  H60      1.0000 0.65580  0.34690  0.69410  Biso   1.000  H
  H61      1.0000 0.49850  0.37850  0.61780  Biso   1.000  H
  H62      1.0000 0.43980  0.31180  0.61570  Biso   1.000  H
  H63      1.0000 0.58080  0.22890  0.62560  Biso   1.000  H
  O43      1.0000 0.44100  0.08313  0.10009  Biso   1.000  O
  O44      1.0000 0.41836  0.06305  0.15779  Biso   1.000  O
  O45      1.0000 0.49967  0.92972  0.29450  Biso   1.000  O
  O46      1.0000 0.57157  0.88067  0.31201  Biso   1.000  O
  O47      1.0000 0.41569  0.71830  0.10511  Biso   1.000  O
  O48      1.0000 0.48430  0.67981  0.13513  Biso   1.000  O
  N22      1.0000 0.56794  0.94267  0.12180  Biso   1.000  N
  N23      1.0000 0.60641  0.89445  0.17735  Biso   1.000  N
  N24      1.0000 0.57020  0.84119  0.12030  Biso   1.000  N
  C127     1.0000 0.55066  0.96551  0.09088  Biso   1.000  C
  C128     1.0000 0.51191  0.00285  0.09209  Biso   1.000  C
  C129     1.0000 0.49019  0.01734  0.12613  Biso   1.000  C
  C130     1.0000 0.50750  0.99367  0.15810  Biso   1.000  C
  C131     1.0000 0.54612  0.95621  0.15503  Biso   1.000  C
  C132     1.0000 0.56600  0.92737  0.18632  Biso   1.000  C
  C133     1.0000 0.54482  0.93142  0.22204  Biso   1.000  C
  C134     1.0000 0.56669  0.90152  0.24933  Biso   1.000  C
  C135     1.0000 0.60926  0.86890  0.24011  Biso   1.000  C
  C136     1.0000 0.62753  0.86571  0.20401  Biso   1.000  C
  C137     1.0000 0.44701  0.05746  0.12843  Biso   1.000  C
  C138     1.0000 0.54370  0.90469  0.28885  Biso   1.000  C
  C139     1.0000 0.51323  0.84525  0.11608  Biso   1.000  C
  C140     1.0000 0.47788  0.80549  0.11492  Biso   1.000  C
  C141     1.0000 0.50160  0.76047  0.11923  Biso   1.000  C
  C142     1.0000 0.56030  0.75606  0.12322  Biso   1.000  C
  C143     1.0000 0.59407  0.79703  0.12328  Biso   1.000  C
  C144     1.0000 0.46420  0.71596  0.12043  Biso   1.000  C
  H64      1.0000 0.57000  0.95320  0.07030  Biso   1.000  H
  H65      1.0000 0.49380  0.01610  0.07320  Biso   1.000  H
  H66      1.0000 0.51410  0.95250  0.22760  Biso   1.000  H
  H67      1.0000 0.49310  0.00300  0.18170  Biso   1.000  H
  H68      1.0000 0.62510  0.84810  0.25800  Biso   1.000  H
  H69      1.0000 0.65580  0.84690  0.19410  Biso   1.000  H
  H70      1.0000 0.49850  0.87850  0.11780  Biso   1.000  H
  H71      1.0000 0.43980  0.81180  0.11570  Biso   1.000  H
  H72      1.0000 0.58080  0.72890  0.12560  Biso   1.000  H
  O49      1.0000 0.94100  0.16687  0.64991  Biso   1.000  O
  O50      1.0000 0.91836  0.18695  0.59221  Biso   1.000  O
  O51      1.0000 0.99967  0.32028  0.45550  Biso   1.000  O
  O52      1.0000 0.07157  0.36933  0.43799  Biso   1.000  O
  O53      1.0000 0.91569  0.53170  0.64489  Biso   1.000  O
  O54      1.0000 0.98430  0.57019  0.61487  Biso   1.000  O
  N25      1.0000 0.06794  0.30733  0.62820  Biso   1.000  N
  N26      1.0000 0.10641  0.35555  0.57265  Biso   1.000  N
  N27      1.0000 0.07020  0.40881  0.62970  Biso   1.000  N
  C145     1.0000 0.05066  0.28449  0.65912  Biso   1.000  C
  C146     1.0000 0.01191  0.24715  0.65791  Biso   1.000  C
  C147     1.0000 0.99019  0.23266  0.62387  Biso   1.000  C
  C148     1.0000 0.00750  0.25633  0.59190  Biso   1.000  C
  C149     1.0000 0.04612  0.29379  0.59497  Biso   1.000  C
  C150     1.0000 0.06600  0.32263  0.56368  Biso   1.000  C
  C151     1.0000 0.04482  0.31858  0.52796  Biso   1.000  C
  C152     1.0000 0.06669  0.34848  0.50067  Biso   1.000  C
  C153     1.0000 0.10926  0.38110  0.50989  Biso   1.000  C
  C154     1.0000 0.12753  0.38429  0.54599  Biso   1.000  C
  C155     1.0000 0.94701  0.19254  0.62157  Biso   1.000  C
  C156     1.0000 0.04370  0.34531  0.46115  Biso   1.000  C
  C157     1.0000 0.01323  0.40475  0.63392  Biso   1.000  C
  C158     1.0000 0.97788  0.44451  0.63508  Biso   1.000  C
  C159     1.0000 0.00160  0.48953  0.63077  Biso   1.000  C
  C160     1.0000 0.06030  0.49394  0.62678  Biso   1.000  C
  C161     1.0000 0.09407  0.45297  0.62672  Biso   1.000  C
  C162     1.0000 0.96420  0.53404  0.62957  Biso   1.000  C
  H73      1.0000 0.07000  0.29680  0.67970  Biso   1.000  H
  H74      1.0000 0.99380  0.23390  0.67680  Biso   1.000  H
  H75      1.0000 0.01410  0.29750  0.52240  Biso   1.000  H
  H76      1.0000 0.99310  0.24700  0.56830  Biso   1.000  H
  H77      1.0000 0.12510  0.40190  0.49200  Biso   1.000  H
  H78      1.0000 0.15580  0.40310  0.55590  Biso   1.000  H
  H79      1.0000 0.99850  0.37150  0.63220  Biso   1.000  H
  H80      1.0000 0.93980  0.43820  0.63430  Biso   1.000  H
  H81      1.0000 0.08080  0.52110  0.62440  Biso   1.000  H
  O55      1.0000 0.94100  0.66687  0.14991  Biso   1.000  O
  O56      1.0000 0.91836  0.68695  0.09221  Biso   1.000  O
  O57      1.0000 0.99967  0.82028  0.95550  Biso   1.000  O
  O58      1.0000 0.07157  0.86933  0.93799  Biso   1.000  O
  O59      1.0000 0.91569  0.03170  0.14489  Biso   1.000  O
  O60      1.0000 0.98430  0.07019  0.11487  Biso   1.000  O
  N28      1.0000 0.06794  0.80733  0.12820  Biso   1.000  N
  N29      1.0000 0.10641  0.85555  0.07265  Biso   1.000  N
  N30      1.0000 0.07020  0.90881  0.12970  Biso   1.000  N
  C163     1.0000 0.05066  0.78449  0.15912  Biso   1.000  C
  C164     1.0000 0.01191  0.74715  0.15791  Biso   1.000  C
  C165     1.0000 0.99019  0.73266  0.12387  Biso   1.000  C
  C166     1.0000 0.00750  0.75633  0.09190  Biso   1.000  C
  C167     1.0000 0.04612  0.79379  0.09497  Biso   1.000  C
  C168     1.0000 0.06600  0.82263  0.06368  Biso   1.000  C
  C169     1.0000 0.04482  0.81858  0.02796  Biso   1.000  C
  C170     1.0000 0.06669  0.84848  0.00067  Biso   1.000  C
  C171     1.0000 0.10926  0.88110  0.00989  Biso   1.000  C
  C172     1.0000 0.12753  0.88429  0.04599  Biso   1.000  C
  C173     1.0000 0.94701  0.69254  0.12157  Biso   1.000  C
  C174     1.0000 0.04370  0.84531  0.96115  Biso   1.000  C
  C175     1.0000 0.01323  0.90475  0.13392  Biso   1.000  C
  C176     1.0000 0.97788  0.94451  0.13508  Biso   1.000  C
  C177     1.0000 0.00160  0.98953  0.13077  Biso   1.000  C
  C178     1.0000 0.06030  0.99394  0.12678  Biso   1.000  C
  C179     1.0000 0.09407  0.95297  0.12672  Biso   1.000  C
  C180     1.0000 0.96420  0.03404  0.12957  Biso   1.000  C
  H82      1.0000 0.07000  0.79680  0.17970  Biso   1.000  H
  H83      1.0000 0.99380  0.73390  0.17680  Biso   1.000  H
  H84      1.0000 0.01410  0.79750  0.02240  Biso   1.000  H
  H85      1.0000 0.99310  0.74700  0.06830  Biso   1.000  H
  H86      1.0000 0.12510  0.90190  0.99200  Biso   1.000  H
  H87      1.0000 0.15580  0.90310  0.05590  Biso   1.000  H
  H88      1.0000 0.99850  0.87150  0.13220  Biso   1.000  H
  H89      1.0000 0.93980  0.93820  0.13430  Biso   1.000  H
  H90      1.0000 0.08080  0.02110  0.12440  Biso   1.000  H
  O61      1.0000 0.44100  0.16687  0.14991  Biso   1.000  O
  O62      1.0000 0.41836  0.18695  0.09221  Biso   1.000  O
  O63      1.0000 0.49967  0.32028  0.95550  Biso   1.000  O
  O64      1.0000 0.57157  0.36933  0.93799  Biso   1.000  O
  O65      1.0000 0.41569  0.53170  0.14489  Biso   1.000  O
  O66      1.0000 0.48430  0.57019  0.11487  Biso   1.000  O
  N31      1.0000 0.56794  0.30733  0.12820  Biso   1.000  N
  N32      1.0000 0.60641  0.35555  0.07265  Biso   1.000  N
  N33      1.0000 0.57020  0.40881  0.12970  Biso   1.000  N
  C181     1.0000 0.55066  0.28449  0.15912  Biso   1.000  C
  C182     1.0000 0.51191  0.24715  0.15791  Biso   1.000  C
  C183     1.0000 0.49019  0.23266  0.12387  Biso   1.000  C
  C184     1.0000 0.50750  0.25633  0.09190  Biso   1.000  C
  C185     1.0000 0.54612  0.29379  0.09497  Biso   1.000  C
  C186     1.0000 0.56600  0.32263  0.06368  Biso   1.000  C
  C187     1.0000 0.54482  0.31858  0.02796  Biso   1.000  C
  C188     1.0000 0.56669  0.34848  0.00067  Biso   1.000  C
  C189     1.0000 0.60926  0.38110  0.00989  Biso   1.000  C
  C190     1.0000 0.62753  0.38429  0.04599  Biso   1.000  C
  C191     1.0000 0.44701  0.19254  0.12157  Biso   1.000  C
  C192     1.0000 0.54370  0.34531  0.96115  Biso   1.000  C
  C193     1.0000 0.51323  0.40475  0.13392  Biso   1.000  C
  C194     1.0000 0.47788  0.44451  0.13508  Biso   1.000  C
  C195     1.0000 0.50160  0.48953  0.13077  Biso   1.000  C
  C196     1.0000 0.56030  0.49394  0.12678  Biso   1.000  C
  C197     1.0000 0.59407  0.45297  0.12672  Biso   1.000  C
  C198     1.0000 0.46420  0.53404  0.12957  Biso   1.000  C
  H91      1.0000 0.57000  0.29680  0.17970  Biso   1.000  H
  H92      1.0000 0.49380  0.23390  0.17680  Biso   1.000  H
  H93      1.0000 0.51410  0.29750  0.02240  Biso   1.000  H
  H94      1.0000 0.49310  0.24700  0.06830  Biso   1.000  H
  H95      1.0000 0.62510  0.40190  0.99200  Biso   1.000  H
  H96      1.0000 0.65580  0.40310  0.05590  Biso   1.000  H
  H97      1.0000 0.49850  0.37150  0.13220  Biso   1.000  H
  H98      1.0000 0.43980  0.43820  0.13430  Biso   1.000  H
  H99      1.0000 0.58080  0.52110  0.12440  Biso   1.000  H
  O67      1.0000 0.44100  0.66687  0.64991  Biso   1.000  O
  O68      1.0000 0.41836  0.68695  0.59221  Biso   1.000  O
  O69      1.0000 0.49967  0.82028  0.45550  Biso   1.000  O
  O70      1.0000 0.57157  0.86933  0.43799  Biso   1.000  O
  O71      1.0000 0.41569  0.03170  0.64489  Biso   1.000  O
  O72      1.0000 0.48430  0.07019  0.61487  Biso   1.000  O
  N34      1.0000 0.56794  0.80733  0.62820  Biso   1.000  N
  N35      1.0000 0.60641  0.85555  0.57265  Biso   1.000  N
  N36      1.0000 0.57020  0.90881  0.62970  Biso   1.000  N
  C199     1.0000 0.55066  0.78449  0.65912  Biso   1.000  C
  C200     1.0000 0.51191  0.74715  0.65791  Biso   1.000  C
  C201     1.0000 0.49019  0.73266  0.62387  Biso   1.000  C
  C202     1.0000 0.50750  0.75633  0.59190  Biso   1.000  C
  C203     1.0000 0.54612  0.79379  0.59497  Biso   1.000  C
  C204     1.0000 0.56600  0.82263  0.56368  Biso   1.000  C
  C205     1.0000 0.54482  0.81858  0.52796  Biso   1.000  C
  C206     1.0000 0.56669  0.84848  0.50067  Biso   1.000  C
  C207     1.0000 0.60926  0.88110  0.50989  Biso   1.000  C
  C208     1.0000 0.62753  0.88429  0.54599  Biso   1.000  C
  C209     1.0000 0.44701  0.69254  0.62157  Biso   1.000  C
  C210     1.0000 0.54370  0.84531  0.46115  Biso   1.000  C
  C211     1.0000 0.51323  0.90475  0.63392  Biso   1.000  C
  C212     1.0000 0.47788  0.94451  0.63508  Biso   1.000  C
  C213     1.0000 0.50160  0.98953  0.63077  Biso   1.000  C
  C214     1.0000 0.56030  0.99394  0.62678  Biso   1.000  C
  C215     1.0000 0.59407  0.95297  0.62672  Biso   1.000  C
  C216     1.0000 0.46420  0.03404  0.62957  Biso   1.000  C
  H100     1.0000 0.57000  0.79680  0.67970  Biso   1.000  H
  H101     1.0000 0.49380  0.73390  0.67680  Biso   1.000  H
  H102     1.0000 0.51410  0.79750  0.52240  Biso   1.000  H
  H103     1.0000 0.49310  0.74700  0.56830  Biso   1.000  H
  H104     1.0000 0.62510  0.90190  0.49200  Biso   1.000  H
  H105     1.0000 0.65580  0.90310  0.55590  Biso   1.000  H
  H106     1.0000 0.49850  0.87150  0.63220  Biso   1.000  H
  H107     1.0000 0.43980  0.93820  0.63430  Biso   1.000  H
  H108     1.0000 0.58080  0.02110  0.62440  Biso   1.000  H
  O73      1.0000 0.80900  0.58313  0.64991  Biso   1.000  O
  O74      1.0000 0.83164  0.56305  0.59221  Biso   1.000  O
  O75      1.0000 0.75033  0.42972  0.45550  Biso   1.000  O
  O76      1.0000 0.67843  0.38067  0.43799  Biso   1.000  O
  O77      1.0000 0.83431  0.21830  0.64489  Biso   1.000  O
  O78      1.0000 0.76570  0.17981  0.61487  Biso   1.000  O
  N37      1.0000 0.68206  0.44267  0.62820  Biso   1.000  N
  N38      1.0000 0.64359  0.39445  0.57265  Biso   1.000  N
  N39      1.0000 0.67980  0.34119  0.62970  Biso   1.000  N
  C217     1.0000 0.69934  0.46551  0.65912  Biso   1.000  C
  C218     1.0000 0.73809  0.50285  0.65791  Biso   1.000  C
  C219     1.0000 0.75981  0.51734  0.62387  Biso   1.000  C
  C220     1.0000 0.74250  0.49367  0.59190  Biso   1.000  C
  C221     1.0000 0.70388  0.45621  0.59497  Biso   1.000  C
  C222     1.0000 0.68400  0.42737  0.56368  Biso   1.000  C
  C223     1.0000 0.70518  0.43142  0.52796  Biso   1.000  C
  C224     1.0000 0.68331  0.40152  0.50067  Biso   1.000  C
  C225     1.0000 0.64074  0.36890  0.50989  Biso   1.000  C
  C226     1.0000 0.62247  0.36571  0.54599  Biso   1.000  C
  C227     1.0000 0.80299  0.55746  0.62157  Biso   1.000  C
  C228     1.0000 0.70630  0.40469  0.46115  Biso   1.000  C
  C229     1.0000 0.73677  0.34525  0.63392  Biso   1.000  C
  C230     1.0000 0.77212  0.30549  0.63508  Biso   1.000  C
  C231     1.0000 0.74840  0.26047  0.63077  Biso   1.000  C
  C232     1.0000 0.68970  0.25606  0.62678  Biso   1.000  C
  C233     1.0000 0.65593  0.29703  0.62672  Biso   1.000  C
  C234     1.0000 0.78580  0.21596  0.62957  Biso   1.000  C
  H109     1.0000 0.68000  0.45320  0.67970  Biso   1.000  H
  H110     1.0000 0.75620  0.51610  0.67680  Biso   1.000  H
  H111     1.0000 0.73590  0.45250  0.52240  Biso   1.000  H
  H112     1.0000 0.75690  0.50300  0.56830  Biso   1.000  H
  H113     1.0000 0.62490  0.34810  0.49200  Biso   1.000  H
  H114     1.0000 0.59420  0.34690  0.55590  Biso   1.000  H
  H115     1.0000 0.75150  0.37850  0.63220  Biso   1.000  H
  H116     1.0000 0.81020  0.31180  0.63430  Biso   1.000  H
  H117     1.0000 0.66920  0.22890  0.62440  Biso   1.000  H
  O79      1.0000 0.80900  0.08313  0.14991  Biso   1.000  O
  O80      1.0000 0.83164  0.06305  0.09221  Biso   1.000  O
  O81      1.0000 0.75033  0.92972  0.95550  Biso   1.000  O
  O82      1.0000 0.67843  0.88067  0.93799  Biso   1.000  O
  O83      1.0000 0.83431  0.71830  0.14489  Biso   1.000  O
  O84      1.0000 0.76570  0.67981  0.11487  Biso   1.000  O
  N40      1.0000 0.68206  0.94267  0.12820  Biso   1.000  N
  N41      1.0000 0.64359  0.89445  0.07265  Biso   1.000  N
  N42      1.0000 0.67980  0.84119  0.12970  Biso   1.000  N
  C235     1.0000 0.69934  0.96551  0.15912  Biso   1.000  C
  C236     1.0000 0.73809  0.00285  0.15791  Biso   1.000  C
  C237     1.0000 0.75981  0.01734  0.12387  Biso   1.000  C
  C238     1.0000 0.74250  0.99367  0.09190  Biso   1.000  C
  C239     1.0000 0.70388  0.95621  0.09497  Biso   1.000  C
  C240     1.0000 0.68400  0.92737  0.06368  Biso   1.000  C
  C241     1.0000 0.70518  0.93142  0.02796  Biso   1.000  C
  C242     1.0000 0.68331  0.90152  0.00067  Biso   1.000  C
  C243     1.0000 0.64074  0.86890  0.00989  Biso   1.000  C
  C244     1.0000 0.62247  0.86571  0.04599  Biso   1.000  C
  C245     1.0000 0.80299  0.05746  0.12157  Biso   1.000  C
  C246     1.0000 0.70630  0.90469  0.96115  Biso   1.000  C
  C247     1.0000 0.73677  0.84525  0.13392  Biso   1.000  C
  C248     1.0000 0.77212  0.80549  0.13508  Biso   1.000  C
  C249     1.0000 0.74840  0.76047  0.13077  Biso   1.000  C
  C250     1.0000 0.68970  0.75606  0.12678  Biso   1.000  C
  C251     1.0000 0.65593  0.79703  0.12672  Biso   1.000  C
  C252     1.0000 0.78580  0.71596  0.12957  Biso   1.000  C
  H118     1.0000 0.68000  0.95320  0.17970  Biso   1.000  H
  H119     1.0000 0.75620  0.01610  0.17680  Biso   1.000  H
  H120     1.0000 0.73590  0.95250  0.02240  Biso   1.000  H
  H121     1.0000 0.75690  0.00300  0.06830  Biso   1.000  H
  H122     1.0000 0.62490  0.84810  0.99200  Biso   1.000  H
  H123     1.0000 0.59420  0.84690  0.05590  Biso   1.000  H
  H124     1.0000 0.75150  0.87850  0.13220  Biso   1.000  H
  H125     1.0000 0.81020  0.81180  0.13430  Biso   1.000  H
  H126     1.0000 0.66920  0.72890  0.12440  Biso   1.000  H
  O85      1.0000 0.30900  0.58313  0.14991  Biso   1.000  O
  O86      1.0000 0.33164  0.56305  0.09221  Biso   1.000  O
  O87      1.0000 0.25033  0.42972  0.95550  Biso   1.000  O
  O88      1.0000 0.17843  0.38067  0.93799  Biso   1.000  O
  O89      1.0000 0.33431  0.21830  0.14489  Biso   1.000  O
  O90      1.0000 0.26570  0.17981  0.11487  Biso   1.000  O
  N43      1.0000 0.18206  0.44267  0.12820  Biso   1.000  N
  N44      1.0000 0.14359  0.39445  0.07265  Biso   1.000  N
  N45      1.0000 0.17980  0.34119  0.12970  Biso   1.000  N
  C253     1.0000 0.19934  0.46551  0.15912  Biso   1.000  C
  C254     1.0000 0.23809  0.50285  0.15791  Biso   1.000  C
  C255     1.0000 0.25981  0.51734  0.12387  Biso   1.000  C
  C256     1.0000 0.24250  0.49367  0.09190  Biso   1.000  C
  C257     1.0000 0.20388  0.45621  0.09497  Biso   1.000  C
  C258     1.0000 0.18400  0.42737  0.06368  Biso   1.000  C
  C259     1.0000 0.20518  0.43142  0.02796  Biso   1.000  C
  C260     1.0000 0.18331  0.40152  0.00067  Biso   1.000  C
  C261     1.0000 0.14074  0.36890  0.00989  Biso   1.000  C
  C262     1.0000 0.12247  0.36571  0.04599  Biso   1.000  C
  C263     1.0000 0.30299  0.55746  0.12157  Biso   1.000  C
  C264     1.0000 0.20630  0.40469  0.96115  Biso   1.000  C
  C265     1.0000 0.23677  0.34525  0.13392  Biso   1.000  C
  C266     1.0000 0.27212  0.30549  0.13508  Biso   1.000  C
  C267     1.0000 0.24840  0.26047  0.13077  Biso   1.000  C
  C268     1.0000 0.18970  0.25606  0.12678  Biso   1.000  C
  C269     1.0000 0.15593  0.29703  0.12672  Biso   1.000  C
  C270     1.0000 0.28580  0.21596  0.12957  Biso   1.000  C
  H127     1.0000 0.18000  0.45320  0.17970  Biso   1.000  H
  H128     1.0000 0.25620  0.51610  0.17680  Biso   1.000  H
  H129     1.0000 0.23590  0.45250  0.02240  Biso   1.000  H
  H130     1.0000 0.25690  0.50300  0.06830  Biso   1.000  H
  H131     1.0000 0.12490  0.34810  0.99200  Biso   1.000  H
  H132     1.0000 0.09420  0.34690  0.05590  Biso   1.000  H
  H133     1.0000 0.25150  0.37850  0.13220  Biso   1.000  H
  H134     1.0000 0.31020  0.31180  0.13430  Biso   1.000  H
  H135     1.0000 0.16920  0.22890  0.12440  Biso   1.000  H
  O91      1.0000 0.30900  0.08313  0.64991  Biso   1.000  O
  O92      1.0000 0.33164  0.06305  0.59221  Biso   1.000  O
  O93      1.0000 0.25033  0.92972  0.45550  Biso   1.000  O
  O94      1.0000 0.17843  0.88067  0.43799  Biso   1.000  O
  O95      1.0000 0.33431  0.71830  0.64489  Biso   1.000  O
  O96      1.0000 0.26570  0.67981  0.61487  Biso   1.000  O
  N46      1.0000 0.18206  0.94267  0.62820  Biso   1.000  N
  N47      1.0000 0.14359  0.89445  0.57265  Biso   1.000  N
  N48      1.0000 0.17980  0.84119  0.62970  Biso   1.000  N
  C271     1.0000 0.19934  0.96551  0.65912  Biso   1.000  C
  C272     1.0000 0.23809  0.00285  0.65791  Biso   1.000  C
  C273     1.0000 0.25981  0.01734  0.62387  Biso   1.000  C
  C274     1.0000 0.24250  0.99367  0.59190  Biso   1.000  C
  C275     1.0000 0.20388  0.95621  0.59497  Biso   1.000  C
  C276     1.0000 0.18400  0.92737  0.56368  Biso   1.000  C
  C277     1.0000 0.20518  0.93142  0.52796  Biso   1.000  C
  C278     1.0000 0.18331  0.90152  0.50067  Biso   1.000  C
  C279     1.0000 0.14074  0.86890  0.50989  Biso   1.000  C
  C280     1.0000 0.12247  0.86571  0.54599  Biso   1.000  C
  C281     1.0000 0.30299  0.05746  0.62157  Biso   1.000  C
  C282     1.0000 0.20630  0.90469  0.46115  Biso   1.000  C
  C283     1.0000 0.23677  0.84525  0.63392  Biso   1.000  C
  C284     1.0000 0.27212  0.80549  0.63508  Biso   1.000  C
  C285     1.0000 0.24840  0.76047  0.63077  Biso   1.000  C
  C286     1.0000 0.18970  0.75606  0.62678  Biso   1.000  C
  C287     1.0000 0.15593  0.79703  0.62672  Biso   1.000  C
  C288     1.0000 0.28580  0.71596  0.62957  Biso   1.000  C
  H136     1.0000 0.18000  0.95320  0.67970  Biso   1.000  H
  H137     1.0000 0.25620  0.01610  0.67680  Biso   1.000  H
  H138     1.0000 0.23590  0.95250  0.52240  Biso   1.000  H
  H139     1.0000 0.25690  0.00300  0.56830  Biso   1.000  H
  H140     1.0000 0.12490  0.84810  0.49200  Biso   1.000  H
  H141     1.0000 0.09420  0.84690  0.55590  Biso   1.000  H
  H142     1.0000 0.25150  0.87850  0.63220  Biso   1.000  H
  H143     1.0000 0.31020  0.81180  0.63430  Biso   1.000  H
  H144     1.0000 0.16920  0.72890  0.62440  Biso   1.000  H
  O97      1.0000 0.19100  0.83313  0.89991  Biso   1.000  O
  O98      1.0000 0.16836  0.81305  0.84221  Biso   1.000  O
  O99      1.0000 0.24967  0.67972  0.70550  Biso   1.000  O
  O100     1.0000 0.32157  0.63067  0.68799  Biso   1.000  O
  O101     1.0000 0.16569  0.46830  0.89489  Biso   1.000  O
  O102     1.0000 0.23430  0.42981  0.86487  Biso   1.000  O
  N49      1.0000 0.31794  0.69267  0.87820  Biso   1.000  N
  N50      1.0000 0.35641  0.64445  0.82265  Biso   1.000  N
  N51      1.0000 0.32020  0.59119  0.87970  Biso   1.000  N
  C289     1.0000 0.30066  0.71551  0.90912  Biso   1.000  C
  C290     1.0000 0.26191  0.75285  0.90791  Biso   1.000  C
  C291     1.0000 0.24019  0.76734  0.87387  Biso   1.000  C
  C292     1.0000 0.25750  0.74367  0.84190  Biso   1.000  C
  C293     1.0000 0.29612  0.70621  0.84497  Biso   1.000  C
  C294     1.0000 0.31600  0.67737  0.81368  Biso   1.000  C
  C295     1.0000 0.29482  0.68142  0.77796  Biso   1.000  C
  C296     1.0000 0.31669  0.65152  0.75067  Biso   1.000  C
  C297     1.0000 0.35926  0.61890  0.75989  Biso   1.000  C
  C298     1.0000 0.37753  0.61571  0.79599  Biso   1.000  C
  C299     1.0000 0.19701  0.80746  0.87157  Biso   1.000  C
  C300     1.0000 0.29370  0.65469  0.71115  Biso   1.000  C
  C301     1.0000 0.26323  0.59525  0.88392  Biso   1.000  C
  C302     1.0000 0.22788  0.55549  0.88508  Biso   1.000  C
  C303     1.0000 0.25160  0.51047  0.88077  Biso   1.000  C
  C304     1.0000 0.31030  0.50606  0.87678  Biso   1.000  C
  C305     1.0000 0.34407  0.54703  0.87672  Biso   1.000  C
  C306     1.0000 0.21420  0.46596  0.87957  Biso   1.000  C
  H145     1.0000 0.32000  0.70320  0.92970  Biso   1.000  H
  H146     1.0000 0.24380  0.76610  0.92680  Biso   1.000  H
  H147     1.0000 0.26410  0.70250  0.77240  Biso   1.000  H
  H148     1.0000 0.24310  0.75300  0.81830  Biso   1.000  H
  H149     1.0000 0.37510  0.59810  0.74200  Biso   1.000  H
  H150     1.0000 0.40580  0.59690  0.80590  Biso   1.000  H
  H151     1.0000 0.24850  0.62850  0.88220  Biso   1.000  H
  H152     1.0000 0.18980  0.56180  0.88430  Biso   1.000  H
  H153     1.0000 0.33080  0.47890  0.87440  Biso   1.000  H
  O103     1.0000 0.19100  0.33313  0.39991  Biso   1.000  O
  O104     1.0000 0.16836  0.31305  0.34221  Biso   1.000  O
  O105     1.0000 0.24967  0.17972  0.20550  Biso   1.000  O
  O106     1.0000 0.32157  0.13067  0.18799  Biso   1.000  O
  O107     1.0000 0.16569  0.96830  0.39489  Biso   1.000  O
  O108     1.0000 0.23430  0.92981  0.36487  Biso   1.000  O
  N52      1.0000 0.31794  0.19267  0.37820  Biso   1.000  N
  N53      1.0000 0.35641  0.14445  0.32265  Biso   1.000  N
  N54      1.0000 0.32020  0.09119  0.37970  Biso   1.000  N
  C307     1.0000 0.30066  0.21551  0.40912  Biso   1.000  C
  C308     1.0000 0.26191  0.25285  0.40791  Biso   1.000  C
  C309     1.0000 0.24019  0.26734  0.37387  Biso   1.000  C
  C310     1.0000 0.25750  0.24367  0.34190  Biso   1.000  C
  C311     1.0000 0.29612  0.20621  0.34497  Biso   1.000  C
  C312     1.0000 0.31600  0.17737  0.31368  Biso   1.000  C
  C313     1.0000 0.29482  0.18142  0.27796  Biso   1.000  C
  C314     1.0000 0.31669  0.15152  0.25067  Biso   1.000  C
  C315     1.0000 0.35926  0.11890  0.25989  Biso   1.000  C
  C316     1.0000 0.37753  0.11571  0.29599  Biso   1.000  C
  C317     1.0000 0.19701  0.30746  0.37157  Biso   1.000  C
  C318     1.0000 0.29370  0.15469  0.21115  Biso   1.000  C
  C319     1.0000 0.26323  0.09525  0.38392  Biso   1.000  C
  C320     1.0000 0.22788  0.05549  0.38508  Biso   1.000  C
  C321     1.0000 0.25160  0.01047  0.38077  Biso   1.000  C
  C322     1.0000 0.31030  0.00606  0.37678  Biso   1.000  C
  C323     1.0000 0.34407  0.04703  0.37672  Biso   1.000  C
  C324     1.0000 0.21420  0.96596  0.37957  Biso   1.000  C
  H154     1.0000 0.32000  0.20320  0.42970  Biso   1.000  H
  H155     1.0000 0.24380  0.26610  0.42680  Biso   1.000  H
  H156     1.0000 0.26410  0.20250  0.27240  Biso   1.000  H
  H157     1.0000 0.24310  0.25300  0.31830  Biso   1.000  H
  H158     1.0000 0.37510  0.09810  0.24200  Biso   1.000  H
  H159     1.0000 0.40580  0.09690  0.30590  Biso   1.000  H
  H160     1.0000 0.24850  0.12850  0.38220  Biso   1.000  H
  H161     1.0000 0.18980  0.06180  0.38430  Biso   1.000  H
  H162     1.0000 0.33080  0.97890  0.37440  Biso   1.000  H
  O109     1.0000 0.69100  0.83313  0.39991  Biso   1.000  O
  O110     1.0000 0.66836  0.81305  0.34221  Biso   1.000  O
  O111     1.0000 0.74967  0.67972  0.20550  Biso   1.000  O
  O112     1.0000 0.82157  0.63067  0.18799  Biso   1.000  O
  O113     1.0000 0.66569  0.46830  0.39489  Biso   1.000  O
  O114     1.0000 0.73430  0.42981  0.36487  Biso   1.000  O
  N55      1.0000 0.81794  0.69267  0.37820  Biso   1.000  N
  N56      1.0000 0.85641  0.64445  0.32265  Biso   1.000  N
  N57      1.0000 0.82020  0.59119  0.37970  Biso   1.000  N
  C325     1.0000 0.80066  0.71551  0.40912  Biso   1.000  C
  C326     1.0000 0.76191  0.75285  0.40791  Biso   1.000  C
  C327     1.0000 0.74019  0.76734  0.37387  Biso   1.000  C
  C328     1.0000 0.75750  0.74367  0.34190  Biso   1.000  C
  C329     1.0000 0.79612  0.70621  0.34497  Biso   1.000  C
  C330     1.0000 0.81600  0.67737  0.31368  Biso   1.000  C
  C331     1.0000 0.79482  0.68142  0.27796  Biso   1.000  C
  C332     1.0000 0.81669  0.65152  0.25067  Biso   1.000  C
  C333     1.0000 0.85926  0.61890  0.25989  Biso   1.000  C
  C334     1.0000 0.87753  0.61571  0.29599  Biso   1.000  C
  C335     1.0000 0.69701  0.80746  0.37157  Biso   1.000  C
  C336     1.0000 0.79370  0.65469  0.21115  Biso   1.000  C
  C337     1.0000 0.76323  0.59525  0.38392  Biso   1.000  C
  C338     1.0000 0.72788  0.55549  0.38508  Biso   1.000  C
  C339     1.0000 0.75160  0.51047  0.38077  Biso   1.000  C
  C340     1.0000 0.81030  0.50606  0.37678  Biso   1.000  C
  C341     1.0000 0.84407  0.54703  0.37672  Biso   1.000  C
  C342     1.0000 0.71420  0.46596  0.37957  Biso   1.000  C
  H163     1.0000 0.82000  0.70320  0.42970  Biso   1.000  H
  H164     1.0000 0.74380  0.76610  0.42680  Biso   1.000  H
  H165     1.0000 0.76410  0.70250  0.27240  Biso   1.000  H
  H166     1.0000 0.74310  0.75300  0.31830  Biso   1.000  H
  H167     1.0000 0.87510  0.59810  0.24200  Biso   1.000  H
  H168     1.0000 0.90580  0.59690  0.30590  Biso   1.000  H
  H169     1.0000 0.74850  0.62850  0.38220  Biso   1.000  H
  H170     1.0000 0.68980  0.56180  0.38430  Biso   1.000  H
  H171     1.0000 0.83080  0.47890  0.37440  Biso   1.000  H
  O115     1.0000 0.69100  0.33313  0.89991  Biso   1.000  O
  O116     1.0000 0.66836  0.31305  0.84221  Biso   1.000  O
  O117     1.0000 0.74967  0.17972  0.70550  Biso   1.000  O
  O118     1.0000 0.82157  0.13067  0.68799  Biso   1.000  O
  O119     1.0000 0.66569  0.96830  0.89489  Biso   1.000  O
  O120     1.0000 0.73430  0.92981  0.86487  Biso   1.000  O
  N58      1.0000 0.81794  0.19267  0.87820  Biso   1.000  N
  N59      1.0000 0.85641  0.14445  0.82265  Biso   1.000  N
  N60      1.0000 0.82020  0.09119  0.87970  Biso   1.000  N
  C343     1.0000 0.80066  0.21551  0.90912  Biso   1.000  C
  C344     1.0000 0.76191  0.25285  0.90791  Biso   1.000  C
  C345     1.0000 0.74019  0.26734  0.87387  Biso   1.000  C
  C346     1.0000 0.75750  0.24367  0.84190  Biso   1.000  C
  C347     1.0000 0.79612  0.20621  0.84497  Biso   1.000  C
  C348     1.0000 0.81600  0.17737  0.81368  Biso   1.000  C
  C349     1.0000 0.79482  0.18142  0.77796  Biso   1.000  C
  C350     1.0000 0.81669  0.15152  0.75067  Biso   1.000  C
  C351     1.0000 0.85926  0.11890  0.75989  Biso   1.000  C
  C352     1.0000 0.87753  0.11571  0.79599  Biso   1.000  C
  C353     1.0000 0.69701  0.30746  0.87157  Biso   1.000  C
  C354     1.0000 0.79370  0.15469  0.71115  Biso   1.000  C
  C355     1.0000 0.76323  0.09525  0.88392  Biso   1.000  C
  C356     1.0000 0.72788  0.05549  0.88508  Biso   1.000  C
  C357     1.0000 0.75160  0.01047  0.88077  Biso   1.000  C
  C358     1.0000 0.81030  0.00606  0.87678  Biso   1.000  C
  C359     1.0000 0.84407  0.04703  0.87672  Biso   1.000  C
  C360     1.0000 0.71420  0.96596  0.87957  Biso   1.000  C
  H172     1.0000 0.82000  0.20320  0.92970  Biso   1.000  H
  H173     1.0000 0.74380  0.26610  0.92680  Biso   1.000  H
  H174     1.0000 0.76410  0.20250  0.77240  Biso   1.000  H
  H175     1.0000 0.74310  0.25300  0.81830  Biso   1.000  H
  H176     1.0000 0.87510  0.09810  0.74200  Biso   1.000  H
  H177     1.0000 0.90580  0.09690  0.80590  Biso   1.000  H
  H178     1.0000 0.74850  0.12850  0.88220  Biso   1.000  H
  H179     1.0000 0.68980  0.06180  0.88430  Biso   1.000  H
  H180     1.0000 0.83080  0.97890  0.87440  Biso   1.000  H
  O121     1.0000 0.05900  0.41687  0.89991  Biso   1.000  O
  O122     1.0000 0.08164  0.43695  0.84221  Biso   1.000  O
  O123     1.0000 0.00033  0.57028  0.70550  Biso   1.000  O
  O124     1.0000 0.92843  0.61933  0.68799  Biso   1.000  O
  O125     1.0000 0.08431  0.78170  0.89489  Biso   1.000  O
  O126     1.0000 0.01570  0.82019  0.86487  Biso   1.000  O
  N61      1.0000 0.93206  0.55733  0.87820  Biso   1.000  N
  N62      1.0000 0.89359  0.60555  0.82265  Biso   1.000  N
  N63      1.0000 0.92980  0.65881  0.87970  Biso   1.000  N
  C361     1.0000 0.94934  0.53449  0.90912  Biso   1.000  C
  C362     1.0000 0.98809  0.49715  0.90791  Biso   1.000  C
  C363     1.0000 0.00981  0.48266  0.87387  Biso   1.000  C
  C364     1.0000 0.99250  0.50633  0.84190  Biso   1.000  C
  C365     1.0000 0.95388  0.54379  0.84497  Biso   1.000  C
  C366     1.0000 0.93400  0.57263  0.81368  Biso   1.000  C
  C367     1.0000 0.95518  0.56858  0.77796  Biso   1.000  C
  C368     1.0000 0.93331  0.59848  0.75067  Biso   1.000  C
  C369     1.0000 0.89074  0.63110  0.75989  Biso   1.000  C
  C370     1.0000 0.87247  0.63429  0.79599  Biso   1.000  C
  C371     1.0000 0.05299  0.44254  0.87157  Biso   1.000  C
  C372     1.0000 0.95630  0.59531  0.71115  Biso   1.000  C
  C373     1.0000 0.98677  0.65475  0.88392  Biso   1.000  C
  C374     1.0000 0.02212  0.69451  0.88508  Biso   1.000  C
  C375     1.0000 0.99840  0.73953  0.88077  Biso   1.000  C
  C376     1.0000 0.93970  0.74394  0.87678  Biso   1.000  C
  C377     1.0000 0.90593  0.70297  0.87672  Biso   1.000  C
  C378     1.0000 0.03580  0.78404  0.87957  Biso   1.000  C
  H181     1.0000 0.93000  0.54680  0.92970  Biso   1.000  H
  H182     1.0000 0.00620  0.48390  0.92680  Biso   1.000  H
  H183     1.0000 0.98590  0.54750  0.77240  Biso   1.000  H
  H184     1.0000 0.00690  0.49700  0.81830  Biso   1.000  H
  H185     1.0000 0.87490  0.65190  0.74200  Biso   1.000  H
  H186     1.0000 0.84420  0.65310  0.80590  Biso   1.000  H
  H187     1.0000 0.00150  0.62150  0.88220  Biso   1.000  H
  H188     1.0000 0.06020  0.68820  0.88430  Biso   1.000  H
  H189     1.0000 0.91920  0.77110  0.87440  Biso   1.000  H
  O127     1.0000 0.05900  0.91687  0.39991  Biso   1.000  O
  O128     1.0000 0.08164  0.93695  0.34221  Biso   1.000  O
  O129     1.0000 0.00033  0.07028  0.20550  Biso   1.000  O
  O130     1.0000 0.92843  0.11933  0.18799  Biso   1.000  O
  O131     1.0000 0.08431  0.28170  0.39489  Biso   1.000  O
  O132     1.0000 0.01570  0.32019  0.36487  Biso   1.000  O
  N64      1.0000 0.93206  0.05733  0.37820  Biso   1.000  N
  N65      1.0000 0.89359  0.10555  0.32265  Biso   1.000  N
  N66      1.0000 0.92980  0.15881  0.37970  Biso   1.000  N
  C379     1.0000 0.94934  0.03449  0.40912  Biso   1.000  C
  C380     1.0000 0.98809  0.99715  0.40791  Biso   1.000  C
  C381     1.0000 0.00981  0.98266  0.37387  Biso   1.000  C
  C382     1.0000 0.99250  0.00633  0.34190  Biso   1.000  C
  C383     1.0000 0.95388  0.04379  0.34497  Biso   1.000  C
  C384     1.0000 0.93400  0.07263  0.31368  Biso   1.000  C
  C385     1.0000 0.95518  0.06858  0.27796  Biso   1.000  C
  C386     1.0000 0.93331  0.09848  0.25067  Biso   1.000  C
  C387     1.0000 0.89074  0.13110  0.25989  Biso   1.000  C
  C388     1.0000 0.87247  0.13429  0.29599  Biso   1.000  C
  C389     1.0000 0.05299  0.94254  0.37157  Biso   1.000  C
  C390     1.0000 0.95630  0.09531  0.21115  Biso   1.000  C
  C391     1.0000 0.98677  0.15475  0.38392  Biso   1.000  C
  C392     1.0000 0.02212  0.19451  0.38508  Biso   1.000  C
  C393     1.0000 0.99840  0.23953  0.38077  Biso   1.000  C
  C394     1.0000 0.93970  0.24394  0.37678  Biso   1.000  C
  C395     1.0000 0.90593  0.20297  0.37672  Biso   1.000  C
  C396     1.0000 0.03580  0.28404  0.37957  Biso   1.000  C
  H190     1.0000 0.93000  0.04680  0.42970  Biso   1.000  H
  H191     1.0000 0.00620  0.98390  0.42680  Biso   1.000  H
  H192     1.0000 0.98590  0.04750  0.27240  Biso   1.000  H
  H193     1.0000 0.00690  0.99700  0.31830  Biso   1.000  H
  H194     1.0000 0.87490  0.15190  0.24200  Biso   1.000  H
  H195     1.0000 0.84420  0.15310  0.30590  Biso   1.000  H
  H196     1.0000 0.00150  0.12150  0.38220  Biso   1.000  H
  H197     1.0000 0.06020  0.18820  0.38430  Biso   1.000  H
  H198     1.0000 0.91920  0.27110  0.37440  Biso   1.000  H
  O133     1.0000 0.55900  0.41687  0.39991  Biso   1.000  O
  O134     1.0000 0.58164  0.43695  0.34221  Biso   1.000  O
  O135     1.0000 0.50033  0.57028  0.20550  Biso   1.000  O
  O136     1.0000 0.42843  0.61933  0.18799  Biso   1.000  O
  O137     1.0000 0.58431  0.78170  0.39489  Biso   1.000  O
  O138     1.0000 0.51570  0.82019  0.36487  Biso   1.000  O
  N67      1.0000 0.43206  0.55733  0.37820  Biso   1.000  N
  N68      1.0000 0.39359  0.60555  0.32265  Biso   1.000  N
  N69      1.0000 0.42980  0.65881  0.37970  Biso   1.000  N
  C397     1.0000 0.44934  0.53449  0.40912  Biso   1.000  C
  C398     1.0000 0.48809  0.49715  0.40791  Biso   1.000  C
  C399     1.0000 0.50981  0.48266  0.37387  Biso   1.000  C
  C400     1.0000 0.49250  0.50633  0.34190  Biso   1.000  C
  C401     1.0000 0.45388  0.54379  0.34497  Biso   1.000  C
  C402     1.0000 0.43400  0.57263  0.31368  Biso   1.000  C
  C403     1.0000 0.45518  0.56858  0.27796  Biso   1.000  C
  C404     1.0000 0.43331  0.59848  0.25067  Biso   1.000  C
  C405     1.0000 0.39074  0.63110  0.25989  Biso   1.000  C
  C406     1.0000 0.37247  0.63429  0.29599  Biso   1.000  C
  C407     1.0000 0.55299  0.44254  0.37157  Biso   1.000  C
  C408     1.0000 0.45630  0.59531  0.21115  Biso   1.000  C
  C409     1.0000 0.48677  0.65475  0.38392  Biso   1.000  C
  C410     1.0000 0.52212  0.69451  0.38508  Biso   1.000  C
  C411     1.0000 0.49840  0.73953  0.38077  Biso   1.000  C
  C412     1.0000 0.43970  0.74394  0.37678  Biso   1.000  C
  C413     1.0000 0.40593  0.70297  0.37672  Biso   1.000  C
  C414     1.0000 0.53580  0.78404  0.37957  Biso   1.000  C
  H199     1.0000 0.43000  0.54680  0.42970  Biso   1.000  H
  H200     1.0000 0.50620  0.48390  0.42680  Biso   1.000  H
  H201     1.0000 0.48590  0.54750  0.27240  Biso   1.000  H
  H202     1.0000 0.50690  0.49700  0.31830  Biso   1.000  H
  H203     1.0000 0.37490  0.65190  0.24200  Biso   1.000  H
  H204     1.0000 0.34420  0.65310  0.30590  Biso   1.000  H
  H205     1.0000 0.50150  0.62150  0.38220  Biso   1.000  H
  H206     1.0000 0.56020  0.68820  0.38430  Biso   1.000  H
  H207     1.0000 0.41920  0.77110  0.37440  Biso   1.000  H
  O139     1.0000 0.55900  0.91687  0.89991  Biso   1.000  O
  O140     1.0000 0.58164  0.93695  0.84221  Biso   1.000  O
  O141     1.0000 0.50033  0.07028  0.70550  Biso   1.000  O
  O142     1.0000 0.42843  0.11933  0.68799  Biso   1.000  O
  O143     1.0000 0.58431  0.28170  0.89489  Biso   1.000  O
  O144     1.0000 0.51570  0.32019  0.86487  Biso   1.000  O
  N70      1.0000 0.43206  0.05733  0.87820  Biso   1.000  N
  N71      1.0000 0.39359  0.10555  0.82265  Biso   1.000  N
  N72      1.0000 0.42980  0.15881  0.87970  Biso   1.000  N
  C415     1.0000 0.44934  0.03449  0.90912  Biso   1.000  C
  C416     1.0000 0.48809  0.99715  0.90791  Biso   1.000  C
  C417     1.0000 0.50981  0.98266  0.87387  Biso   1.000  C
  C418     1.0000 0.49250  0.00633  0.84190  Biso   1.000  C
  C419     1.0000 0.45388  0.04379  0.84497  Biso   1.000  C
  C420     1.0000 0.43400  0.07263  0.81368  Biso   1.000  C
  C421     1.0000 0.45518  0.06858  0.77796  Biso   1.000  C
  C422     1.0000 0.43331  0.09848  0.75067  Biso   1.000  C
  C423     1.0000 0.39074  0.13110  0.75989  Biso   1.000  C
  C424     1.0000 0.37247  0.13429  0.79599  Biso   1.000  C
  C425     1.0000 0.55299  0.94254  0.87157  Biso   1.000  C
  C426     1.0000 0.45630  0.09531  0.71115  Biso   1.000  C
  C427     1.0000 0.48677  0.15475  0.88392  Biso   1.000  C
  C428     1.0000 0.52212  0.19451  0.88508  Biso   1.000  C
  C429     1.0000 0.49840  0.23953  0.88077  Biso   1.000  C
  C430     1.0000 0.43970  0.24394  0.87678  Biso   1.000  C
  C431     1.0000 0.40593  0.20297  0.87672  Biso   1.000  C
  C432     1.0000 0.53580  0.28404  0.87957  Biso   1.000  C
  H208     1.0000 0.43000  0.04680  0.92970  Biso   1.000  H
  H209     1.0000 0.50620  0.98390  0.92680  Biso   1.000  H
  H210     1.0000 0.48590  0.04750  0.77240  Biso   1.000  H
  H211     1.0000 0.50690  0.99700  0.81830  Biso   1.000  H
  H212     1.0000 0.37490  0.15190  0.74200  Biso   1.000  H
  H213     1.0000 0.34420  0.15310  0.80590  Biso   1.000  H
  H214     1.0000 0.50150  0.12150  0.88220  Biso   1.000  H
  H215     1.0000 0.56020  0.18820  0.88430  Biso   1.000  H
  H216     1.0000 0.41920  0.27110  0.87440  Biso   1.000  H
  O145     1.0000 0.05900  0.83313  0.35009  Biso   1.000  O
  O146     1.0000 0.08164  0.81305  0.40779  Biso   1.000  O
  O147     1.0000 0.00033  0.67972  0.54450  Biso   1.000  O
  O148     1.0000 0.92843  0.63067  0.56201  Biso   1.000  O
  O149     1.0000 0.08431  0.46830  0.35511  Biso   1.000  O
  O150     1.0000 0.01570  0.42981  0.38513  Biso   1.000  O
  N73      1.0000 0.93206  0.69267  0.37180  Biso   1.000  N
  N74      1.0000 0.89359  0.64445  0.42735  Biso   1.000  N
  N75      1.0000 0.92980  0.59119  0.37030  Biso   1.000  N
  C433     1.0000 0.94934  0.71551  0.34088  Biso   1.000  C
  C434     1.0000 0.98809  0.75285  0.34209  Biso   1.000  C
  C435     1.0000 0.00981  0.76734  0.37613  Biso   1.000  C
  C436     1.0000 0.99250  0.74367  0.40810  Biso   1.000  C
  C437     1.0000 0.95388  0.70621  0.40503  Biso   1.000  C
  C438     1.0000 0.93400  0.67737  0.43632  Biso   1.000  C
  C439     1.0000 0.95518  0.68142  0.47204  Biso   1.000  C
  C440     1.0000 0.93331  0.65152  0.49933  Biso   1.000  C
  C441     1.0000 0.89074  0.61890  0.49011  Biso   1.000  C
  C442     1.0000 0.87247  0.61571  0.45401  Biso   1.000  C
  C443     1.0000 0.05299  0.80746  0.37843  Biso   1.000  C
  C444     1.0000 0.95630  0.65469  0.53885  Biso   1.000  C
  C445     1.0000 0.98677  0.59525  0.36608  Biso   1.000  C
  C446     1.0000 0.02212  0.55549  0.36492  Biso   1.000  C
  C447     1.0000 0.99840  0.51047  0.36923  Biso   1.000  C
  C448     1.0000 0.93970  0.50606  0.37322  Biso   1.000  C
  C449     1.0000 0.90593  0.54703  0.37328  Biso   1.000  C
  C450     1.0000 0.03580  0.46596  0.37043  Biso   1.000  C
  H217     1.0000 0.93000  0.70320  0.32030  Biso   1.000  H
  H218     1.0000 0.00620  0.76610  0.32320  Biso   1.000  H
  H219     1.0000 0.98590  0.70250  0.47760  Biso   1.000  H
  H220     1.0000 0.00690  0.75300  0.43170  Biso   1.000  H
  H221     1.0000 0.87490  0.59810  0.50800  Biso   1.000  H
  H222     1.0000 0.84420  0.59690  0.44410  Biso   1.000  H
  H223     1.0000 0.00150  0.62850  0.36780  Biso   1.000  H
  H224     1.0000 0.06020  0.56180  0.36570  Biso   1.000  H
  H225     1.0000 0.91920  0.47890  0.37560  Biso   1.000  H
  O151     1.0000 0.05900  0.33313  0.85009  Biso   1.000  O
  O152     1.0000 0.08164  0.31305  0.90779  Biso   1.000  O
  O153     1.0000 0.00033  0.17972  0.04450  Biso   1.000  O
  O154     1.0000 0.92843  0.13067  0.06201  Biso   1.000  O
  O155     1.0000 0.08431  0.96830  0.85511  Biso   1.000  O
  O156     1.0000 0.01570  0.92981  0.88513  Biso   1.000  O
  N76      1.0000 0.93206  0.19267  0.87180  Biso   1.000  N
  N77      1.0000 0.89359  0.14445  0.92735  Biso   1.000  N
  N78      1.0000 0.92980  0.09119  0.87030  Biso   1.000  N
  C451     1.0000 0.94934  0.21551  0.84088  Biso   1.000  C
  C452     1.0000 0.98809  0.25285  0.84209  Biso   1.000  C
  C453     1.0000 0.00981  0.26734  0.87613  Biso   1.000  C
  C454     1.0000 0.99250  0.24367  0.90810  Biso   1.000  C
  C455     1.0000 0.95388  0.20621  0.90503  Biso   1.000  C
  C456     1.0000 0.93400  0.17737  0.93632  Biso   1.000  C
  C457     1.0000 0.95518  0.18142  0.97204  Biso   1.000  C
  C458     1.0000 0.93331  0.15152  0.99933  Biso   1.000  C
  C459     1.0000 0.89074  0.11890  0.99011  Biso   1.000  C
  C460     1.0000 0.87247  0.11571  0.95401  Biso   1.000  C
  C461     1.0000 0.05299  0.30746  0.87843  Biso   1.000  C
  C462     1.0000 0.95630  0.15469  0.03885  Biso   1.000  C
  C463     1.0000 0.98677  0.09525  0.86608  Biso   1.000  C
  C464     1.0000 0.02212  0.05549  0.86492  Biso   1.000  C
  C465     1.0000 0.99840  0.01047  0.86923  Biso   1.000  C
  C466     1.0000 0.93970  0.00606  0.87322  Biso   1.000  C
  C467     1.0000 0.90593  0.04703  0.87328  Biso   1.000  C
  C468     1.0000 0.03580  0.96596  0.87043  Biso   1.000  C
  H226     1.0000 0.93000  0.20320  0.82030  Biso   1.000  H
  H227     1.0000 0.00620  0.26610  0.82320  Biso   1.000  H
  H228     1.0000 0.98590  0.20250  0.97760  Biso   1.000  H
  H229     1.0000 0.00690  0.25300  0.93170  Biso   1.000  H
  H230     1.0000 0.87490  0.09810  0.00800  Biso   1.000  H
  H231     1.0000 0.84420  0.09690  0.94410  Biso   1.000  H
  H232     1.0000 0.00150  0.12850  0.86780  Biso   1.000  H
  H233     1.0000 0.06020  0.06180  0.86570  Biso   1.000  H
  H234     1.0000 0.91920  0.97890  0.87560  Biso   1.000  H
  O157     1.0000 0.55900  0.83313  0.85009  Biso   1.000  O
  O158     1.0000 0.58164  0.81305  0.90779  Biso   1.000  O
  O159     1.0000 0.50033  0.67972  0.04450  Biso   1.000  O
  O160     1.0000 0.42843  0.63067  0.06201  Biso   1.000  O
  O161     1.0000 0.58431  0.46830  0.85511  Biso   1.000  O
  O162     1.0000 0.51570  0.42981  0.88513  Biso   1.000  O
  N79      1.0000 0.43206  0.69267  0.87180  Biso   1.000  N
  N80      1.0000 0.39359  0.64445  0.92735  Biso   1.000  N
  N81      1.0000 0.42980  0.59119  0.87030  Biso   1.000  N
  C469     1.0000 0.44934  0.71551  0.84088  Biso   1.000  C
  C470     1.0000 0.48809  0.75285  0.84209  Biso   1.000  C
  C471     1.0000 0.50981  0.76734  0.87613  Biso   1.000  C
  C472     1.0000 0.49250  0.74367  0.90810  Biso   1.000  C
  C473     1.0000 0.45388  0.70621  0.90503  Biso   1.000  C
  C474     1.0000 0.43400  0.67737  0.93632  Biso   1.000  C
  C475     1.0000 0.45518  0.68142  0.97204  Biso   1.000  C
  C476     1.0000 0.43331  0.65152  0.99933  Biso   1.000  C
  C477     1.0000 0.39074  0.61890  0.99011  Biso   1.000  C
  C478     1.0000 0.37247  0.61571  0.95401  Biso   1.000  C
  C479     1.0000 0.55299  0.80746  0.87843  Biso   1.000  C
  C480     1.0000 0.45630  0.65469  0.03885  Biso   1.000  C
  C481     1.0000 0.48677  0.59525  0.86608  Biso   1.000  C
  C482     1.0000 0.52212  0.55549  0.86492  Biso   1.000  C
  C483     1.0000 0.49840  0.51047  0.86923  Biso   1.000  C
  C484     1.0000 0.43970  0.50606  0.87322  Biso   1.000  C
  C485     1.0000 0.40593  0.54703  0.87328  Biso   1.000  C
  C486     1.0000 0.53580  0.46596  0.87043  Biso   1.000  C
  H235     1.0000 0.43000  0.70320  0.82030  Biso   1.000  H
  H236     1.0000 0.50620  0.76610  0.82320  Biso   1.000  H
  H237     1.0000 0.48590  0.70250  0.97760  Biso   1.000  H
  H238     1.0000 0.50690  0.75300  0.93170  Biso   1.000  H
  H239     1.0000 0.37490  0.59810  0.00800  Biso   1.000  H
  H240     1.0000 0.34420  0.59690  0.94410  Biso   1.000  H
  H241     1.0000 0.50150  0.62850  0.86780  Biso   1.000  H
  H242     1.0000 0.56020  0.56180  0.86570  Biso   1.000  H
  H243     1.0000 0.41920  0.47890  0.87560  Biso   1.000  H
  O163     1.0000 0.55900  0.33313  0.35009  Biso   1.000  O
  O164     1.0000 0.58164  0.31305  0.40779  Biso   1.000  O
  O165     1.0000 0.50033  0.17972  0.54450  Biso   1.000  O
  O166     1.0000 0.42843  0.13067  0.56201  Biso   1.000  O
  O167     1.0000 0.58431  0.96830  0.35511  Biso   1.000  O
  O168     1.0000 0.51570  0.92981  0.38513  Biso   1.000  O
  N82      1.0000 0.43206  0.19267  0.37180  Biso   1.000  N
  N83      1.0000 0.39359  0.14445  0.42735  Biso   1.000  N
  N84      1.0000 0.42980  0.09119  0.37030  Biso   1.000  N
  C487     1.0000 0.44934  0.21551  0.34088  Biso   1.000  C
  C488     1.0000 0.48809  0.25285  0.34209  Biso   1.000  C
  C489     1.0000 0.50981  0.26734  0.37613  Biso   1.000  C
  C490     1.0000 0.49250  0.24367  0.40810  Biso   1.000  C
  C491     1.0000 0.45388  0.20621  0.40503  Biso   1.000  C
  C492     1.0000 0.43400  0.17737  0.43632  Biso   1.000  C
  C493     1.0000 0.45518  0.18142  0.47204  Biso   1.000  C
  C494     1.0000 0.43331  0.15152  0.49933  Biso   1.000  C
  C495     1.0000 0.39074  0.11890  0.49011  Biso   1.000  C
  C496     1.0000 0.37247  0.11571  0.45401  Biso   1.000  C
  C497     1.0000 0.55299  0.30746  0.37843  Biso   1.000  C
  C498     1.0000 0.45630  0.15469  0.53885  Biso   1.000  C
  C499     1.0000 0.48677  0.09525  0.36608  Biso   1.000  C
  C500     1.0000 0.52212  0.05549  0.36492  Biso   1.000  C
  C501     1.0000 0.49840  0.01047  0.36923  Biso   1.000  C
  C502     1.0000 0.43970  0.00606  0.37322  Biso   1.000  C
  C503     1.0000 0.40593  0.04703  0.37328  Biso   1.000  C
  C504     1.0000 0.53580  0.96596  0.37043  Biso   1.000  C
  H244     1.0000 0.43000  0.20320  0.32030  Biso   1.000  H
  H245     1.0000 0.50620  0.26610  0.32320  Biso   1.000  H
  H246     1.0000 0.48590  0.20250  0.47760  Biso   1.000  H
  H247     1.0000 0.50690  0.25300  0.43170  Biso   1.000  H
  H248     1.0000 0.37490  0.09810  0.50800  Biso   1.000  H
  H249     1.0000 0.34420  0.09690  0.44410  Biso   1.000  H
  H250     1.0000 0.50150  0.12850  0.36780  Biso   1.000  H
  H251     1.0000 0.56020  0.06180  0.36570  Biso   1.000  H
  H252     1.0000 0.41920  0.97890  0.37560  Biso   1.000  H
  O169     1.0000 0.19100  0.41687  0.35009  Biso   1.000  O
  O170     1.0000 0.16836  0.43695  0.40779  Biso   1.000  O
  O171     1.0000 0.24967  0.57028  0.54450  Biso   1.000  O
  O172     1.0000 0.32157  0.61933  0.56201  Biso   1.000  O
  O173     1.0000 0.16569  0.78170  0.35511  Biso   1.000  O
  O174     1.0000 0.23430  0.82019  0.38513  Biso   1.000  O
  N85      1.0000 0.31794  0.55733  0.37180  Biso   1.000  N
  N86      1.0000 0.35641  0.60555  0.42735  Biso   1.000  N
  N87      1.0000 0.32020  0.65881  0.37030  Biso   1.000  N
  C505     1.0000 0.30066  0.53449  0.34088  Biso   1.000  C
  C506     1.0000 0.26191  0.49715  0.34209  Biso   1.000  C
  C507     1.0000 0.24019  0.48266  0.37613  Biso   1.000  C
  C508     1.0000 0.25750  0.50633  0.40810  Biso   1.000  C
  C509     1.0000 0.29612  0.54379  0.40503  Biso   1.000  C
  C510     1.0000 0.31600  0.57263  0.43632  Biso   1.000  C
  C511     1.0000 0.29482  0.56858  0.47204  Biso   1.000  C
  C512     1.0000 0.31669  0.59848  0.49933  Biso   1.000  C
  C513     1.0000 0.35926  0.63110  0.49011  Biso   1.000  C
  C514     1.0000 0.37753  0.63429  0.45401  Biso   1.000  C
  C515     1.0000 0.19701  0.44254  0.37843  Biso   1.000  C
  C516     1.0000 0.29370  0.59531  0.53885  Biso   1.000  C
  C517     1.0000 0.26323  0.65475  0.36608  Biso   1.000  C
  C518     1.0000 0.22788  0.69451  0.36492  Biso   1.000  C
  C519     1.0000 0.25160  0.73953  0.36923  Biso   1.000  C
  C520     1.0000 0.31030  0.74394  0.37322  Biso   1.000  C
  C521     1.0000 0.34407  0.70297  0.37328  Biso   1.000  C
  C522     1.0000 0.21420  0.78404  0.37043  Biso   1.000  C
  H253     1.0000 0.32000  0.54680  0.32030  Biso   1.000  H
  H254     1.0000 0.24380  0.48390  0.32320  Biso   1.000  H
  H255     1.0000 0.26410  0.54750  0.47760  Biso   1.000  H
  H256     1.0000 0.24310  0.49700  0.43170  Biso   1.000  H
  H257     1.0000 0.37510  0.65190  0.50800  Biso   1.000  H
  H258     1.0000 0.40580  0.65310  0.44410  Biso   1.000  H
  H259     1.0000 0.24850  0.62150  0.36780  Biso   1.000  H
  H260     1.0000 0.18980  0.68820  0.36570  Biso   1.000  H
  H261     1.0000 0.33080  0.77110  0.37560  Biso   1.000  H
  O175     1.0000 0.19100  0.91687  0.85009  Biso   1.000  O
  O176     1.0000 0.16836  0.93695  0.90779  Biso   1.000  O
  O177     1.0000 0.24967  0.07028  0.04450  Biso   1.000  O
  O178     1.0000 0.32157  0.11933  0.06201  Biso   1.000  O
  O179     1.0000 0.16569  0.28170  0.85511  Biso   1.000  O
  O180     1.0000 0.23430  0.32019  0.88513  Biso   1.000  O
  N88      1.0000 0.31794  0.05733  0.87180  Biso   1.000  N
  N89      1.0000 0.35641  0.10555  0.92735  Biso   1.000  N
  N90      1.0000 0.32020  0.15881  0.87030  Biso   1.000  N
  C523     1.0000 0.30066  0.03449  0.84088  Biso   1.000  C
  C524     1.0000 0.26191  0.99715  0.84209  Biso   1.000  C
  C525     1.0000 0.24019  0.98266  0.87613  Biso   1.000  C
  C526     1.0000 0.25750  0.00633  0.90810  Biso   1.000  C
  C527     1.0000 0.29612  0.04379  0.90503  Biso   1.000  C
  C528     1.0000 0.31600  0.07263  0.93632  Biso   1.000  C
  C529     1.0000 0.29482  0.06858  0.97204  Biso   1.000  C
  C530     1.0000 0.31669  0.09848  0.99933  Biso   1.000  C
  C531     1.0000 0.35926  0.13110  0.99011  Biso   1.000  C
  C532     1.0000 0.37753  0.13429  0.95401  Biso   1.000  C
  C533     1.0000 0.19701  0.94254  0.87843  Biso   1.000  C
  C534     1.0000 0.29370  0.09531  0.03885  Biso   1.000  C
  C535     1.0000 0.26323  0.15475  0.86608  Biso   1.000  C
  C536     1.0000 0.22788  0.19451  0.86492  Biso   1.000  C
  C537     1.0000 0.25160  0.23953  0.86923  Biso   1.000  C
  C538     1.0000 0.31030  0.24394  0.87322  Biso   1.000  C
  C539     1.0000 0.34407  0.20297  0.87328  Biso   1.000  C
  C540     1.0000 0.21420  0.28404  0.87043  Biso   1.000  C
  H262     1.0000 0.32000  0.04680  0.82030  Biso   1.000  H
  H263     1.0000 0.24380  0.98390  0.82320  Biso   1.000  H
  H264     1.0000 0.26410  0.04750  0.97760  Biso   1.000  H
  H265     1.0000 0.24310  0.99700  0.93170  Biso   1.000  H
  H266     1.0000 0.37510  0.15190  0.00800  Biso   1.000  H
  H267     1.0000 0.40580  0.15310  0.94410  Biso   1.000  H
  H268     1.0000 0.24850  0.12150  0.86780  Biso   1.000  H
  H269     1.0000 0.18980  0.18820  0.86570  Biso   1.000  H
  H270     1.0000 0.33080  0.27110  0.87560  Biso   1.000  H
  O181     1.0000 0.69100  0.41687  0.85009  Biso   1.000  O
  O182     1.0000 0.66836  0.43695  0.90779  Biso   1.000  O
  O183     1.0000 0.74967  0.57028  0.04450  Biso   1.000  O
  O184     1.0000 0.82157  0.61933  0.06201  Biso   1.000  O
  O185     1.0000 0.66569  0.78170  0.85511  Biso   1.000  O
  O186     1.0000 0.73430  0.82019  0.88513  Biso   1.000  O
  N91      1.0000 0.81794  0.55733  0.87180  Biso   1.000  N
  N92      1.0000 0.85641  0.60555  0.92735  Biso   1.000  N
  N93      1.0000 0.82020  0.65881  0.87030  Biso   1.000  N
  C541     1.0000 0.80066  0.53449  0.84088  Biso   1.000  C
  C542     1.0000 0.76191  0.49715  0.84209  Biso   1.000  C
  C543     1.0000 0.74019  0.48266  0.87613  Biso   1.000  C
  C544     1.0000 0.75750  0.50633  0.90810  Biso   1.000  C
  C545     1.0000 0.79612  0.54379  0.90503  Biso   1.000  C
  C546     1.0000 0.81600  0.57263  0.93632  Biso   1.000  C
  C547     1.0000 0.79482  0.56858  0.97204  Biso   1.000  C
  C548     1.0000 0.81669  0.59848  0.99933  Biso   1.000  C
  C549     1.0000 0.85926  0.63110  0.99011  Biso   1.000  C
  C550     1.0000 0.87753  0.63429  0.95401  Biso   1.000  C
  C551     1.0000 0.69701  0.44254  0.87843  Biso   1.000  C
  C552     1.0000 0.79370  0.59531  0.03885  Biso   1.000  C
  C553     1.0000 0.76323  0.65475  0.86608  Biso   1.000  C
  C554     1.0000 0.72788  0.69451  0.86492  Biso   1.000  C
  C555     1.0000 0.75160  0.73953  0.86923  Biso   1.000  C
  C556     1.0000 0.81030  0.74394  0.87322  Biso   1.000  C
  C557     1.0000 0.84407  0.70297  0.87328  Biso   1.000  C
  C558     1.0000 0.71420  0.78404  0.87043  Biso   1.000  C
  H271     1.0000 0.82000  0.54680  0.82030  Biso   1.000  H
  H272     1.0000 0.74380  0.48390  0.82320  Biso   1.000  H
  H273     1.0000 0.76410  0.54750  0.97760  Biso   1.000  H
  H274     1.0000 0.74310  0.49700  0.93170  Biso   1.000  H
  H275     1.0000 0.87510  0.65190  0.00800  Biso   1.000  H
  H276     1.0000 0.90580  0.65310  0.94410  Biso   1.000  H
  H277     1.0000 0.74850  0.62150  0.86780  Biso   1.000  H
  H278     1.0000 0.68980  0.68820  0.86570  Biso   1.000  H
  H279     1.0000 0.83080  0.77110  0.87560  Biso   1.000  H
  O187     1.0000 0.69100  0.91687  0.35009  Biso   1.000  O
  O188     1.0000 0.66836  0.93695  0.40779  Biso   1.000  O
  O189     1.0000 0.74967  0.07028  0.54450  Biso   1.000  O
  O190     1.0000 0.82157  0.11933  0.56201  Biso   1.000  O
  O191     1.0000 0.66569  0.28170  0.35511  Biso   1.000  O
  O192     1.0000 0.73430  0.32019  0.38513  Biso   1.000  O
  N94      1.0000 0.81794  0.05733  0.37180  Biso   1.000  N
  N95      1.0000 0.85641  0.10555  0.42735  Biso   1.000  N
  N96      1.0000 0.82020  0.15881  0.37030  Biso   1.000  N
  C559     1.0000 0.80066  0.03449  0.34088  Biso   1.000  C
  C560     1.0000 0.76191  0.99715  0.34209  Biso   1.000  C
  C561     1.0000 0.74019  0.98266  0.37613  Biso   1.000  C
  C562     1.0000 0.75750  0.00633  0.40810  Biso   1.000  C
  C563     1.0000 0.79612  0.04379  0.40503  Biso   1.000  C
  C564     1.0000 0.81600  0.07263  0.43632  Biso   1.000  C
  C565     1.0000 0.79482  0.06858  0.47204  Biso   1.000  C
  C566     1.0000 0.81669  0.09848  0.49933  Biso   1.000  C
  C567     1.0000 0.85926  0.13110  0.49011  Biso   1.000  C
  C568     1.0000 0.87753  0.13429  0.45401  Biso   1.000  C
  C569     1.0000 0.69701  0.94254  0.37843  Biso   1.000  C
  C570     1.0000 0.79370  0.09531  0.53885  Biso   1.000  C
  C571     1.0000 0.76323  0.15475  0.36608  Biso   1.000  C
  C572     1.0000 0.72788  0.19451  0.36492  Biso   1.000  C
  C573     1.0000 0.75160  0.23953  0.36923  Biso   1.000  C
  C574     1.0000 0.81030  0.24394  0.37322  Biso   1.000  C
  C575     1.0000 0.84407  0.20297  0.37328  Biso   1.000  C
  C576     1.0000 0.71420  0.28404  0.37043  Biso   1.000  C
  H280     1.0000 0.82000  0.04680  0.32030  Biso   1.000  H
  H281     1.0000 0.74380  0.98390  0.32320  Biso   1.000  H
  H282     1.0000 0.76410  0.04750  0.47760  Biso   1.000  H
  H283     1.0000 0.74310  0.99700  0.43170  Biso   1.000  H
  H284     1.0000 0.87510  0.15190  0.50800  Biso   1.000  H
  H285     1.0000 0.90580  0.15310  0.44410  Biso   1.000  H
  H286     1.0000 0.74850  0.12150  0.36780  Biso   1.000  H
  H287     1.0000 0.68980  0.18820  0.36570  Biso   1.000  H
  H288     1.0000 0.83080  0.27110  0.37560  Biso   1.000  H
  Pr1      1.0000 0.89838  0.12500  0.12500  Biso   1.000  Pr
  Pr2      1.0000 0.89838  0.62500  0.62500  Biso   1.000  Pr
  Pr3      1.0000 0.39838  0.12500  0.62500  Biso   1.000  Pr
  Pr4      1.0000 0.85162  0.62500  0.12500  Biso   1.000  Pr
  Pr5      1.0000 0.35162  0.62500  0.62500  Biso   1.000  Pr
  Pr6      1.0000 0.85162  0.12500  0.62500  Biso   1.000  Pr
  Pr7      1.0000 0.35162  0.12500  0.12500  Biso   1.000  Pr
  Pr8      1.0000 0.39838  0.62500  0.12500  Biso   1.000  Pr
  Pr9      1.0000 0.10162  0.87500  0.87500  Biso   1.000  Pr
  Pr10     1.0000 0.10162  0.37500  0.37500  Biso   1.000  Pr
  Pr11     1.0000 0.60162  0.87500  0.37500  Biso   1.000  Pr
  Pr12     1.0000 0.14838  0.37500  0.87500  Biso   1.000  Pr
  Pr13     1.0000 0.64838  0.37500  0.37500  Biso   1.000  Pr
  Pr14     1.0000 0.14838  0.87500  0.37500  Biso   1.000  Pr
  Pr15     1.0000 0.64838  0.87500  0.87500  Biso   1.000  Pr
  Pr16     1.0000 0.60162  0.37500  0.87500  Biso   1.000  Pr
  Co1      1.0000 0.62500  0.35740  0.12500  Biso   1.000  Co
  Co2      1.0000 0.62500  0.85740  0.62500  Biso   1.000  Co
  Co3      1.0000 0.12500  0.39260  0.12500  Biso   1.000  Co
  Co4      1.0000 0.12500  0.89260  0.62500  Biso   1.000  Co
  Co5      1.0000 0.62500  0.39260  0.62500  Biso   1.000  Co
  Co6      1.0000 0.12500  0.35740  0.62500  Biso   1.000  Co
  Co7      1.0000 0.12500  0.85740  0.12500  Biso   1.000  Co
  Co8      1.0000 0.62500  0.89260  0.12500  Biso   1.000  Co
  Co9      1.0000 0.37500  0.64260  0.87500  Biso   1.000  Co
  Co10     1.0000 0.37500  0.14260  0.37500  Biso   1.000  Co
  Co11     1.0000 0.87500  0.60740  0.87500  Biso   1.000  Co
  Co12     1.0000 0.87500  0.10740  0.37500  Biso   1.000  Co
  Co13     1.0000 0.87500  0.64260  0.37500  Biso   1.000  Co
  Co14     1.0000 0.87500  0.14260  0.87500  Biso   1.000  Co
  Co15     1.0000 0.37500  0.60740  0.37500  Biso   1.000  Co
  Co16     1.0000 0.37500  0.10740  0.87500  Biso   1.000  Co
