data_image0
_cell_length_a       11.4326
_cell_length_b       40.4457
_cell_length_c       63.8998
_cell_angle_alpha    90
_cell_angle_beta     90
_cell_angle_gamma    90

_symmetry_space_group_name_H-M    "P 1"
_symmetry_int_tables_number       1

loop_
  _symmetry_equiv_pos_as_xyz
  'x, y, z'

loop_
  _atom_site_label
  _atom_site_occupancy
  _atom_site_fract_x
  _atom_site_fract_y
  _atom_site_fract_z
  _atom_site_thermal_displace_type
  _atom_site_B_iso_or_equiv
  _atom_site_type_symbol
  Zn1      1.0000 0.45642  0.54002  0.53145  Biso   1.000  Zn
  O1       1.0000 0.19130  0.31684  0.76559  Biso   1.000  O
  O2       1.0000 0.02440  0.30633  0.75031  Biso   1.000  O
  O3       1.0000 0.95610  0.34638  0.67690  Biso   1.000  O
  O4       1.0000 0.07250  0.38480  0.66446  Biso   1.000  O
  O5       1.0000 0.50990  0.54320  0.57662  Biso   1.000  O
  O6       1.0000 0.49640  0.57749  0.54954  Biso   1.000  O
  N1       1.0000 0.87810  0.41302  0.63276  Biso   1.000  N
  N2       1.0000 0.89270  0.44279  0.60404  Biso   1.000  N
  N3       1.0000 0.19000  0.48035  0.55510  Biso   1.000  N
  N4       1.0000 0.34690  0.50495  0.54282  Biso   1.000  N
  N5       1.0000 0.77870  0.49190  0.53875  Biso   1.000  N
  N6       1.0000 0.61270  0.51541  0.52973  Biso   1.000  N
  C1       1.0000 0.12580  0.31856  0.75044  Biso   1.000  C
  C2       1.0000 0.16470  0.33670  0.73062  Biso   1.000  C
  C3       1.0000 0.27540  0.35021  0.73034  Biso   1.000  C
  H1       1.0000 0.32490  0.34780  0.74220  Biso   1.000  H
  C4       1.0000 0.31570  0.36754  0.71277  Biso   1.000  C
  C5       1.0000 0.24270  0.37123  0.69557  Biso   1.000  C
  H2       1.0000 0.26930  0.38290  0.68360  Biso   1.000  H
  C6       1.0000 0.12990  0.35778  0.69597  Biso   1.000  C
  C7       1.0000 0.09080  0.34059  0.71341  Biso   1.000  C
  H3       1.0000 0.01420  0.33150  0.71360  Biso   1.000  H
  C8       1.0000 0.04960  0.36340  0.67775  Biso   1.000  C
  C9       1.0000 0.79720  0.43710  0.63348  Biso   1.000  C
  H4       1.0000 0.74500  0.44080  0.64480  Biso   1.000  H
  C10      1.0000 0.80080  0.45540  0.61568  Biso   1.000  C
  H5       1.0000 0.75060  0.47320  0.61200  Biso   1.000  H
  C11      1.0000 0.93470  0.41678  0.61486  Biso   1.000  C
  H6       1.0000 0.99680  0.40300  0.61020  Biso   1.000  H
  C12      1.0000 0.92600  0.45508  0.58420  Biso   1.000  C
  C13      1.0000 0.83790  0.46470  0.57063  Biso   1.000  C
  H7       1.0000 0.75800  0.46090  0.57400  Biso   1.000  H
  C14      1.0000 0.86920  0.48008  0.55203  Biso   1.000  C
  C15      1.0000 0.98410  0.48481  0.54645  Biso   1.000  C
  H8       1.0000 0.00400  0.49500  0.53350  Biso   1.000  H
  C16      1.0000 0.06990  0.47431  0.56018  Biso   1.000  C
  C17      1.0000 0.04350  0.45948  0.57929  Biso   1.000  C
  H9       1.0000 0.10350  0.45260  0.58860  Biso   1.000  H
  C18      1.0000 0.28510  0.46082  0.56098  Biso   1.000  C
  H10      1.0000 0.28320  0.44090  0.56880  Biso   1.000  H
  C19      1.0000 0.38040  0.47619  0.55320  Biso   1.000  C
  H11      1.0000 0.45860  0.46850  0.55460  Biso   1.000  H
  C20      1.0000 0.23170  0.50654  0.54421  Biso   1.000  C
  H12      1.0000 0.18490  0.52360  0.53840  Biso   1.000  H
  C21      1.0000 0.77880  0.49374  0.51707  Biso   1.000  C
  H13      1.0000 0.83850  0.48640  0.50780  Biso   1.000  H
  C22      1.0000 0.67650  0.50514  0.54559  Biso   1.000  C
  H14      1.0000 0.65410  0.50680  0.55990  Biso   1.000  H
  C23      1.0000 0.67610  0.50824  0.51181  Biso   1.000  C
  H15      1.0000 0.65130  0.51280  0.49790  Biso   1.000  H
  C24      1.0000 0.52310  0.57075  0.56839  Biso   1.000  C
  C25      1.0000 0.57620  0.59861  0.58068  Biso   1.000  C
  C26      1.0000 0.57870  0.59835  0.60227  Biso   1.000  C
  H16      1.0000 0.54860  0.57980  0.60960  Biso   1.000  H
  Zn2      1.0000 0.45642  0.04002  0.03145  Biso   1.000  Zn
  O7       1.0000 0.19130  0.81684  0.26559  Biso   1.000  O
  O8       1.0000 0.02440  0.80633  0.25031  Biso   1.000  O
  O9       1.0000 0.95610  0.84638  0.17690  Biso   1.000  O
  O10      1.0000 0.07250  0.88480  0.16446  Biso   1.000  O
  O11      1.0000 0.50990  0.04320  0.07662  Biso   1.000  O
  O12      1.0000 0.49640  0.07749  0.04954  Biso   1.000  O
  N7       1.0000 0.87810  0.91302  0.13276  Biso   1.000  N
  N8       1.0000 0.89270  0.94279  0.10404  Biso   1.000  N
  N9       1.0000 0.19000  0.98035  0.05510  Biso   1.000  N
  N10      1.0000 0.34690  0.00495  0.04282  Biso   1.000  N
  N11      1.0000 0.77870  0.99190  0.03875  Biso   1.000  N
  N12      1.0000 0.61270  0.01541  0.02973  Biso   1.000  N
  C27      1.0000 0.12580  0.81856  0.25044  Biso   1.000  C
  C28      1.0000 0.16470  0.83670  0.23062  Biso   1.000  C
  C29      1.0000 0.27540  0.85021  0.23034  Biso   1.000  C
  H17      1.0000 0.32490  0.84780  0.24220  Biso   1.000  H
  C30      1.0000 0.31570  0.86754  0.21277  Biso   1.000  C
  C31      1.0000 0.24270  0.87123  0.19557  Biso   1.000  C
  H18      1.0000 0.26930  0.88290  0.18360  Biso   1.000  H
  C32      1.0000 0.12990  0.85778  0.19597  Biso   1.000  C
  C33      1.0000 0.09080  0.84059  0.21341  Biso   1.000  C
  H19      1.0000 0.01420  0.83150  0.21360  Biso   1.000  H
  C34      1.0000 0.04960  0.86340  0.17775  Biso   1.000  C
  C35      1.0000 0.79720  0.93710  0.13348  Biso   1.000  C
  H20      1.0000 0.74500  0.94080  0.14480  Biso   1.000  H
  C36      1.0000 0.80080  0.95540  0.11568  Biso   1.000  C
  H21      1.0000 0.75060  0.97320  0.11200  Biso   1.000  H
  C37      1.0000 0.93470  0.91678  0.11486  Biso   1.000  C
  H22      1.0000 0.99680  0.90300  0.11020  Biso   1.000  H
  C38      1.0000 0.92600  0.95508  0.08420  Biso   1.000  C
  C39      1.0000 0.83790  0.96470  0.07063  Biso   1.000  C
  H23      1.0000 0.75800  0.96090  0.07400  Biso   1.000  H
  C40      1.0000 0.86920  0.98008  0.05203  Biso   1.000  C
  C41      1.0000 0.98410  0.98481  0.04645  Biso   1.000  C
  H24      1.0000 0.00400  0.99500  0.03350  Biso   1.000  H
  C42      1.0000 0.06990  0.97431  0.06018  Biso   1.000  C
  C43      1.0000 0.04350  0.95948  0.07929  Biso   1.000  C
  H25      1.0000 0.10350  0.95260  0.08860  Biso   1.000  H
  C44      1.0000 0.28510  0.96082  0.06098  Biso   1.000  C
  H26      1.0000 0.28320  0.94090  0.06880  Biso   1.000  H
  C45      1.0000 0.38040  0.97619  0.05320  Biso   1.000  C
  H27      1.0000 0.45860  0.96850  0.05460  Biso   1.000  H
  C46      1.0000 0.23170  0.00654  0.04421  Biso   1.000  C
  H28      1.0000 0.18490  0.02360  0.03840  Biso   1.000  H
  C47      1.0000 0.77880  0.99374  0.01707  Biso   1.000  C
  H29      1.0000 0.83850  0.98640  0.00780  Biso   1.000  H
  C48      1.0000 0.67650  0.00514  0.04559  Biso   1.000  C
  H30      1.0000 0.65410  0.00680  0.05990  Biso   1.000  H
  C49      1.0000 0.67610  0.00824  0.01181  Biso   1.000  C
  H31      1.0000 0.65130  0.01280  0.99790  Biso   1.000  H
  C50      1.0000 0.52310  0.07075  0.06839  Biso   1.000  C
  C51      1.0000 0.57620  0.09861  0.08068  Biso   1.000  C
  C52      1.0000 0.57870  0.09835  0.10227  Biso   1.000  C
  H32      1.0000 0.54860  0.07980  0.10960  Biso   1.000  H
  Zn3      1.0000 0.95642  0.54002  0.03145  Biso   1.000  Zn
  O13      1.0000 0.69130  0.31684  0.26559  Biso   1.000  O
  O14      1.0000 0.52440  0.30633  0.25031  Biso   1.000  O
  O15      1.0000 0.45610  0.34638  0.17690  Biso   1.000  O
  O16      1.0000 0.57250  0.38480  0.16446  Biso   1.000  O
  O17      1.0000 0.00990  0.54320  0.07662  Biso   1.000  O
  O18      1.0000 0.99640  0.57749  0.04954  Biso   1.000  O
  N13      1.0000 0.37810  0.41302  0.13276  Biso   1.000  N
  N14      1.0000 0.39270  0.44279  0.10404  Biso   1.000  N
  N15      1.0000 0.69000  0.48035  0.05510  Biso   1.000  N
  N16      1.0000 0.84690  0.50495  0.04282  Biso   1.000  N
  N17      1.0000 0.27870  0.49190  0.03875  Biso   1.000  N
  N18      1.0000 0.11270  0.51541  0.02973  Biso   1.000  N
  C53      1.0000 0.62580  0.31856  0.25044  Biso   1.000  C
  C54      1.0000 0.66470  0.33670  0.23062  Biso   1.000  C
  C55      1.0000 0.77540  0.35021  0.23034  Biso   1.000  C
  H33      1.0000 0.82490  0.34780  0.24220  Biso   1.000  H
  C56      1.0000 0.81570  0.36754  0.21277  Biso   1.000  C
  C57      1.0000 0.74270  0.37123  0.19557  Biso   1.000  C
  H34      1.0000 0.76930  0.38290  0.18360  Biso   1.000  H
  C58      1.0000 0.62990  0.35778  0.19597  Biso   1.000  C
  C59      1.0000 0.59080  0.34059  0.21341  Biso   1.000  C
  H35      1.0000 0.51420  0.33150  0.21360  Biso   1.000  H
  C60      1.0000 0.54960  0.36340  0.17775  Biso   1.000  C
  C61      1.0000 0.29720  0.43710  0.13348  Biso   1.000  C
  H36      1.0000 0.24500  0.44080  0.14480  Biso   1.000  H
  C62      1.0000 0.30080  0.45540  0.11568  Biso   1.000  C
  H37      1.0000 0.25060  0.47320  0.11200  Biso   1.000  H
  C63      1.0000 0.43470  0.41678  0.11486  Biso   1.000  C
  H38      1.0000 0.49680  0.40300  0.11020  Biso   1.000  H
  C64      1.0000 0.42600  0.45508  0.08420  Biso   1.000  C
  C65      1.0000 0.33790  0.46470  0.07063  Biso   1.000  C
  H39      1.0000 0.25800  0.46090  0.07400  Biso   1.000  H
  C66      1.0000 0.36920  0.48008  0.05203  Biso   1.000  C
  C67      1.0000 0.48410  0.48481  0.04645  Biso   1.000  C
  H40      1.0000 0.50400  0.49500  0.03350  Biso   1.000  H
  C68      1.0000 0.56990  0.47431  0.06018  Biso   1.000  C
  C69      1.0000 0.54350  0.45948  0.07929  Biso   1.000  C
  H41      1.0000 0.60350  0.45260  0.08860  Biso   1.000  H
  C70      1.0000 0.78510  0.46082  0.06098  Biso   1.000  C
  H42      1.0000 0.78320  0.44090  0.06880  Biso   1.000  H
  C71      1.0000 0.88040  0.47619  0.05320  Biso   1.000  C
  H43      1.0000 0.95860  0.46850  0.05460  Biso   1.000  H
  C72      1.0000 0.73170  0.50654  0.04421  Biso   1.000  C
  H44      1.0000 0.68490  0.52360  0.03840  Biso   1.000  H
  C73      1.0000 0.27880  0.49374  0.01707  Biso   1.000  C
  H45      1.0000 0.33850  0.48640  0.00780  Biso   1.000  H
  C74      1.0000 0.17650  0.50514  0.04559  Biso   1.000  C
  H46      1.0000 0.15410  0.50680  0.05990  Biso   1.000  H
  C75      1.0000 0.17610  0.50824  0.01181  Biso   1.000  C
  H47      1.0000 0.15130  0.51280  0.99790  Biso   1.000  H
  C76      1.0000 0.02310  0.57075  0.06839  Biso   1.000  C
  C77      1.0000 0.07620  0.59861  0.08068  Biso   1.000  C
  C78      1.0000 0.07870  0.59835  0.10227  Biso   1.000  C
  H48      1.0000 0.04860  0.57980  0.10960  Biso   1.000  H
  Zn4      1.0000 0.95642  0.04002  0.53145  Biso   1.000  Zn
  O19      1.0000 0.69130  0.81684  0.76559  Biso   1.000  O
  O20      1.0000 0.52440  0.80633  0.75031  Biso   1.000  O
  O21      1.0000 0.45610  0.84638  0.67690  Biso   1.000  O
  O22      1.0000 0.57250  0.88480  0.66446  Biso   1.000  O
  O23      1.0000 0.00990  0.04320  0.57662  Biso   1.000  O
  O24      1.0000 0.99640  0.07749  0.54954  Biso   1.000  O
  N19      1.0000 0.37810  0.91302  0.63276  Biso   1.000  N
  N20      1.0000 0.39270  0.94279  0.60404  Biso   1.000  N
  N21      1.0000 0.69000  0.98035  0.55510  Biso   1.000  N
  N22      1.0000 0.84690  0.00495  0.54282  Biso   1.000  N
  N23      1.0000 0.27870  0.99190  0.53875  Biso   1.000  N
  N24      1.0000 0.11270  0.01541  0.52973  Biso   1.000  N
  C79      1.0000 0.62580  0.81856  0.75044  Biso   1.000  C
  C80      1.0000 0.66470  0.83670  0.73062  Biso   1.000  C
  C81      1.0000 0.77540  0.85021  0.73034  Biso   1.000  C
  H49      1.0000 0.82490  0.84780  0.74220  Biso   1.000  H
  C82      1.0000 0.81570  0.86754  0.71277  Biso   1.000  C
  C83      1.0000 0.74270  0.87123  0.69557  Biso   1.000  C
  H50      1.0000 0.76930  0.88290  0.68360  Biso   1.000  H
  C84      1.0000 0.62990  0.85778  0.69597  Biso   1.000  C
  C85      1.0000 0.59080  0.84059  0.71341  Biso   1.000  C
  H51      1.0000 0.51420  0.83150  0.71360  Biso   1.000  H
  C86      1.0000 0.54960  0.86340  0.67775  Biso   1.000  C
  C87      1.0000 0.29720  0.93710  0.63348  Biso   1.000  C
  H52      1.0000 0.24500  0.94080  0.64480  Biso   1.000  H
  C88      1.0000 0.30080  0.95540  0.61568  Biso   1.000  C
  H53      1.0000 0.25060  0.97320  0.61200  Biso   1.000  H
  C89      1.0000 0.43470  0.91678  0.61486  Biso   1.000  C
  H54      1.0000 0.49680  0.90300  0.61020  Biso   1.000  H
  C90      1.0000 0.42600  0.95508  0.58420  Biso   1.000  C
  C91      1.0000 0.33790  0.96470  0.57063  Biso   1.000  C
  H55      1.0000 0.25800  0.96090  0.57400  Biso   1.000  H
  C92      1.0000 0.36920  0.98008  0.55203  Biso   1.000  C
  C93      1.0000 0.48410  0.98481  0.54645  Biso   1.000  C
  H56      1.0000 0.50400  0.99500  0.53350  Biso   1.000  H
  C94      1.0000 0.56990  0.97431  0.56018  Biso   1.000  C
  C95      1.0000 0.54350  0.95948  0.57929  Biso   1.000  C
  H57      1.0000 0.60350  0.95260  0.58860  Biso   1.000  H
  C96      1.0000 0.78510  0.96082  0.56098  Biso   1.000  C
  H58      1.0000 0.78320  0.94090  0.56880  Biso   1.000  H
  C97      1.0000 0.88040  0.97619  0.55320  Biso   1.000  C
  H59      1.0000 0.95860  0.96850  0.55460  Biso   1.000  H
  C98      1.0000 0.73170  0.00654  0.54421  Biso   1.000  C
  H60      1.0000 0.68490  0.02360  0.53840  Biso   1.000  H
  C99      1.0000 0.27880  0.99374  0.51707  Biso   1.000  C
  H61      1.0000 0.33850  0.98640  0.50780  Biso   1.000  H
  C100     1.0000 0.17650  0.00514  0.54559  Biso   1.000  C
  H62      1.0000 0.15410  0.00680  0.55990  Biso   1.000  H
  C101     1.0000 0.17610  0.00824  0.51181  Biso   1.000  C
  H63      1.0000 0.15130  0.01280  0.49790  Biso   1.000  H
  C102     1.0000 0.02310  0.07075  0.56839  Biso   1.000  C
  C103     1.0000 0.07620  0.09861  0.58068  Biso   1.000  C
  C104     1.0000 0.07870  0.09835  0.60227  Biso   1.000  C
  H64      1.0000 0.04860  0.07980  0.60960  Biso   1.000  H
  Zn5      1.0000 0.29358  0.20998  0.53145  Biso   1.000  Zn
  O25      1.0000 0.55870  0.43316  0.76559  Biso   1.000  O
  O26      1.0000 0.72560  0.44367  0.75031  Biso   1.000  O
  O27      1.0000 0.79390  0.40362  0.67690  Biso   1.000  O
  O28      1.0000 0.67750  0.36520  0.66446  Biso   1.000  O
  O29      1.0000 0.24010  0.20680  0.57662  Biso   1.000  O
  O30      1.0000 0.25360  0.17251  0.54954  Biso   1.000  O
  N25      1.0000 0.87190  0.33698  0.63276  Biso   1.000  N
  N26      1.0000 0.85730  0.30721  0.60404  Biso   1.000  N
  N27      1.0000 0.56000  0.26965  0.55510  Biso   1.000  N
  N28      1.0000 0.40310  0.24505  0.54282  Biso   1.000  N
  N29      1.0000 0.97130  0.25810  0.53875  Biso   1.000  N
  N30      1.0000 0.13730  0.23459  0.52973  Biso   1.000  N
  C105     1.0000 0.62420  0.43144  0.75044  Biso   1.000  C
  C106     1.0000 0.58530  0.41330  0.73062  Biso   1.000  C
  C107     1.0000 0.47460  0.39979  0.73034  Biso   1.000  C
  H65      1.0000 0.42510  0.40220  0.74220  Biso   1.000  H
  C108     1.0000 0.43430  0.38246  0.71277  Biso   1.000  C
  C109     1.0000 0.50730  0.37877  0.69557  Biso   1.000  C
  H66      1.0000 0.48070  0.36710  0.68360  Biso   1.000  H
  C110     1.0000 0.62010  0.39222  0.69597  Biso   1.000  C
  C111     1.0000 0.65920  0.40941  0.71341  Biso   1.000  C
  H67      1.0000 0.73580  0.41850  0.71360  Biso   1.000  H
  C112     1.0000 0.70040  0.38660  0.67775  Biso   1.000  C
  C113     1.0000 0.95280  0.31290  0.63348  Biso   1.000  C
  H68      1.0000 0.00500  0.30920  0.64480  Biso   1.000  H
  C114     1.0000 0.94920  0.29460  0.61568  Biso   1.000  C
  H69      1.0000 0.99940  0.27680  0.61200  Biso   1.000  H
  C115     1.0000 0.81530  0.33322  0.61486  Biso   1.000  C
  H70      1.0000 0.75320  0.34700  0.61020  Biso   1.000  H
  C116     1.0000 0.82400  0.29492  0.58420  Biso   1.000  C
  C117     1.0000 0.91210  0.28530  0.57063  Biso   1.000  C
  H71      1.0000 0.99200  0.28910  0.57400  Biso   1.000  H
  C118     1.0000 0.88080  0.26992  0.55203  Biso   1.000  C
  C119     1.0000 0.76590  0.26519  0.54645  Biso   1.000  C
  H72      1.0000 0.74600  0.25500  0.53350  Biso   1.000  H
  C120     1.0000 0.68010  0.27569  0.56018  Biso   1.000  C
  C121     1.0000 0.70650  0.29052  0.57929  Biso   1.000  C
  H73      1.0000 0.64650  0.29740  0.58860  Biso   1.000  H
  C122     1.0000 0.46490  0.28918  0.56098  Biso   1.000  C
  H74      1.0000 0.46680  0.30910  0.56880  Biso   1.000  H
  C123     1.0000 0.36960  0.27381  0.55320  Biso   1.000  C
  H75      1.0000 0.29140  0.28150  0.55460  Biso   1.000  H
  C124     1.0000 0.51830  0.24346  0.54421  Biso   1.000  C
  H76      1.0000 0.56510  0.22640  0.53840  Biso   1.000  H
  C125     1.0000 0.97120  0.25626  0.51707  Biso   1.000  C
  H77      1.0000 0.91150  0.26360  0.50780  Biso   1.000  H
  C126     1.0000 0.07350  0.24486  0.54559  Biso   1.000  C
  H78      1.0000 0.09590  0.24320  0.55990  Biso   1.000  H
  C127     1.0000 0.07390  0.24176  0.51181  Biso   1.000  C
  H79      1.0000 0.09870  0.23720  0.49790  Biso   1.000  H
  C128     1.0000 0.22690  0.17925  0.56839  Biso   1.000  C
  C129     1.0000 0.17380  0.15139  0.58068  Biso   1.000  C
  C130     1.0000 0.17130  0.15165  0.60227  Biso   1.000  C
  H80      1.0000 0.20140  0.17020  0.60960  Biso   1.000  H
  Zn6      1.0000 0.29358  0.70998  0.03145  Biso   1.000  Zn
  O31      1.0000 0.55870  0.93316  0.26559  Biso   1.000  O
  O32      1.0000 0.72560  0.94367  0.25031  Biso   1.000  O
  O33      1.0000 0.79390  0.90362  0.17690  Biso   1.000  O
  O34      1.0000 0.67750  0.86520  0.16446  Biso   1.000  O
  O35      1.0000 0.24010  0.70680  0.07662  Biso   1.000  O
  O36      1.0000 0.25360  0.67251  0.04954  Biso   1.000  O
  N31      1.0000 0.87190  0.83698  0.13276  Biso   1.000  N
  N32      1.0000 0.85730  0.80721  0.10404  Biso   1.000  N
  N33      1.0000 0.56000  0.76965  0.05510  Biso   1.000  N
  N34      1.0000 0.40310  0.74505  0.04282  Biso   1.000  N
  N35      1.0000 0.97130  0.75810  0.03875  Biso   1.000  N
  N36      1.0000 0.13730  0.73459  0.02973  Biso   1.000  N
  C131     1.0000 0.62420  0.93144  0.25044  Biso   1.000  C
  C132     1.0000 0.58530  0.91330  0.23062  Biso   1.000  C
  C133     1.0000 0.47460  0.89979  0.23034  Biso   1.000  C
  H81      1.0000 0.42510  0.90220  0.24220  Biso   1.000  H
  C134     1.0000 0.43430  0.88246  0.21277  Biso   1.000  C
  C135     1.0000 0.50730  0.87877  0.19557  Biso   1.000  C
  H82      1.0000 0.48070  0.86710  0.18360  Biso   1.000  H
  C136     1.0000 0.62010  0.89222  0.19597  Biso   1.000  C
  C137     1.0000 0.65920  0.90941  0.21341  Biso   1.000  C
  H83      1.0000 0.73580  0.91850  0.21360  Biso   1.000  H
  C138     1.0000 0.70040  0.88660  0.17775  Biso   1.000  C
  C139     1.0000 0.95280  0.81290  0.13348  Biso   1.000  C
  H84      1.0000 0.00500  0.80920  0.14480  Biso   1.000  H
  C140     1.0000 0.94920  0.79460  0.11568  Biso   1.000  C
  H85      1.0000 0.99940  0.77680  0.11200  Biso   1.000  H
  C141     1.0000 0.81530  0.83322  0.11486  Biso   1.000  C
  H86      1.0000 0.75320  0.84700  0.11020  Biso   1.000  H
  C142     1.0000 0.82400  0.79492  0.08420  Biso   1.000  C
  C143     1.0000 0.91210  0.78530  0.07063  Biso   1.000  C
  H87      1.0000 0.99200  0.78910  0.07400  Biso   1.000  H
  C144     1.0000 0.88080  0.76992  0.05203  Biso   1.000  C
  C145     1.0000 0.76590  0.76519  0.04645  Biso   1.000  C
  H88      1.0000 0.74600  0.75500  0.03350  Biso   1.000  H
  C146     1.0000 0.68010  0.77569  0.06018  Biso   1.000  C
  C147     1.0000 0.70650  0.79052  0.07929  Biso   1.000  C
  H89      1.0000 0.64650  0.79740  0.08860  Biso   1.000  H
  C148     1.0000 0.46490  0.78918  0.06098  Biso   1.000  C
  H90      1.0000 0.46680  0.80910  0.06880  Biso   1.000  H
  C149     1.0000 0.36960  0.77381  0.05320  Biso   1.000  C
  H91      1.0000 0.29140  0.78150  0.05460  Biso   1.000  H
  C150     1.0000 0.51830  0.74346  0.04421  Biso   1.000  C
  H92      1.0000 0.56510  0.72640  0.03840  Biso   1.000  H
  C151     1.0000 0.97120  0.75626  0.01707  Biso   1.000  C
  H93      1.0000 0.91150  0.76360  0.00780  Biso   1.000  H
  C152     1.0000 0.07350  0.74486  0.04559  Biso   1.000  C
  H94      1.0000 0.09590  0.74320  0.05990  Biso   1.000  H
  C153     1.0000 0.07390  0.74176  0.01181  Biso   1.000  C
  H95      1.0000 0.09870  0.73720  0.99790  Biso   1.000  H
  C154     1.0000 0.22690  0.67925  0.06839  Biso   1.000  C
  C155     1.0000 0.17380  0.65139  0.08068  Biso   1.000  C
  C156     1.0000 0.17130  0.65165  0.10227  Biso   1.000  C
  H96      1.0000 0.20140  0.67020  0.10960  Biso   1.000  H
  Zn7      1.0000 0.79358  0.20998  0.03145  Biso   1.000  Zn
  O37      1.0000 0.05870  0.43316  0.26559  Biso   1.000  O
  O38      1.0000 0.22560  0.44367  0.25031  Biso   1.000  O
  O39      1.0000 0.29390  0.40362  0.17690  Biso   1.000  O
  O40      1.0000 0.17750  0.36520  0.16446  Biso   1.000  O
  O41      1.0000 0.74010  0.20680  0.07662  Biso   1.000  O
  O42      1.0000 0.75360  0.17251  0.04954  Biso   1.000  O
  N37      1.0000 0.37190  0.33698  0.13276  Biso   1.000  N
  N38      1.0000 0.35730  0.30721  0.10404  Biso   1.000  N
  N39      1.0000 0.06000  0.26965  0.05510  Biso   1.000  N
  N40      1.0000 0.90310  0.24505  0.04282  Biso   1.000  N
  N41      1.0000 0.47130  0.25810  0.03875  Biso   1.000  N
  N42      1.0000 0.63730  0.23459  0.02973  Biso   1.000  N
  C157     1.0000 0.12420  0.43144  0.25044  Biso   1.000  C
  C158     1.0000 0.08530  0.41330  0.23062  Biso   1.000  C
  C159     1.0000 0.97460  0.39979  0.23034  Biso   1.000  C
  H97      1.0000 0.92510  0.40220  0.24220  Biso   1.000  H
  C160     1.0000 0.93430  0.38246  0.21277  Biso   1.000  C
  C161     1.0000 0.00730  0.37877  0.19557  Biso   1.000  C
  H98      1.0000 0.98070  0.36710  0.18360  Biso   1.000  H
  C162     1.0000 0.12010  0.39222  0.19597  Biso   1.000  C
  C163     1.0000 0.15920  0.40941  0.21341  Biso   1.000  C
  H99      1.0000 0.23580  0.41850  0.21360  Biso   1.000  H
  C164     1.0000 0.20040  0.38660  0.17775  Biso   1.000  C
  C165     1.0000 0.45280  0.31290  0.13348  Biso   1.000  C
  H100     1.0000 0.50500  0.30920  0.14480  Biso   1.000  H
  C166     1.0000 0.44920  0.29460  0.11568  Biso   1.000  C
  H101     1.0000 0.49940  0.27680  0.11200  Biso   1.000  H
  C167     1.0000 0.31530  0.33322  0.11486  Biso   1.000  C
  H102     1.0000 0.25320  0.34700  0.11020  Biso   1.000  H
  C168     1.0000 0.32400  0.29492  0.08420  Biso   1.000  C
  C169     1.0000 0.41210  0.28530  0.07063  Biso   1.000  C
  H103     1.0000 0.49200  0.28910  0.07400  Biso   1.000  H
  C170     1.0000 0.38080  0.26992  0.05203  Biso   1.000  C
  C171     1.0000 0.26590  0.26519  0.04645  Biso   1.000  C
  H104     1.0000 0.24600  0.25500  0.03350  Biso   1.000  H
  C172     1.0000 0.18010  0.27569  0.06018  Biso   1.000  C
  C173     1.0000 0.20650  0.29052  0.07929  Biso   1.000  C
  H105     1.0000 0.14650  0.29740  0.08860  Biso   1.000  H
  C174     1.0000 0.96490  0.28918  0.06098  Biso   1.000  C
  H106     1.0000 0.96680  0.30910  0.06880  Biso   1.000  H
  C175     1.0000 0.86960  0.27381  0.05320  Biso   1.000  C
  H107     1.0000 0.79140  0.28150  0.05460  Biso   1.000  H
  C176     1.0000 0.01830  0.24346  0.04421  Biso   1.000  C
  H108     1.0000 0.06510  0.22640  0.03840  Biso   1.000  H
  C177     1.0000 0.47120  0.25626  0.01707  Biso   1.000  C
  H109     1.0000 0.41150  0.26360  0.00780  Biso   1.000  H
  C178     1.0000 0.57350  0.24486  0.04559  Biso   1.000  C
  H110     1.0000 0.59590  0.24320  0.05990  Biso   1.000  H
  C179     1.0000 0.57390  0.24176  0.01181  Biso   1.000  C
  H111     1.0000 0.59870  0.23720  0.99790  Biso   1.000  H
  C180     1.0000 0.72690  0.17925  0.06839  Biso   1.000  C
  C181     1.0000 0.67380  0.15139  0.08068  Biso   1.000  C
  C182     1.0000 0.67130  0.15165  0.10227  Biso   1.000  C
  H112     1.0000 0.70140  0.17020  0.10960  Biso   1.000  H
  Zn8      1.0000 0.79358  0.70998  0.53145  Biso   1.000  Zn
  O43      1.0000 0.05870  0.93316  0.76559  Biso   1.000  O
  O44      1.0000 0.22560  0.94367  0.75031  Biso   1.000  O
  O45      1.0000 0.29390  0.90362  0.67690  Biso   1.000  O
  O46      1.0000 0.17750  0.86520  0.66446  Biso   1.000  O
  O47      1.0000 0.74010  0.70680  0.57662  Biso   1.000  O
  O48      1.0000 0.75360  0.67251  0.54954  Biso   1.000  O
  N43      1.0000 0.37190  0.83698  0.63276  Biso   1.000  N
  N44      1.0000 0.35730  0.80721  0.60404  Biso   1.000  N
  N45      1.0000 0.06000  0.76965  0.55510  Biso   1.000  N
  N46      1.0000 0.90310  0.74505  0.54282  Biso   1.000  N
  N47      1.0000 0.47130  0.75810  0.53875  Biso   1.000  N
  N48      1.0000 0.63730  0.73459  0.52973  Biso   1.000  N
  C183     1.0000 0.12420  0.93144  0.75044  Biso   1.000  C
  C184     1.0000 0.08530  0.91330  0.73062  Biso   1.000  C
  C185     1.0000 0.97460  0.89979  0.73034  Biso   1.000  C
  H113     1.0000 0.92510  0.90220  0.74220  Biso   1.000  H
  C186     1.0000 0.93430  0.88246  0.71277  Biso   1.000  C
  C187     1.0000 0.00730  0.87877  0.69557  Biso   1.000  C
  H114     1.0000 0.98070  0.86710  0.68360  Biso   1.000  H
  C188     1.0000 0.12010  0.89222  0.69597  Biso   1.000  C
  C189     1.0000 0.15920  0.90941  0.71341  Biso   1.000  C
  H115     1.0000 0.23580  0.91850  0.71360  Biso   1.000  H
  C190     1.0000 0.20040  0.88660  0.67775  Biso   1.000  C
  C191     1.0000 0.45280  0.81290  0.63348  Biso   1.000  C
  H116     1.0000 0.50500  0.80920  0.64480  Biso   1.000  H
  C192     1.0000 0.44920  0.79460  0.61568  Biso   1.000  C
  H117     1.0000 0.49940  0.77680  0.61200  Biso   1.000  H
  C193     1.0000 0.31530  0.83322  0.61486  Biso   1.000  C
  H118     1.0000 0.25320  0.84700  0.61020  Biso   1.000  H
  C194     1.0000 0.32400  0.79492  0.58420  Biso   1.000  C
  C195     1.0000 0.41210  0.78530  0.57063  Biso   1.000  C
  H119     1.0000 0.49200  0.78910  0.57400  Biso   1.000  H
  C196     1.0000 0.38080  0.76992  0.55203  Biso   1.000  C
  C197     1.0000 0.26590  0.76519  0.54645  Biso   1.000  C
  H120     1.0000 0.24600  0.75500  0.53350  Biso   1.000  H
  C198     1.0000 0.18010  0.77569  0.56018  Biso   1.000  C
  C199     1.0000 0.20650  0.79052  0.57929  Biso   1.000  C
  H121     1.0000 0.14650  0.79740  0.58860  Biso   1.000  H
  C200     1.0000 0.96490  0.78918  0.56098  Biso   1.000  C
  H122     1.0000 0.96680  0.80910  0.56880  Biso   1.000  H
  C201     1.0000 0.86960  0.77381  0.55320  Biso   1.000  C
  H123     1.0000 0.79140  0.78150  0.55460  Biso   1.000  H
  C202     1.0000 0.01830  0.74346  0.54421  Biso   1.000  C
  H124     1.0000 0.06510  0.72640  0.53840  Biso   1.000  H
  C203     1.0000 0.47120  0.75626  0.51707  Biso   1.000  C
  H125     1.0000 0.41150  0.76360  0.50780  Biso   1.000  H
  C204     1.0000 0.57350  0.74486  0.54559  Biso   1.000  C
  H126     1.0000 0.59590  0.74320  0.55990  Biso   1.000  H
  C205     1.0000 0.57390  0.74176  0.51181  Biso   1.000  C
  H127     1.0000 0.59870  0.73720  0.49790  Biso   1.000  H
  C206     1.0000 0.72690  0.67925  0.56839  Biso   1.000  C
  C207     1.0000 0.67380  0.65139  0.58068  Biso   1.000  C
  C208     1.0000 0.67130  0.65165  0.60227  Biso   1.000  C
  H128     1.0000 0.70140  0.67020  0.60960  Biso   1.000  H
  Zn9      1.0000 0.29358  0.54002  0.21855  Biso   1.000  Zn
  O49      1.0000 0.55870  0.31684  0.98441  Biso   1.000  O
  O50      1.0000 0.72560  0.30633  0.99969  Biso   1.000  O
  O51      1.0000 0.79390  0.34638  0.07310  Biso   1.000  O
  O52      1.0000 0.67750  0.38480  0.08554  Biso   1.000  O
  O53      1.0000 0.24010  0.54320  0.17338  Biso   1.000  O
  O54      1.0000 0.25360  0.57749  0.20046  Biso   1.000  O
  N49      1.0000 0.87190  0.41302  0.11724  Biso   1.000  N
  N50      1.0000 0.85730  0.44279  0.14596  Biso   1.000  N
  N51      1.0000 0.56000  0.48035  0.19490  Biso   1.000  N
  N52      1.0000 0.40310  0.50495  0.20718  Biso   1.000  N
  N53      1.0000 0.97130  0.49190  0.21125  Biso   1.000  N
  N54      1.0000 0.13730  0.51541  0.22027  Biso   1.000  N
  C209     1.0000 0.62420  0.31856  0.99956  Biso   1.000  C
  C210     1.0000 0.58530  0.33670  0.01938  Biso   1.000  C
  C211     1.0000 0.47460  0.35021  0.01966  Biso   1.000  C
  H129     1.0000 0.42510  0.34780  0.00780  Biso   1.000  H
  C212     1.0000 0.43430  0.36754  0.03723  Biso   1.000  C
  C213     1.0000 0.50730  0.37123  0.05443  Biso   1.000  C
  H130     1.0000 0.48070  0.38290  0.06640  Biso   1.000  H
  C214     1.0000 0.62010  0.35778  0.05403  Biso   1.000  C
  C215     1.0000 0.65920  0.34059  0.03659  Biso   1.000  C
  H131     1.0000 0.73580  0.33150  0.03640  Biso   1.000  H
  C216     1.0000 0.70040  0.36340  0.07225  Biso   1.000  C
  C217     1.0000 0.95280  0.43710  0.11652  Biso   1.000  C
  H132     1.0000 0.00500  0.44080  0.10520  Biso   1.000  H
  C218     1.0000 0.94920  0.45540  0.13432  Biso   1.000  C
  H133     1.0000 0.99940  0.47320  0.13800  Biso   1.000  H
  C219     1.0000 0.81530  0.41678  0.13514  Biso   1.000  C
  H134     1.0000 0.75320  0.40300  0.13980  Biso   1.000  H
  C220     1.0000 0.82400  0.45508  0.16580  Biso   1.000  C
  C221     1.0000 0.91210  0.46470  0.17937  Biso   1.000  C
  H135     1.0000 0.99200  0.46090  0.17600  Biso   1.000  H
  C222     1.0000 0.88080  0.48008  0.19797  Biso   1.000  C
  C223     1.0000 0.76590  0.48481  0.20355  Biso   1.000  C
  H136     1.0000 0.74600  0.49500  0.21650  Biso   1.000  H
  C224     1.0000 0.68010  0.47431  0.18982  Biso   1.000  C
  C225     1.0000 0.70650  0.45948  0.17071  Biso   1.000  C
  H137     1.0000 0.64650  0.45260  0.16140  Biso   1.000  H
  C226     1.0000 0.46490  0.46082  0.18902  Biso   1.000  C
  H138     1.0000 0.46680  0.44090  0.18120  Biso   1.000  H
  C227     1.0000 0.36960  0.47619  0.19680  Biso   1.000  C
  H139     1.0000 0.29140  0.46850  0.19540  Biso   1.000  H
  C228     1.0000 0.51830  0.50654  0.20579  Biso   1.000  C
  H140     1.0000 0.56510  0.52360  0.21160  Biso   1.000  H
  C229     1.0000 0.97120  0.49374  0.23293  Biso   1.000  C
  H141     1.0000 0.91150  0.48640  0.24220  Biso   1.000  H
  C230     1.0000 0.07350  0.50514  0.20441  Biso   1.000  C
  H142     1.0000 0.09590  0.50680  0.19010  Biso   1.000  H
  C231     1.0000 0.07390  0.50824  0.23819  Biso   1.000  C
  H143     1.0000 0.09870  0.51280  0.25210  Biso   1.000  H
  C232     1.0000 0.22690  0.57075  0.18161  Biso   1.000  C
  C233     1.0000 0.17380  0.59861  0.16932  Biso   1.000  C
  C234     1.0000 0.17130  0.59835  0.14773  Biso   1.000  C
  H144     1.0000 0.20140  0.57980  0.14040  Biso   1.000  H
  Zn10     1.0000 0.29358  0.04002  0.71855  Biso   1.000  Zn
  O55      1.0000 0.55870  0.81684  0.48441  Biso   1.000  O
  O56      1.0000 0.72560  0.80633  0.49969  Biso   1.000  O
  O57      1.0000 0.79390  0.84638  0.57310  Biso   1.000  O
  O58      1.0000 0.67750  0.88480  0.58554  Biso   1.000  O
  O59      1.0000 0.24010  0.04320  0.67338  Biso   1.000  O
  O60      1.0000 0.25360  0.07749  0.70046  Biso   1.000  O
  N55      1.0000 0.87190  0.91302  0.61724  Biso   1.000  N
  N56      1.0000 0.85730  0.94279  0.64596  Biso   1.000  N
  N57      1.0000 0.56000  0.98035  0.69490  Biso   1.000  N
  N58      1.0000 0.40310  0.00495  0.70718  Biso   1.000  N
  N59      1.0000 0.97130  0.99190  0.71125  Biso   1.000  N
  N60      1.0000 0.13730  0.01541  0.72027  Biso   1.000  N
  C235     1.0000 0.62420  0.81856  0.49956  Biso   1.000  C
  C236     1.0000 0.58530  0.83670  0.51938  Biso   1.000  C
  C237     1.0000 0.47460  0.85021  0.51966  Biso   1.000  C
  H145     1.0000 0.42510  0.84780  0.50780  Biso   1.000  H
  C238     1.0000 0.43430  0.86754  0.53723  Biso   1.000  C
  C239     1.0000 0.50730  0.87123  0.55443  Biso   1.000  C
  H146     1.0000 0.48070  0.88290  0.56640  Biso   1.000  H
  C240     1.0000 0.62010  0.85778  0.55403  Biso   1.000  C
  C241     1.0000 0.65920  0.84059  0.53659  Biso   1.000  C
  H147     1.0000 0.73580  0.83150  0.53640  Biso   1.000  H
  C242     1.0000 0.70040  0.86340  0.57225  Biso   1.000  C
  C243     1.0000 0.95280  0.93710  0.61652  Biso   1.000  C
  H148     1.0000 0.00500  0.94080  0.60520  Biso   1.000  H
  C244     1.0000 0.94920  0.95540  0.63432  Biso   1.000  C
  H149     1.0000 0.99940  0.97320  0.63800  Biso   1.000  H
  C245     1.0000 0.81530  0.91678  0.63514  Biso   1.000  C
  H150     1.0000 0.75320  0.90300  0.63980  Biso   1.000  H
  C246     1.0000 0.82400  0.95508  0.66580  Biso   1.000  C
  C247     1.0000 0.91210  0.96470  0.67937  Biso   1.000  C
  H151     1.0000 0.99200  0.96090  0.67600  Biso   1.000  H
  C248     1.0000 0.88080  0.98008  0.69797  Biso   1.000  C
  C249     1.0000 0.76590  0.98481  0.70355  Biso   1.000  C
  H152     1.0000 0.74600  0.99500  0.71650  Biso   1.000  H
  C250     1.0000 0.68010  0.97431  0.68982  Biso   1.000  C
  C251     1.0000 0.70650  0.95948  0.67071  Biso   1.000  C
  H153     1.0000 0.64650  0.95260  0.66140  Biso   1.000  H
  C252     1.0000 0.46490  0.96082  0.68902  Biso   1.000  C
  H154     1.0000 0.46680  0.94090  0.68120  Biso   1.000  H
  C253     1.0000 0.36960  0.97619  0.69680  Biso   1.000  C
  H155     1.0000 0.29140  0.96850  0.69540  Biso   1.000  H
  C254     1.0000 0.51830  0.00654  0.70579  Biso   1.000  C
  H156     1.0000 0.56510  0.02360  0.71160  Biso   1.000  H
  C255     1.0000 0.97120  0.99374  0.73293  Biso   1.000  C
  H157     1.0000 0.91150  0.98640  0.74220  Biso   1.000  H
  C256     1.0000 0.07350  0.00514  0.70441  Biso   1.000  C
  H158     1.0000 0.09590  0.00680  0.69010  Biso   1.000  H
  C257     1.0000 0.07390  0.00824  0.73819  Biso   1.000  C
  H159     1.0000 0.09870  0.01280  0.75210  Biso   1.000  H
  C258     1.0000 0.22690  0.07075  0.68161  Biso   1.000  C
  C259     1.0000 0.17380  0.09861  0.66932  Biso   1.000  C
  C260     1.0000 0.17130  0.09835  0.64773  Biso   1.000  C
  H160     1.0000 0.20140  0.07980  0.64040  Biso   1.000  H
  Zn11     1.0000 0.79358  0.54002  0.71855  Biso   1.000  Zn
  O61      1.0000 0.05870  0.31684  0.48441  Biso   1.000  O
  O62      1.0000 0.22560  0.30633  0.49969  Biso   1.000  O
  O63      1.0000 0.29390  0.34638  0.57310  Biso   1.000  O
  O64      1.0000 0.17750  0.38480  0.58554  Biso   1.000  O
  O65      1.0000 0.74010  0.54320  0.67338  Biso   1.000  O
  O66      1.0000 0.75360  0.57749  0.70046  Biso   1.000  O
  N61      1.0000 0.37190  0.41302  0.61724  Biso   1.000  N
  N62      1.0000 0.35730  0.44279  0.64596  Biso   1.000  N
  N63      1.0000 0.06000  0.48035  0.69490  Biso   1.000  N
  N64      1.0000 0.90310  0.50495  0.70718  Biso   1.000  N
  N65      1.0000 0.47130  0.49190  0.71125  Biso   1.000  N
  N66      1.0000 0.63730  0.51541  0.72027  Biso   1.000  N
  C261     1.0000 0.12420  0.31856  0.49956  Biso   1.000  C
  C262     1.0000 0.08530  0.33670  0.51938  Biso   1.000  C
  C263     1.0000 0.97460  0.35021  0.51966  Biso   1.000  C
  H161     1.0000 0.92510  0.34780  0.50780  Biso   1.000  H
  C264     1.0000 0.93430  0.36754  0.53723  Biso   1.000  C
  C265     1.0000 0.00730  0.37123  0.55443  Biso   1.000  C
  H162     1.0000 0.98070  0.38290  0.56640  Biso   1.000  H
  C266     1.0000 0.12010  0.35778  0.55403  Biso   1.000  C
  C267     1.0000 0.15920  0.34059  0.53659  Biso   1.000  C
  H163     1.0000 0.23580  0.33150  0.53640  Biso   1.000  H
  C268     1.0000 0.20040  0.36340  0.57225  Biso   1.000  C
  C269     1.0000 0.45280  0.43710  0.61652  Biso   1.000  C
  H164     1.0000 0.50500  0.44080  0.60520  Biso   1.000  H
  C270     1.0000 0.44920  0.45540  0.63432  Biso   1.000  C
  H165     1.0000 0.49940  0.47320  0.63800  Biso   1.000  H
  C271     1.0000 0.31530  0.41678  0.63514  Biso   1.000  C
  H166     1.0000 0.25320  0.40300  0.63980  Biso   1.000  H
  C272     1.0000 0.32400  0.45508  0.66580  Biso   1.000  C
  C273     1.0000 0.41210  0.46470  0.67937  Biso   1.000  C
  H167     1.0000 0.49200  0.46090  0.67600  Biso   1.000  H
  C274     1.0000 0.38080  0.48008  0.69797  Biso   1.000  C
  C275     1.0000 0.26590  0.48481  0.70355  Biso   1.000  C
  H168     1.0000 0.24600  0.49500  0.71650  Biso   1.000  H
  C276     1.0000 0.18010  0.47431  0.68982  Biso   1.000  C
  C277     1.0000 0.20650  0.45948  0.67071  Biso   1.000  C
  H169     1.0000 0.14650  0.45260  0.66140  Biso   1.000  H
  C278     1.0000 0.96490  0.46082  0.68902  Biso   1.000  C
  H170     1.0000 0.96680  0.44090  0.68120  Biso   1.000  H
  C279     1.0000 0.86960  0.47619  0.69680  Biso   1.000  C
  H171     1.0000 0.79140  0.46850  0.69540  Biso   1.000  H
  C280     1.0000 0.01830  0.50654  0.70579  Biso   1.000  C
  H172     1.0000 0.06510  0.52360  0.71160  Biso   1.000  H
  C281     1.0000 0.47120  0.49374  0.73293  Biso   1.000  C
  H173     1.0000 0.41150  0.48640  0.74220  Biso   1.000  H
  C282     1.0000 0.57350  0.50514  0.70441  Biso   1.000  C
  H174     1.0000 0.59590  0.50680  0.69010  Biso   1.000  H
  C283     1.0000 0.57390  0.50824  0.73819  Biso   1.000  C
  H175     1.0000 0.59870  0.51280  0.75210  Biso   1.000  H
  C284     1.0000 0.72690  0.57075  0.68161  Biso   1.000  C
  C285     1.0000 0.67380  0.59861  0.66932  Biso   1.000  C
  C286     1.0000 0.67130  0.59835  0.64773  Biso   1.000  C
  H176     1.0000 0.70140  0.57980  0.64040  Biso   1.000  H
  Zn12     1.0000 0.79358  0.04002  0.21855  Biso   1.000  Zn
  O67      1.0000 0.05870  0.81684  0.98441  Biso   1.000  O
  O68      1.0000 0.22560  0.80633  0.99969  Biso   1.000  O
  O69      1.0000 0.29390  0.84638  0.07310  Biso   1.000  O
  O70      1.0000 0.17750  0.88480  0.08554  Biso   1.000  O
  O71      1.0000 0.74010  0.04320  0.17338  Biso   1.000  O
  O72      1.0000 0.75360  0.07749  0.20046  Biso   1.000  O
  N67      1.0000 0.37190  0.91302  0.11724  Biso   1.000  N
  N68      1.0000 0.35730  0.94279  0.14596  Biso   1.000  N
  N69      1.0000 0.06000  0.98035  0.19490  Biso   1.000  N
  N70      1.0000 0.90310  0.00495  0.20718  Biso   1.000  N
  N71      1.0000 0.47130  0.99190  0.21125  Biso   1.000  N
  N72      1.0000 0.63730  0.01541  0.22027  Biso   1.000  N
  C287     1.0000 0.12420  0.81856  0.99956  Biso   1.000  C
  C288     1.0000 0.08530  0.83670  0.01938  Biso   1.000  C
  C289     1.0000 0.97460  0.85021  0.01966  Biso   1.000  C
  H177     1.0000 0.92510  0.84780  0.00780  Biso   1.000  H
  C290     1.0000 0.93430  0.86754  0.03723  Biso   1.000  C
  C291     1.0000 0.00730  0.87123  0.05443  Biso   1.000  C
  H178     1.0000 0.98070  0.88290  0.06640  Biso   1.000  H
  C292     1.0000 0.12010  0.85778  0.05403  Biso   1.000  C
  C293     1.0000 0.15920  0.84059  0.03659  Biso   1.000  C
  H179     1.0000 0.23580  0.83150  0.03640  Biso   1.000  H
  C294     1.0000 0.20040  0.86340  0.07225  Biso   1.000  C
  C295     1.0000 0.45280  0.93710  0.11652  Biso   1.000  C
  H180     1.0000 0.50500  0.94080  0.10520  Biso   1.000  H
  C296     1.0000 0.44920  0.95540  0.13432  Biso   1.000  C
  H181     1.0000 0.49940  0.97320  0.13800  Biso   1.000  H
  C297     1.0000 0.31530  0.91678  0.13514  Biso   1.000  C
  H182     1.0000 0.25320  0.90300  0.13980  Biso   1.000  H
  C298     1.0000 0.32400  0.95508  0.16580  Biso   1.000  C
  C299     1.0000 0.41210  0.96470  0.17937  Biso   1.000  C
  H183     1.0000 0.49200  0.96090  0.17600  Biso   1.000  H
  C300     1.0000 0.38080  0.98008  0.19797  Biso   1.000  C
  C301     1.0000 0.26590  0.98481  0.20355  Biso   1.000  C
  H184     1.0000 0.24600  0.99500  0.21650  Biso   1.000  H
  C302     1.0000 0.18010  0.97431  0.18982  Biso   1.000  C
  C303     1.0000 0.20650  0.95948  0.17071  Biso   1.000  C
  H185     1.0000 0.14650  0.95260  0.16140  Biso   1.000  H
  C304     1.0000 0.96490  0.96082  0.18902  Biso   1.000  C
  H186     1.0000 0.96680  0.94090  0.18120  Biso   1.000  H
  C305     1.0000 0.86960  0.97619  0.19680  Biso   1.000  C
  H187     1.0000 0.79140  0.96850  0.19540  Biso   1.000  H
  C306     1.0000 0.01830  0.00654  0.20579  Biso   1.000  C
  H188     1.0000 0.06510  0.02360  0.21160  Biso   1.000  H
  C307     1.0000 0.47120  0.99374  0.23293  Biso   1.000  C
  H189     1.0000 0.41150  0.98640  0.24220  Biso   1.000  H
  C308     1.0000 0.57350  0.00514  0.20441  Biso   1.000  C
  H190     1.0000 0.59590  0.00680  0.19010  Biso   1.000  H
  C309     1.0000 0.57390  0.00824  0.23819  Biso   1.000  C
  H191     1.0000 0.59870  0.01280  0.25210  Biso   1.000  H
  C310     1.0000 0.72690  0.07075  0.18161  Biso   1.000  C
  C311     1.0000 0.67380  0.09861  0.16932  Biso   1.000  C
  C312     1.0000 0.67130  0.09835  0.14773  Biso   1.000  C
  H192     1.0000 0.70140  0.07980  0.14040  Biso   1.000  H
  Zn13     1.0000 0.45642  0.20998  0.21855  Biso   1.000  Zn
  O73      1.0000 0.19130  0.43316  0.98441  Biso   1.000  O
  O74      1.0000 0.02440  0.44367  0.99969  Biso   1.000  O
  O75      1.0000 0.95610  0.40362  0.07310  Biso   1.000  O
  O76      1.0000 0.07250  0.36520  0.08554  Biso   1.000  O
  O77      1.0000 0.50990  0.20680  0.17338  Biso   1.000  O
  O78      1.0000 0.49640  0.17251  0.20046  Biso   1.000  O
  N73      1.0000 0.87810  0.33698  0.11724  Biso   1.000  N
  N74      1.0000 0.89270  0.30721  0.14596  Biso   1.000  N
  N75      1.0000 0.19000  0.26965  0.19490  Biso   1.000  N
  N76      1.0000 0.34690  0.24505  0.20718  Biso   1.000  N
  N77      1.0000 0.77870  0.25810  0.21125  Biso   1.000  N
  N78      1.0000 0.61270  0.23459  0.22027  Biso   1.000  N
  C313     1.0000 0.12580  0.43144  0.99956  Biso   1.000  C
  C314     1.0000 0.16470  0.41330  0.01938  Biso   1.000  C
  C315     1.0000 0.27540  0.39979  0.01966  Biso   1.000  C
  H193     1.0000 0.32490  0.40220  0.00780  Biso   1.000  H
  C316     1.0000 0.31570  0.38246  0.03723  Biso   1.000  C
  C317     1.0000 0.24270  0.37877  0.05443  Biso   1.000  C
  H194     1.0000 0.26930  0.36710  0.06640  Biso   1.000  H
  C318     1.0000 0.12990  0.39222  0.05403  Biso   1.000  C
  C319     1.0000 0.09080  0.40941  0.03659  Biso   1.000  C
  H195     1.0000 0.01420  0.41850  0.03640  Biso   1.000  H
  C320     1.0000 0.04960  0.38660  0.07225  Biso   1.000  C
  C321     1.0000 0.79720  0.31290  0.11652  Biso   1.000  C
  H196     1.0000 0.74500  0.30920  0.10520  Biso   1.000  H
  C322     1.0000 0.80080  0.29460  0.13432  Biso   1.000  C
  H197     1.0000 0.75060  0.27680  0.13800  Biso   1.000  H
  C323     1.0000 0.93470  0.33322  0.13514  Biso   1.000  C
  H198     1.0000 0.99680  0.34700  0.13980  Biso   1.000  H
  C324     1.0000 0.92600  0.29492  0.16580  Biso   1.000  C
  C325     1.0000 0.83790  0.28530  0.17937  Biso   1.000  C
  H199     1.0000 0.75800  0.28910  0.17600  Biso   1.000  H
  C326     1.0000 0.86920  0.26992  0.19797  Biso   1.000  C
  C327     1.0000 0.98410  0.26519  0.20355  Biso   1.000  C
  H200     1.0000 0.00400  0.25500  0.21650  Biso   1.000  H
  C328     1.0000 0.06990  0.27569  0.18982  Biso   1.000  C
  C329     1.0000 0.04350  0.29052  0.17071  Biso   1.000  C
  H201     1.0000 0.10350  0.29740  0.16140  Biso   1.000  H
  C330     1.0000 0.28510  0.28918  0.18902  Biso   1.000  C
  H202     1.0000 0.28320  0.30910  0.18120  Biso   1.000  H
  C331     1.0000 0.38040  0.27381  0.19680  Biso   1.000  C
  H203     1.0000 0.45860  0.28150  0.19540  Biso   1.000  H
  C332     1.0000 0.23170  0.24346  0.20579  Biso   1.000  C
  H204     1.0000 0.18490  0.22640  0.21160  Biso   1.000  H
  C333     1.0000 0.77880  0.25626  0.23293  Biso   1.000  C
  H205     1.0000 0.83850  0.26360  0.24220  Biso   1.000  H
  C334     1.0000 0.67650  0.24486  0.20441  Biso   1.000  C
  H206     1.0000 0.65410  0.24320  0.19010  Biso   1.000  H
  C335     1.0000 0.67610  0.24176  0.23819  Biso   1.000  C
  H207     1.0000 0.65130  0.23720  0.25210  Biso   1.000  H
  C336     1.0000 0.52310  0.17925  0.18161  Biso   1.000  C
  C337     1.0000 0.57620  0.15139  0.16932  Biso   1.000  C
  C338     1.0000 0.57870  0.15165  0.14773  Biso   1.000  C
  H208     1.0000 0.54860  0.17020  0.14040  Biso   1.000  H
  Zn14     1.0000 0.45642  0.70998  0.71855  Biso   1.000  Zn
  O79      1.0000 0.19130  0.93316  0.48441  Biso   1.000  O
  O80      1.0000 0.02440  0.94367  0.49969  Biso   1.000  O
  O81      1.0000 0.95610  0.90362  0.57310  Biso   1.000  O
  O82      1.0000 0.07250  0.86520  0.58554  Biso   1.000  O
  O83      1.0000 0.50990  0.70680  0.67338  Biso   1.000  O
  O84      1.0000 0.49640  0.67251  0.70046  Biso   1.000  O
  N79      1.0000 0.87810  0.83698  0.61724  Biso   1.000  N
  N80      1.0000 0.89270  0.80721  0.64596  Biso   1.000  N
  N81      1.0000 0.19000  0.76965  0.69490  Biso   1.000  N
  N82      1.0000 0.34690  0.74505  0.70718  Biso   1.000  N
  N83      1.0000 0.77870  0.75810  0.71125  Biso   1.000  N
  N84      1.0000 0.61270  0.73459  0.72027  Biso   1.000  N
  C339     1.0000 0.12580  0.93144  0.49956  Biso   1.000  C
  C340     1.0000 0.16470  0.91330  0.51938  Biso   1.000  C
  C341     1.0000 0.27540  0.89979  0.51966  Biso   1.000  C
  H209     1.0000 0.32490  0.90220  0.50780  Biso   1.000  H
  C342     1.0000 0.31570  0.88246  0.53723  Biso   1.000  C
  C343     1.0000 0.24270  0.87877  0.55443  Biso   1.000  C
  H210     1.0000 0.26930  0.86710  0.56640  Biso   1.000  H
  C344     1.0000 0.12990  0.89222  0.55403  Biso   1.000  C
  C345     1.0000 0.09080  0.90941  0.53659  Biso   1.000  C
  H211     1.0000 0.01420  0.91850  0.53640  Biso   1.000  H
  C346     1.0000 0.04960  0.88660  0.57225  Biso   1.000  C
  C347     1.0000 0.79720  0.81290  0.61652  Biso   1.000  C
  H212     1.0000 0.74500  0.80920  0.60520  Biso   1.000  H
  C348     1.0000 0.80080  0.79460  0.63432  Biso   1.000  C
  H213     1.0000 0.75060  0.77680  0.63800  Biso   1.000  H
  C349     1.0000 0.93470  0.83322  0.63514  Biso   1.000  C
  H214     1.0000 0.99680  0.84700  0.63980  Biso   1.000  H
  C350     1.0000 0.92600  0.79492  0.66580  Biso   1.000  C
  C351     1.0000 0.83790  0.78530  0.67937  Biso   1.000  C
  H215     1.0000 0.75800  0.78910  0.67600  Biso   1.000  H
  C352     1.0000 0.86920  0.76992  0.69797  Biso   1.000  C
  C353     1.0000 0.98410  0.76519  0.70355  Biso   1.000  C
  H216     1.0000 0.00400  0.75500  0.71650  Biso   1.000  H
  C354     1.0000 0.06990  0.77569  0.68982  Biso   1.000  C
  C355     1.0000 0.04350  0.79052  0.67071  Biso   1.000  C
  H217     1.0000 0.10350  0.79740  0.66140  Biso   1.000  H
  C356     1.0000 0.28510  0.78918  0.68902  Biso   1.000  C
  H218     1.0000 0.28320  0.80910  0.68120  Biso   1.000  H
  C357     1.0000 0.38040  0.77381  0.69680  Biso   1.000  C
  H219     1.0000 0.45860  0.78150  0.69540  Biso   1.000  H
  C358     1.0000 0.23170  0.74346  0.70579  Biso   1.000  C
  H220     1.0000 0.18490  0.72640  0.71160  Biso   1.000  H
  C359     1.0000 0.77880  0.75626  0.73293  Biso   1.000  C
  H221     1.0000 0.83850  0.76360  0.74220  Biso   1.000  H
  C360     1.0000 0.67650  0.74486  0.70441  Biso   1.000  C
  H222     1.0000 0.65410  0.74320  0.69010  Biso   1.000  H
  C361     1.0000 0.67610  0.74176  0.73819  Biso   1.000  C
  H223     1.0000 0.65130  0.73720  0.75210  Biso   1.000  H
  C362     1.0000 0.52310  0.67925  0.68161  Biso   1.000  C
  C363     1.0000 0.57620  0.65139  0.66932  Biso   1.000  C
  C364     1.0000 0.57870  0.65165  0.64773  Biso   1.000  C
  H224     1.0000 0.54860  0.67020  0.64040  Biso   1.000  H
  Zn15     1.0000 0.95642  0.20998  0.71855  Biso   1.000  Zn
  O85      1.0000 0.69130  0.43316  0.48441  Biso   1.000  O
  O86      1.0000 0.52440  0.44367  0.49969  Biso   1.000  O
  O87      1.0000 0.45610  0.40362  0.57310  Biso   1.000  O
  O88      1.0000 0.57250  0.36520  0.58554  Biso   1.000  O
  O89      1.0000 0.00990  0.20680  0.67338  Biso   1.000  O
  O90      1.0000 0.99640  0.17251  0.70046  Biso   1.000  O
  N85      1.0000 0.37810  0.33698  0.61724  Biso   1.000  N
  N86      1.0000 0.39270  0.30721  0.64596  Biso   1.000  N
  N87      1.0000 0.69000  0.26965  0.69490  Biso   1.000  N
  N88      1.0000 0.84690  0.24505  0.70718  Biso   1.000  N
  N89      1.0000 0.27870  0.25810  0.71125  Biso   1.000  N
  N90      1.0000 0.11270  0.23459  0.72027  Biso   1.000  N
  C365     1.0000 0.62580  0.43144  0.49956  Biso   1.000  C
  C366     1.0000 0.66470  0.41330  0.51938  Biso   1.000  C
  C367     1.0000 0.77540  0.39979  0.51966  Biso   1.000  C
  H225     1.0000 0.82490  0.40220  0.50780  Biso   1.000  H
  C368     1.0000 0.81570  0.38246  0.53723  Biso   1.000  C
  C369     1.0000 0.74270  0.37877  0.55443  Biso   1.000  C
  H226     1.0000 0.76930  0.36710  0.56640  Biso   1.000  H
  C370     1.0000 0.62990  0.39222  0.55403  Biso   1.000  C
  C371     1.0000 0.59080  0.40941  0.53659  Biso   1.000  C
  H227     1.0000 0.51420  0.41850  0.53640  Biso   1.000  H
  C372     1.0000 0.54960  0.38660  0.57225  Biso   1.000  C
  C373     1.0000 0.29720  0.31290  0.61652  Biso   1.000  C
  H228     1.0000 0.24500  0.30920  0.60520  Biso   1.000  H
  C374     1.0000 0.30080  0.29460  0.63432  Biso   1.000  C
  H229     1.0000 0.25060  0.27680  0.63800  Biso   1.000  H
  C375     1.0000 0.43470  0.33322  0.63514  Biso   1.000  C
  H230     1.0000 0.49680  0.34700  0.63980  Biso   1.000  H
  C376     1.0000 0.42600  0.29492  0.66580  Biso   1.000  C
  C377     1.0000 0.33790  0.28530  0.67937  Biso   1.000  C
  H231     1.0000 0.25800  0.28910  0.67600  Biso   1.000  H
  C378     1.0000 0.36920  0.26992  0.69797  Biso   1.000  C
  C379     1.0000 0.48410  0.26519  0.70355  Biso   1.000  C
  H232     1.0000 0.50400  0.25500  0.71650  Biso   1.000  H
  C380     1.0000 0.56990  0.27569  0.68982  Biso   1.000  C
  C381     1.0000 0.54350  0.29052  0.67071  Biso   1.000  C
  H233     1.0000 0.60350  0.29740  0.66140  Biso   1.000  H
  C382     1.0000 0.78510  0.28918  0.68902  Biso   1.000  C
  H234     1.0000 0.78320  0.30910  0.68120  Biso   1.000  H
  C383     1.0000 0.88040  0.27381  0.69680  Biso   1.000  C
  H235     1.0000 0.95860  0.28150  0.69540  Biso   1.000  H
  C384     1.0000 0.73170  0.24346  0.70579  Biso   1.000  C
  H236     1.0000 0.68490  0.22640  0.71160  Biso   1.000  H
  C385     1.0000 0.27880  0.25626  0.73293  Biso   1.000  C
  H237     1.0000 0.33850  0.26360  0.74220  Biso   1.000  H
  C386     1.0000 0.17650  0.24486  0.70441  Biso   1.000  C
  H238     1.0000 0.15410  0.24320  0.69010  Biso   1.000  H
  C387     1.0000 0.17610  0.24176  0.73819  Biso   1.000  C
  H239     1.0000 0.15130  0.23720  0.75210  Biso   1.000  H
  C388     1.0000 0.02310  0.17925  0.68161  Biso   1.000  C
  C389     1.0000 0.07620  0.15139  0.66932  Biso   1.000  C
  C390     1.0000 0.07870  0.15165  0.64773  Biso   1.000  C
  H240     1.0000 0.04860  0.17020  0.64040  Biso   1.000  H
  Zn16     1.0000 0.95642  0.70998  0.21855  Biso   1.000  Zn
  O91      1.0000 0.69130  0.93316  0.98441  Biso   1.000  O
  O92      1.0000 0.52440  0.94367  0.99969  Biso   1.000  O
  O93      1.0000 0.45610  0.90362  0.07310  Biso   1.000  O
  O94      1.0000 0.57250  0.86520  0.08554  Biso   1.000  O
  O95      1.0000 0.00990  0.70680  0.17338  Biso   1.000  O
  O96      1.0000 0.99640  0.67251  0.20046  Biso   1.000  O
  N91      1.0000 0.37810  0.83698  0.11724  Biso   1.000  N
  N92      1.0000 0.39270  0.80721  0.14596  Biso   1.000  N
  N93      1.0000 0.69000  0.76965  0.19490  Biso   1.000  N
  N94      1.0000 0.84690  0.74505  0.20718  Biso   1.000  N
  N95      1.0000 0.27870  0.75810  0.21125  Biso   1.000  N
  N96      1.0000 0.11270  0.73459  0.22027  Biso   1.000  N
  C391     1.0000 0.62580  0.93144  0.99956  Biso   1.000  C
  C392     1.0000 0.66470  0.91330  0.01938  Biso   1.000  C
  C393     1.0000 0.77540  0.89979  0.01966  Biso   1.000  C
  H241     1.0000 0.82490  0.90220  0.00780  Biso   1.000  H
  C394     1.0000 0.81570  0.88246  0.03723  Biso   1.000  C
  C395     1.0000 0.74270  0.87877  0.05443  Biso   1.000  C
  H242     1.0000 0.76930  0.86710  0.06640  Biso   1.000  H
  C396     1.0000 0.62990  0.89222  0.05403  Biso   1.000  C
  C397     1.0000 0.59080  0.90941  0.03659  Biso   1.000  C
  H243     1.0000 0.51420  0.91850  0.03640  Biso   1.000  H
  C398     1.0000 0.54960  0.88660  0.07225  Biso   1.000  C
  C399     1.0000 0.29720  0.81290  0.11652  Biso   1.000  C
  H244     1.0000 0.24500  0.80920  0.10520  Biso   1.000  H
  C400     1.0000 0.30080  0.79460  0.13432  Biso   1.000  C
  H245     1.0000 0.25060  0.77680  0.13800  Biso   1.000  H
  C401     1.0000 0.43470  0.83322  0.13514  Biso   1.000  C
  H246     1.0000 0.49680  0.84700  0.13980  Biso   1.000  H
  C402     1.0000 0.42600  0.79492  0.16580  Biso   1.000  C
  C403     1.0000 0.33790  0.78530  0.17937  Biso   1.000  C
  H247     1.0000 0.25800  0.78910  0.17600  Biso   1.000  H
  C404     1.0000 0.36920  0.76992  0.19797  Biso   1.000  C
  C405     1.0000 0.48410  0.76519  0.20355  Biso   1.000  C
  H248     1.0000 0.50400  0.75500  0.21650  Biso   1.000  H
  C406     1.0000 0.56990  0.77569  0.18982  Biso   1.000  C
  C407     1.0000 0.54350  0.79052  0.17071  Biso   1.000  C
  H249     1.0000 0.60350  0.79740  0.16140  Biso   1.000  H
  C408     1.0000 0.78510  0.78918  0.18902  Biso   1.000  C
  H250     1.0000 0.78320  0.80910  0.18120  Biso   1.000  H
  C409     1.0000 0.88040  0.77381  0.19680  Biso   1.000  C
  H251     1.0000 0.95860  0.78150  0.19540  Biso   1.000  H
  C410     1.0000 0.73170  0.74346  0.20579  Biso   1.000  C
  H252     1.0000 0.68490  0.72640  0.21160  Biso   1.000  H
  C411     1.0000 0.27880  0.75626  0.23293  Biso   1.000  C
  H253     1.0000 0.33850  0.76360  0.24220  Biso   1.000  H
  C412     1.0000 0.17650  0.74486  0.20441  Biso   1.000  C
  H254     1.0000 0.15410  0.74320  0.19010  Biso   1.000  H
  C413     1.0000 0.17610  0.74176  0.23819  Biso   1.000  C
  H255     1.0000 0.15130  0.73720  0.25210  Biso   1.000  H
  C414     1.0000 0.02310  0.67925  0.18161  Biso   1.000  C
  C415     1.0000 0.07620  0.65139  0.16932  Biso   1.000  C
  C416     1.0000 0.07870  0.65165  0.14773  Biso   1.000  C
  H256     1.0000 0.04860  0.67020  0.14040  Biso   1.000  H
  Zn17     1.0000 0.54358  0.45998  0.46855  Biso   1.000  Zn
  O97      1.0000 0.80870  0.68316  0.23441  Biso   1.000  O
  O98      1.0000 0.97560  0.69367  0.24969  Biso   1.000  O
  O99      1.0000 0.04390  0.65362  0.32310  Biso   1.000  O
  O100     1.0000 0.92750  0.61520  0.33554  Biso   1.000  O
  O101     1.0000 0.49010  0.45680  0.42338  Biso   1.000  O
  O102     1.0000 0.50360  0.42251  0.45046  Biso   1.000  O
  N97      1.0000 0.12190  0.58698  0.36724  Biso   1.000  N
  N98      1.0000 0.10730  0.55721  0.39596  Biso   1.000  N
  N99      1.0000 0.81000  0.51965  0.44490  Biso   1.000  N
  N100     1.0000 0.65310  0.49505  0.45718  Biso   1.000  N
  N101     1.0000 0.22130  0.50810  0.46125  Biso   1.000  N
  N102     1.0000 0.38730  0.48459  0.47027  Biso   1.000  N
  C417     1.0000 0.87420  0.68144  0.24956  Biso   1.000  C
  C418     1.0000 0.83530  0.66330  0.26938  Biso   1.000  C
  C419     1.0000 0.72460  0.64979  0.26966  Biso   1.000  C
  H257     1.0000 0.67510  0.65220  0.25780  Biso   1.000  H
  C420     1.0000 0.68430  0.63246  0.28723  Biso   1.000  C
  C421     1.0000 0.75730  0.62877  0.30443  Biso   1.000  C
  H258     1.0000 0.73070  0.61710  0.31640  Biso   1.000  H
  C422     1.0000 0.87010  0.64222  0.30403  Biso   1.000  C
  C423     1.0000 0.90920  0.65941  0.28659  Biso   1.000  C
  H259     1.0000 0.98580  0.66850  0.28640  Biso   1.000  H
  C424     1.0000 0.95040  0.63660  0.32225  Biso   1.000  C
  C425     1.0000 0.20280  0.56290  0.36652  Biso   1.000  C
  H260     1.0000 0.25500  0.55920  0.35520  Biso   1.000  H
  C426     1.0000 0.19920  0.54460  0.38432  Biso   1.000  C
  H261     1.0000 0.24940  0.52680  0.38800  Biso   1.000  H
  C427     1.0000 0.06530  0.58322  0.38514  Biso   1.000  C
  H262     1.0000 0.00320  0.59700  0.38980  Biso   1.000  H
  C428     1.0000 0.07400  0.54492  0.41580  Biso   1.000  C
  C429     1.0000 0.16210  0.53530  0.42937  Biso   1.000  C
  H263     1.0000 0.24200  0.53910  0.42600  Biso   1.000  H
  C430     1.0000 0.13080  0.51992  0.44797  Biso   1.000  C
  C431     1.0000 0.01590  0.51519  0.45355  Biso   1.000  C
  H264     1.0000 0.99600  0.50500  0.46650  Biso   1.000  H
  C432     1.0000 0.93010  0.52569  0.43982  Biso   1.000  C
  C433     1.0000 0.95650  0.54052  0.42071  Biso   1.000  C
  H265     1.0000 0.89650  0.54740  0.41140  Biso   1.000  H
  C434     1.0000 0.71490  0.53918  0.43902  Biso   1.000  C
  H266     1.0000 0.71680  0.55910  0.43120  Biso   1.000  H
  C435     1.0000 0.61960  0.52381  0.44680  Biso   1.000  C
  H267     1.0000 0.54140  0.53150  0.44540  Biso   1.000  H
  C436     1.0000 0.76830  0.49346  0.45579  Biso   1.000  C
  H268     1.0000 0.81510  0.47640  0.46160  Biso   1.000  H
  C437     1.0000 0.22120  0.50626  0.48293  Biso   1.000  C
  H269     1.0000 0.16150  0.51360  0.49220  Biso   1.000  H
  C438     1.0000 0.32350  0.49486  0.45441  Biso   1.000  C
  H270     1.0000 0.34590  0.49320  0.44010  Biso   1.000  H
  C439     1.0000 0.32390  0.49176  0.48819  Biso   1.000  C
  H271     1.0000 0.34870  0.48720  0.50210  Biso   1.000  H
  C440     1.0000 0.47690  0.42925  0.43161  Biso   1.000  C
  C441     1.0000 0.42380  0.40139  0.41932  Biso   1.000  C
  C442     1.0000 0.42130  0.40165  0.39773  Biso   1.000  C
  H272     1.0000 0.45140  0.42020  0.39040  Biso   1.000  H
  Zn18     1.0000 0.54358  0.95998  0.96855  Biso   1.000  Zn
  O103     1.0000 0.80870  0.18316  0.73441  Biso   1.000  O
  O104     1.0000 0.97560  0.19367  0.74969  Biso   1.000  O
  O105     1.0000 0.04390  0.15362  0.82310  Biso   1.000  O
  O106     1.0000 0.92750  0.11520  0.83554  Biso   1.000  O
  O107     1.0000 0.49010  0.95680  0.92338  Biso   1.000  O
  O108     1.0000 0.50360  0.92251  0.95046  Biso   1.000  O
  N103     1.0000 0.12190  0.08698  0.86724  Biso   1.000  N
  N104     1.0000 0.10730  0.05721  0.89596  Biso   1.000  N
  N105     1.0000 0.81000  0.01965  0.94490  Biso   1.000  N
  N106     1.0000 0.65310  0.99505  0.95718  Biso   1.000  N
  N107     1.0000 0.22130  0.00810  0.96125  Biso   1.000  N
  N108     1.0000 0.38730  0.98459  0.97027  Biso   1.000  N
  C443     1.0000 0.87420  0.18144  0.74956  Biso   1.000  C
  C444     1.0000 0.83530  0.16330  0.76938  Biso   1.000  C
  C445     1.0000 0.72460  0.14979  0.76966  Biso   1.000  C
  H273     1.0000 0.67510  0.15220  0.75780  Biso   1.000  H
  C446     1.0000 0.68430  0.13246  0.78723  Biso   1.000  C
  C447     1.0000 0.75730  0.12877  0.80443  Biso   1.000  C
  H274     1.0000 0.73070  0.11710  0.81640  Biso   1.000  H
  C448     1.0000 0.87010  0.14222  0.80403  Biso   1.000  C
  C449     1.0000 0.90920  0.15941  0.78659  Biso   1.000  C
  H275     1.0000 0.98580  0.16850  0.78640  Biso   1.000  H
  C450     1.0000 0.95040  0.13660  0.82225  Biso   1.000  C
  C451     1.0000 0.20280  0.06290  0.86652  Biso   1.000  C
  H276     1.0000 0.25500  0.05920  0.85520  Biso   1.000  H
  C452     1.0000 0.19920  0.04460  0.88432  Biso   1.000  C
  H277     1.0000 0.24940  0.02680  0.88800  Biso   1.000  H
  C453     1.0000 0.06530  0.08322  0.88514  Biso   1.000  C
  H278     1.0000 0.00320  0.09700  0.88980  Biso   1.000  H
  C454     1.0000 0.07400  0.04492  0.91580  Biso   1.000  C
  C455     1.0000 0.16210  0.03530  0.92937  Biso   1.000  C
  H279     1.0000 0.24200  0.03910  0.92600  Biso   1.000  H
  C456     1.0000 0.13080  0.01992  0.94797  Biso   1.000  C
  C457     1.0000 0.01590  0.01519  0.95355  Biso   1.000  C
  H280     1.0000 0.99600  0.00500  0.96650  Biso   1.000  H
  C458     1.0000 0.93010  0.02569  0.93982  Biso   1.000  C
  C459     1.0000 0.95650  0.04052  0.92071  Biso   1.000  C
  H281     1.0000 0.89650  0.04740  0.91140  Biso   1.000  H
  C460     1.0000 0.71490  0.03918  0.93902  Biso   1.000  C
  H282     1.0000 0.71680  0.05910  0.93120  Biso   1.000  H
  C461     1.0000 0.61960  0.02381  0.94680  Biso   1.000  C
  H283     1.0000 0.54140  0.03150  0.94540  Biso   1.000  H
  C462     1.0000 0.76830  0.99346  0.95579  Biso   1.000  C
  H284     1.0000 0.81510  0.97640  0.96160  Biso   1.000  H
  C463     1.0000 0.22120  0.00626  0.98293  Biso   1.000  C
  H285     1.0000 0.16150  0.01360  0.99220  Biso   1.000  H
  C464     1.0000 0.32350  0.99486  0.95441  Biso   1.000  C
  H286     1.0000 0.34590  0.99320  0.94010  Biso   1.000  H
  C465     1.0000 0.32390  0.99176  0.98819  Biso   1.000  C
  H287     1.0000 0.34870  0.98720  0.00210  Biso   1.000  H
  C466     1.0000 0.47690  0.92925  0.93161  Biso   1.000  C
  C467     1.0000 0.42380  0.90139  0.91932  Biso   1.000  C
  C468     1.0000 0.42130  0.90165  0.89773  Biso   1.000  C
  H288     1.0000 0.45140  0.92020  0.89040  Biso   1.000  H
  Zn19     1.0000 0.04358  0.45998  0.96855  Biso   1.000  Zn
  O109     1.0000 0.30870  0.68316  0.73441  Biso   1.000  O
  O110     1.0000 0.47560  0.69367  0.74969  Biso   1.000  O
  O111     1.0000 0.54390  0.65362  0.82310  Biso   1.000  O
  O112     1.0000 0.42750  0.61520  0.83554  Biso   1.000  O
  O113     1.0000 0.99010  0.45680  0.92338  Biso   1.000  O
  O114     1.0000 0.00360  0.42251  0.95046  Biso   1.000  O
  N109     1.0000 0.62190  0.58698  0.86724  Biso   1.000  N
  N110     1.0000 0.60730  0.55721  0.89596  Biso   1.000  N
  N111     1.0000 0.31000  0.51965  0.94490  Biso   1.000  N
  N112     1.0000 0.15310  0.49505  0.95718  Biso   1.000  N
  N113     1.0000 0.72130  0.50810  0.96125  Biso   1.000  N
  N114     1.0000 0.88730  0.48459  0.97027  Biso   1.000  N
  C469     1.0000 0.37420  0.68144  0.74956  Biso   1.000  C
  C470     1.0000 0.33530  0.66330  0.76938  Biso   1.000  C
  C471     1.0000 0.22460  0.64979  0.76966  Biso   1.000  C
  H289     1.0000 0.17510  0.65220  0.75780  Biso   1.000  H
  C472     1.0000 0.18430  0.63246  0.78723  Biso   1.000  C
  C473     1.0000 0.25730  0.62877  0.80443  Biso   1.000  C
  H290     1.0000 0.23070  0.61710  0.81640  Biso   1.000  H
  C474     1.0000 0.37010  0.64222  0.80403  Biso   1.000  C
  C475     1.0000 0.40920  0.65941  0.78659  Biso   1.000  C
  H291     1.0000 0.48580  0.66850  0.78640  Biso   1.000  H
  C476     1.0000 0.45040  0.63660  0.82225  Biso   1.000  C
  C477     1.0000 0.70280  0.56290  0.86652  Biso   1.000  C
  H292     1.0000 0.75500  0.55920  0.85520  Biso   1.000  H
  C478     1.0000 0.69920  0.54460  0.88432  Biso   1.000  C
  H293     1.0000 0.74940  0.52680  0.88800  Biso   1.000  H
  C479     1.0000 0.56530  0.58322  0.88514  Biso   1.000  C
  H294     1.0000 0.50320  0.59700  0.88980  Biso   1.000  H
  C480     1.0000 0.57400  0.54492  0.91580  Biso   1.000  C
  C481     1.0000 0.66210  0.53530  0.92937  Biso   1.000  C
  H295     1.0000 0.74200  0.53910  0.92600  Biso   1.000  H
  C482     1.0000 0.63080  0.51992  0.94797  Biso   1.000  C
  C483     1.0000 0.51590  0.51519  0.95355  Biso   1.000  C
  H296     1.0000 0.49600  0.50500  0.96650  Biso   1.000  H
  C484     1.0000 0.43010  0.52569  0.93982  Biso   1.000  C
  C485     1.0000 0.45650  0.54052  0.92071  Biso   1.000  C
  H297     1.0000 0.39650  0.54740  0.91140  Biso   1.000  H
  C486     1.0000 0.21490  0.53918  0.93902  Biso   1.000  C
  H298     1.0000 0.21680  0.55910  0.93120  Biso   1.000  H
  C487     1.0000 0.11960  0.52381  0.94680  Biso   1.000  C
  H299     1.0000 0.04140  0.53150  0.94540  Biso   1.000  H
  C488     1.0000 0.26830  0.49346  0.95579  Biso   1.000  C
  H300     1.0000 0.31510  0.47640  0.96160  Biso   1.000  H
  C489     1.0000 0.72120  0.50626  0.98293  Biso   1.000  C
  H301     1.0000 0.66150  0.51360  0.99220  Biso   1.000  H
  C490     1.0000 0.82350  0.49486  0.95441  Biso   1.000  C
  H302     1.0000 0.84590  0.49320  0.94010  Biso   1.000  H
  C491     1.0000 0.82390  0.49176  0.98819  Biso   1.000  C
  H303     1.0000 0.84870  0.48720  0.00210  Biso   1.000  H
  C492     1.0000 0.97690  0.42925  0.93161  Biso   1.000  C
  C493     1.0000 0.92380  0.40139  0.91932  Biso   1.000  C
  C494     1.0000 0.92130  0.40165  0.89773  Biso   1.000  C
  H304     1.0000 0.95140  0.42020  0.89040  Biso   1.000  H
  Zn20     1.0000 0.04358  0.95998  0.46855  Biso   1.000  Zn
  O115     1.0000 0.30870  0.18316  0.23441  Biso   1.000  O
  O116     1.0000 0.47560  0.19367  0.24969  Biso   1.000  O
  O117     1.0000 0.54390  0.15362  0.32310  Biso   1.000  O
  O118     1.0000 0.42750  0.11520  0.33554  Biso   1.000  O
  O119     1.0000 0.99010  0.95680  0.42338  Biso   1.000  O
  O120     1.0000 0.00360  0.92251  0.45046  Biso   1.000  O
  N115     1.0000 0.62190  0.08698  0.36724  Biso   1.000  N
  N116     1.0000 0.60730  0.05721  0.39596  Biso   1.000  N
  N117     1.0000 0.31000  0.01965  0.44490  Biso   1.000  N
  N118     1.0000 0.15310  0.99505  0.45718  Biso   1.000  N
  N119     1.0000 0.72130  0.00810  0.46125  Biso   1.000  N
  N120     1.0000 0.88730  0.98459  0.47027  Biso   1.000  N
  C495     1.0000 0.37420  0.18144  0.24956  Biso   1.000  C
  C496     1.0000 0.33530  0.16330  0.26938  Biso   1.000  C
  C497     1.0000 0.22460  0.14979  0.26966  Biso   1.000  C
  H305     1.0000 0.17510  0.15220  0.25780  Biso   1.000  H
  C498     1.0000 0.18430  0.13246  0.28723  Biso   1.000  C
  C499     1.0000 0.25730  0.12877  0.30443  Biso   1.000  C
  H306     1.0000 0.23070  0.11710  0.31640  Biso   1.000  H
  C500     1.0000 0.37010  0.14222  0.30403  Biso   1.000  C
  C501     1.0000 0.40920  0.15941  0.28659  Biso   1.000  C
  H307     1.0000 0.48580  0.16850  0.28640  Biso   1.000  H
  C502     1.0000 0.45040  0.13660  0.32225  Biso   1.000  C
  C503     1.0000 0.70280  0.06290  0.36652  Biso   1.000  C
  H308     1.0000 0.75500  0.05920  0.35520  Biso   1.000  H
  C504     1.0000 0.69920  0.04460  0.38432  Biso   1.000  C
  H309     1.0000 0.74940  0.02680  0.38800  Biso   1.000  H
  C505     1.0000 0.56530  0.08322  0.38514  Biso   1.000  C
  H310     1.0000 0.50320  0.09700  0.38980  Biso   1.000  H
  C506     1.0000 0.57400  0.04492  0.41580  Biso   1.000  C
  C507     1.0000 0.66210  0.03530  0.42937  Biso   1.000  C
  H311     1.0000 0.74200  0.03910  0.42600  Biso   1.000  H
  C508     1.0000 0.63080  0.01992  0.44797  Biso   1.000  C
  C509     1.0000 0.51590  0.01519  0.45355  Biso   1.000  C
  H312     1.0000 0.49600  0.00500  0.46650  Biso   1.000  H
  C510     1.0000 0.43010  0.02569  0.43982  Biso   1.000  C
  C511     1.0000 0.45650  0.04052  0.42071  Biso   1.000  C
  H313     1.0000 0.39650  0.04740  0.41140  Biso   1.000  H
  C512     1.0000 0.21490  0.03918  0.43902  Biso   1.000  C
  H314     1.0000 0.21680  0.05910  0.43120  Biso   1.000  H
  C513     1.0000 0.11960  0.02381  0.44680  Biso   1.000  C
  H315     1.0000 0.04140  0.03150  0.44540  Biso   1.000  H
  C514     1.0000 0.26830  0.99346  0.45579  Biso   1.000  C
  H316     1.0000 0.31510  0.97640  0.46160  Biso   1.000  H
  C515     1.0000 0.72120  0.00626  0.48293  Biso   1.000  C
  H317     1.0000 0.66150  0.01360  0.49220  Biso   1.000  H
  C516     1.0000 0.82350  0.99486  0.45441  Biso   1.000  C
  H318     1.0000 0.84590  0.99320  0.44010  Biso   1.000  H
  C517     1.0000 0.82390  0.99176  0.48819  Biso   1.000  C
  H319     1.0000 0.84870  0.98720  0.50210  Biso   1.000  H
  C518     1.0000 0.97690  0.92925  0.43161  Biso   1.000  C
  C519     1.0000 0.92380  0.90139  0.41932  Biso   1.000  C
  C520     1.0000 0.92130  0.90165  0.39773  Biso   1.000  C
  H320     1.0000 0.95140  0.92020  0.39040  Biso   1.000  H
  Zn21     1.0000 0.70642  0.79002  0.46855  Biso   1.000  Zn
  O121     1.0000 0.44130  0.56684  0.23441  Biso   1.000  O
  O122     1.0000 0.27440  0.55633  0.24969  Biso   1.000  O
  O123     1.0000 0.20610  0.59638  0.32310  Biso   1.000  O
  O124     1.0000 0.32250  0.63480  0.33554  Biso   1.000  O
  O125     1.0000 0.75990  0.79320  0.42338  Biso   1.000  O
  O126     1.0000 0.74640  0.82749  0.45046  Biso   1.000  O
  N121     1.0000 0.12810  0.66302  0.36724  Biso   1.000  N
  N122     1.0000 0.14270  0.69279  0.39596  Biso   1.000  N
  N123     1.0000 0.44000  0.73035  0.44490  Biso   1.000  N
  N124     1.0000 0.59690  0.75495  0.45718  Biso   1.000  N
  N125     1.0000 0.02870  0.74190  0.46125  Biso   1.000  N
  N126     1.0000 0.86270  0.76541  0.47027  Biso   1.000  N
  C521     1.0000 0.37580  0.56856  0.24956  Biso   1.000  C
  C522     1.0000 0.41470  0.58670  0.26938  Biso   1.000  C
  C523     1.0000 0.52540  0.60021  0.26966  Biso   1.000  C
  H321     1.0000 0.57490  0.59780  0.25780  Biso   1.000  H
  C524     1.0000 0.56570  0.61754  0.28723  Biso   1.000  C
  C525     1.0000 0.49270  0.62123  0.30443  Biso   1.000  C
  H322     1.0000 0.51930  0.63290  0.31640  Biso   1.000  H
  C526     1.0000 0.37990  0.60778  0.30403  Biso   1.000  C
  C527     1.0000 0.34080  0.59059  0.28659  Biso   1.000  C
  H323     1.0000 0.26420  0.58150  0.28640  Biso   1.000  H
  C528     1.0000 0.29960  0.61340  0.32225  Biso   1.000  C
  C529     1.0000 0.04720  0.68710  0.36652  Biso   1.000  C
  H324     1.0000 0.99500  0.69080  0.35520  Biso   1.000  H
  C530     1.0000 0.05080  0.70540  0.38432  Biso   1.000  C
  H325     1.0000 0.00060  0.72320  0.38800  Biso   1.000  H
  C531     1.0000 0.18470  0.66678  0.38514  Biso   1.000  C
  H326     1.0000 0.24680  0.65300  0.38980  Biso   1.000  H
  C532     1.0000 0.17600  0.70508  0.41580  Biso   1.000  C
  C533     1.0000 0.08790  0.71470  0.42937  Biso   1.000  C
  H327     1.0000 0.00800  0.71090  0.42600  Biso   1.000  H
  C534     1.0000 0.11920  0.73008  0.44797  Biso   1.000  C
  C535     1.0000 0.23410  0.73481  0.45355  Biso   1.000  C
  H328     1.0000 0.25400  0.74500  0.46650  Biso   1.000  H
  C536     1.0000 0.31990  0.72431  0.43982  Biso   1.000  C
  C537     1.0000 0.29350  0.70948  0.42071  Biso   1.000  C
  H329     1.0000 0.35350  0.70260  0.41140  Biso   1.000  H
  C538     1.0000 0.53510  0.71082  0.43902  Biso   1.000  C
  H330     1.0000 0.53320  0.69090  0.43120  Biso   1.000  H
  C539     1.0000 0.63040  0.72619  0.44680  Biso   1.000  C
  H331     1.0000 0.70860  0.71850  0.44540  Biso   1.000  H
  C540     1.0000 0.48170  0.75654  0.45579  Biso   1.000  C
  H332     1.0000 0.43490  0.77360  0.46160  Biso   1.000  H
  C541     1.0000 0.02880  0.74374  0.48293  Biso   1.000  C
  H333     1.0000 0.08850  0.73640  0.49220  Biso   1.000  H
  C542     1.0000 0.92650  0.75514  0.45441  Biso   1.000  C
  H334     1.0000 0.90410  0.75680  0.44010  Biso   1.000  H
  C543     1.0000 0.92610  0.75824  0.48819  Biso   1.000  C
  H335     1.0000 0.90130  0.76280  0.50210  Biso   1.000  H
  C544     1.0000 0.77310  0.82075  0.43161  Biso   1.000  C
  C545     1.0000 0.82620  0.84861  0.41932  Biso   1.000  C
  C546     1.0000 0.82870  0.84835  0.39773  Biso   1.000  C
  H336     1.0000 0.79860  0.82980  0.39040  Biso   1.000  H
  Zn22     1.0000 0.70642  0.29002  0.96855  Biso   1.000  Zn
  O127     1.0000 0.44130  0.06684  0.73441  Biso   1.000  O
  O128     1.0000 0.27440  0.05633  0.74969  Biso   1.000  O
  O129     1.0000 0.20610  0.09638  0.82310  Biso   1.000  O
  O130     1.0000 0.32250  0.13480  0.83554  Biso   1.000  O
  O131     1.0000 0.75990  0.29320  0.92338  Biso   1.000  O
  O132     1.0000 0.74640  0.32749  0.95046  Biso   1.000  O
  N127     1.0000 0.12810  0.16302  0.86724  Biso   1.000  N
  N128     1.0000 0.14270  0.19279  0.89596  Biso   1.000  N
  N129     1.0000 0.44000  0.23035  0.94490  Biso   1.000  N
  N130     1.0000 0.59690  0.25495  0.95718  Biso   1.000  N
  N131     1.0000 0.02870  0.24190  0.96125  Biso   1.000  N
  N132     1.0000 0.86270  0.26541  0.97027  Biso   1.000  N
  C547     1.0000 0.37580  0.06856  0.74956  Biso   1.000  C
  C548     1.0000 0.41470  0.08670  0.76938  Biso   1.000  C
  C549     1.0000 0.52540  0.10021  0.76966  Biso   1.000  C
  H337     1.0000 0.57490  0.09780  0.75780  Biso   1.000  H
  C550     1.0000 0.56570  0.11754  0.78723  Biso   1.000  C
  C551     1.0000 0.49270  0.12123  0.80443  Biso   1.000  C
  H338     1.0000 0.51930  0.13290  0.81640  Biso   1.000  H
  C552     1.0000 0.37990  0.10778  0.80403  Biso   1.000  C
  C553     1.0000 0.34080  0.09059  0.78659  Biso   1.000  C
  H339     1.0000 0.26420  0.08150  0.78640  Biso   1.000  H
  C554     1.0000 0.29960  0.11340  0.82225  Biso   1.000  C
  C555     1.0000 0.04720  0.18710  0.86652  Biso   1.000  C
  H340     1.0000 0.99500  0.19080  0.85520  Biso   1.000  H
  C556     1.0000 0.05080  0.20540  0.88432  Biso   1.000  C
  H341     1.0000 0.00060  0.22320  0.88800  Biso   1.000  H
  C557     1.0000 0.18470  0.16678  0.88514  Biso   1.000  C
  H342     1.0000 0.24680  0.15300  0.88980  Biso   1.000  H
  C558     1.0000 0.17600  0.20508  0.91580  Biso   1.000  C
  C559     1.0000 0.08790  0.21470  0.92937  Biso   1.000  C
  H343     1.0000 0.00800  0.21090  0.92600  Biso   1.000  H
  C560     1.0000 0.11920  0.23008  0.94797  Biso   1.000  C
  C561     1.0000 0.23410  0.23481  0.95355  Biso   1.000  C
  H344     1.0000 0.25400  0.24500  0.96650  Biso   1.000  H
  C562     1.0000 0.31990  0.22431  0.93982  Biso   1.000  C
  C563     1.0000 0.29350  0.20948  0.92071  Biso   1.000  C
  H345     1.0000 0.35350  0.20260  0.91140  Biso   1.000  H
  C564     1.0000 0.53510  0.21082  0.93902  Biso   1.000  C
  H346     1.0000 0.53320  0.19090  0.93120  Biso   1.000  H
  C565     1.0000 0.63040  0.22619  0.94680  Biso   1.000  C
  H347     1.0000 0.70860  0.21850  0.94540  Biso   1.000  H
  C566     1.0000 0.48170  0.25654  0.95579  Biso   1.000  C
  H348     1.0000 0.43490  0.27360  0.96160  Biso   1.000  H
  C567     1.0000 0.02880  0.24374  0.98293  Biso   1.000  C
  H349     1.0000 0.08850  0.23640  0.99220  Biso   1.000  H
  C568     1.0000 0.92650  0.25514  0.95441  Biso   1.000  C
  H350     1.0000 0.90410  0.25680  0.94010  Biso   1.000  H
  C569     1.0000 0.92610  0.25824  0.98819  Biso   1.000  C
  H351     1.0000 0.90130  0.26280  0.00210  Biso   1.000  H
  C570     1.0000 0.77310  0.32075  0.93161  Biso   1.000  C
  C571     1.0000 0.82620  0.34861  0.91932  Biso   1.000  C
  C572     1.0000 0.82870  0.34835  0.89773  Biso   1.000  C
  H352     1.0000 0.79860  0.32980  0.89040  Biso   1.000  H
  Zn23     1.0000 0.20642  0.79002  0.96855  Biso   1.000  Zn
  O133     1.0000 0.94130  0.56684  0.73441  Biso   1.000  O
  O134     1.0000 0.77440  0.55633  0.74969  Biso   1.000  O
  O135     1.0000 0.70610  0.59638  0.82310  Biso   1.000  O
  O136     1.0000 0.82250  0.63480  0.83554  Biso   1.000  O
  O137     1.0000 0.25990  0.79320  0.92338  Biso   1.000  O
  O138     1.0000 0.24640  0.82749  0.95046  Biso   1.000  O
  N133     1.0000 0.62810  0.66302  0.86724  Biso   1.000  N
  N134     1.0000 0.64270  0.69279  0.89596  Biso   1.000  N
  N135     1.0000 0.94000  0.73035  0.94490  Biso   1.000  N
  N136     1.0000 0.09690  0.75495  0.95718  Biso   1.000  N
  N137     1.0000 0.52870  0.74190  0.96125  Biso   1.000  N
  N138     1.0000 0.36270  0.76541  0.97027  Biso   1.000  N
  C573     1.0000 0.87580  0.56856  0.74956  Biso   1.000  C
  C574     1.0000 0.91470  0.58670  0.76938  Biso   1.000  C
  C575     1.0000 0.02540  0.60021  0.76966  Biso   1.000  C
  H353     1.0000 0.07490  0.59780  0.75780  Biso   1.000  H
  C576     1.0000 0.06570  0.61754  0.78723  Biso   1.000  C
  C577     1.0000 0.99270  0.62123  0.80443  Biso   1.000  C
  H354     1.0000 0.01930  0.63290  0.81640  Biso   1.000  H
  C578     1.0000 0.87990  0.60778  0.80403  Biso   1.000  C
  C579     1.0000 0.84080  0.59059  0.78659  Biso   1.000  C
  H355     1.0000 0.76420  0.58150  0.78640  Biso   1.000  H
  C580     1.0000 0.79960  0.61340  0.82225  Biso   1.000  C
  C581     1.0000 0.54720  0.68710  0.86652  Biso   1.000  C
  H356     1.0000 0.49500  0.69080  0.85520  Biso   1.000  H
  C582     1.0000 0.55080  0.70540  0.88432  Biso   1.000  C
  H357     1.0000 0.50060  0.72320  0.88800  Biso   1.000  H
  C583     1.0000 0.68470  0.66678  0.88514  Biso   1.000  C
  H358     1.0000 0.74680  0.65300  0.88980  Biso   1.000  H
  C584     1.0000 0.67600  0.70508  0.91580  Biso   1.000  C
  C585     1.0000 0.58790  0.71470  0.92937  Biso   1.000  C
  H359     1.0000 0.50800  0.71090  0.92600  Biso   1.000  H
  C586     1.0000 0.61920  0.73008  0.94797  Biso   1.000  C
  C587     1.0000 0.73410  0.73481  0.95355  Biso   1.000  C
  H360     1.0000 0.75400  0.74500  0.96650  Biso   1.000  H
  C588     1.0000 0.81990  0.72431  0.93982  Biso   1.000  C
  C589     1.0000 0.79350  0.70948  0.92071  Biso   1.000  C
  H361     1.0000 0.85350  0.70260  0.91140  Biso   1.000  H
  C590     1.0000 0.03510  0.71082  0.93902  Biso   1.000  C
  H362     1.0000 0.03320  0.69090  0.93120  Biso   1.000  H
  C591     1.0000 0.13040  0.72619  0.94680  Biso   1.000  C
  H363     1.0000 0.20860  0.71850  0.94540  Biso   1.000  H
  C592     1.0000 0.98170  0.75654  0.95579  Biso   1.000  C
  H364     1.0000 0.93490  0.77360  0.96160  Biso   1.000  H
  C593     1.0000 0.52880  0.74374  0.98293  Biso   1.000  C
  H365     1.0000 0.58850  0.73640  0.99220  Biso   1.000  H
  C594     1.0000 0.42650  0.75514  0.95441  Biso   1.000  C
  H366     1.0000 0.40410  0.75680  0.94010  Biso   1.000  H
  C595     1.0000 0.42610  0.75824  0.98819  Biso   1.000  C
  H367     1.0000 0.40130  0.76280  0.00210  Biso   1.000  H
  C596     1.0000 0.27310  0.82075  0.93161  Biso   1.000  C
  C597     1.0000 0.32620  0.84861  0.91932  Biso   1.000  C
  C598     1.0000 0.32870  0.84835  0.89773  Biso   1.000  C
  H368     1.0000 0.29860  0.82980  0.89040  Biso   1.000  H
  Zn24     1.0000 0.20642  0.29002  0.46855  Biso   1.000  Zn
  O139     1.0000 0.94130  0.06684  0.23441  Biso   1.000  O
  O140     1.0000 0.77440  0.05633  0.24969  Biso   1.000  O
  O141     1.0000 0.70610  0.09638  0.32310  Biso   1.000  O
  O142     1.0000 0.82250  0.13480  0.33554  Biso   1.000  O
  O143     1.0000 0.25990  0.29320  0.42338  Biso   1.000  O
  O144     1.0000 0.24640  0.32749  0.45046  Biso   1.000  O
  N139     1.0000 0.62810  0.16302  0.36724  Biso   1.000  N
  N140     1.0000 0.64270  0.19279  0.39596  Biso   1.000  N
  N141     1.0000 0.94000  0.23035  0.44490  Biso   1.000  N
  N142     1.0000 0.09690  0.25495  0.45718  Biso   1.000  N
  N143     1.0000 0.52870  0.24190  0.46125  Biso   1.000  N
  N144     1.0000 0.36270  0.26541  0.47027  Biso   1.000  N
  C599     1.0000 0.87580  0.06856  0.24956  Biso   1.000  C
  C600     1.0000 0.91470  0.08670  0.26938  Biso   1.000  C
  C601     1.0000 0.02540  0.10021  0.26966  Biso   1.000  C
  H369     1.0000 0.07490  0.09780  0.25780  Biso   1.000  H
  C602     1.0000 0.06570  0.11754  0.28723  Biso   1.000  C
  C603     1.0000 0.99270  0.12123  0.30443  Biso   1.000  C
  H370     1.0000 0.01930  0.13290  0.31640  Biso   1.000  H
  C604     1.0000 0.87990  0.10778  0.30403  Biso   1.000  C
  C605     1.0000 0.84080  0.09059  0.28659  Biso   1.000  C
  H371     1.0000 0.76420  0.08150  0.28640  Biso   1.000  H
  C606     1.0000 0.79960  0.11340  0.32225  Biso   1.000  C
  C607     1.0000 0.54720  0.18710  0.36652  Biso   1.000  C
  H372     1.0000 0.49500  0.19080  0.35520  Biso   1.000  H
  C608     1.0000 0.55080  0.20540  0.38432  Biso   1.000  C
  H373     1.0000 0.50060  0.22320  0.38800  Biso   1.000  H
  C609     1.0000 0.68470  0.16678  0.38514  Biso   1.000  C
  H374     1.0000 0.74680  0.15300  0.38980  Biso   1.000  H
  C610     1.0000 0.67600  0.20508  0.41580  Biso   1.000  C
  C611     1.0000 0.58790  0.21470  0.42937  Biso   1.000  C
  H375     1.0000 0.50800  0.21090  0.42600  Biso   1.000  H
  C612     1.0000 0.61920  0.23008  0.44797  Biso   1.000  C
  C613     1.0000 0.73410  0.23481  0.45355  Biso   1.000  C
  H376     1.0000 0.75400  0.24500  0.46650  Biso   1.000  H
  C614     1.0000 0.81990  0.22431  0.43982  Biso   1.000  C
  C615     1.0000 0.79350  0.20948  0.42071  Biso   1.000  C
  H377     1.0000 0.85350  0.20260  0.41140  Biso   1.000  H
  C616     1.0000 0.03510  0.21082  0.43902  Biso   1.000  C
  H378     1.0000 0.03320  0.19090  0.43120  Biso   1.000  H
  C617     1.0000 0.13040  0.22619  0.44680  Biso   1.000  C
  H379     1.0000 0.20860  0.21850  0.44540  Biso   1.000  H
  C618     1.0000 0.98170  0.25654  0.45579  Biso   1.000  C
  H380     1.0000 0.93490  0.27360  0.46160  Biso   1.000  H
  C619     1.0000 0.52880  0.24374  0.48293  Biso   1.000  C
  H381     1.0000 0.58850  0.23640  0.49220  Biso   1.000  H
  C620     1.0000 0.42650  0.25514  0.45441  Biso   1.000  C
  H382     1.0000 0.40410  0.25680  0.44010  Biso   1.000  H
  C621     1.0000 0.42610  0.25824  0.48819  Biso   1.000  C
  H383     1.0000 0.40130  0.26280  0.50210  Biso   1.000  H
  C622     1.0000 0.27310  0.32075  0.43161  Biso   1.000  C
  C623     1.0000 0.32620  0.34861  0.41932  Biso   1.000  C
  C624     1.0000 0.32870  0.34835  0.39773  Biso   1.000  C
  H384     1.0000 0.29860  0.32980  0.39040  Biso   1.000  H
  Zn25     1.0000 0.70642  0.45998  0.78145  Biso   1.000  Zn
  O145     1.0000 0.44130  0.68316  0.01559  Biso   1.000  O
  O146     1.0000 0.27440  0.69367  0.00031  Biso   1.000  O
  O147     1.0000 0.20610  0.65362  0.92690  Biso   1.000  O
  O148     1.0000 0.32250  0.61520  0.91446  Biso   1.000  O
  O149     1.0000 0.75990  0.45680  0.82662  Biso   1.000  O
  O150     1.0000 0.74640  0.42251  0.79954  Biso   1.000  O
  N145     1.0000 0.12810  0.58698  0.88276  Biso   1.000  N
  N146     1.0000 0.14270  0.55721  0.85404  Biso   1.000  N
  N147     1.0000 0.44000  0.51965  0.80510  Biso   1.000  N
  N148     1.0000 0.59690  0.49505  0.79282  Biso   1.000  N
  N149     1.0000 0.02870  0.50810  0.78875  Biso   1.000  N
  N150     1.0000 0.86270  0.48459  0.77973  Biso   1.000  N
  C625     1.0000 0.37580  0.68144  0.00044  Biso   1.000  C
  C626     1.0000 0.41470  0.66330  0.98062  Biso   1.000  C
  C627     1.0000 0.52540  0.64979  0.98034  Biso   1.000  C
  H385     1.0000 0.57490  0.65220  0.99220  Biso   1.000  H
  C628     1.0000 0.56570  0.63246  0.96277  Biso   1.000  C
  C629     1.0000 0.49270  0.62877  0.94557  Biso   1.000  C
  H386     1.0000 0.51930  0.61710  0.93360  Biso   1.000  H
  C630     1.0000 0.37990  0.64222  0.94597  Biso   1.000  C
  C631     1.0000 0.34080  0.65941  0.96341  Biso   1.000  C
  H387     1.0000 0.26420  0.66850  0.96360  Biso   1.000  H
  C632     1.0000 0.29960  0.63660  0.92775  Biso   1.000  C
  C633     1.0000 0.04720  0.56290  0.88348  Biso   1.000  C
  H388     1.0000 0.99500  0.55920  0.89480  Biso   1.000  H
  C634     1.0000 0.05080  0.54460  0.86568  Biso   1.000  C
  H389     1.0000 0.00060  0.52680  0.86200  Biso   1.000  H
  C635     1.0000 0.18470  0.58322  0.86486  Biso   1.000  C
  H390     1.0000 0.24680  0.59700  0.86020  Biso   1.000  H
  C636     1.0000 0.17600  0.54492  0.83420  Biso   1.000  C
  C637     1.0000 0.08790  0.53530  0.82063  Biso   1.000  C
  H391     1.0000 0.00800  0.53910  0.82400  Biso   1.000  H
  C638     1.0000 0.11920  0.51992  0.80203  Biso   1.000  C
  C639     1.0000 0.23410  0.51519  0.79645  Biso   1.000  C
  H392     1.0000 0.25400  0.50500  0.78350  Biso   1.000  H
  C640     1.0000 0.31990  0.52569  0.81018  Biso   1.000  C
  C641     1.0000 0.29350  0.54052  0.82929  Biso   1.000  C
  H393     1.0000 0.35350  0.54740  0.83860  Biso   1.000  H
  C642     1.0000 0.53510  0.53918  0.81098  Biso   1.000  C
  H394     1.0000 0.53320  0.55910  0.81880  Biso   1.000  H
  C643     1.0000 0.63040  0.52381  0.80320  Biso   1.000  C
  H395     1.0000 0.70860  0.53150  0.80460  Biso   1.000  H
  C644     1.0000 0.48170  0.49346  0.79421  Biso   1.000  C
  H396     1.0000 0.43490  0.47640  0.78840  Biso   1.000  H
  C645     1.0000 0.02880  0.50626  0.76707  Biso   1.000  C
  H397     1.0000 0.08850  0.51360  0.75780  Biso   1.000  H
  C646     1.0000 0.92650  0.49486  0.79559  Biso   1.000  C
  H398     1.0000 0.90410  0.49320  0.80990  Biso   1.000  H
  C647     1.0000 0.92610  0.49176  0.76181  Biso   1.000  C
  H399     1.0000 0.90130  0.48720  0.74790  Biso   1.000  H
  C648     1.0000 0.77310  0.42925  0.81839  Biso   1.000  C
  C649     1.0000 0.82620  0.40139  0.83068  Biso   1.000  C
  C650     1.0000 0.82870  0.40165  0.85227  Biso   1.000  C
  H400     1.0000 0.79860  0.42020  0.85960  Biso   1.000  H
  Zn26     1.0000 0.70642  0.95998  0.28145  Biso   1.000  Zn
  O151     1.0000 0.44130  0.18316  0.51559  Biso   1.000  O
  O152     1.0000 0.27440  0.19367  0.50031  Biso   1.000  O
  O153     1.0000 0.20610  0.15362  0.42690  Biso   1.000  O
  O154     1.0000 0.32250  0.11520  0.41446  Biso   1.000  O
  O155     1.0000 0.75990  0.95680  0.32662  Biso   1.000  O
  O156     1.0000 0.74640  0.92251  0.29954  Biso   1.000  O
  N151     1.0000 0.12810  0.08698  0.38276  Biso   1.000  N
  N152     1.0000 0.14270  0.05721  0.35404  Biso   1.000  N
  N153     1.0000 0.44000  0.01965  0.30510  Biso   1.000  N
  N154     1.0000 0.59690  0.99505  0.29282  Biso   1.000  N
  N155     1.0000 0.02870  0.00810  0.28875  Biso   1.000  N
  N156     1.0000 0.86270  0.98459  0.27973  Biso   1.000  N
  C651     1.0000 0.37580  0.18144  0.50044  Biso   1.000  C
  C652     1.0000 0.41470  0.16330  0.48062  Biso   1.000  C
  C653     1.0000 0.52540  0.14979  0.48034  Biso   1.000  C
  H401     1.0000 0.57490  0.15220  0.49220  Biso   1.000  H
  C654     1.0000 0.56570  0.13246  0.46277  Biso   1.000  C
  C655     1.0000 0.49270  0.12877  0.44557  Biso   1.000  C
  H402     1.0000 0.51930  0.11710  0.43360  Biso   1.000  H
  C656     1.0000 0.37990  0.14222  0.44597  Biso   1.000  C
  C657     1.0000 0.34080  0.15941  0.46341  Biso   1.000  C
  H403     1.0000 0.26420  0.16850  0.46360  Biso   1.000  H
  C658     1.0000 0.29960  0.13660  0.42775  Biso   1.000  C
  C659     1.0000 0.04720  0.06290  0.38348  Biso   1.000  C
  H404     1.0000 0.99500  0.05920  0.39480  Biso   1.000  H
  C660     1.0000 0.05080  0.04460  0.36568  Biso   1.000  C
  H405     1.0000 0.00060  0.02680  0.36200  Biso   1.000  H
  C661     1.0000 0.18470  0.08322  0.36486  Biso   1.000  C
  H406     1.0000 0.24680  0.09700  0.36020  Biso   1.000  H
  C662     1.0000 0.17600  0.04492  0.33420  Biso   1.000  C
  C663     1.0000 0.08790  0.03530  0.32063  Biso   1.000  C
  H407     1.0000 0.00800  0.03910  0.32400  Biso   1.000  H
  C664     1.0000 0.11920  0.01992  0.30203  Biso   1.000  C
  C665     1.0000 0.23410  0.01519  0.29645  Biso   1.000  C
  H408     1.0000 0.25400  0.00500  0.28350  Biso   1.000  H
  C666     1.0000 0.31990  0.02569  0.31018  Biso   1.000  C
  C667     1.0000 0.29350  0.04052  0.32929  Biso   1.000  C
  H409     1.0000 0.35350  0.04740  0.33860  Biso   1.000  H
  C668     1.0000 0.53510  0.03918  0.31098  Biso   1.000  C
  H410     1.0000 0.53320  0.05910  0.31880  Biso   1.000  H
  C669     1.0000 0.63040  0.02381  0.30320  Biso   1.000  C
  H411     1.0000 0.70860  0.03150  0.30460  Biso   1.000  H
  C670     1.0000 0.48170  0.99346  0.29421  Biso   1.000  C
  H412     1.0000 0.43490  0.97640  0.28840  Biso   1.000  H
  C671     1.0000 0.02880  0.00626  0.26707  Biso   1.000  C
  H413     1.0000 0.08850  0.01360  0.25780  Biso   1.000  H
  C672     1.0000 0.92650  0.99486  0.29559  Biso   1.000  C
  H414     1.0000 0.90410  0.99320  0.30990  Biso   1.000  H
  C673     1.0000 0.92610  0.99176  0.26181  Biso   1.000  C
  H415     1.0000 0.90130  0.98720  0.24790  Biso   1.000  H
  C674     1.0000 0.77310  0.92925  0.31839  Biso   1.000  C
  C675     1.0000 0.82620  0.90139  0.33068  Biso   1.000  C
  C676     1.0000 0.82870  0.90165  0.35227  Biso   1.000  C
  H416     1.0000 0.79860  0.92020  0.35960  Biso   1.000  H
  Zn27     1.0000 0.20642  0.45998  0.28145  Biso   1.000  Zn
  O157     1.0000 0.94130  0.68316  0.51559  Biso   1.000  O
  O158     1.0000 0.77440  0.69367  0.50031  Biso   1.000  O
  O159     1.0000 0.70610  0.65362  0.42690  Biso   1.000  O
  O160     1.0000 0.82250  0.61520  0.41446  Biso   1.000  O
  O161     1.0000 0.25990  0.45680  0.32662  Biso   1.000  O
  O162     1.0000 0.24640  0.42251  0.29954  Biso   1.000  O
  N157     1.0000 0.62810  0.58698  0.38276  Biso   1.000  N
  N158     1.0000 0.64270  0.55721  0.35404  Biso   1.000  N
  N159     1.0000 0.94000  0.51965  0.30510  Biso   1.000  N
  N160     1.0000 0.09690  0.49505  0.29282  Biso   1.000  N
  N161     1.0000 0.52870  0.50810  0.28875  Biso   1.000  N
  N162     1.0000 0.36270  0.48459  0.27973  Biso   1.000  N
  C677     1.0000 0.87580  0.68144  0.50044  Biso   1.000  C
  C678     1.0000 0.91470  0.66330  0.48062  Biso   1.000  C
  C679     1.0000 0.02540  0.64979  0.48034  Biso   1.000  C
  H417     1.0000 0.07490  0.65220  0.49220  Biso   1.000  H
  C680     1.0000 0.06570  0.63246  0.46277  Biso   1.000  C
  C681     1.0000 0.99270  0.62877  0.44557  Biso   1.000  C
  H418     1.0000 0.01930  0.61710  0.43360  Biso   1.000  H
  C682     1.0000 0.87990  0.64222  0.44597  Biso   1.000  C
  C683     1.0000 0.84080  0.65941  0.46341  Biso   1.000  C
  H419     1.0000 0.76420  0.66850  0.46360  Biso   1.000  H
  C684     1.0000 0.79960  0.63660  0.42775  Biso   1.000  C
  C685     1.0000 0.54720  0.56290  0.38348  Biso   1.000  C
  H420     1.0000 0.49500  0.55920  0.39480  Biso   1.000  H
  C686     1.0000 0.55080  0.54460  0.36568  Biso   1.000  C
  H421     1.0000 0.50060  0.52680  0.36200  Biso   1.000  H
  C687     1.0000 0.68470  0.58322  0.36486  Biso   1.000  C
  H422     1.0000 0.74680  0.59700  0.36020  Biso   1.000  H
  C688     1.0000 0.67600  0.54492  0.33420  Biso   1.000  C
  C689     1.0000 0.58790  0.53530  0.32063  Biso   1.000  C
  H423     1.0000 0.50800  0.53910  0.32400  Biso   1.000  H
  C690     1.0000 0.61920  0.51992  0.30203  Biso   1.000  C
  C691     1.0000 0.73410  0.51519  0.29645  Biso   1.000  C
  H424     1.0000 0.75400  0.50500  0.28350  Biso   1.000  H
  C692     1.0000 0.81990  0.52569  0.31018  Biso   1.000  C
  C693     1.0000 0.79350  0.54052  0.32929  Biso   1.000  C
  H425     1.0000 0.85350  0.54740  0.33860  Biso   1.000  H
  C694     1.0000 0.03510  0.53918  0.31098  Biso   1.000  C
  H426     1.0000 0.03320  0.55910  0.31880  Biso   1.000  H
  C695     1.0000 0.13040  0.52381  0.30320  Biso   1.000  C
  H427     1.0000 0.20860  0.53150  0.30460  Biso   1.000  H
  C696     1.0000 0.98170  0.49346  0.29421  Biso   1.000  C
  H428     1.0000 0.93490  0.47640  0.28840  Biso   1.000  H
  C697     1.0000 0.52880  0.50626  0.26707  Biso   1.000  C
  H429     1.0000 0.58850  0.51360  0.25780  Biso   1.000  H
  C698     1.0000 0.42650  0.49486  0.29559  Biso   1.000  C
  H430     1.0000 0.40410  0.49320  0.30990  Biso   1.000  H
  C699     1.0000 0.42610  0.49176  0.26181  Biso   1.000  C
  H431     1.0000 0.40130  0.48720  0.24790  Biso   1.000  H
  C700     1.0000 0.27310  0.42925  0.31839  Biso   1.000  C
  C701     1.0000 0.32620  0.40139  0.33068  Biso   1.000  C
  C702     1.0000 0.32870  0.40165  0.35227  Biso   1.000  C
  H432     1.0000 0.29860  0.42020  0.35960  Biso   1.000  H
  Zn28     1.0000 0.20642  0.95998  0.78145  Biso   1.000  Zn
  O163     1.0000 0.94130  0.18316  0.01559  Biso   1.000  O
  O164     1.0000 0.77440  0.19367  0.00031  Biso   1.000  O
  O165     1.0000 0.70610  0.15362  0.92690  Biso   1.000  O
  O166     1.0000 0.82250  0.11520  0.91446  Biso   1.000  O
  O167     1.0000 0.25990  0.95680  0.82662  Biso   1.000  O
  O168     1.0000 0.24640  0.92251  0.79954  Biso   1.000  O
  N163     1.0000 0.62810  0.08698  0.88276  Biso   1.000  N
  N164     1.0000 0.64270  0.05721  0.85404  Biso   1.000  N
  N165     1.0000 0.94000  0.01965  0.80510  Biso   1.000  N
  N166     1.0000 0.09690  0.99505  0.79282  Biso   1.000  N
  N167     1.0000 0.52870  0.00810  0.78875  Biso   1.000  N
  N168     1.0000 0.36270  0.98459  0.77973  Biso   1.000  N
  C703     1.0000 0.87580  0.18144  0.00044  Biso   1.000  C
  C704     1.0000 0.91470  0.16330  0.98062  Biso   1.000  C
  C705     1.0000 0.02540  0.14979  0.98034  Biso   1.000  C
  H433     1.0000 0.07490  0.15220  0.99220  Biso   1.000  H
  C706     1.0000 0.06570  0.13246  0.96277  Biso   1.000  C
  C707     1.0000 0.99270  0.12877  0.94557  Biso   1.000  C
  H434     1.0000 0.01930  0.11710  0.93360  Biso   1.000  H
  C708     1.0000 0.87990  0.14222  0.94597  Biso   1.000  C
  C709     1.0000 0.84080  0.15941  0.96341  Biso   1.000  C
  H435     1.0000 0.76420  0.16850  0.96360  Biso   1.000  H
  C710     1.0000 0.79960  0.13660  0.92775  Biso   1.000  C
  C711     1.0000 0.54720  0.06290  0.88348  Biso   1.000  C
  H436     1.0000 0.49500  0.05920  0.89480  Biso   1.000  H
  C712     1.0000 0.55080  0.04460  0.86568  Biso   1.000  C
  H437     1.0000 0.50060  0.02680  0.86200  Biso   1.000  H
  C713     1.0000 0.68470  0.08322  0.86486  Biso   1.000  C
  H438     1.0000 0.74680  0.09700  0.86020  Biso   1.000  H
  C714     1.0000 0.67600  0.04492  0.83420  Biso   1.000  C
  C715     1.0000 0.58790  0.03530  0.82063  Biso   1.000  C
  H439     1.0000 0.50800  0.03910  0.82400  Biso   1.000  H
  C716     1.0000 0.61920  0.01992  0.80203  Biso   1.000  C
  C717     1.0000 0.73410  0.01519  0.79645  Biso   1.000  C
  H440     1.0000 0.75400  0.00500  0.78350  Biso   1.000  H
  C718     1.0000 0.81990  0.02569  0.81018  Biso   1.000  C
  C719     1.0000 0.79350  0.04052  0.82929  Biso   1.000  C
  H441     1.0000 0.85350  0.04740  0.83860  Biso   1.000  H
  C720     1.0000 0.03510  0.03918  0.81098  Biso   1.000  C
  H442     1.0000 0.03320  0.05910  0.81880  Biso   1.000  H
  C721     1.0000 0.13040  0.02381  0.80320  Biso   1.000  C
  H443     1.0000 0.20860  0.03150  0.80460  Biso   1.000  H
  C722     1.0000 0.98170  0.99346  0.79421  Biso   1.000  C
  H444     1.0000 0.93490  0.97640  0.78840  Biso   1.000  H
  C723     1.0000 0.52880  0.00626  0.76707  Biso   1.000  C
  H445     1.0000 0.58850  0.01360  0.75780  Biso   1.000  H
  C724     1.0000 0.42650  0.99486  0.79559  Biso   1.000  C
  H446     1.0000 0.40410  0.99320  0.80990  Biso   1.000  H
  C725     1.0000 0.42610  0.99176  0.76181  Biso   1.000  C
  H447     1.0000 0.40130  0.98720  0.74790  Biso   1.000  H
  C726     1.0000 0.27310  0.92925  0.81839  Biso   1.000  C
  C727     1.0000 0.32620  0.90139  0.83068  Biso   1.000  C
  C728     1.0000 0.32870  0.90165  0.85227  Biso   1.000  C
  H448     1.0000 0.29860  0.92020  0.85960  Biso   1.000  H
  Zn29     1.0000 0.54358  0.79002  0.78145  Biso   1.000  Zn
  O169     1.0000 0.80870  0.56684  0.01559  Biso   1.000  O
  O170     1.0000 0.97560  0.55633  0.00031  Biso   1.000  O
  O171     1.0000 0.04390  0.59638  0.92690  Biso   1.000  O
  O172     1.0000 0.92750  0.63480  0.91446  Biso   1.000  O
  O173     1.0000 0.49010  0.79320  0.82662  Biso   1.000  O
  O174     1.0000 0.50360  0.82749  0.79954  Biso   1.000  O
  N169     1.0000 0.12190  0.66302  0.88276  Biso   1.000  N
  N170     1.0000 0.10730  0.69279  0.85404  Biso   1.000  N
  N171     1.0000 0.81000  0.73035  0.80510  Biso   1.000  N
  N172     1.0000 0.65310  0.75495  0.79282  Biso   1.000  N
  N173     1.0000 0.22130  0.74190  0.78875  Biso   1.000  N
  N174     1.0000 0.38730  0.76541  0.77973  Biso   1.000  N
  C729     1.0000 0.87420  0.56856  0.00044  Biso   1.000  C
  C730     1.0000 0.83530  0.58670  0.98062  Biso   1.000  C
  C731     1.0000 0.72460  0.60021  0.98034  Biso   1.000  C
  H449     1.0000 0.67510  0.59780  0.99220  Biso   1.000  H
  C732     1.0000 0.68430  0.61754  0.96277  Biso   1.000  C
  C733     1.0000 0.75730  0.62123  0.94557  Biso   1.000  C
  H450     1.0000 0.73070  0.63290  0.93360  Biso   1.000  H
  C734     1.0000 0.87010  0.60778  0.94597  Biso   1.000  C
  C735     1.0000 0.90920  0.59059  0.96341  Biso   1.000  C
  H451     1.0000 0.98580  0.58150  0.96360  Biso   1.000  H
  C736     1.0000 0.95040  0.61340  0.92775  Biso   1.000  C
  C737     1.0000 0.20280  0.68710  0.88348  Biso   1.000  C
  H452     1.0000 0.25500  0.69080  0.89480  Biso   1.000  H
  C738     1.0000 0.19920  0.70540  0.86568  Biso   1.000  C
  H453     1.0000 0.24940  0.72320  0.86200  Biso   1.000  H
  C739     1.0000 0.06530  0.66678  0.86486  Biso   1.000  C
  H454     1.0000 0.00320  0.65300  0.86020  Biso   1.000  H
  C740     1.0000 0.07400  0.70508  0.83420  Biso   1.000  C
  C741     1.0000 0.16210  0.71470  0.82063  Biso   1.000  C
  H455     1.0000 0.24200  0.71090  0.82400  Biso   1.000  H
  C742     1.0000 0.13080  0.73008  0.80203  Biso   1.000  C
  C743     1.0000 0.01590  0.73481  0.79645  Biso   1.000  C
  H456     1.0000 0.99600  0.74500  0.78350  Biso   1.000  H
  C744     1.0000 0.93010  0.72431  0.81018  Biso   1.000  C
  C745     1.0000 0.95650  0.70948  0.82929  Biso   1.000  C
  H457     1.0000 0.89650  0.70260  0.83860  Biso   1.000  H
  C746     1.0000 0.71490  0.71082  0.81098  Biso   1.000  C
  H458     1.0000 0.71680  0.69090  0.81880  Biso   1.000  H
  C747     1.0000 0.61960  0.72619  0.80320  Biso   1.000  C
  H459     1.0000 0.54140  0.71850  0.80460  Biso   1.000  H
  C748     1.0000 0.76830  0.75654  0.79421  Biso   1.000  C
  H460     1.0000 0.81510  0.77360  0.78840  Biso   1.000  H
  C749     1.0000 0.22120  0.74374  0.76707  Biso   1.000  C
  H461     1.0000 0.16150  0.73640  0.75780  Biso   1.000  H
  C750     1.0000 0.32350  0.75514  0.79559  Biso   1.000  C
  H462     1.0000 0.34590  0.75680  0.80990  Biso   1.000  H
  C751     1.0000 0.32390  0.75824  0.76181  Biso   1.000  C
  H463     1.0000 0.34870  0.76280  0.74790  Biso   1.000  H
  C752     1.0000 0.47690  0.82075  0.81839  Biso   1.000  C
  C753     1.0000 0.42380  0.84861  0.83068  Biso   1.000  C
  C754     1.0000 0.42130  0.84835  0.85227  Biso   1.000  C
  H464     1.0000 0.45140  0.82980  0.85960  Biso   1.000  H
  Zn30     1.0000 0.54358  0.29002  0.28145  Biso   1.000  Zn
  O175     1.0000 0.80870  0.06684  0.51559  Biso   1.000  O
  O176     1.0000 0.97560  0.05633  0.50031  Biso   1.000  O
  O177     1.0000 0.04390  0.09638  0.42690  Biso   1.000  O
  O178     1.0000 0.92750  0.13480  0.41446  Biso   1.000  O
  O179     1.0000 0.49010  0.29320  0.32662  Biso   1.000  O
  O180     1.0000 0.50360  0.32749  0.29954  Biso   1.000  O
  N175     1.0000 0.12190  0.16302  0.38276  Biso   1.000  N
  N176     1.0000 0.10730  0.19279  0.35404  Biso   1.000  N
  N177     1.0000 0.81000  0.23035  0.30510  Biso   1.000  N
  N178     1.0000 0.65310  0.25495  0.29282  Biso   1.000  N
  N179     1.0000 0.22130  0.24190  0.28875  Biso   1.000  N
  N180     1.0000 0.38730  0.26541  0.27973  Biso   1.000  N
  C755     1.0000 0.87420  0.06856  0.50044  Biso   1.000  C
  C756     1.0000 0.83530  0.08670  0.48062  Biso   1.000  C
  C757     1.0000 0.72460  0.10021  0.48034  Biso   1.000  C
  H465     1.0000 0.67510  0.09780  0.49220  Biso   1.000  H
  C758     1.0000 0.68430  0.11754  0.46277  Biso   1.000  C
  C759     1.0000 0.75730  0.12123  0.44557  Biso   1.000  C
  H466     1.0000 0.73070  0.13290  0.43360  Biso   1.000  H
  C760     1.0000 0.87010  0.10778  0.44597  Biso   1.000  C
  C761     1.0000 0.90920  0.09059  0.46341  Biso   1.000  C
  H467     1.0000 0.98580  0.08150  0.46360  Biso   1.000  H
  C762     1.0000 0.95040  0.11340  0.42775  Biso   1.000  C
  C763     1.0000 0.20280  0.18710  0.38348  Biso   1.000  C
  H468     1.0000 0.25500  0.19080  0.39480  Biso   1.000  H
  C764     1.0000 0.19920  0.20540  0.36568  Biso   1.000  C
  H469     1.0000 0.24940  0.22320  0.36200  Biso   1.000  H
  C765     1.0000 0.06530  0.16678  0.36486  Biso   1.000  C
  H470     1.0000 0.00320  0.15300  0.36020  Biso   1.000  H
  C766     1.0000 0.07400  0.20508  0.33420  Biso   1.000  C
  C767     1.0000 0.16210  0.21470  0.32063  Biso   1.000  C
  H471     1.0000 0.24200  0.21090  0.32400  Biso   1.000  H
  C768     1.0000 0.13080  0.23008  0.30203  Biso   1.000  C
  C769     1.0000 0.01590  0.23481  0.29645  Biso   1.000  C
  H472     1.0000 0.99600  0.24500  0.28350  Biso   1.000  H
  C770     1.0000 0.93010  0.22431  0.31018  Biso   1.000  C
  C771     1.0000 0.95650  0.20948  0.32929  Biso   1.000  C
  H473     1.0000 0.89650  0.20260  0.33860  Biso   1.000  H
  C772     1.0000 0.71490  0.21082  0.31098  Biso   1.000  C
  H474     1.0000 0.71680  0.19090  0.31880  Biso   1.000  H
  C773     1.0000 0.61960  0.22619  0.30320  Biso   1.000  C
  H475     1.0000 0.54140  0.21850  0.30460  Biso   1.000  H
  C774     1.0000 0.76830  0.25654  0.29421  Biso   1.000  C
  H476     1.0000 0.81510  0.27360  0.28840  Biso   1.000  H
  C775     1.0000 0.22120  0.24374  0.26707  Biso   1.000  C
  H477     1.0000 0.16150  0.23640  0.25780  Biso   1.000  H
  C776     1.0000 0.32350  0.25514  0.29559  Biso   1.000  C
  H478     1.0000 0.34590  0.25680  0.30990  Biso   1.000  H
  C777     1.0000 0.32390  0.25824  0.26181  Biso   1.000  C
  H479     1.0000 0.34870  0.26280  0.24790  Biso   1.000  H
  C778     1.0000 0.47690  0.32075  0.31839  Biso   1.000  C
  C779     1.0000 0.42380  0.34861  0.33068  Biso   1.000  C
  C780     1.0000 0.42130  0.34835  0.35227  Biso   1.000  C
  H480     1.0000 0.45140  0.32980  0.35960  Biso   1.000  H
  Zn31     1.0000 0.04358  0.79002  0.28145  Biso   1.000  Zn
  O181     1.0000 0.30870  0.56684  0.51559  Biso   1.000  O
  O182     1.0000 0.47560  0.55633  0.50031  Biso   1.000  O
  O183     1.0000 0.54390  0.59638  0.42690  Biso   1.000  O
  O184     1.0000 0.42750  0.63480  0.41446  Biso   1.000  O
  O185     1.0000 0.99010  0.79320  0.32662  Biso   1.000  O
  O186     1.0000 0.00360  0.82749  0.29954  Biso   1.000  O
  N181     1.0000 0.62190  0.66302  0.38276  Biso   1.000  N
  N182     1.0000 0.60730  0.69279  0.35404  Biso   1.000  N
  N183     1.0000 0.31000  0.73035  0.30510  Biso   1.000  N
  N184     1.0000 0.15310  0.75495  0.29282  Biso   1.000  N
  N185     1.0000 0.72130  0.74190  0.28875  Biso   1.000  N
  N186     1.0000 0.88730  0.76541  0.27973  Biso   1.000  N
  C781     1.0000 0.37420  0.56856  0.50044  Biso   1.000  C
  C782     1.0000 0.33530  0.58670  0.48062  Biso   1.000  C
  C783     1.0000 0.22460  0.60021  0.48034  Biso   1.000  C
  H481     1.0000 0.17510  0.59780  0.49220  Biso   1.000  H
  C784     1.0000 0.18430  0.61754  0.46277  Biso   1.000  C
  C785     1.0000 0.25730  0.62123  0.44557  Biso   1.000  C
  H482     1.0000 0.23070  0.63290  0.43360  Biso   1.000  H
  C786     1.0000 0.37010  0.60778  0.44597  Biso   1.000  C
  C787     1.0000 0.40920  0.59059  0.46341  Biso   1.000  C
  H483     1.0000 0.48580  0.58150  0.46360  Biso   1.000  H
  C788     1.0000 0.45040  0.61340  0.42775  Biso   1.000  C
  C789     1.0000 0.70280  0.68710  0.38348  Biso   1.000  C
  H484     1.0000 0.75500  0.69080  0.39480  Biso   1.000  H
  C790     1.0000 0.69920  0.70540  0.36568  Biso   1.000  C
  H485     1.0000 0.74940  0.72320  0.36200  Biso   1.000  H
  C791     1.0000 0.56530  0.66678  0.36486  Biso   1.000  C
  H486     1.0000 0.50320  0.65300  0.36020  Biso   1.000  H
  C792     1.0000 0.57400  0.70508  0.33420  Biso   1.000  C
  C793     1.0000 0.66210  0.71470  0.32063  Biso   1.000  C
  H487     1.0000 0.74200  0.71090  0.32400  Biso   1.000  H
  C794     1.0000 0.63080  0.73008  0.30203  Biso   1.000  C
  C795     1.0000 0.51590  0.73481  0.29645  Biso   1.000  C
  H488     1.0000 0.49600  0.74500  0.28350  Biso   1.000  H
  C796     1.0000 0.43010  0.72431  0.31018  Biso   1.000  C
  C797     1.0000 0.45650  0.70948  0.32929  Biso   1.000  C
  H489     1.0000 0.39650  0.70260  0.33860  Biso   1.000  H
  C798     1.0000 0.21490  0.71082  0.31098  Biso   1.000  C
  H490     1.0000 0.21680  0.69090  0.31880  Biso   1.000  H
  C799     1.0000 0.11960  0.72619  0.30320  Biso   1.000  C
  H491     1.0000 0.04140  0.71850  0.30460  Biso   1.000  H
  C800     1.0000 0.26830  0.75654  0.29421  Biso   1.000  C
  H492     1.0000 0.31510  0.77360  0.28840  Biso   1.000  H
  C801     1.0000 0.72120  0.74374  0.26707  Biso   1.000  C
  H493     1.0000 0.66150  0.73640  0.25780  Biso   1.000  H
  C802     1.0000 0.82350  0.75514  0.29559  Biso   1.000  C
  H494     1.0000 0.84590  0.75680  0.30990  Biso   1.000  H
  C803     1.0000 0.82390  0.75824  0.26181  Biso   1.000  C
  H495     1.0000 0.84870  0.76280  0.24790  Biso   1.000  H
  C804     1.0000 0.97690  0.82075  0.31839  Biso   1.000  C
  C805     1.0000 0.92380  0.84861  0.33068  Biso   1.000  C
  C806     1.0000 0.92130  0.84835  0.35227  Biso   1.000  C
  H496     1.0000 0.95140  0.82980  0.35960  Biso   1.000  H
  Zn32     1.0000 0.04358  0.29002  0.78145  Biso   1.000  Zn
  O187     1.0000 0.30870  0.06684  0.01559  Biso   1.000  O
  O188     1.0000 0.47560  0.05633  0.00031  Biso   1.000  O
  O189     1.0000 0.54390  0.09638  0.92690  Biso   1.000  O
  O190     1.0000 0.42750  0.13480  0.91446  Biso   1.000  O
  O191     1.0000 0.99010  0.29320  0.82662  Biso   1.000  O
  O192     1.0000 0.00360  0.32749  0.79954  Biso   1.000  O
  N187     1.0000 0.62190  0.16302  0.88276  Biso   1.000  N
  N188     1.0000 0.60730  0.19279  0.85404  Biso   1.000  N
  N189     1.0000 0.31000  0.23035  0.80510  Biso   1.000  N
  N190     1.0000 0.15310  0.25495  0.79282  Biso   1.000  N
  N191     1.0000 0.72130  0.24190  0.78875  Biso   1.000  N
  N192     1.0000 0.88730  0.26541  0.77973  Biso   1.000  N
  C807     1.0000 0.37420  0.06856  0.00044  Biso   1.000  C
  C808     1.0000 0.33530  0.08670  0.98062  Biso   1.000  C
  C809     1.0000 0.22460  0.10021  0.98034  Biso   1.000  C
  H497     1.0000 0.17510  0.09780  0.99220  Biso   1.000  H
  C810     1.0000 0.18430  0.11754  0.96277  Biso   1.000  C
  C811     1.0000 0.25730  0.12123  0.94557  Biso   1.000  C
  H498     1.0000 0.23070  0.13290  0.93360  Biso   1.000  H
  C812     1.0000 0.37010  0.10778  0.94597  Biso   1.000  C
  C813     1.0000 0.40920  0.09059  0.96341  Biso   1.000  C
  H499     1.0000 0.48580  0.08150  0.96360  Biso   1.000  H
  C814     1.0000 0.45040  0.11340  0.92775  Biso   1.000  C
  C815     1.0000 0.70280  0.18710  0.88348  Biso   1.000  C
  H500     1.0000 0.75500  0.19080  0.89480  Biso   1.000  H
  C816     1.0000 0.69920  0.20540  0.86568  Biso   1.000  C
  H501     1.0000 0.74940  0.22320  0.86200  Biso   1.000  H
  C817     1.0000 0.56530  0.16678  0.86486  Biso   1.000  C
  H502     1.0000 0.50320  0.15300  0.86020  Biso   1.000  H
  C818     1.0000 0.57400  0.20508  0.83420  Biso   1.000  C
  C819     1.0000 0.66210  0.21470  0.82063  Biso   1.000  C
  H503     1.0000 0.74200  0.21090  0.82400  Biso   1.000  H
  C820     1.0000 0.63080  0.23008  0.80203  Biso   1.000  C
  C821     1.0000 0.51590  0.23481  0.79645  Biso   1.000  C
  H504     1.0000 0.49600  0.24500  0.78350  Biso   1.000  H
  C822     1.0000 0.43010  0.22431  0.81018  Biso   1.000  C
  C823     1.0000 0.45650  0.20948  0.82929  Biso   1.000  C
  H505     1.0000 0.39650  0.20260  0.83860  Biso   1.000  H
  C824     1.0000 0.21490  0.21082  0.81098  Biso   1.000  C
  H506     1.0000 0.21680  0.19090  0.81880  Biso   1.000  H
  C825     1.0000 0.11960  0.22619  0.80320  Biso   1.000  C
  H507     1.0000 0.04140  0.21850  0.80460  Biso   1.000  H
  C826     1.0000 0.26830  0.25654  0.79421  Biso   1.000  C
  H508     1.0000 0.31510  0.27360  0.78840  Biso   1.000  H
  C827     1.0000 0.72120  0.24374  0.76707  Biso   1.000  C
  H509     1.0000 0.66150  0.23640  0.75780  Biso   1.000  H
  C828     1.0000 0.82350  0.25514  0.79559  Biso   1.000  C
  H510     1.0000 0.84590  0.25680  0.80990  Biso   1.000  H
  C829     1.0000 0.82390  0.25824  0.76181  Biso   1.000  C
  H511     1.0000 0.84870  0.26280  0.74790  Biso   1.000  H
  C830     1.0000 0.97690  0.32075  0.81839  Biso   1.000  C
  C831     1.0000 0.92380  0.34861  0.83068  Biso   1.000  C
  C832     1.0000 0.92130  0.34835  0.85227  Biso   1.000  C
  H512     1.0000 0.95140  0.32980  0.85960  Biso   1.000  H
  Zn33     1.0000 0.87500  0.37500  0.65340  Biso   1.000  Zn
  Zn34     1.0000 0.87500  0.87500  0.15340  Biso   1.000  Zn
  Zn35     1.0000 0.37500  0.37500  0.15340  Biso   1.000  Zn
  Zn36     1.0000 0.37500  0.87500  0.65340  Biso   1.000  Zn
  Zn37     1.0000 0.87500  0.37500  0.09660  Biso   1.000  Zn
  Zn38     1.0000 0.87500  0.87500  0.59660  Biso   1.000  Zn
  Zn39     1.0000 0.37500  0.37500  0.59660  Biso   1.000  Zn
  Zn40     1.0000 0.37500  0.87500  0.09660  Biso   1.000  Zn
  Zn41     1.0000 0.12500  0.62500  0.34660  Biso   1.000  Zn
  Zn42     1.0000 0.12500  0.12500  0.84660  Biso   1.000  Zn
  Zn43     1.0000 0.62500  0.62500  0.84660  Biso   1.000  Zn
  Zn44     1.0000 0.62500  0.12500  0.34660  Biso   1.000  Zn
  Zn45     1.0000 0.12500  0.62500  0.90340  Biso   1.000  Zn
  Zn46     1.0000 0.12500  0.12500  0.40340  Biso   1.000  Zn
  Zn47     1.0000 0.62500  0.62500  0.40340  Biso   1.000  Zn
  Zn48     1.0000 0.62500  0.12500  0.90340  Biso   1.000  Zn
  C833     1.0000 0.62500  0.62500  0.56972  Biso   1.000  C
  C834     1.0000 0.62500  0.62500  0.61339  Biso   1.000  C
  C835     1.0000 0.62500  0.12500  0.06972  Biso   1.000  C
  C836     1.0000 0.62500  0.12500  0.11339  Biso   1.000  C
  C837     1.0000 0.12500  0.12500  0.56972  Biso   1.000  C
  C838     1.0000 0.12500  0.12500  0.61339  Biso   1.000  C
  C839     1.0000 0.12500  0.62500  0.06972  Biso   1.000  C
  C840     1.0000 0.12500  0.62500  0.11339  Biso   1.000  C
  C841     1.0000 0.12500  0.62500  0.18028  Biso   1.000  C
  C842     1.0000 0.12500  0.62500  0.13661  Biso   1.000  C
  C843     1.0000 0.12500  0.12500  0.68028  Biso   1.000  C
  C844     1.0000 0.12500  0.12500  0.63661  Biso   1.000  C
  C845     1.0000 0.62500  0.62500  0.68028  Biso   1.000  C
  C846     1.0000 0.62500  0.62500  0.63661  Biso   1.000  C
  C847     1.0000 0.62500  0.12500  0.18028  Biso   1.000  C
  C848     1.0000 0.62500  0.12500  0.13661  Biso   1.000  C
  C849     1.0000 0.37500  0.37500  0.43028  Biso   1.000  C
  C850     1.0000 0.37500  0.37500  0.38661  Biso   1.000  C
  C851     1.0000 0.37500  0.87500  0.93028  Biso   1.000  C
  C852     1.0000 0.37500  0.87500  0.88661  Biso   1.000  C
  C853     1.0000 0.87500  0.87500  0.43028  Biso   1.000  C
  C854     1.0000 0.87500  0.87500  0.38661  Biso   1.000  C
  C855     1.0000 0.87500  0.37500  0.93028  Biso   1.000  C
  C856     1.0000 0.87500  0.37500  0.88661  Biso   1.000  C
  C857     1.0000 0.87500  0.37500  0.81972  Biso   1.000  C
  C858     1.0000 0.87500  0.37500  0.86339  Biso   1.000  C
  C859     1.0000 0.87500  0.87500  0.31972  Biso   1.000  C
  C860     1.0000 0.87500  0.87500  0.36339  Biso   1.000  C
  C861     1.0000 0.37500  0.87500  0.81972  Biso   1.000  C
  C862     1.0000 0.37500  0.87500  0.86339  Biso   1.000  C
  C863     1.0000 0.37500  0.37500  0.31972  Biso   1.000  C
  C864     1.0000 0.37500  0.37500  0.36339  Biso   1.000  C
