data_image0
_cell_length_a       51.55
_cell_length_b       51.55
_cell_length_c       51.55
_cell_angle_alpha    90
_cell_angle_beta     90
_cell_angle_gamma    90

_symmetry_space_group_name_H-M    "P 1"
_symmetry_int_tables_number       1

loop_
  _symmetry_equiv_pos_as_xyz
  'x, y, z'

loop_
  _atom_site_label
  _atom_site_occupancy
  _atom_site_fract_x
  _atom_site_fract_y
  _atom_site_fract_z
  _atom_site_thermal_displace_type
  _atom_site_B_iso_or_equiv
  _atom_site_type_symbol
  O1       1.0000 0.26428  0.52996  0.18384  Biso   1.000  O
  O2       1.0000 0.29760  0.52840  0.20990  Biso   1.000  O
  C1       1.0000 0.28725  0.53626  0.19247  Biso   1.000  C
  C2       1.0000 0.29329  0.56396  0.18343  Biso   1.000  C
  C3       1.0000 0.31533  0.57155  0.18921  Biso   1.000  C
  H1       1.0000 0.32780  0.55980  0.19610  Biso   1.000  H
  C4       1.0000 0.32251  0.60095  0.18508  Biso   1.000  C
  C5       1.0000 0.34996  0.61239  0.19486  Biso   1.000  C
  C6       1.0000 0.35030  0.63205  0.17179  Biso   1.000  C
  C7       1.0000 0.33157  0.63296  0.15143  Biso   1.000  C
  C8       1.0000 0.31481  0.60943  0.16146  Biso   1.000  C
  C9       1.0000 0.28944  0.60104  0.14396  Biso   1.000  C
  H2       1.0000 0.28210  0.60950  0.12930  Biso   1.000  H
  C10      1.0000 0.34134  0.62268  0.21811  Biso   1.000  C
  H3       1.0000 0.34170  0.60920  0.23150  Biso   1.000  H
  H4       1.0000 0.32360  0.62910  0.21600  Biso   1.000  H
  H5       1.0000 0.35270  0.63710  0.22330  Biso   1.000  H
  C11      1.0000 0.37215  0.59136  0.18938  Biso   1.000  C
  H6       1.0000 0.37350  0.58830  0.17070  Biso   1.000  H
  H7       1.0000 0.36780  0.57510  0.19820  Biso   1.000  H
  H8       1.0000 0.38880  0.59780  0.19590  Biso   1.000  H
  C12      1.0000 0.27992  0.57387  0.15879  Biso   1.000  C
  H9       1.0000 0.26580  0.56430  0.15180  Biso   1.000  H
  O3       1.0000 0.26428  0.02996  0.68384  Biso   1.000  O
  O4       1.0000 0.29760  0.02840  0.70990  Biso   1.000  O
  C13      1.0000 0.28725  0.03626  0.69247  Biso   1.000  C
  C14      1.0000 0.29329  0.06396  0.68343  Biso   1.000  C
  C15      1.0000 0.31533  0.07155  0.68921  Biso   1.000  C
  H10      1.0000 0.32780  0.05980  0.69610  Biso   1.000  H
  C16      1.0000 0.32251  0.10095  0.68508  Biso   1.000  C
  C17      1.0000 0.34996  0.11239  0.69486  Biso   1.000  C
  C18      1.0000 0.35030  0.13205  0.67179  Biso   1.000  C
  C19      1.0000 0.33157  0.13296  0.65143  Biso   1.000  C
  C20      1.0000 0.31481  0.10943  0.66146  Biso   1.000  C
  C21      1.0000 0.28944  0.10104  0.64396  Biso   1.000  C
  H11      1.0000 0.28210  0.10950  0.62930  Biso   1.000  H
  C22      1.0000 0.34134  0.12268  0.71811  Biso   1.000  C
  H12      1.0000 0.34170  0.10920  0.73150  Biso   1.000  H
  H13      1.0000 0.32360  0.12910  0.71600  Biso   1.000  H
  H14      1.0000 0.35270  0.13710  0.72330  Biso   1.000  H
  C23      1.0000 0.37215  0.09136  0.68938  Biso   1.000  C
  H15      1.0000 0.37350  0.08830  0.67070  Biso   1.000  H
  H16      1.0000 0.36780  0.07510  0.69820  Biso   1.000  H
  H17      1.0000 0.38880  0.09780  0.69590  Biso   1.000  H
  C24      1.0000 0.27992  0.07387  0.65879  Biso   1.000  C
  H18      1.0000 0.26580  0.06430  0.65180  Biso   1.000  H
  O5       1.0000 0.76428  0.52996  0.68384  Biso   1.000  O
  O6       1.0000 0.79760  0.52840  0.70990  Biso   1.000  O
  C25      1.0000 0.78725  0.53626  0.69247  Biso   1.000  C
  C26      1.0000 0.79329  0.56396  0.68343  Biso   1.000  C
  C27      1.0000 0.81533  0.57155  0.68921  Biso   1.000  C
  H19      1.0000 0.82780  0.55980  0.69610  Biso   1.000  H
  C28      1.0000 0.82251  0.60095  0.68508  Biso   1.000  C
  C29      1.0000 0.84996  0.61239  0.69486  Biso   1.000  C
  C30      1.0000 0.85030  0.63205  0.67179  Biso   1.000  C
  C31      1.0000 0.83157  0.63296  0.65143  Biso   1.000  C
  C32      1.0000 0.81481  0.60943  0.66146  Biso   1.000  C
  C33      1.0000 0.78944  0.60104  0.64396  Biso   1.000  C
  H20      1.0000 0.78210  0.60950  0.62930  Biso   1.000  H
  C34      1.0000 0.84134  0.62268  0.71811  Biso   1.000  C
  H21      1.0000 0.84170  0.60920  0.73150  Biso   1.000  H
  H22      1.0000 0.82360  0.62910  0.71600  Biso   1.000  H
  H23      1.0000 0.85270  0.63710  0.72330  Biso   1.000  H
  C35      1.0000 0.87215  0.59136  0.68938  Biso   1.000  C
  H24      1.0000 0.87350  0.58830  0.67070  Biso   1.000  H
  H25      1.0000 0.86780  0.57510  0.69820  Biso   1.000  H
  H26      1.0000 0.88880  0.59780  0.69590  Biso   1.000  H
  C36      1.0000 0.77992  0.57387  0.65879  Biso   1.000  C
  H27      1.0000 0.76580  0.56430  0.65180  Biso   1.000  H
  O7       1.0000 0.76428  0.02996  0.18384  Biso   1.000  O
  O8       1.0000 0.79760  0.02840  0.20990  Biso   1.000  O
  C37      1.0000 0.78725  0.03626  0.19247  Biso   1.000  C
  C38      1.0000 0.79329  0.06396  0.18343  Biso   1.000  C
  C39      1.0000 0.81533  0.07155  0.18921  Biso   1.000  C
  H28      1.0000 0.82780  0.05980  0.19610  Biso   1.000  H
  C40      1.0000 0.82251  0.10095  0.18508  Biso   1.000  C
  C41      1.0000 0.84996  0.11239  0.19486  Biso   1.000  C
  C42      1.0000 0.85030  0.13205  0.17179  Biso   1.000  C
  C43      1.0000 0.83157  0.13296  0.15143  Biso   1.000  C
  C44      1.0000 0.81481  0.10943  0.16146  Biso   1.000  C
  C45      1.0000 0.78944  0.10104  0.14396  Biso   1.000  C
  H29      1.0000 0.78210  0.10950  0.12930  Biso   1.000  H
  C46      1.0000 0.84134  0.12268  0.21811  Biso   1.000  C
  H30      1.0000 0.84170  0.10920  0.23150  Biso   1.000  H
  H31      1.0000 0.82360  0.12910  0.21600  Biso   1.000  H
  H32      1.0000 0.85270  0.13710  0.22330  Biso   1.000  H
  C47      1.0000 0.87215  0.09136  0.18938  Biso   1.000  C
  H33      1.0000 0.87350  0.08830  0.17070  Biso   1.000  H
  H34      1.0000 0.86780  0.07510  0.19820  Biso   1.000  H
  H35      1.0000 0.88880  0.09780  0.19590  Biso   1.000  H
  C48      1.0000 0.77992  0.07387  0.15879  Biso   1.000  C
  H36      1.0000 0.76580  0.06430  0.15180  Biso   1.000  H
  O9       1.0000 0.73572  0.47004  0.18384  Biso   1.000  O
  O10      1.0000 0.70240  0.47160  0.20990  Biso   1.000  O
  C49      1.0000 0.71275  0.46374  0.19247  Biso   1.000  C
  C50      1.0000 0.70671  0.43604  0.18343  Biso   1.000  C
  C51      1.0000 0.68467  0.42845  0.18921  Biso   1.000  C
  H37      1.0000 0.67220  0.44020  0.19610  Biso   1.000  H
  C52      1.0000 0.67749  0.39905  0.18508  Biso   1.000  C
  C53      1.0000 0.65004  0.38761  0.19486  Biso   1.000  C
  C54      1.0000 0.64970  0.36795  0.17179  Biso   1.000  C
  C55      1.0000 0.66843  0.36704  0.15143  Biso   1.000  C
  C56      1.0000 0.68519  0.39057  0.16146  Biso   1.000  C
  C57      1.0000 0.71056  0.39896  0.14396  Biso   1.000  C
  H38      1.0000 0.71790  0.39050  0.12930  Biso   1.000  H
  C58      1.0000 0.65866  0.37732  0.21811  Biso   1.000  C
  H39      1.0000 0.65830  0.39080  0.23150  Biso   1.000  H
  H40      1.0000 0.67640  0.37090  0.21600  Biso   1.000  H
  H41      1.0000 0.64730  0.36290  0.22330  Biso   1.000  H
  C59      1.0000 0.62785  0.40864  0.18938  Biso   1.000  C
  H42      1.0000 0.62650  0.41170  0.17070  Biso   1.000  H
  H43      1.0000 0.63220  0.42490  0.19820  Biso   1.000  H
  H44      1.0000 0.61120  0.40220  0.19590  Biso   1.000  H
  C60      1.0000 0.72008  0.42613  0.15879  Biso   1.000  C
  H45      1.0000 0.73420  0.43570  0.15180  Biso   1.000  H
  O11      1.0000 0.73572  0.97004  0.68384  Biso   1.000  O
  O12      1.0000 0.70240  0.97160  0.70990  Biso   1.000  O
  C61      1.0000 0.71275  0.96374  0.69247  Biso   1.000  C
  C62      1.0000 0.70671  0.93604  0.68343  Biso   1.000  C
  C63      1.0000 0.68467  0.92845  0.68921  Biso   1.000  C
  H46      1.0000 0.67220  0.94020  0.69610  Biso   1.000  H
  C64      1.0000 0.67749  0.89905  0.68508  Biso   1.000  C
  C65      1.0000 0.65004  0.88761  0.69486  Biso   1.000  C
  C66      1.0000 0.64970  0.86795  0.67179  Biso   1.000  C
  C67      1.0000 0.66843  0.86704  0.65143  Biso   1.000  C
  C68      1.0000 0.68519  0.89057  0.66146  Biso   1.000  C
  C69      1.0000 0.71056  0.89896  0.64396  Biso   1.000  C
  H47      1.0000 0.71790  0.89050  0.62930  Biso   1.000  H
  C70      1.0000 0.65866  0.87732  0.71811  Biso   1.000  C
  H48      1.0000 0.65830  0.89080  0.73150  Biso   1.000  H
  H49      1.0000 0.67640  0.87090  0.71600  Biso   1.000  H
  H50      1.0000 0.64730  0.86290  0.72330  Biso   1.000  H
  C71      1.0000 0.62785  0.90864  0.68938  Biso   1.000  C
  H51      1.0000 0.62650  0.91170  0.67070  Biso   1.000  H
  H52      1.0000 0.63220  0.92490  0.69820  Biso   1.000  H
  H53      1.0000 0.61120  0.90220  0.69590  Biso   1.000  H
  C72      1.0000 0.72008  0.92613  0.65879  Biso   1.000  C
  H54      1.0000 0.73420  0.93570  0.65180  Biso   1.000  H
  O13      1.0000 0.23572  0.47004  0.68384  Biso   1.000  O
  O14      1.0000 0.20240  0.47160  0.70990  Biso   1.000  O
  C73      1.0000 0.21275  0.46374  0.69247  Biso   1.000  C
  C74      1.0000 0.20671  0.43604  0.68343  Biso   1.000  C
  C75      1.0000 0.18467  0.42845  0.68921  Biso   1.000  C
  H55      1.0000 0.17220  0.44020  0.69610  Biso   1.000  H
  C76      1.0000 0.17749  0.39905  0.68508  Biso   1.000  C
  C77      1.0000 0.15004  0.38761  0.69486  Biso   1.000  C
  C78      1.0000 0.14970  0.36795  0.67179  Biso   1.000  C
  C79      1.0000 0.16843  0.36704  0.65143  Biso   1.000  C
  C80      1.0000 0.18519  0.39057  0.66146  Biso   1.000  C
  C81      1.0000 0.21056  0.39896  0.64396  Biso   1.000  C
  H56      1.0000 0.21790  0.39050  0.62930  Biso   1.000  H
  C82      1.0000 0.15866  0.37732  0.71811  Biso   1.000  C
  H57      1.0000 0.15830  0.39080  0.73150  Biso   1.000  H
  H58      1.0000 0.17640  0.37090  0.71600  Biso   1.000  H
  H59      1.0000 0.14730  0.36290  0.72330  Biso   1.000  H
  C83      1.0000 0.12785  0.40864  0.68938  Biso   1.000  C
  H60      1.0000 0.12650  0.41170  0.67070  Biso   1.000  H
  H61      1.0000 0.13220  0.42490  0.69820  Biso   1.000  H
  H62      1.0000 0.11120  0.40220  0.69590  Biso   1.000  H
  C84      1.0000 0.22008  0.42613  0.65879  Biso   1.000  C
  H63      1.0000 0.23420  0.43570  0.65180  Biso   1.000  H
  O15      1.0000 0.23572  0.97004  0.18384  Biso   1.000  O
  O16      1.0000 0.20240  0.97160  0.20990  Biso   1.000  O
  C85      1.0000 0.21275  0.96374  0.19247  Biso   1.000  C
  C86      1.0000 0.20671  0.93604  0.18343  Biso   1.000  C
  C87      1.0000 0.18467  0.92845  0.18921  Biso   1.000  C
  H64      1.0000 0.17220  0.94020  0.19610  Biso   1.000  H
  C88      1.0000 0.17749  0.89905  0.18508  Biso   1.000  C
  C89      1.0000 0.15004  0.88761  0.19486  Biso   1.000  C
  C90      1.0000 0.14970  0.86795  0.17179  Biso   1.000  C
  C91      1.0000 0.16843  0.86704  0.15143  Biso   1.000  C
  C92      1.0000 0.18519  0.89057  0.16146  Biso   1.000  C
  C93      1.0000 0.21056  0.89896  0.14396  Biso   1.000  C
  H65      1.0000 0.21790  0.89050  0.12930  Biso   1.000  H
  C94      1.0000 0.15866  0.87732  0.21811  Biso   1.000  C
  H66      1.0000 0.15830  0.89080  0.23150  Biso   1.000  H
  H67      1.0000 0.17640  0.87090  0.21600  Biso   1.000  H
  H68      1.0000 0.14730  0.86290  0.22330  Biso   1.000  H
  C95      1.0000 0.12785  0.90864  0.18938  Biso   1.000  C
  H69      1.0000 0.12650  0.91170  0.17070  Biso   1.000  H
  H70      1.0000 0.13220  0.92490  0.19820  Biso   1.000  H
  H71      1.0000 0.11120  0.90220  0.19590  Biso   1.000  H
  C96      1.0000 0.22008  0.92613  0.15879  Biso   1.000  C
  H72      1.0000 0.23420  0.93570  0.15180  Biso   1.000  H
  O17      1.0000 0.73572  0.52996  0.81616  Biso   1.000  O
  O18      1.0000 0.70240  0.52840  0.79010  Biso   1.000  O
  C97      1.0000 0.71275  0.53626  0.80753  Biso   1.000  C
  C98      1.0000 0.70671  0.56396  0.81657  Biso   1.000  C
  C99      1.0000 0.68467  0.57155  0.81079  Biso   1.000  C
  H73      1.0000 0.67220  0.55980  0.80390  Biso   1.000  H
  C100     1.0000 0.67749  0.60095  0.81492  Biso   1.000  C
  C101     1.0000 0.65004  0.61239  0.80514  Biso   1.000  C
  C102     1.0000 0.64970  0.63205  0.82821  Biso   1.000  C
  C103     1.0000 0.66843  0.63296  0.84857  Biso   1.000  C
  C104     1.0000 0.68519  0.60943  0.83854  Biso   1.000  C
  C105     1.0000 0.71056  0.60104  0.85604  Biso   1.000  C
  H74      1.0000 0.71790  0.60950  0.87070  Biso   1.000  H
  C106     1.0000 0.65866  0.62268  0.78189  Biso   1.000  C
  H75      1.0000 0.65830  0.60920  0.76850  Biso   1.000  H
  H76      1.0000 0.67640  0.62910  0.78400  Biso   1.000  H
  H77      1.0000 0.64730  0.63710  0.77670  Biso   1.000  H
  C107     1.0000 0.62785  0.59136  0.81062  Biso   1.000  C
  H78      1.0000 0.62650  0.58830  0.82930  Biso   1.000  H
  H79      1.0000 0.63220  0.57510  0.80180  Biso   1.000  H
  H80      1.0000 0.61120  0.59780  0.80410  Biso   1.000  H
  C108     1.0000 0.72008  0.57387  0.84121  Biso   1.000  C
  H81      1.0000 0.73420  0.56430  0.84820  Biso   1.000  H
  O19      1.0000 0.73572  0.02996  0.31616  Biso   1.000  O
  O20      1.0000 0.70240  0.02840  0.29010  Biso   1.000  O
  C109     1.0000 0.71275  0.03626  0.30753  Biso   1.000  C
  C110     1.0000 0.70671  0.06396  0.31657  Biso   1.000  C
  C111     1.0000 0.68467  0.07155  0.31079  Biso   1.000  C
  H82      1.0000 0.67220  0.05980  0.30390  Biso   1.000  H
  C112     1.0000 0.67749  0.10095  0.31492  Biso   1.000  C
  C113     1.0000 0.65004  0.11239  0.30514  Biso   1.000  C
  C114     1.0000 0.64970  0.13205  0.32821  Biso   1.000  C
  C115     1.0000 0.66843  0.13296  0.34857  Biso   1.000  C
  C116     1.0000 0.68519  0.10943  0.33854  Biso   1.000  C
  C117     1.0000 0.71056  0.10104  0.35604  Biso   1.000  C
  H83      1.0000 0.71790  0.10950  0.37070  Biso   1.000  H
  C118     1.0000 0.65866  0.12268  0.28189  Biso   1.000  C
  H84      1.0000 0.65830  0.10920  0.26850  Biso   1.000  H
  H85      1.0000 0.67640  0.12910  0.28400  Biso   1.000  H
  H86      1.0000 0.64730  0.13710  0.27670  Biso   1.000  H
  C119     1.0000 0.62785  0.09136  0.31062  Biso   1.000  C
  H87      1.0000 0.62650  0.08830  0.32930  Biso   1.000  H
  H88      1.0000 0.63220  0.07510  0.30180  Biso   1.000  H
  H89      1.0000 0.61120  0.09780  0.30410  Biso   1.000  H
  C120     1.0000 0.72008  0.07387  0.34121  Biso   1.000  C
  H90      1.0000 0.73420  0.06430  0.34820  Biso   1.000  H
  O21      1.0000 0.23572  0.52996  0.31616  Biso   1.000  O
  O22      1.0000 0.20240  0.52840  0.29010  Biso   1.000  O
  C121     1.0000 0.21275  0.53626  0.30753  Biso   1.000  C
  C122     1.0000 0.20671  0.56396  0.31657  Biso   1.000  C
  C123     1.0000 0.18467  0.57155  0.31079  Biso   1.000  C
  H91      1.0000 0.17220  0.55980  0.30390  Biso   1.000  H
  C124     1.0000 0.17749  0.60095  0.31492  Biso   1.000  C
  C125     1.0000 0.15004  0.61239  0.30514  Biso   1.000  C
  C126     1.0000 0.14970  0.63205  0.32821  Biso   1.000  C
  C127     1.0000 0.16843  0.63296  0.34857  Biso   1.000  C
  C128     1.0000 0.18519  0.60943  0.33854  Biso   1.000  C
  C129     1.0000 0.21056  0.60104  0.35604  Biso   1.000  C
  H92      1.0000 0.21790  0.60950  0.37070  Biso   1.000  H
  C130     1.0000 0.15866  0.62268  0.28189  Biso   1.000  C
  H93      1.0000 0.15830  0.60920  0.26850  Biso   1.000  H
  H94      1.0000 0.17640  0.62910  0.28400  Biso   1.000  H
  H95      1.0000 0.14730  0.63710  0.27670  Biso   1.000  H
  C131     1.0000 0.12785  0.59136  0.31062  Biso   1.000  C
  H96      1.0000 0.12650  0.58830  0.32930  Biso   1.000  H
  H97      1.0000 0.13220  0.57510  0.30180  Biso   1.000  H
  H98      1.0000 0.11120  0.59780  0.30410  Biso   1.000  H
  C132     1.0000 0.22008  0.57387  0.34121  Biso   1.000  C
  H99      1.0000 0.23420  0.56430  0.34820  Biso   1.000  H
  O23      1.0000 0.23572  0.02996  0.81616  Biso   1.000  O
  O24      1.0000 0.20240  0.02840  0.79010  Biso   1.000  O
  C133     1.0000 0.21275  0.03626  0.80753  Biso   1.000  C
  C134     1.0000 0.20671  0.06396  0.81657  Biso   1.000  C
  C135     1.0000 0.18467  0.07155  0.81079  Biso   1.000  C
  H100     1.0000 0.17220  0.05980  0.80390  Biso   1.000  H
  C136     1.0000 0.17749  0.10095  0.81492  Biso   1.000  C
  C137     1.0000 0.15004  0.11239  0.80514  Biso   1.000  C
  C138     1.0000 0.14970  0.13205  0.82821  Biso   1.000  C
  C139     1.0000 0.16843  0.13296  0.84857  Biso   1.000  C
  C140     1.0000 0.18519  0.10943  0.83854  Biso   1.000  C
  C141     1.0000 0.21056  0.10104  0.85604  Biso   1.000  C
  H101     1.0000 0.21790  0.10950  0.87070  Biso   1.000  H
  C142     1.0000 0.15866  0.12268  0.78189  Biso   1.000  C
  H102     1.0000 0.15830  0.10920  0.76850  Biso   1.000  H
  H103     1.0000 0.17640  0.12910  0.78400  Biso   1.000  H
  H104     1.0000 0.14730  0.13710  0.77670  Biso   1.000  H
  C143     1.0000 0.12785  0.09136  0.81062  Biso   1.000  C
  H105     1.0000 0.12650  0.08830  0.82930  Biso   1.000  H
  H106     1.0000 0.13220  0.07510  0.80180  Biso   1.000  H
  H107     1.0000 0.11120  0.09780  0.80410  Biso   1.000  H
  C144     1.0000 0.22008  0.07387  0.84121  Biso   1.000  C
  H108     1.0000 0.23420  0.06430  0.84820  Biso   1.000  H
  O25      1.0000 0.26428  0.47004  0.81616  Biso   1.000  O
  O26      1.0000 0.29760  0.47160  0.79010  Biso   1.000  O
  C145     1.0000 0.28725  0.46374  0.80753  Biso   1.000  C
  C146     1.0000 0.29329  0.43604  0.81657  Biso   1.000  C
  C147     1.0000 0.31533  0.42845  0.81079  Biso   1.000  C
  H109     1.0000 0.32780  0.44020  0.80390  Biso   1.000  H
  C148     1.0000 0.32251  0.39905  0.81492  Biso   1.000  C
  C149     1.0000 0.34996  0.38761  0.80514  Biso   1.000  C
  C150     1.0000 0.35030  0.36795  0.82821  Biso   1.000  C
  C151     1.0000 0.33157  0.36704  0.84857  Biso   1.000  C
  C152     1.0000 0.31481  0.39057  0.83854  Biso   1.000  C
  C153     1.0000 0.28944  0.39896  0.85604  Biso   1.000  C
  H110     1.0000 0.28210  0.39050  0.87070  Biso   1.000  H
  C154     1.0000 0.34134  0.37732  0.78189  Biso   1.000  C
  H111     1.0000 0.34170  0.39080  0.76850  Biso   1.000  H
  H112     1.0000 0.32360  0.37090  0.78400  Biso   1.000  H
  H113     1.0000 0.35270  0.36290  0.77670  Biso   1.000  H
  C155     1.0000 0.37215  0.40864  0.81062  Biso   1.000  C
  H114     1.0000 0.37350  0.41170  0.82930  Biso   1.000  H
  H115     1.0000 0.36780  0.42490  0.80180  Biso   1.000  H
  H116     1.0000 0.38880  0.40220  0.80410  Biso   1.000  H
  C156     1.0000 0.27992  0.42613  0.84121  Biso   1.000  C
  H117     1.0000 0.26580  0.43570  0.84820  Biso   1.000  H
  O27      1.0000 0.26428  0.97004  0.31616  Biso   1.000  O
  O28      1.0000 0.29760  0.97160  0.29010  Biso   1.000  O
  C157     1.0000 0.28725  0.96374  0.30753  Biso   1.000  C
  C158     1.0000 0.29329  0.93604  0.31657  Biso   1.000  C
  C159     1.0000 0.31533  0.92845  0.31079  Biso   1.000  C
  H118     1.0000 0.32780  0.94020  0.30390  Biso   1.000  H
  C160     1.0000 0.32251  0.89905  0.31492  Biso   1.000  C
  C161     1.0000 0.34996  0.88761  0.30514  Biso   1.000  C
  C162     1.0000 0.35030  0.86795  0.32821  Biso   1.000  C
  C163     1.0000 0.33157  0.86704  0.34857  Biso   1.000  C
  C164     1.0000 0.31481  0.89057  0.33854  Biso   1.000  C
  C165     1.0000 0.28944  0.89896  0.35604  Biso   1.000  C
  H119     1.0000 0.28210  0.89050  0.37070  Biso   1.000  H
  C166     1.0000 0.34134  0.87732  0.28189  Biso   1.000  C
  H120     1.0000 0.34170  0.89080  0.26850  Biso   1.000  H
  H121     1.0000 0.32360  0.87090  0.28400  Biso   1.000  H
  H122     1.0000 0.35270  0.86290  0.27670  Biso   1.000  H
  C167     1.0000 0.37215  0.90864  0.31062  Biso   1.000  C
  H123     1.0000 0.37350  0.91170  0.32930  Biso   1.000  H
  H124     1.0000 0.36780  0.92490  0.30180  Biso   1.000  H
  H125     1.0000 0.38880  0.90220  0.30410  Biso   1.000  H
  C168     1.0000 0.27992  0.92613  0.34121  Biso   1.000  C
  H126     1.0000 0.26580  0.93570  0.34820  Biso   1.000  H
  O29      1.0000 0.76428  0.47004  0.31616  Biso   1.000  O
  O30      1.0000 0.79760  0.47160  0.29010  Biso   1.000  O
  C169     1.0000 0.78725  0.46374  0.30753  Biso   1.000  C
  C170     1.0000 0.79329  0.43604  0.31657  Biso   1.000  C
  C171     1.0000 0.81533  0.42845  0.31079  Biso   1.000  C
  H127     1.0000 0.82780  0.44020  0.30390  Biso   1.000  H
  C172     1.0000 0.82251  0.39905  0.31492  Biso   1.000  C
  C173     1.0000 0.84996  0.38761  0.30514  Biso   1.000  C
  C174     1.0000 0.85030  0.36795  0.32821  Biso   1.000  C
  C175     1.0000 0.83157  0.36704  0.34857  Biso   1.000  C
  C176     1.0000 0.81481  0.39057  0.33854  Biso   1.000  C
  C177     1.0000 0.78944  0.39896  0.35604  Biso   1.000  C
  H128     1.0000 0.78210  0.39050  0.37070  Biso   1.000  H
  C178     1.0000 0.84134  0.37732  0.28189  Biso   1.000  C
  H129     1.0000 0.84170  0.39080  0.26850  Biso   1.000  H
  H130     1.0000 0.82360  0.37090  0.28400  Biso   1.000  H
  H131     1.0000 0.85270  0.36290  0.27670  Biso   1.000  H
  C179     1.0000 0.87215  0.40864  0.31062  Biso   1.000  C
  H132     1.0000 0.87350  0.41170  0.32930  Biso   1.000  H
  H133     1.0000 0.86780  0.42490  0.30180  Biso   1.000  H
  H134     1.0000 0.88880  0.40220  0.30410  Biso   1.000  H
  C180     1.0000 0.77992  0.42613  0.34121  Biso   1.000  C
  H135     1.0000 0.76580  0.43570  0.34820  Biso   1.000  H
  O31      1.0000 0.76428  0.97004  0.81616  Biso   1.000  O
  O32      1.0000 0.79760  0.97160  0.79010  Biso   1.000  O
  C181     1.0000 0.78725  0.96374  0.80753  Biso   1.000  C
  C182     1.0000 0.79329  0.93604  0.81657  Biso   1.000  C
  C183     1.0000 0.81533  0.92845  0.81079  Biso   1.000  C
  H136     1.0000 0.82780  0.94020  0.80390  Biso   1.000  H
  C184     1.0000 0.82251  0.89905  0.81492  Biso   1.000  C
  C185     1.0000 0.84996  0.88761  0.80514  Biso   1.000  C
  C186     1.0000 0.85030  0.86795  0.82821  Biso   1.000  C
  C187     1.0000 0.83157  0.86704  0.84857  Biso   1.000  C
  C188     1.0000 0.81481  0.89057  0.83854  Biso   1.000  C
  C189     1.0000 0.78944  0.89896  0.85604  Biso   1.000  C
  H137     1.0000 0.78210  0.89050  0.87070  Biso   1.000  H
  C190     1.0000 0.84134  0.87732  0.78189  Biso   1.000  C
  H138     1.0000 0.84170  0.89080  0.76850  Biso   1.000  H
  H139     1.0000 0.82360  0.87090  0.78400  Biso   1.000  H
  H140     1.0000 0.85270  0.86290  0.77670  Biso   1.000  H
  C191     1.0000 0.87215  0.90864  0.81062  Biso   1.000  C
  H141     1.0000 0.87350  0.91170  0.82930  Biso   1.000  H
  H142     1.0000 0.86780  0.92490  0.80180  Biso   1.000  H
  H143     1.0000 0.88880  0.90220  0.80410  Biso   1.000  H
  C192     1.0000 0.77992  0.92613  0.84121  Biso   1.000  C
  H144     1.0000 0.76580  0.93570  0.84820  Biso   1.000  H
  O33      1.0000 0.18384  0.26428  0.52996  Biso   1.000  O
  O34      1.0000 0.20990  0.29760  0.52840  Biso   1.000  O
  C193     1.0000 0.19247  0.28725  0.53626  Biso   1.000  C
  C194     1.0000 0.18343  0.29329  0.56396  Biso   1.000  C
  C195     1.0000 0.18921  0.31533  0.57155  Biso   1.000  C
  H145     1.0000 0.19610  0.32780  0.55980  Biso   1.000  H
  C196     1.0000 0.18508  0.32251  0.60095  Biso   1.000  C
  C197     1.0000 0.19486  0.34996  0.61239  Biso   1.000  C
  C198     1.0000 0.17179  0.35030  0.63205  Biso   1.000  C
  C199     1.0000 0.15143  0.33157  0.63296  Biso   1.000  C
  C200     1.0000 0.16146  0.31481  0.60943  Biso   1.000  C
  C201     1.0000 0.14396  0.28944  0.60104  Biso   1.000  C
  H146     1.0000 0.12930  0.28210  0.60950  Biso   1.000  H
  C202     1.0000 0.21811  0.34134  0.62268  Biso   1.000  C
  H147     1.0000 0.23150  0.34170  0.60920  Biso   1.000  H
  H148     1.0000 0.21600  0.32360  0.62910  Biso   1.000  H
  H149     1.0000 0.22330  0.35270  0.63710  Biso   1.000  H
  C203     1.0000 0.18938  0.37215  0.59136  Biso   1.000  C
  H150     1.0000 0.17070  0.37350  0.58830  Biso   1.000  H
  H151     1.0000 0.19820  0.36780  0.57510  Biso   1.000  H
  H152     1.0000 0.19590  0.38880  0.59780  Biso   1.000  H
  C204     1.0000 0.15879  0.27992  0.57387  Biso   1.000  C
  H153     1.0000 0.15180  0.26580  0.56430  Biso   1.000  H
  O35      1.0000 0.18384  0.76428  0.02996  Biso   1.000  O
  O36      1.0000 0.20990  0.79760  0.02840  Biso   1.000  O
  C205     1.0000 0.19247  0.78725  0.03626  Biso   1.000  C
  C206     1.0000 0.18343  0.79329  0.06396  Biso   1.000  C
  C207     1.0000 0.18921  0.81533  0.07155  Biso   1.000  C
  H154     1.0000 0.19610  0.82780  0.05980  Biso   1.000  H
  C208     1.0000 0.18508  0.82251  0.10095  Biso   1.000  C
  C209     1.0000 0.19486  0.84996  0.11239  Biso   1.000  C
  C210     1.0000 0.17179  0.85030  0.13205  Biso   1.000  C
  C211     1.0000 0.15143  0.83157  0.13296  Biso   1.000  C
  C212     1.0000 0.16146  0.81481  0.10943  Biso   1.000  C
  C213     1.0000 0.14396  0.78944  0.10104  Biso   1.000  C
  H155     1.0000 0.12930  0.78210  0.10950  Biso   1.000  H
  C214     1.0000 0.21811  0.84134  0.12268  Biso   1.000  C
  H156     1.0000 0.23150  0.84170  0.10920  Biso   1.000  H
  H157     1.0000 0.21600  0.82360  0.12910  Biso   1.000  H
  H158     1.0000 0.22330  0.85270  0.13710  Biso   1.000  H
  C215     1.0000 0.18938  0.87215  0.09136  Biso   1.000  C
  H159     1.0000 0.17070  0.87350  0.08830  Biso   1.000  H
  H160     1.0000 0.19820  0.86780  0.07510  Biso   1.000  H
  H161     1.0000 0.19590  0.88880  0.09780  Biso   1.000  H
  C216     1.0000 0.15879  0.77992  0.07387  Biso   1.000  C
  H162     1.0000 0.15180  0.76580  0.06430  Biso   1.000  H
  O37      1.0000 0.68384  0.26428  0.02996  Biso   1.000  O
  O38      1.0000 0.70990  0.29760  0.02840  Biso   1.000  O
  C217     1.0000 0.69247  0.28725  0.03626  Biso   1.000  C
  C218     1.0000 0.68343  0.29329  0.06396  Biso   1.000  C
  C219     1.0000 0.68921  0.31533  0.07155  Biso   1.000  C
  H163     1.0000 0.69610  0.32780  0.05980  Biso   1.000  H
  C220     1.0000 0.68508  0.32251  0.10095  Biso   1.000  C
  C221     1.0000 0.69486  0.34996  0.11239  Biso   1.000  C
  C222     1.0000 0.67179  0.35030  0.13205  Biso   1.000  C
  C223     1.0000 0.65143  0.33157  0.13296  Biso   1.000  C
  C224     1.0000 0.66146  0.31481  0.10943  Biso   1.000  C
  C225     1.0000 0.64396  0.28944  0.10104  Biso   1.000  C
  H164     1.0000 0.62930  0.28210  0.10950  Biso   1.000  H
  C226     1.0000 0.71811  0.34134  0.12268  Biso   1.000  C
  H165     1.0000 0.73150  0.34170  0.10920  Biso   1.000  H
  H166     1.0000 0.71600  0.32360  0.12910  Biso   1.000  H
  H167     1.0000 0.72330  0.35270  0.13710  Biso   1.000  H
  C227     1.0000 0.68938  0.37215  0.09136  Biso   1.000  C
  H168     1.0000 0.67070  0.37350  0.08830  Biso   1.000  H
  H169     1.0000 0.69820  0.36780  0.07510  Biso   1.000  H
  H170     1.0000 0.69590  0.38880  0.09780  Biso   1.000  H
  C228     1.0000 0.65879  0.27992  0.07387  Biso   1.000  C
  H171     1.0000 0.65180  0.26580  0.06430  Biso   1.000  H
  O39      1.0000 0.68384  0.76428  0.52996  Biso   1.000  O
  O40      1.0000 0.70990  0.79760  0.52840  Biso   1.000  O
  C229     1.0000 0.69247  0.78725  0.53626  Biso   1.000  C
  C230     1.0000 0.68343  0.79329  0.56396  Biso   1.000  C
  C231     1.0000 0.68921  0.81533  0.57155  Biso   1.000  C
  H172     1.0000 0.69610  0.82780  0.55980  Biso   1.000  H
  C232     1.0000 0.68508  0.82251  0.60095  Biso   1.000  C
  C233     1.0000 0.69486  0.84996  0.61239  Biso   1.000  C
  C234     1.0000 0.67179  0.85030  0.63205  Biso   1.000  C
  C235     1.0000 0.65143  0.83157  0.63296  Biso   1.000  C
  C236     1.0000 0.66146  0.81481  0.60943  Biso   1.000  C
  C237     1.0000 0.64396  0.78944  0.60104  Biso   1.000  C
  H173     1.0000 0.62930  0.78210  0.60950  Biso   1.000  H
  C238     1.0000 0.71811  0.84134  0.62268  Biso   1.000  C
  H174     1.0000 0.73150  0.84170  0.60920  Biso   1.000  H
  H175     1.0000 0.71600  0.82360  0.62910  Biso   1.000  H
  H176     1.0000 0.72330  0.85270  0.63710  Biso   1.000  H
  C239     1.0000 0.68938  0.87215  0.59136  Biso   1.000  C
  H177     1.0000 0.67070  0.87350  0.58830  Biso   1.000  H
  H178     1.0000 0.69820  0.86780  0.57510  Biso   1.000  H
  H179     1.0000 0.69590  0.88880  0.59780  Biso   1.000  H
  C240     1.0000 0.65879  0.77992  0.57387  Biso   1.000  C
  H180     1.0000 0.65180  0.76580  0.56430  Biso   1.000  H
  O41      1.0000 0.18384  0.73572  0.47004  Biso   1.000  O
  O42      1.0000 0.20990  0.70240  0.47160  Biso   1.000  O
  C241     1.0000 0.19247  0.71275  0.46374  Biso   1.000  C
  C242     1.0000 0.18343  0.70671  0.43604  Biso   1.000  C
  C243     1.0000 0.18921  0.68467  0.42845  Biso   1.000  C
  H181     1.0000 0.19610  0.67220  0.44020  Biso   1.000  H
  C244     1.0000 0.18508  0.67749  0.39905  Biso   1.000  C
  C245     1.0000 0.19486  0.65004  0.38761  Biso   1.000  C
  C246     1.0000 0.17179  0.64970  0.36795  Biso   1.000  C
  C247     1.0000 0.15143  0.66843  0.36704  Biso   1.000  C
  C248     1.0000 0.16146  0.68519  0.39057  Biso   1.000  C
  C249     1.0000 0.14396  0.71056  0.39896  Biso   1.000  C
  H182     1.0000 0.12930  0.71790  0.39050  Biso   1.000  H
  C250     1.0000 0.21811  0.65866  0.37732  Biso   1.000  C
  H183     1.0000 0.23150  0.65830  0.39080  Biso   1.000  H
  H184     1.0000 0.21600  0.67640  0.37090  Biso   1.000  H
  H185     1.0000 0.22330  0.64730  0.36290  Biso   1.000  H
  C251     1.0000 0.18938  0.62785  0.40864  Biso   1.000  C
  H186     1.0000 0.17070  0.62650  0.41170  Biso   1.000  H
  H187     1.0000 0.19820  0.63220  0.42490  Biso   1.000  H
  H188     1.0000 0.19590  0.61120  0.40220  Biso   1.000  H
  C252     1.0000 0.15879  0.72008  0.42613  Biso   1.000  C
  H189     1.0000 0.15180  0.73420  0.43570  Biso   1.000  H
  O43      1.0000 0.18384  0.23572  0.97004  Biso   1.000  O
  O44      1.0000 0.20990  0.20240  0.97160  Biso   1.000  O
  C253     1.0000 0.19247  0.21275  0.96374  Biso   1.000  C
  C254     1.0000 0.18343  0.20671  0.93604  Biso   1.000  C
  C255     1.0000 0.18921  0.18467  0.92845  Biso   1.000  C
  H190     1.0000 0.19610  0.17220  0.94020  Biso   1.000  H
  C256     1.0000 0.18508  0.17749  0.89905  Biso   1.000  C
  C257     1.0000 0.19486  0.15004  0.88761  Biso   1.000  C
  C258     1.0000 0.17179  0.14970  0.86795  Biso   1.000  C
  C259     1.0000 0.15143  0.16843  0.86704  Biso   1.000  C
  C260     1.0000 0.16146  0.18519  0.89057  Biso   1.000  C
  C261     1.0000 0.14396  0.21056  0.89896  Biso   1.000  C
  H191     1.0000 0.12930  0.21790  0.89050  Biso   1.000  H
  C262     1.0000 0.21811  0.15866  0.87732  Biso   1.000  C
  H192     1.0000 0.23150  0.15830  0.89080  Biso   1.000  H
  H193     1.0000 0.21600  0.17640  0.87090  Biso   1.000  H
  H194     1.0000 0.22330  0.14730  0.86290  Biso   1.000  H
  C263     1.0000 0.18938  0.12785  0.90864  Biso   1.000  C
  H195     1.0000 0.17070  0.12650  0.91170  Biso   1.000  H
  H196     1.0000 0.19820  0.13220  0.92490  Biso   1.000  H
  H197     1.0000 0.19590  0.11120  0.90220  Biso   1.000  H
  C264     1.0000 0.15879  0.22008  0.92613  Biso   1.000  C
  H198     1.0000 0.15180  0.23420  0.93570  Biso   1.000  H
  O45      1.0000 0.68384  0.73572  0.97004  Biso   1.000  O
  O46      1.0000 0.70990  0.70240  0.97160  Biso   1.000  O
  C265     1.0000 0.69247  0.71275  0.96374  Biso   1.000  C
  C266     1.0000 0.68343  0.70671  0.93604  Biso   1.000  C
  C267     1.0000 0.68921  0.68467  0.92845  Biso   1.000  C
  H199     1.0000 0.69610  0.67220  0.94020  Biso   1.000  H
  C268     1.0000 0.68508  0.67749  0.89905  Biso   1.000  C
  C269     1.0000 0.69486  0.65004  0.88761  Biso   1.000  C
  C270     1.0000 0.67179  0.64970  0.86795  Biso   1.000  C
  C271     1.0000 0.65143  0.66843  0.86704  Biso   1.000  C
  C272     1.0000 0.66146  0.68519  0.89057  Biso   1.000  C
  C273     1.0000 0.64396  0.71056  0.89896  Biso   1.000  C
  H200     1.0000 0.62930  0.71790  0.89050  Biso   1.000  H
  C274     1.0000 0.71811  0.65866  0.87732  Biso   1.000  C
  H201     1.0000 0.73150  0.65830  0.89080  Biso   1.000  H
  H202     1.0000 0.71600  0.67640  0.87090  Biso   1.000  H
  H203     1.0000 0.72330  0.64730  0.86290  Biso   1.000  H
  C275     1.0000 0.68938  0.62785  0.90864  Biso   1.000  C
  H204     1.0000 0.67070  0.62650  0.91170  Biso   1.000  H
  H205     1.0000 0.69820  0.63220  0.92490  Biso   1.000  H
  H206     1.0000 0.69590  0.61120  0.90220  Biso   1.000  H
  C276     1.0000 0.65879  0.72008  0.92613  Biso   1.000  C
  H207     1.0000 0.65180  0.73420  0.93570  Biso   1.000  H
  O47      1.0000 0.68384  0.23572  0.47004  Biso   1.000  O
  O48      1.0000 0.70990  0.20240  0.47160  Biso   1.000  O
  C277     1.0000 0.69247  0.21275  0.46374  Biso   1.000  C
  C278     1.0000 0.68343  0.20671  0.43604  Biso   1.000  C
  C279     1.0000 0.68921  0.18467  0.42845  Biso   1.000  C
  H208     1.0000 0.69610  0.17220  0.44020  Biso   1.000  H
  C280     1.0000 0.68508  0.17749  0.39905  Biso   1.000  C
  C281     1.0000 0.69486  0.15004  0.38761  Biso   1.000  C
  C282     1.0000 0.67179  0.14970  0.36795  Biso   1.000  C
  C283     1.0000 0.65143  0.16843  0.36704  Biso   1.000  C
  C284     1.0000 0.66146  0.18519  0.39057  Biso   1.000  C
  C285     1.0000 0.64396  0.21056  0.39896  Biso   1.000  C
  H209     1.0000 0.62930  0.21790  0.39050  Biso   1.000  H
  C286     1.0000 0.71811  0.15866  0.37732  Biso   1.000  C
  H210     1.0000 0.73150  0.15830  0.39080  Biso   1.000  H
  H211     1.0000 0.71600  0.17640  0.37090  Biso   1.000  H
  H212     1.0000 0.72330  0.14730  0.36290  Biso   1.000  H
  C287     1.0000 0.68938  0.12785  0.40864  Biso   1.000  C
  H213     1.0000 0.67070  0.12650  0.41170  Biso   1.000  H
  H214     1.0000 0.69820  0.13220  0.42490  Biso   1.000  H
  H215     1.0000 0.69590  0.11120  0.40220  Biso   1.000  H
  C288     1.0000 0.65879  0.22008  0.42613  Biso   1.000  C
  H216     1.0000 0.65180  0.23420  0.43570  Biso   1.000  H
  O49      1.0000 0.81616  0.73572  0.52996  Biso   1.000  O
  O50      1.0000 0.79010  0.70240  0.52840  Biso   1.000  O
  C289     1.0000 0.80753  0.71275  0.53626  Biso   1.000  C
  C290     1.0000 0.81657  0.70671  0.56396  Biso   1.000  C
  C291     1.0000 0.81079  0.68467  0.57155  Biso   1.000  C
  H217     1.0000 0.80390  0.67220  0.55980  Biso   1.000  H
  C292     1.0000 0.81492  0.67749  0.60095  Biso   1.000  C
  C293     1.0000 0.80514  0.65004  0.61239  Biso   1.000  C
  C294     1.0000 0.82821  0.64970  0.63205  Biso   1.000  C
  C295     1.0000 0.84857  0.66843  0.63296  Biso   1.000  C
  C296     1.0000 0.83854  0.68519  0.60943  Biso   1.000  C
  C297     1.0000 0.85604  0.71056  0.60104  Biso   1.000  C
  H218     1.0000 0.87070  0.71790  0.60950  Biso   1.000  H
  C298     1.0000 0.78189  0.65866  0.62268  Biso   1.000  C
  H219     1.0000 0.76850  0.65830  0.60920  Biso   1.000  H
  H220     1.0000 0.78400  0.67640  0.62910  Biso   1.000  H
  H221     1.0000 0.77670  0.64730  0.63710  Biso   1.000  H
  C299     1.0000 0.81062  0.62785  0.59136  Biso   1.000  C
  H222     1.0000 0.82930  0.62650  0.58830  Biso   1.000  H
  H223     1.0000 0.80180  0.63220  0.57510  Biso   1.000  H
  H224     1.0000 0.80410  0.61120  0.59780  Biso   1.000  H
  C300     1.0000 0.84121  0.72008  0.57387  Biso   1.000  C
  H225     1.0000 0.84820  0.73420  0.56430  Biso   1.000  H
  O51      1.0000 0.81616  0.23572  0.02996  Biso   1.000  O
  O52      1.0000 0.79010  0.20240  0.02840  Biso   1.000  O
  C301     1.0000 0.80753  0.21275  0.03626  Biso   1.000  C
  C302     1.0000 0.81657  0.20671  0.06396  Biso   1.000  C
  C303     1.0000 0.81079  0.18467  0.07155  Biso   1.000  C
  H226     1.0000 0.80390  0.17220  0.05980  Biso   1.000  H
  C304     1.0000 0.81492  0.17749  0.10095  Biso   1.000  C
  C305     1.0000 0.80514  0.15004  0.11239  Biso   1.000  C
  C306     1.0000 0.82821  0.14970  0.13205  Biso   1.000  C
  C307     1.0000 0.84857  0.16843  0.13296  Biso   1.000  C
  C308     1.0000 0.83854  0.18519  0.10943  Biso   1.000  C
  C309     1.0000 0.85604  0.21056  0.10104  Biso   1.000  C
  H227     1.0000 0.87070  0.21790  0.10950  Biso   1.000  H
  C310     1.0000 0.78189  0.15866  0.12268  Biso   1.000  C
  H228     1.0000 0.76850  0.15830  0.10920  Biso   1.000  H
  H229     1.0000 0.78400  0.17640  0.12910  Biso   1.000  H
  H230     1.0000 0.77670  0.14730  0.13710  Biso   1.000  H
  C311     1.0000 0.81062  0.12785  0.09136  Biso   1.000  C
  H231     1.0000 0.82930  0.12650  0.08830  Biso   1.000  H
  H232     1.0000 0.80180  0.13220  0.07510  Biso   1.000  H
  H233     1.0000 0.80410  0.11120  0.09780  Biso   1.000  H
  C312     1.0000 0.84121  0.22008  0.07387  Biso   1.000  C
  H234     1.0000 0.84820  0.23420  0.06430  Biso   1.000  H
  O53      1.0000 0.31616  0.73572  0.02996  Biso   1.000  O
  O54      1.0000 0.29010  0.70240  0.02840  Biso   1.000  O
  C313     1.0000 0.30753  0.71275  0.03626  Biso   1.000  C
  C314     1.0000 0.31657  0.70671  0.06396  Biso   1.000  C
  C315     1.0000 0.31079  0.68467  0.07155  Biso   1.000  C
  H235     1.0000 0.30390  0.67220  0.05980  Biso   1.000  H
  C316     1.0000 0.31492  0.67749  0.10095  Biso   1.000  C
  C317     1.0000 0.30514  0.65004  0.11239  Biso   1.000  C
  C318     1.0000 0.32821  0.64970  0.13205  Biso   1.000  C
  C319     1.0000 0.34857  0.66843  0.13296  Biso   1.000  C
  C320     1.0000 0.33854  0.68519  0.10943  Biso   1.000  C
  C321     1.0000 0.35604  0.71056  0.10104  Biso   1.000  C
  H236     1.0000 0.37070  0.71790  0.10950  Biso   1.000  H
  C322     1.0000 0.28189  0.65866  0.12268  Biso   1.000  C
  H237     1.0000 0.26850  0.65830  0.10920  Biso   1.000  H
  H238     1.0000 0.28400  0.67640  0.12910  Biso   1.000  H
  H239     1.0000 0.27670  0.64730  0.13710  Biso   1.000  H
  C323     1.0000 0.31062  0.62785  0.09136  Biso   1.000  C
  H240     1.0000 0.32930  0.62650  0.08830  Biso   1.000  H
  H241     1.0000 0.30180  0.63220  0.07510  Biso   1.000  H
  H242     1.0000 0.30410  0.61120  0.09780  Biso   1.000  H
  C324     1.0000 0.34121  0.72008  0.07387  Biso   1.000  C
  H243     1.0000 0.34820  0.73420  0.06430  Biso   1.000  H
  O55      1.0000 0.31616  0.23572  0.52996  Biso   1.000  O
  O56      1.0000 0.29010  0.20240  0.52840  Biso   1.000  O
  C325     1.0000 0.30753  0.21275  0.53626  Biso   1.000  C
  C326     1.0000 0.31657  0.20671  0.56396  Biso   1.000  C
  C327     1.0000 0.31079  0.18467  0.57155  Biso   1.000  C
  H244     1.0000 0.30390  0.17220  0.55980  Biso   1.000  H
  C328     1.0000 0.31492  0.17749  0.60095  Biso   1.000  C
  C329     1.0000 0.30514  0.15004  0.61239  Biso   1.000  C
  C330     1.0000 0.32821  0.14970  0.63205  Biso   1.000  C
  C331     1.0000 0.34857  0.16843  0.63296  Biso   1.000  C
  C332     1.0000 0.33854  0.18519  0.60943  Biso   1.000  C
  C333     1.0000 0.35604  0.21056  0.60104  Biso   1.000  C
  H245     1.0000 0.37070  0.21790  0.60950  Biso   1.000  H
  C334     1.0000 0.28189  0.15866  0.62268  Biso   1.000  C
  H246     1.0000 0.26850  0.15830  0.60920  Biso   1.000  H
  H247     1.0000 0.28400  0.17640  0.62910  Biso   1.000  H
  H248     1.0000 0.27670  0.14730  0.63710  Biso   1.000  H
  C335     1.0000 0.31062  0.12785  0.59136  Biso   1.000  C
  H249     1.0000 0.32930  0.12650  0.58830  Biso   1.000  H
  H250     1.0000 0.30180  0.13220  0.57510  Biso   1.000  H
  H251     1.0000 0.30410  0.11120  0.59780  Biso   1.000  H
  C336     1.0000 0.34121  0.22008  0.57387  Biso   1.000  C
  H252     1.0000 0.34820  0.23420  0.56430  Biso   1.000  H
  O57      1.0000 0.81616  0.26428  0.47004  Biso   1.000  O
  O58      1.0000 0.79010  0.29760  0.47160  Biso   1.000  O
  C337     1.0000 0.80753  0.28725  0.46374  Biso   1.000  C
  C338     1.0000 0.81657  0.29329  0.43604  Biso   1.000  C
  C339     1.0000 0.81079  0.31533  0.42845  Biso   1.000  C
  H253     1.0000 0.80390  0.32780  0.44020  Biso   1.000  H
  C340     1.0000 0.81492  0.32251  0.39905  Biso   1.000  C
  C341     1.0000 0.80514  0.34996  0.38761  Biso   1.000  C
  C342     1.0000 0.82821  0.35030  0.36795  Biso   1.000  C
  C343     1.0000 0.84857  0.33157  0.36704  Biso   1.000  C
  C344     1.0000 0.83854  0.31481  0.39057  Biso   1.000  C
  C345     1.0000 0.85604  0.28944  0.39896  Biso   1.000  C
  H254     1.0000 0.87070  0.28210  0.39050  Biso   1.000  H
  C346     1.0000 0.78189  0.34134  0.37732  Biso   1.000  C
  H255     1.0000 0.76850  0.34170  0.39080  Biso   1.000  H
  H256     1.0000 0.78400  0.32360  0.37090  Biso   1.000  H
  H257     1.0000 0.77670  0.35270  0.36290  Biso   1.000  H
  C347     1.0000 0.81062  0.37215  0.40864  Biso   1.000  C
  H258     1.0000 0.82930  0.37350  0.41170  Biso   1.000  H
  H259     1.0000 0.80180  0.36780  0.42490  Biso   1.000  H
  H260     1.0000 0.80410  0.38880  0.40220  Biso   1.000  H
  C348     1.0000 0.84121  0.27992  0.42613  Biso   1.000  C
  H261     1.0000 0.84820  0.26580  0.43570  Biso   1.000  H
  O59      1.0000 0.81616  0.76428  0.97004  Biso   1.000  O
  O60      1.0000 0.79010  0.79760  0.97160  Biso   1.000  O
  C349     1.0000 0.80753  0.78725  0.96374  Biso   1.000  C
  C350     1.0000 0.81657  0.79329  0.93604  Biso   1.000  C
  C351     1.0000 0.81079  0.81533  0.92845  Biso   1.000  C
  H262     1.0000 0.80390  0.82780  0.94020  Biso   1.000  H
  C352     1.0000 0.81492  0.82251  0.89905  Biso   1.000  C
  C353     1.0000 0.80514  0.84996  0.88761  Biso   1.000  C
  C354     1.0000 0.82821  0.85030  0.86795  Biso   1.000  C
  C355     1.0000 0.84857  0.83157  0.86704  Biso   1.000  C
  C356     1.0000 0.83854  0.81481  0.89057  Biso   1.000  C
  C357     1.0000 0.85604  0.78944  0.89896  Biso   1.000  C
  H263     1.0000 0.87070  0.78210  0.89050  Biso   1.000  H
  C358     1.0000 0.78189  0.84134  0.87732  Biso   1.000  C
  H264     1.0000 0.76850  0.84170  0.89080  Biso   1.000  H
  H265     1.0000 0.78400  0.82360  0.87090  Biso   1.000  H
  H266     1.0000 0.77670  0.85270  0.86290  Biso   1.000  H
  C359     1.0000 0.81062  0.87215  0.90864  Biso   1.000  C
  H267     1.0000 0.82930  0.87350  0.91170  Biso   1.000  H
  H268     1.0000 0.80180  0.86780  0.92490  Biso   1.000  H
  H269     1.0000 0.80410  0.88880  0.90220  Biso   1.000  H
  C360     1.0000 0.84121  0.77992  0.92613  Biso   1.000  C
  H270     1.0000 0.84820  0.76580  0.93570  Biso   1.000  H
  O61      1.0000 0.31616  0.26428  0.97004  Biso   1.000  O
  O62      1.0000 0.29010  0.29760  0.97160  Biso   1.000  O
  C361     1.0000 0.30753  0.28725  0.96374  Biso   1.000  C
  C362     1.0000 0.31657  0.29329  0.93604  Biso   1.000  C
  C363     1.0000 0.31079  0.31533  0.92845  Biso   1.000  C
  H271     1.0000 0.30390  0.32780  0.94020  Biso   1.000  H
  C364     1.0000 0.31492  0.32251  0.89905  Biso   1.000  C
  C365     1.0000 0.30514  0.34996  0.88761  Biso   1.000  C
  C366     1.0000 0.32821  0.35030  0.86795  Biso   1.000  C
  C367     1.0000 0.34857  0.33157  0.86704  Biso   1.000  C
  C368     1.0000 0.33854  0.31481  0.89057  Biso   1.000  C
  C369     1.0000 0.35604  0.28944  0.89896  Biso   1.000  C
  H272     1.0000 0.37070  0.28210  0.89050  Biso   1.000  H
  C370     1.0000 0.28189  0.34134  0.87732  Biso   1.000  C
  H273     1.0000 0.26850  0.34170  0.89080  Biso   1.000  H
  H274     1.0000 0.28400  0.32360  0.87090  Biso   1.000  H
  H275     1.0000 0.27670  0.35270  0.86290  Biso   1.000  H
  C371     1.0000 0.31062  0.37215  0.90864  Biso   1.000  C
  H276     1.0000 0.32930  0.37350  0.91170  Biso   1.000  H
  H277     1.0000 0.30180  0.36780  0.92490  Biso   1.000  H
  H278     1.0000 0.30410  0.38880  0.90220  Biso   1.000  H
  C372     1.0000 0.34121  0.27992  0.92613  Biso   1.000  C
  H279     1.0000 0.34820  0.26580  0.93570  Biso   1.000  H
  O63      1.0000 0.31616  0.76428  0.47004  Biso   1.000  O
  O64      1.0000 0.29010  0.79760  0.47160  Biso   1.000  O
  C373     1.0000 0.30753  0.78725  0.46374  Biso   1.000  C
  C374     1.0000 0.31657  0.79329  0.43604  Biso   1.000  C
  C375     1.0000 0.31079  0.81533  0.42845  Biso   1.000  C
  H280     1.0000 0.30390  0.82780  0.44020  Biso   1.000  H
  C376     1.0000 0.31492  0.82251  0.39905  Biso   1.000  C
  C377     1.0000 0.30514  0.84996  0.38761  Biso   1.000  C
  C378     1.0000 0.32821  0.85030  0.36795  Biso   1.000  C
  C379     1.0000 0.34857  0.83157  0.36704  Biso   1.000  C
  C380     1.0000 0.33854  0.81481  0.39057  Biso   1.000  C
  C381     1.0000 0.35604  0.78944  0.39896  Biso   1.000  C
  H281     1.0000 0.37070  0.78210  0.39050  Biso   1.000  H
  C382     1.0000 0.28189  0.84134  0.37732  Biso   1.000  C
  H282     1.0000 0.26850  0.84170  0.39080  Biso   1.000  H
  H283     1.0000 0.28400  0.82360  0.37090  Biso   1.000  H
  H284     1.0000 0.27670  0.85270  0.36290  Biso   1.000  H
  C383     1.0000 0.31062  0.87215  0.40864  Biso   1.000  C
  H285     1.0000 0.32930  0.87350  0.41170  Biso   1.000  H
  H286     1.0000 0.30180  0.86780  0.42490  Biso   1.000  H
  H287     1.0000 0.30410  0.88880  0.40220  Biso   1.000  H
  C384     1.0000 0.34121  0.77992  0.42613  Biso   1.000  C
  H288     1.0000 0.34820  0.76580  0.43570  Biso   1.000  H
  O65      1.0000 0.52996  0.18384  0.26428  Biso   1.000  O
  O66      1.0000 0.52840  0.20990  0.29760  Biso   1.000  O
  C385     1.0000 0.53626  0.19247  0.28725  Biso   1.000  C
  C386     1.0000 0.56396  0.18343  0.29329  Biso   1.000  C
  C387     1.0000 0.57155  0.18921  0.31533  Biso   1.000  C
  H289     1.0000 0.55980  0.19610  0.32780  Biso   1.000  H
  C388     1.0000 0.60095  0.18508  0.32251  Biso   1.000  C
  C389     1.0000 0.61239  0.19486  0.34996  Biso   1.000  C
  C390     1.0000 0.63205  0.17179  0.35030  Biso   1.000  C
  C391     1.0000 0.63296  0.15143  0.33157  Biso   1.000  C
  C392     1.0000 0.60943  0.16146  0.31481  Biso   1.000  C
  C393     1.0000 0.60104  0.14396  0.28944  Biso   1.000  C
  H290     1.0000 0.60950  0.12930  0.28210  Biso   1.000  H
  C394     1.0000 0.62268  0.21811  0.34134  Biso   1.000  C
  H291     1.0000 0.60920  0.23150  0.34170  Biso   1.000  H
  H292     1.0000 0.62910  0.21600  0.32360  Biso   1.000  H
  H293     1.0000 0.63710  0.22330  0.35270  Biso   1.000  H
  C395     1.0000 0.59136  0.18938  0.37215  Biso   1.000  C
  H294     1.0000 0.58830  0.17070  0.37350  Biso   1.000  H
  H295     1.0000 0.57510  0.19820  0.36780  Biso   1.000  H
  H296     1.0000 0.59780  0.19590  0.38880  Biso   1.000  H
  C396     1.0000 0.57387  0.15879  0.27992  Biso   1.000  C
  H297     1.0000 0.56430  0.15180  0.26580  Biso   1.000  H
  O67      1.0000 0.52996  0.68384  0.76428  Biso   1.000  O
  O68      1.0000 0.52840  0.70990  0.79760  Biso   1.000  O
  C397     1.0000 0.53626  0.69247  0.78725  Biso   1.000  C
  C398     1.0000 0.56396  0.68343  0.79329  Biso   1.000  C
  C399     1.0000 0.57155  0.68921  0.81533  Biso   1.000  C
  H298     1.0000 0.55980  0.69610  0.82780  Biso   1.000  H
  C400     1.0000 0.60095  0.68508  0.82251  Biso   1.000  C
  C401     1.0000 0.61239  0.69486  0.84996  Biso   1.000  C
  C402     1.0000 0.63205  0.67179  0.85030  Biso   1.000  C
  C403     1.0000 0.63296  0.65143  0.83157  Biso   1.000  C
  C404     1.0000 0.60943  0.66146  0.81481  Biso   1.000  C
  C405     1.0000 0.60104  0.64396  0.78944  Biso   1.000  C
  H299     1.0000 0.60950  0.62930  0.78210  Biso   1.000  H
  C406     1.0000 0.62268  0.71811  0.84134  Biso   1.000  C
  H300     1.0000 0.60920  0.73150  0.84170  Biso   1.000  H
  H301     1.0000 0.62910  0.71600  0.82360  Biso   1.000  H
  H302     1.0000 0.63710  0.72330  0.85270  Biso   1.000  H
  C407     1.0000 0.59136  0.68938  0.87215  Biso   1.000  C
  H303     1.0000 0.58830  0.67070  0.87350  Biso   1.000  H
  H304     1.0000 0.57510  0.69820  0.86780  Biso   1.000  H
  H305     1.0000 0.59780  0.69590  0.88880  Biso   1.000  H
  C408     1.0000 0.57387  0.65879  0.77992  Biso   1.000  C
  H306     1.0000 0.56430  0.65180  0.76580  Biso   1.000  H
  O69      1.0000 0.02996  0.18384  0.76428  Biso   1.000  O
  O70      1.0000 0.02840  0.20990  0.79760  Biso   1.000  O
  C409     1.0000 0.03626  0.19247  0.78725  Biso   1.000  C
  C410     1.0000 0.06396  0.18343  0.79329  Biso   1.000  C
  C411     1.0000 0.07155  0.18921  0.81533  Biso   1.000  C
  H307     1.0000 0.05980  0.19610  0.82780  Biso   1.000  H
  C412     1.0000 0.10095  0.18508  0.82251  Biso   1.000  C
  C413     1.0000 0.11239  0.19486  0.84996  Biso   1.000  C
  C414     1.0000 0.13205  0.17179  0.85030  Biso   1.000  C
  C415     1.0000 0.13296  0.15143  0.83157  Biso   1.000  C
  C416     1.0000 0.10943  0.16146  0.81481  Biso   1.000  C
  C417     1.0000 0.10104  0.14396  0.78944  Biso   1.000  C
  H308     1.0000 0.10950  0.12930  0.78210  Biso   1.000  H
  C418     1.0000 0.12268  0.21811  0.84134  Biso   1.000  C
  H309     1.0000 0.10920  0.23150  0.84170  Biso   1.000  H
  H310     1.0000 0.12910  0.21600  0.82360  Biso   1.000  H
  H311     1.0000 0.13710  0.22330  0.85270  Biso   1.000  H
  C419     1.0000 0.09136  0.18938  0.87215  Biso   1.000  C
  H312     1.0000 0.08830  0.17070  0.87350  Biso   1.000  H
  H313     1.0000 0.07510  0.19820  0.86780  Biso   1.000  H
  H314     1.0000 0.09780  0.19590  0.88880  Biso   1.000  H
  C420     1.0000 0.07387  0.15879  0.77992  Biso   1.000  C
  H315     1.0000 0.06430  0.15180  0.76580  Biso   1.000  H
  O71      1.0000 0.02996  0.68384  0.26428  Biso   1.000  O
  O72      1.0000 0.02840  0.70990  0.29760  Biso   1.000  O
  C421     1.0000 0.03626  0.69247  0.28725  Biso   1.000  C
  C422     1.0000 0.06396  0.68343  0.29329  Biso   1.000  C
  C423     1.0000 0.07155  0.68921  0.31533  Biso   1.000  C
  H316     1.0000 0.05980  0.69610  0.32780  Biso   1.000  H
  C424     1.0000 0.10095  0.68508  0.32251  Biso   1.000  C
  C425     1.0000 0.11239  0.69486  0.34996  Biso   1.000  C
  C426     1.0000 0.13205  0.67179  0.35030  Biso   1.000  C
  C427     1.0000 0.13296  0.65143  0.33157  Biso   1.000  C
  C428     1.0000 0.10943  0.66146  0.31481  Biso   1.000  C
  C429     1.0000 0.10104  0.64396  0.28944  Biso   1.000  C
  H317     1.0000 0.10950  0.62930  0.28210  Biso   1.000  H
  C430     1.0000 0.12268  0.71811  0.34134  Biso   1.000  C
  H318     1.0000 0.10920  0.73150  0.34170  Biso   1.000  H
  H319     1.0000 0.12910  0.71600  0.32360  Biso   1.000  H
  H320     1.0000 0.13710  0.72330  0.35270  Biso   1.000  H
  C431     1.0000 0.09136  0.68938  0.37215  Biso   1.000  C
  H321     1.0000 0.08830  0.67070  0.37350  Biso   1.000  H
  H322     1.0000 0.07510  0.69820  0.36780  Biso   1.000  H
  H323     1.0000 0.09780  0.69590  0.38880  Biso   1.000  H
  C432     1.0000 0.07387  0.65879  0.27992  Biso   1.000  C
  H324     1.0000 0.06430  0.65180  0.26580  Biso   1.000  H
  O73      1.0000 0.47004  0.18384  0.73572  Biso   1.000  O
  O74      1.0000 0.47160  0.20990  0.70240  Biso   1.000  O
  C433     1.0000 0.46374  0.19247  0.71275  Biso   1.000  C
  C434     1.0000 0.43604  0.18343  0.70671  Biso   1.000  C
  C435     1.0000 0.42845  0.18921  0.68467  Biso   1.000  C
  H325     1.0000 0.44020  0.19610  0.67220  Biso   1.000  H
  C436     1.0000 0.39905  0.18508  0.67749  Biso   1.000  C
  C437     1.0000 0.38761  0.19486  0.65004  Biso   1.000  C
  C438     1.0000 0.36795  0.17179  0.64970  Biso   1.000  C
  C439     1.0000 0.36704  0.15143  0.66843  Biso   1.000  C
  C440     1.0000 0.39057  0.16146  0.68519  Biso   1.000  C
  C441     1.0000 0.39896  0.14396  0.71056  Biso   1.000  C
  H326     1.0000 0.39050  0.12930  0.71790  Biso   1.000  H
  C442     1.0000 0.37732  0.21811  0.65866  Biso   1.000  C
  H327     1.0000 0.39080  0.23150  0.65830  Biso   1.000  H
  H328     1.0000 0.37090  0.21600  0.67640  Biso   1.000  H
  H329     1.0000 0.36290  0.22330  0.64730  Biso   1.000  H
  C443     1.0000 0.40864  0.18938  0.62785  Biso   1.000  C
  H330     1.0000 0.41170  0.17070  0.62650  Biso   1.000  H
  H331     1.0000 0.42490  0.19820  0.63220  Biso   1.000  H
  H332     1.0000 0.40220  0.19590  0.61120  Biso   1.000  H
  C444     1.0000 0.42613  0.15879  0.72008  Biso   1.000  C
  H333     1.0000 0.43570  0.15180  0.73420  Biso   1.000  H
  O75      1.0000 0.47004  0.68384  0.23572  Biso   1.000  O
  O76      1.0000 0.47160  0.70990  0.20240  Biso   1.000  O
  C445     1.0000 0.46374  0.69247  0.21275  Biso   1.000  C
  C446     1.0000 0.43604  0.68343  0.20671  Biso   1.000  C
  C447     1.0000 0.42845  0.68921  0.18467  Biso   1.000  C
  H334     1.0000 0.44020  0.69610  0.17220  Biso   1.000  H
  C448     1.0000 0.39905  0.68508  0.17749  Biso   1.000  C
  C449     1.0000 0.38761  0.69486  0.15004  Biso   1.000  C
  C450     1.0000 0.36795  0.67179  0.14970  Biso   1.000  C
  C451     1.0000 0.36704  0.65143  0.16843  Biso   1.000  C
  C452     1.0000 0.39057  0.66146  0.18519  Biso   1.000  C
  C453     1.0000 0.39896  0.64396  0.21056  Biso   1.000  C
  H335     1.0000 0.39050  0.62930  0.21790  Biso   1.000  H
  C454     1.0000 0.37732  0.71811  0.15866  Biso   1.000  C
  H336     1.0000 0.39080  0.73150  0.15830  Biso   1.000  H
  H337     1.0000 0.37090  0.71600  0.17640  Biso   1.000  H
  H338     1.0000 0.36290  0.72330  0.14730  Biso   1.000  H
  C455     1.0000 0.40864  0.68938  0.12785  Biso   1.000  C
  H339     1.0000 0.41170  0.67070  0.12650  Biso   1.000  H
  H340     1.0000 0.42490  0.69820  0.13220  Biso   1.000  H
  H341     1.0000 0.40220  0.69590  0.11120  Biso   1.000  H
  C456     1.0000 0.42613  0.65879  0.22008  Biso   1.000  C
  H342     1.0000 0.43570  0.65180  0.23420  Biso   1.000  H
  O77      1.0000 0.97004  0.18384  0.23572  Biso   1.000  O
  O78      1.0000 0.97160  0.20990  0.20240  Biso   1.000  O
  C457     1.0000 0.96374  0.19247  0.21275  Biso   1.000  C
  C458     1.0000 0.93604  0.18343  0.20671  Biso   1.000  C
  C459     1.0000 0.92845  0.18921  0.18467  Biso   1.000  C
  H343     1.0000 0.94020  0.19610  0.17220  Biso   1.000  H
  C460     1.0000 0.89905  0.18508  0.17749  Biso   1.000  C
  C461     1.0000 0.88761  0.19486  0.15004  Biso   1.000  C
  C462     1.0000 0.86795  0.17179  0.14970  Biso   1.000  C
  C463     1.0000 0.86704  0.15143  0.16843  Biso   1.000  C
  C464     1.0000 0.89057  0.16146  0.18519  Biso   1.000  C
  C465     1.0000 0.89896  0.14396  0.21056  Biso   1.000  C
  H344     1.0000 0.89050  0.12930  0.21790  Biso   1.000  H
  C466     1.0000 0.87732  0.21811  0.15866  Biso   1.000  C
  H345     1.0000 0.89080  0.23150  0.15830  Biso   1.000  H
  H346     1.0000 0.87090  0.21600  0.17640  Biso   1.000  H
  H347     1.0000 0.86290  0.22330  0.14730  Biso   1.000  H
  C467     1.0000 0.90864  0.18938  0.12785  Biso   1.000  C
  H348     1.0000 0.91170  0.17070  0.12650  Biso   1.000  H
  H349     1.0000 0.92490  0.19820  0.13220  Biso   1.000  H
  H350     1.0000 0.90220  0.19590  0.11120  Biso   1.000  H
  C468     1.0000 0.92613  0.15879  0.22008  Biso   1.000  C
  H351     1.0000 0.93570  0.15180  0.23420  Biso   1.000  H
  O79      1.0000 0.97004  0.68384  0.73572  Biso   1.000  O
  O80      1.0000 0.97160  0.70990  0.70240  Biso   1.000  O
  C469     1.0000 0.96374  0.69247  0.71275  Biso   1.000  C
  C470     1.0000 0.93604  0.68343  0.70671  Biso   1.000  C
  C471     1.0000 0.92845  0.68921  0.68467  Biso   1.000  C
  H352     1.0000 0.94020  0.69610  0.67220  Biso   1.000  H
  C472     1.0000 0.89905  0.68508  0.67749  Biso   1.000  C
  C473     1.0000 0.88761  0.69486  0.65004  Biso   1.000  C
  C474     1.0000 0.86795  0.67179  0.64970  Biso   1.000  C
  C475     1.0000 0.86704  0.65143  0.66843  Biso   1.000  C
  C476     1.0000 0.89057  0.66146  0.68519  Biso   1.000  C
  C477     1.0000 0.89896  0.64396  0.71056  Biso   1.000  C
  H353     1.0000 0.89050  0.62930  0.71790  Biso   1.000  H
  C478     1.0000 0.87732  0.71811  0.65866  Biso   1.000  C
  H354     1.0000 0.89080  0.73150  0.65830  Biso   1.000  H
  H355     1.0000 0.87090  0.71600  0.67640  Biso   1.000  H
  H356     1.0000 0.86290  0.72330  0.64730  Biso   1.000  H
  C479     1.0000 0.90864  0.68938  0.62785  Biso   1.000  C
  H357     1.0000 0.91170  0.67070  0.62650  Biso   1.000  H
  H358     1.0000 0.92490  0.69820  0.63220  Biso   1.000  H
  H359     1.0000 0.90220  0.69590  0.61120  Biso   1.000  H
  C480     1.0000 0.92613  0.65879  0.72008  Biso   1.000  C
  H360     1.0000 0.93570  0.65180  0.73420  Biso   1.000  H
  O81      1.0000 0.52996  0.81616  0.73572  Biso   1.000  O
  O82      1.0000 0.52840  0.79010  0.70240  Biso   1.000  O
  C481     1.0000 0.53626  0.80753  0.71275  Biso   1.000  C
  C482     1.0000 0.56396  0.81657  0.70671  Biso   1.000  C
  C483     1.0000 0.57155  0.81079  0.68467  Biso   1.000  C
  H361     1.0000 0.55980  0.80390  0.67220  Biso   1.000  H
  C484     1.0000 0.60095  0.81492  0.67749  Biso   1.000  C
  C485     1.0000 0.61239  0.80514  0.65004  Biso   1.000  C
  C486     1.0000 0.63205  0.82821  0.64970  Biso   1.000  C
  C487     1.0000 0.63296  0.84857  0.66843  Biso   1.000  C
  C488     1.0000 0.60943  0.83854  0.68519  Biso   1.000  C
  C489     1.0000 0.60104  0.85604  0.71056  Biso   1.000  C
  H362     1.0000 0.60950  0.87070  0.71790  Biso   1.000  H
  C490     1.0000 0.62268  0.78189  0.65866  Biso   1.000  C
  H363     1.0000 0.60920  0.76850  0.65830  Biso   1.000  H
  H364     1.0000 0.62910  0.78400  0.67640  Biso   1.000  H
  H365     1.0000 0.63710  0.77670  0.64730  Biso   1.000  H
  C491     1.0000 0.59136  0.81062  0.62785  Biso   1.000  C
  H366     1.0000 0.58830  0.82930  0.62650  Biso   1.000  H
  H367     1.0000 0.57510  0.80180  0.63220  Biso   1.000  H
  H368     1.0000 0.59780  0.80410  0.61120  Biso   1.000  H
  C492     1.0000 0.57387  0.84121  0.72008  Biso   1.000  C
  H369     1.0000 0.56430  0.84820  0.73420  Biso   1.000  H
  O83      1.0000 0.52996  0.31616  0.23572  Biso   1.000  O
  O84      1.0000 0.52840  0.29010  0.20240  Biso   1.000  O
  C493     1.0000 0.53626  0.30753  0.21275  Biso   1.000  C
  C494     1.0000 0.56396  0.31657  0.20671  Biso   1.000  C
  C495     1.0000 0.57155  0.31079  0.18467  Biso   1.000  C
  H370     1.0000 0.55980  0.30390  0.17220  Biso   1.000  H
  C496     1.0000 0.60095  0.31492  0.17749  Biso   1.000  C
  C497     1.0000 0.61239  0.30514  0.15004  Biso   1.000  C
  C498     1.0000 0.63205  0.32821  0.14970  Biso   1.000  C
  C499     1.0000 0.63296  0.34857  0.16843  Biso   1.000  C
  C500     1.0000 0.60943  0.33854  0.18519  Biso   1.000  C
  C501     1.0000 0.60104  0.35604  0.21056  Biso   1.000  C
  H371     1.0000 0.60950  0.37070  0.21790  Biso   1.000  H
  C502     1.0000 0.62268  0.28189  0.15866  Biso   1.000  C
  H372     1.0000 0.60920  0.26850  0.15830  Biso   1.000  H
  H373     1.0000 0.62910  0.28400  0.17640  Biso   1.000  H
  H374     1.0000 0.63710  0.27670  0.14730  Biso   1.000  H
  C503     1.0000 0.59136  0.31062  0.12785  Biso   1.000  C
  H375     1.0000 0.58830  0.32930  0.12650  Biso   1.000  H
  H376     1.0000 0.57510  0.30180  0.13220  Biso   1.000  H
  H377     1.0000 0.59780  0.30410  0.11120  Biso   1.000  H
  C504     1.0000 0.57387  0.34121  0.22008  Biso   1.000  C
  H378     1.0000 0.56430  0.34820  0.23420  Biso   1.000  H
  O85      1.0000 0.02996  0.81616  0.23572  Biso   1.000  O
  O86      1.0000 0.02840  0.79010  0.20240  Biso   1.000  O
  C505     1.0000 0.03626  0.80753  0.21275  Biso   1.000  C
  C506     1.0000 0.06396  0.81657  0.20671  Biso   1.000  C
  C507     1.0000 0.07155  0.81079  0.18467  Biso   1.000  C
  H379     1.0000 0.05980  0.80390  0.17220  Biso   1.000  H
  C508     1.0000 0.10095  0.81492  0.17749  Biso   1.000  C
  C509     1.0000 0.11239  0.80514  0.15004  Biso   1.000  C
  C510     1.0000 0.13205  0.82821  0.14970  Biso   1.000  C
  C511     1.0000 0.13296  0.84857  0.16843  Biso   1.000  C
  C512     1.0000 0.10943  0.83854  0.18519  Biso   1.000  C
  C513     1.0000 0.10104  0.85604  0.21056  Biso   1.000  C
  H380     1.0000 0.10950  0.87070  0.21790  Biso   1.000  H
  C514     1.0000 0.12268  0.78189  0.15866  Biso   1.000  C
  H381     1.0000 0.10920  0.76850  0.15830  Biso   1.000  H
  H382     1.0000 0.12910  0.78400  0.17640  Biso   1.000  H
  H383     1.0000 0.13710  0.77670  0.14730  Biso   1.000  H
  C515     1.0000 0.09136  0.81062  0.12785  Biso   1.000  C
  H384     1.0000 0.08830  0.82930  0.12650  Biso   1.000  H
  H385     1.0000 0.07510  0.80180  0.13220  Biso   1.000  H
  H386     1.0000 0.09780  0.80410  0.11120  Biso   1.000  H
  C516     1.0000 0.07387  0.84121  0.22008  Biso   1.000  C
  H387     1.0000 0.06430  0.84820  0.23420  Biso   1.000  H
  O87      1.0000 0.02996  0.31616  0.73572  Biso   1.000  O
  O88      1.0000 0.02840  0.29010  0.70240  Biso   1.000  O
  C517     1.0000 0.03626  0.30753  0.71275  Biso   1.000  C
  C518     1.0000 0.06396  0.31657  0.70671  Biso   1.000  C
  C519     1.0000 0.07155  0.31079  0.68467  Biso   1.000  C
  H388     1.0000 0.05980  0.30390  0.67220  Biso   1.000  H
  C520     1.0000 0.10095  0.31492  0.67749  Biso   1.000  C
  C521     1.0000 0.11239  0.30514  0.65004  Biso   1.000  C
  C522     1.0000 0.13205  0.32821  0.64970  Biso   1.000  C
  C523     1.0000 0.13296  0.34857  0.66843  Biso   1.000  C
  C524     1.0000 0.10943  0.33854  0.68519  Biso   1.000  C
  C525     1.0000 0.10104  0.35604  0.71056  Biso   1.000  C
  H389     1.0000 0.10950  0.37070  0.71790  Biso   1.000  H
  C526     1.0000 0.12268  0.28189  0.65866  Biso   1.000  C
  H390     1.0000 0.10920  0.26850  0.65830  Biso   1.000  H
  H391     1.0000 0.12910  0.28400  0.67640  Biso   1.000  H
  H392     1.0000 0.13710  0.27670  0.64730  Biso   1.000  H
  C527     1.0000 0.09136  0.31062  0.62785  Biso   1.000  C
  H393     1.0000 0.08830  0.32930  0.62650  Biso   1.000  H
  H394     1.0000 0.07510  0.30180  0.63220  Biso   1.000  H
  H395     1.0000 0.09780  0.30410  0.61120  Biso   1.000  H
  C528     1.0000 0.07387  0.34121  0.72008  Biso   1.000  C
  H396     1.0000 0.06430  0.34820  0.73420  Biso   1.000  H
  O89      1.0000 0.47004  0.81616  0.26428  Biso   1.000  O
  O90      1.0000 0.47160  0.79010  0.29760  Biso   1.000  O
  C529     1.0000 0.46374  0.80753  0.28725  Biso   1.000  C
  C530     1.0000 0.43604  0.81657  0.29329  Biso   1.000  C
  C531     1.0000 0.42845  0.81079  0.31533  Biso   1.000  C
  H397     1.0000 0.44020  0.80390  0.32780  Biso   1.000  H
  C532     1.0000 0.39905  0.81492  0.32251  Biso   1.000  C
  C533     1.0000 0.38761  0.80514  0.34996  Biso   1.000  C
  C534     1.0000 0.36795  0.82821  0.35030  Biso   1.000  C
  C535     1.0000 0.36704  0.84857  0.33157  Biso   1.000  C
  C536     1.0000 0.39057  0.83854  0.31481  Biso   1.000  C
  C537     1.0000 0.39896  0.85604  0.28944  Biso   1.000  C
  H398     1.0000 0.39050  0.87070  0.28210  Biso   1.000  H
  C538     1.0000 0.37732  0.78189  0.34134  Biso   1.000  C
  H399     1.0000 0.39080  0.76850  0.34170  Biso   1.000  H
  H400     1.0000 0.37090  0.78400  0.32360  Biso   1.000  H
  H401     1.0000 0.36290  0.77670  0.35270  Biso   1.000  H
  C539     1.0000 0.40864  0.81062  0.37215  Biso   1.000  C
  H402     1.0000 0.41170  0.82930  0.37350  Biso   1.000  H
  H403     1.0000 0.42490  0.80180  0.36780  Biso   1.000  H
  H404     1.0000 0.40220  0.80410  0.38880  Biso   1.000  H
  C540     1.0000 0.42613  0.84121  0.27992  Biso   1.000  C
  H405     1.0000 0.43570  0.84820  0.26580  Biso   1.000  H
  O91      1.0000 0.47004  0.31616  0.76428  Biso   1.000  O
  O92      1.0000 0.47160  0.29010  0.79760  Biso   1.000  O
  C541     1.0000 0.46374  0.30753  0.78725  Biso   1.000  C
  C542     1.0000 0.43604  0.31657  0.79329  Biso   1.000  C
  C543     1.0000 0.42845  0.31079  0.81533  Biso   1.000  C
  H406     1.0000 0.44020  0.30390  0.82780  Biso   1.000  H
  C544     1.0000 0.39905  0.31492  0.82251  Biso   1.000  C
  C545     1.0000 0.38761  0.30514  0.84996  Biso   1.000  C
  C546     1.0000 0.36795  0.32821  0.85030  Biso   1.000  C
  C547     1.0000 0.36704  0.34857  0.83157  Biso   1.000  C
  C548     1.0000 0.39057  0.33854  0.81481  Biso   1.000  C
  C549     1.0000 0.39896  0.35604  0.78944  Biso   1.000  C
  H407     1.0000 0.39050  0.37070  0.78210  Biso   1.000  H
  C550     1.0000 0.37732  0.28189  0.84134  Biso   1.000  C
  H408     1.0000 0.39080  0.26850  0.84170  Biso   1.000  H
  H409     1.0000 0.37090  0.28400  0.82360  Biso   1.000  H
  H410     1.0000 0.36290  0.27670  0.85270  Biso   1.000  H
  C551     1.0000 0.40864  0.31062  0.87215  Biso   1.000  C
  H411     1.0000 0.41170  0.32930  0.87350  Biso   1.000  H
  H412     1.0000 0.42490  0.30180  0.86780  Biso   1.000  H
  H413     1.0000 0.40220  0.30410  0.88880  Biso   1.000  H
  C552     1.0000 0.42613  0.34121  0.77992  Biso   1.000  C
  H414     1.0000 0.43570  0.34820  0.76580  Biso   1.000  H
  O93      1.0000 0.97004  0.81616  0.76428  Biso   1.000  O
  O94      1.0000 0.97160  0.79010  0.79760  Biso   1.000  O
  C553     1.0000 0.96374  0.80753  0.78725  Biso   1.000  C
  C554     1.0000 0.93604  0.81657  0.79329  Biso   1.000  C
  C555     1.0000 0.92845  0.81079  0.81533  Biso   1.000  C
  H415     1.0000 0.94020  0.80390  0.82780  Biso   1.000  H
  C556     1.0000 0.89905  0.81492  0.82251  Biso   1.000  C
  C557     1.0000 0.88761  0.80514  0.84996  Biso   1.000  C
  C558     1.0000 0.86795  0.82821  0.85030  Biso   1.000  C
  C559     1.0000 0.86704  0.84857  0.83157  Biso   1.000  C
  C560     1.0000 0.89057  0.83854  0.81481  Biso   1.000  C
  C561     1.0000 0.89896  0.85604  0.78944  Biso   1.000  C
  H416     1.0000 0.89050  0.87070  0.78210  Biso   1.000  H
  C562     1.0000 0.87732  0.78189  0.84134  Biso   1.000  C
  H417     1.0000 0.89080  0.76850  0.84170  Biso   1.000  H
  H418     1.0000 0.87090  0.78400  0.82360  Biso   1.000  H
  H419     1.0000 0.86290  0.77670  0.85270  Biso   1.000  H
  C563     1.0000 0.90864  0.81062  0.87215  Biso   1.000  C
  H420     1.0000 0.91170  0.82930  0.87350  Biso   1.000  H
  H421     1.0000 0.92490  0.80180  0.86780  Biso   1.000  H
  H422     1.0000 0.90220  0.80410  0.88880  Biso   1.000  H
  C564     1.0000 0.92613  0.84121  0.77992  Biso   1.000  C
  H423     1.0000 0.93570  0.84820  0.76580  Biso   1.000  H
  O95      1.0000 0.97004  0.31616  0.26428  Biso   1.000  O
  O96      1.0000 0.97160  0.29010  0.29760  Biso   1.000  O
  C565     1.0000 0.96374  0.30753  0.28725  Biso   1.000  C
  C566     1.0000 0.93604  0.31657  0.29329  Biso   1.000  C
  C567     1.0000 0.92845  0.31079  0.31533  Biso   1.000  C
  H424     1.0000 0.94020  0.30390  0.32780  Biso   1.000  H
  C568     1.0000 0.89905  0.31492  0.32251  Biso   1.000  C
  C569     1.0000 0.88761  0.30514  0.34996  Biso   1.000  C
  C570     1.0000 0.86795  0.32821  0.35030  Biso   1.000  C
  C571     1.0000 0.86704  0.34857  0.33157  Biso   1.000  C
  C572     1.0000 0.89057  0.33854  0.31481  Biso   1.000  C
  C573     1.0000 0.89896  0.35604  0.28944  Biso   1.000  C
  H425     1.0000 0.89050  0.37070  0.28210  Biso   1.000  H
  C574     1.0000 0.87732  0.28189  0.34134  Biso   1.000  C
  H426     1.0000 0.89080  0.26850  0.34170  Biso   1.000  H
  H427     1.0000 0.87090  0.28400  0.32360  Biso   1.000  H
  H428     1.0000 0.86290  0.27670  0.35270  Biso   1.000  H
  C575     1.0000 0.90864  0.31062  0.37215  Biso   1.000  C
  H429     1.0000 0.91170  0.32930  0.37350  Biso   1.000  H
  H430     1.0000 0.92490  0.30180  0.36780  Biso   1.000  H
  H431     1.0000 0.90220  0.30410  0.38880  Biso   1.000  H
  C576     1.0000 0.92613  0.34121  0.27992  Biso   1.000  C
  H432     1.0000 0.93570  0.34820  0.26580  Biso   1.000  H
  O97      1.0000 0.02996  0.76428  0.31616  Biso   1.000  O
  O98      1.0000 0.02840  0.79760  0.29010  Biso   1.000  O
  C577     1.0000 0.03626  0.78725  0.30753  Biso   1.000  C
  C578     1.0000 0.06396  0.79329  0.31657  Biso   1.000  C
  C579     1.0000 0.07155  0.81533  0.31079  Biso   1.000  C
  H433     1.0000 0.05980  0.82780  0.30390  Biso   1.000  H
  C580     1.0000 0.10095  0.82251  0.31492  Biso   1.000  C
  C581     1.0000 0.11239  0.84996  0.30514  Biso   1.000  C
  C582     1.0000 0.13205  0.85030  0.32821  Biso   1.000  C
  C583     1.0000 0.13296  0.83157  0.34857  Biso   1.000  C
  C584     1.0000 0.10943  0.81481  0.33854  Biso   1.000  C
  C585     1.0000 0.10104  0.78944  0.35604  Biso   1.000  C
  H434     1.0000 0.10950  0.78210  0.37070  Biso   1.000  H
  C586     1.0000 0.12268  0.84134  0.28189  Biso   1.000  C
  H435     1.0000 0.10920  0.84170  0.26850  Biso   1.000  H
  H436     1.0000 0.12910  0.82360  0.28400  Biso   1.000  H
  H437     1.0000 0.13710  0.85270  0.27670  Biso   1.000  H
  C587     1.0000 0.09136  0.87215  0.31062  Biso   1.000  C
  H438     1.0000 0.08830  0.87350  0.32930  Biso   1.000  H
  H439     1.0000 0.07510  0.86780  0.30180  Biso   1.000  H
  H440     1.0000 0.09780  0.88880  0.30410  Biso   1.000  H
  C588     1.0000 0.07387  0.77992  0.34121  Biso   1.000  C
  H441     1.0000 0.06430  0.76580  0.34820  Biso   1.000  H
  O99      1.0000 0.02996  0.26428  0.81616  Biso   1.000  O
  O100     1.0000 0.02840  0.29760  0.79010  Biso   1.000  O
  C589     1.0000 0.03626  0.28725  0.80753  Biso   1.000  C
  C590     1.0000 0.06396  0.29329  0.81657  Biso   1.000  C
  C591     1.0000 0.07155  0.31533  0.81079  Biso   1.000  C
  H442     1.0000 0.05980  0.32780  0.80390  Biso   1.000  H
  C592     1.0000 0.10095  0.32251  0.81492  Biso   1.000  C
  C593     1.0000 0.11239  0.34996  0.80514  Biso   1.000  C
  C594     1.0000 0.13205  0.35030  0.82821  Biso   1.000  C
  C595     1.0000 0.13296  0.33157  0.84857  Biso   1.000  C
  C596     1.0000 0.10943  0.31481  0.83854  Biso   1.000  C
  C597     1.0000 0.10104  0.28944  0.85604  Biso   1.000  C
  H443     1.0000 0.10950  0.28210  0.87070  Biso   1.000  H
  C598     1.0000 0.12268  0.34134  0.78189  Biso   1.000  C
  H444     1.0000 0.10920  0.34170  0.76850  Biso   1.000  H
  H445     1.0000 0.12910  0.32360  0.78400  Biso   1.000  H
  H446     1.0000 0.13710  0.35270  0.77670  Biso   1.000  H
  C599     1.0000 0.09136  0.37215  0.81062  Biso   1.000  C
  H447     1.0000 0.08830  0.37350  0.82930  Biso   1.000  H
  H448     1.0000 0.07510  0.36780  0.80180  Biso   1.000  H
  H449     1.0000 0.09780  0.38880  0.80410  Biso   1.000  H
  C600     1.0000 0.07387  0.27992  0.84121  Biso   1.000  C
  H450     1.0000 0.06430  0.26580  0.84820  Biso   1.000  H
  O101     1.0000 0.52996  0.76428  0.81616  Biso   1.000  O
  O102     1.0000 0.52840  0.79760  0.79010  Biso   1.000  O
  C601     1.0000 0.53626  0.78725  0.80753  Biso   1.000  C
  C602     1.0000 0.56396  0.79329  0.81657  Biso   1.000  C
  C603     1.0000 0.57155  0.81533  0.81079  Biso   1.000  C
  H451     1.0000 0.55980  0.82780  0.80390  Biso   1.000  H
  C604     1.0000 0.60095  0.82251  0.81492  Biso   1.000  C
  C605     1.0000 0.61239  0.84996  0.80514  Biso   1.000  C
  C606     1.0000 0.63205  0.85030  0.82821  Biso   1.000  C
  C607     1.0000 0.63296  0.83157  0.84857  Biso   1.000  C
  C608     1.0000 0.60943  0.81481  0.83854  Biso   1.000  C
  C609     1.0000 0.60104  0.78944  0.85604  Biso   1.000  C
  H452     1.0000 0.60950  0.78210  0.87070  Biso   1.000  H
  C610     1.0000 0.62268  0.84134  0.78189  Biso   1.000  C
  H453     1.0000 0.60920  0.84170  0.76850  Biso   1.000  H
  H454     1.0000 0.62910  0.82360  0.78400  Biso   1.000  H
  H455     1.0000 0.63710  0.85270  0.77670  Biso   1.000  H
  C611     1.0000 0.59136  0.87215  0.81062  Biso   1.000  C
  H456     1.0000 0.58830  0.87350  0.82930  Biso   1.000  H
  H457     1.0000 0.57510  0.86780  0.80180  Biso   1.000  H
  H458     1.0000 0.59780  0.88880  0.80410  Biso   1.000  H
  C612     1.0000 0.57387  0.77992  0.84121  Biso   1.000  C
  H459     1.0000 0.56430  0.76580  0.84820  Biso   1.000  H
  O103     1.0000 0.52996  0.26428  0.31616  Biso   1.000  O
  O104     1.0000 0.52840  0.29760  0.29010  Biso   1.000  O
  C613     1.0000 0.53626  0.28725  0.30753  Biso   1.000  C
  C614     1.0000 0.56396  0.29329  0.31657  Biso   1.000  C
  C615     1.0000 0.57155  0.31533  0.31079  Biso   1.000  C
  H460     1.0000 0.55980  0.32780  0.30390  Biso   1.000  H
  C616     1.0000 0.60095  0.32251  0.31492  Biso   1.000  C
  C617     1.0000 0.61239  0.34996  0.30514  Biso   1.000  C
  C618     1.0000 0.63205  0.35030  0.32821  Biso   1.000  C
  C619     1.0000 0.63296  0.33157  0.34857  Biso   1.000  C
  C620     1.0000 0.60943  0.31481  0.33854  Biso   1.000  C
  C621     1.0000 0.60104  0.28944  0.35604  Biso   1.000  C
  H461     1.0000 0.60950  0.28210  0.37070  Biso   1.000  H
  C622     1.0000 0.62268  0.34134  0.28189  Biso   1.000  C
  H462     1.0000 0.60920  0.34170  0.26850  Biso   1.000  H
  H463     1.0000 0.62910  0.32360  0.28400  Biso   1.000  H
  H464     1.0000 0.63710  0.35270  0.27670  Biso   1.000  H
  C623     1.0000 0.59136  0.37215  0.31062  Biso   1.000  C
  H465     1.0000 0.58830  0.37350  0.32930  Biso   1.000  H
  H466     1.0000 0.57510  0.36780  0.30180  Biso   1.000  H
  H467     1.0000 0.59780  0.38880  0.30410  Biso   1.000  H
  C624     1.0000 0.57387  0.27992  0.34121  Biso   1.000  C
  H468     1.0000 0.56430  0.26580  0.34820  Biso   1.000  H
  O105     1.0000 0.97004  0.23572  0.31616  Biso   1.000  O
  O106     1.0000 0.97160  0.20240  0.29010  Biso   1.000  O
  C625     1.0000 0.96374  0.21275  0.30753  Biso   1.000  C
  C626     1.0000 0.93604  0.20671  0.31657  Biso   1.000  C
  C627     1.0000 0.92845  0.18467  0.31079  Biso   1.000  C
  H469     1.0000 0.94020  0.17220  0.30390  Biso   1.000  H
  C628     1.0000 0.89905  0.17749  0.31492  Biso   1.000  C
  C629     1.0000 0.88761  0.15004  0.30514  Biso   1.000  C
  C630     1.0000 0.86795  0.14970  0.32821  Biso   1.000  C
  C631     1.0000 0.86704  0.16843  0.34857  Biso   1.000  C
  C632     1.0000 0.89057  0.18519  0.33854  Biso   1.000  C
  C633     1.0000 0.89896  0.21056  0.35604  Biso   1.000  C
  H470     1.0000 0.89050  0.21790  0.37070  Biso   1.000  H
  C634     1.0000 0.87732  0.15866  0.28189  Biso   1.000  C
  H471     1.0000 0.89080  0.15830  0.26850  Biso   1.000  H
  H472     1.0000 0.87090  0.17640  0.28400  Biso   1.000  H
  H473     1.0000 0.86290  0.14730  0.27670  Biso   1.000  H
  C635     1.0000 0.90864  0.12785  0.31062  Biso   1.000  C
  H474     1.0000 0.91170  0.12650  0.32930  Biso   1.000  H
  H475     1.0000 0.92490  0.13220  0.30180  Biso   1.000  H
  H476     1.0000 0.90220  0.11120  0.30410  Biso   1.000  H
  C636     1.0000 0.92613  0.22008  0.34121  Biso   1.000  C
  H477     1.0000 0.93570  0.23420  0.34820  Biso   1.000  H
  O107     1.0000 0.97004  0.73572  0.81616  Biso   1.000  O
  O108     1.0000 0.97160  0.70240  0.79010  Biso   1.000  O
  C637     1.0000 0.96374  0.71275  0.80753  Biso   1.000  C
  C638     1.0000 0.93604  0.70671  0.81657  Biso   1.000  C
  C639     1.0000 0.92845  0.68467  0.81079  Biso   1.000  C
  H478     1.0000 0.94020  0.67220  0.80390  Biso   1.000  H
  C640     1.0000 0.89905  0.67749  0.81492  Biso   1.000  C
  C641     1.0000 0.88761  0.65004  0.80514  Biso   1.000  C
  C642     1.0000 0.86795  0.64970  0.82821  Biso   1.000  C
  C643     1.0000 0.86704  0.66843  0.84857  Biso   1.000  C
  C644     1.0000 0.89057  0.68519  0.83854  Biso   1.000  C
  C645     1.0000 0.89896  0.71056  0.85604  Biso   1.000  C
  H479     1.0000 0.89050  0.71790  0.87070  Biso   1.000  H
  C646     1.0000 0.87732  0.65866  0.78189  Biso   1.000  C
  H480     1.0000 0.89080  0.65830  0.76850  Biso   1.000  H
  H481     1.0000 0.87090  0.67640  0.78400  Biso   1.000  H
  H482     1.0000 0.86290  0.64730  0.77670  Biso   1.000  H
  C647     1.0000 0.90864  0.62785  0.81062  Biso   1.000  C
  H483     1.0000 0.91170  0.62650  0.82930  Biso   1.000  H
  H484     1.0000 0.92490  0.63220  0.80180  Biso   1.000  H
  H485     1.0000 0.90220  0.61120  0.80410  Biso   1.000  H
  C648     1.0000 0.92613  0.72008  0.84121  Biso   1.000  C
  H486     1.0000 0.93570  0.73420  0.84820  Biso   1.000  H
  O109     1.0000 0.47004  0.23572  0.81616  Biso   1.000  O
  O110     1.0000 0.47160  0.20240  0.79010  Biso   1.000  O
  C649     1.0000 0.46374  0.21275  0.80753  Biso   1.000  C
  C650     1.0000 0.43604  0.20671  0.81657  Biso   1.000  C
  C651     1.0000 0.42845  0.18467  0.81079  Biso   1.000  C
  H487     1.0000 0.44020  0.17220  0.80390  Biso   1.000  H
  C652     1.0000 0.39905  0.17749  0.81492  Biso   1.000  C
  C653     1.0000 0.38761  0.15004  0.80514  Biso   1.000  C
  C654     1.0000 0.36795  0.14970  0.82821  Biso   1.000  C
  C655     1.0000 0.36704  0.16843  0.84857  Biso   1.000  C
  C656     1.0000 0.39057  0.18519  0.83854  Biso   1.000  C
  C657     1.0000 0.39896  0.21056  0.85604  Biso   1.000  C
  H488     1.0000 0.39050  0.21790  0.87070  Biso   1.000  H
  C658     1.0000 0.37732  0.15866  0.78189  Biso   1.000  C
  H489     1.0000 0.39080  0.15830  0.76850  Biso   1.000  H
  H490     1.0000 0.37090  0.17640  0.78400  Biso   1.000  H
  H491     1.0000 0.36290  0.14730  0.77670  Biso   1.000  H
  C659     1.0000 0.40864  0.12785  0.81062  Biso   1.000  C
  H492     1.0000 0.41170  0.12650  0.82930  Biso   1.000  H
  H493     1.0000 0.42490  0.13220  0.80180  Biso   1.000  H
  H494     1.0000 0.40220  0.11120  0.80410  Biso   1.000  H
  C660     1.0000 0.42613  0.22008  0.84121  Biso   1.000  C
  H495     1.0000 0.43570  0.23420  0.84820  Biso   1.000  H
  O111     1.0000 0.47004  0.73572  0.31616  Biso   1.000  O
  O112     1.0000 0.47160  0.70240  0.29010  Biso   1.000  O
  C661     1.0000 0.46374  0.71275  0.30753  Biso   1.000  C
  C662     1.0000 0.43604  0.70671  0.31657  Biso   1.000  C
  C663     1.0000 0.42845  0.68467  0.31079  Biso   1.000  C
  H496     1.0000 0.44020  0.67220  0.30390  Biso   1.000  H
  C664     1.0000 0.39905  0.67749  0.31492  Biso   1.000  C
  C665     1.0000 0.38761  0.65004  0.30514  Biso   1.000  C
  C666     1.0000 0.36795  0.64970  0.32821  Biso   1.000  C
  C667     1.0000 0.36704  0.66843  0.34857  Biso   1.000  C
  C668     1.0000 0.39057  0.68519  0.33854  Biso   1.000  C
  C669     1.0000 0.39896  0.71056  0.35604  Biso   1.000  C
  H497     1.0000 0.39050  0.71790  0.37070  Biso   1.000  H
  C670     1.0000 0.37732  0.65866  0.28189  Biso   1.000  C
  H498     1.0000 0.39080  0.65830  0.26850  Biso   1.000  H
  H499     1.0000 0.37090  0.67640  0.28400  Biso   1.000  H
  H500     1.0000 0.36290  0.64730  0.27670  Biso   1.000  H
  C671     1.0000 0.40864  0.62785  0.31062  Biso   1.000  C
  H501     1.0000 0.41170  0.62650  0.32930  Biso   1.000  H
  H502     1.0000 0.42490  0.63220  0.30180  Biso   1.000  H
  H503     1.0000 0.40220  0.61120  0.30410  Biso   1.000  H
  C672     1.0000 0.42613  0.72008  0.34121  Biso   1.000  C
  H504     1.0000 0.43570  0.73420  0.34820  Biso   1.000  H
  O113     1.0000 0.02996  0.23572  0.68384  Biso   1.000  O
  O114     1.0000 0.02840  0.20240  0.70990  Biso   1.000  O
  C673     1.0000 0.03626  0.21275  0.69247  Biso   1.000  C
  C674     1.0000 0.06396  0.20671  0.68343  Biso   1.000  C
  C675     1.0000 0.07155  0.18467  0.68921  Biso   1.000  C
  H505     1.0000 0.05980  0.17220  0.69610  Biso   1.000  H
  C676     1.0000 0.10095  0.17749  0.68508  Biso   1.000  C
  C677     1.0000 0.11239  0.15004  0.69486  Biso   1.000  C
  C678     1.0000 0.13205  0.14970  0.67179  Biso   1.000  C
  C679     1.0000 0.13296  0.16843  0.65143  Biso   1.000  C
  C680     1.0000 0.10943  0.18519  0.66146  Biso   1.000  C
  C681     1.0000 0.10104  0.21056  0.64396  Biso   1.000  C
  H506     1.0000 0.10950  0.21790  0.62930  Biso   1.000  H
  C682     1.0000 0.12268  0.15866  0.71811  Biso   1.000  C
  H507     1.0000 0.10920  0.15830  0.73150  Biso   1.000  H
  H508     1.0000 0.12910  0.17640  0.71600  Biso   1.000  H
  H509     1.0000 0.13710  0.14730  0.72330  Biso   1.000  H
  C683     1.0000 0.09136  0.12785  0.68938  Biso   1.000  C
  H510     1.0000 0.08830  0.12650  0.67070  Biso   1.000  H
  H511     1.0000 0.07510  0.13220  0.69820  Biso   1.000  H
  H512     1.0000 0.09780  0.11120  0.69590  Biso   1.000  H
  C684     1.0000 0.07387  0.22008  0.65879  Biso   1.000  C
  H513     1.0000 0.06430  0.23420  0.65180  Biso   1.000  H
  O115     1.0000 0.02996  0.73572  0.18384  Biso   1.000  O
  O116     1.0000 0.02840  0.70240  0.20990  Biso   1.000  O
  C685     1.0000 0.03626  0.71275  0.19247  Biso   1.000  C
  C686     1.0000 0.06396  0.70671  0.18343  Biso   1.000  C
  C687     1.0000 0.07155  0.68467  0.18921  Biso   1.000  C
  H514     1.0000 0.05980  0.67220  0.19610  Biso   1.000  H
  C688     1.0000 0.10095  0.67749  0.18508  Biso   1.000  C
  C689     1.0000 0.11239  0.65004  0.19486  Biso   1.000  C
  C690     1.0000 0.13205  0.64970  0.17179  Biso   1.000  C
  C691     1.0000 0.13296  0.66843  0.15143  Biso   1.000  C
  C692     1.0000 0.10943  0.68519  0.16146  Biso   1.000  C
  C693     1.0000 0.10104  0.71056  0.14396  Biso   1.000  C
  H515     1.0000 0.10950  0.71790  0.12930  Biso   1.000  H
  C694     1.0000 0.12268  0.65866  0.21811  Biso   1.000  C
  H516     1.0000 0.10920  0.65830  0.23150  Biso   1.000  H
  H517     1.0000 0.12910  0.67640  0.21600  Biso   1.000  H
  H518     1.0000 0.13710  0.64730  0.22330  Biso   1.000  H
  C695     1.0000 0.09136  0.62785  0.18938  Biso   1.000  C
  H519     1.0000 0.08830  0.62650  0.17070  Biso   1.000  H
  H520     1.0000 0.07510  0.63220  0.19820  Biso   1.000  H
  H521     1.0000 0.09780  0.61120  0.19590  Biso   1.000  H
  C696     1.0000 0.07387  0.72008  0.15879  Biso   1.000  C
  H522     1.0000 0.06430  0.73420  0.15180  Biso   1.000  H
  O117     1.0000 0.52996  0.23572  0.18384  Biso   1.000  O
  O118     1.0000 0.52840  0.20240  0.20990  Biso   1.000  O
  C697     1.0000 0.53626  0.21275  0.19247  Biso   1.000  C
  C698     1.0000 0.56396  0.20671  0.18343  Biso   1.000  C
  C699     1.0000 0.57155  0.18467  0.18921  Biso   1.000  C
  H523     1.0000 0.55980  0.17220  0.19610  Biso   1.000  H
  C700     1.0000 0.60095  0.17749  0.18508  Biso   1.000  C
  C701     1.0000 0.61239  0.15004  0.19486  Biso   1.000  C
  C702     1.0000 0.63205  0.14970  0.17179  Biso   1.000  C
  C703     1.0000 0.63296  0.16843  0.15143  Biso   1.000  C
  C704     1.0000 0.60943  0.18519  0.16146  Biso   1.000  C
  C705     1.0000 0.60104  0.21056  0.14396  Biso   1.000  C
  H524     1.0000 0.60950  0.21790  0.12930  Biso   1.000  H
  C706     1.0000 0.62268  0.15866  0.21811  Biso   1.000  C
  H525     1.0000 0.60920  0.15830  0.23150  Biso   1.000  H
  H526     1.0000 0.62910  0.17640  0.21600  Biso   1.000  H
  H527     1.0000 0.63710  0.14730  0.22330  Biso   1.000  H
  C707     1.0000 0.59136  0.12785  0.18938  Biso   1.000  C
  H528     1.0000 0.58830  0.12650  0.17070  Biso   1.000  H
  H529     1.0000 0.57510  0.13220  0.19820  Biso   1.000  H
  H530     1.0000 0.59780  0.11120  0.19590  Biso   1.000  H
  C708     1.0000 0.57387  0.22008  0.15879  Biso   1.000  C
  H531     1.0000 0.56430  0.23420  0.15180  Biso   1.000  H
  O119     1.0000 0.52996  0.73572  0.68384  Biso   1.000  O
  O120     1.0000 0.52840  0.70240  0.70990  Biso   1.000  O
  C709     1.0000 0.53626  0.71275  0.69247  Biso   1.000  C
  C710     1.0000 0.56396  0.70671  0.68343  Biso   1.000  C
  C711     1.0000 0.57155  0.68467  0.68921  Biso   1.000  C
  H532     1.0000 0.55980  0.67220  0.69610  Biso   1.000  H
  C712     1.0000 0.60095  0.67749  0.68508  Biso   1.000  C
  C713     1.0000 0.61239  0.65004  0.69486  Biso   1.000  C
  C714     1.0000 0.63205  0.64970  0.67179  Biso   1.000  C
  C715     1.0000 0.63296  0.66843  0.65143  Biso   1.000  C
  C716     1.0000 0.60943  0.68519  0.66146  Biso   1.000  C
  C717     1.0000 0.60104  0.71056  0.64396  Biso   1.000  C
  H533     1.0000 0.60950  0.71790  0.62930  Biso   1.000  H
  C718     1.0000 0.62268  0.65866  0.71811  Biso   1.000  C
  H534     1.0000 0.60920  0.65830  0.73150  Biso   1.000  H
  H535     1.0000 0.62910  0.67640  0.71600  Biso   1.000  H
  H536     1.0000 0.63710  0.64730  0.72330  Biso   1.000  H
  C719     1.0000 0.59136  0.62785  0.68938  Biso   1.000  C
  H537     1.0000 0.58830  0.62650  0.67070  Biso   1.000  H
  H538     1.0000 0.57510  0.63220  0.69820  Biso   1.000  H
  H539     1.0000 0.59780  0.61120  0.69590  Biso   1.000  H
  C720     1.0000 0.57387  0.72008  0.65879  Biso   1.000  C
  H540     1.0000 0.56430  0.73420  0.65180  Biso   1.000  H
  O121     1.0000 0.97004  0.76428  0.68384  Biso   1.000  O
  O122     1.0000 0.97160  0.79760  0.70990  Biso   1.000  O
  C721     1.0000 0.96374  0.78725  0.69247  Biso   1.000  C
  C722     1.0000 0.93604  0.79329  0.68343  Biso   1.000  C
  C723     1.0000 0.92845  0.81533  0.68921  Biso   1.000  C
  H541     1.0000 0.94020  0.82780  0.69610  Biso   1.000  H
  C724     1.0000 0.89905  0.82251  0.68508  Biso   1.000  C
  C725     1.0000 0.88761  0.84996  0.69486  Biso   1.000  C
  C726     1.0000 0.86795  0.85030  0.67179  Biso   1.000  C
  C727     1.0000 0.86704  0.83157  0.65143  Biso   1.000  C
  C728     1.0000 0.89057  0.81481  0.66146  Biso   1.000  C
  C729     1.0000 0.89896  0.78944  0.64396  Biso   1.000  C
  H542     1.0000 0.89050  0.78210  0.62930  Biso   1.000  H
  C730     1.0000 0.87732  0.84134  0.71811  Biso   1.000  C
  H543     1.0000 0.89080  0.84170  0.73150  Biso   1.000  H
  H544     1.0000 0.87090  0.82360  0.71600  Biso   1.000  H
  H545     1.0000 0.86290  0.85270  0.72330  Biso   1.000  H
  C731     1.0000 0.90864  0.87215  0.68938  Biso   1.000  C
  H546     1.0000 0.91170  0.87350  0.67070  Biso   1.000  H
  H547     1.0000 0.92490  0.86780  0.69820  Biso   1.000  H
  H548     1.0000 0.90220  0.88880  0.69590  Biso   1.000  H
  C732     1.0000 0.92613  0.77992  0.65879  Biso   1.000  C
  H549     1.0000 0.93570  0.76580  0.65180  Biso   1.000  H
  O123     1.0000 0.97004  0.26428  0.18384  Biso   1.000  O
  O124     1.0000 0.97160  0.29760  0.20990  Biso   1.000  O
  C733     1.0000 0.96374  0.28725  0.19247  Biso   1.000  C
  C734     1.0000 0.93604  0.29329  0.18343  Biso   1.000  C
  C735     1.0000 0.92845  0.31533  0.18921  Biso   1.000  C
  H550     1.0000 0.94020  0.32780  0.19610  Biso   1.000  H
  C736     1.0000 0.89905  0.32251  0.18508  Biso   1.000  C
  C737     1.0000 0.88761  0.34996  0.19486  Biso   1.000  C
  C738     1.0000 0.86795  0.35030  0.17179  Biso   1.000  C
  C739     1.0000 0.86704  0.33157  0.15143  Biso   1.000  C
  C740     1.0000 0.89057  0.31481  0.16146  Biso   1.000  C
  C741     1.0000 0.89896  0.28944  0.14396  Biso   1.000  C
  H551     1.0000 0.89050  0.28210  0.12930  Biso   1.000  H
  C742     1.0000 0.87732  0.34134  0.21811  Biso   1.000  C
  H552     1.0000 0.89080  0.34170  0.23150  Biso   1.000  H
  H553     1.0000 0.87090  0.32360  0.21600  Biso   1.000  H
  H554     1.0000 0.86290  0.35270  0.22330  Biso   1.000  H
  C743     1.0000 0.90864  0.37215  0.18938  Biso   1.000  C
  H555     1.0000 0.91170  0.37350  0.17070  Biso   1.000  H
  H556     1.0000 0.92490  0.36780  0.19820  Biso   1.000  H
  H557     1.0000 0.90220  0.38880  0.19590  Biso   1.000  H
  C744     1.0000 0.92613  0.27992  0.15879  Biso   1.000  C
  H558     1.0000 0.93570  0.26580  0.15180  Biso   1.000  H
  O125     1.0000 0.47004  0.76428  0.18384  Biso   1.000  O
  O126     1.0000 0.47160  0.79760  0.20990  Biso   1.000  O
  C745     1.0000 0.46374  0.78725  0.19247  Biso   1.000  C
  C746     1.0000 0.43604  0.79329  0.18343  Biso   1.000  C
  C747     1.0000 0.42845  0.81533  0.18921  Biso   1.000  C
  H559     1.0000 0.44020  0.82780  0.19610  Biso   1.000  H
  C748     1.0000 0.39905  0.82251  0.18508  Biso   1.000  C
  C749     1.0000 0.38761  0.84996  0.19486  Biso   1.000  C
  C750     1.0000 0.36795  0.85030  0.17179  Biso   1.000  C
  C751     1.0000 0.36704  0.83157  0.15143  Biso   1.000  C
  C752     1.0000 0.39057  0.81481  0.16146  Biso   1.000  C
  C753     1.0000 0.39896  0.78944  0.14396  Biso   1.000  C
  H560     1.0000 0.39050  0.78210  0.12930  Biso   1.000  H
  C754     1.0000 0.37732  0.84134  0.21811  Biso   1.000  C
  H561     1.0000 0.39080  0.84170  0.23150  Biso   1.000  H
  H562     1.0000 0.37090  0.82360  0.21600  Biso   1.000  H
  H563     1.0000 0.36290  0.85270  0.22330  Biso   1.000  H
  C755     1.0000 0.40864  0.87215  0.18938  Biso   1.000  C
  H564     1.0000 0.41170  0.87350  0.17070  Biso   1.000  H
  H565     1.0000 0.42490  0.86780  0.19820  Biso   1.000  H
  H566     1.0000 0.40220  0.88880  0.19590  Biso   1.000  H
  C756     1.0000 0.42613  0.77992  0.15879  Biso   1.000  C
  H567     1.0000 0.43570  0.76580  0.15180  Biso   1.000  H
  O127     1.0000 0.47004  0.26428  0.68384  Biso   1.000  O
  O128     1.0000 0.47160  0.29760  0.70990  Biso   1.000  O
  C757     1.0000 0.46374  0.28725  0.69247  Biso   1.000  C
  C758     1.0000 0.43604  0.29329  0.68343  Biso   1.000  C
  C759     1.0000 0.42845  0.31533  0.68921  Biso   1.000  C
  H568     1.0000 0.44020  0.32780  0.69610  Biso   1.000  H
  C760     1.0000 0.39905  0.32251  0.68508  Biso   1.000  C
  C761     1.0000 0.38761  0.34996  0.69486  Biso   1.000  C
  C762     1.0000 0.36795  0.35030  0.67179  Biso   1.000  C
  C763     1.0000 0.36704  0.33157  0.65143  Biso   1.000  C
  C764     1.0000 0.39057  0.31481  0.66146  Biso   1.000  C
  C765     1.0000 0.39896  0.28944  0.64396  Biso   1.000  C
  H569     1.0000 0.39050  0.28210  0.62930  Biso   1.000  H
  C766     1.0000 0.37732  0.34134  0.71811  Biso   1.000  C
  H570     1.0000 0.39080  0.34170  0.73150  Biso   1.000  H
  H571     1.0000 0.37090  0.32360  0.71600  Biso   1.000  H
  H572     1.0000 0.36290  0.35270  0.72330  Biso   1.000  H
  C767     1.0000 0.40864  0.37215  0.68938  Biso   1.000  C
  H573     1.0000 0.41170  0.37350  0.67070  Biso   1.000  H
  H574     1.0000 0.42490  0.36780  0.69820  Biso   1.000  H
  H575     1.0000 0.40220  0.38880  0.69590  Biso   1.000  H
  C768     1.0000 0.42613  0.27992  0.65879  Biso   1.000  C
  H576     1.0000 0.43570  0.26580  0.65180  Biso   1.000  H
  O129     1.0000 0.76428  0.68384  0.97004  Biso   1.000  O
  O130     1.0000 0.79760  0.70990  0.97160  Biso   1.000  O
  C769     1.0000 0.78725  0.69247  0.96374  Biso   1.000  C
  C770     1.0000 0.79329  0.68343  0.93604  Biso   1.000  C
  C771     1.0000 0.81533  0.68921  0.92845  Biso   1.000  C
  H577     1.0000 0.82780  0.69610  0.94020  Biso   1.000  H
  C772     1.0000 0.82251  0.68508  0.89905  Biso   1.000  C
  C773     1.0000 0.84996  0.69486  0.88761  Biso   1.000  C
  C774     1.0000 0.85030  0.67179  0.86795  Biso   1.000  C
  C775     1.0000 0.83157  0.65143  0.86704  Biso   1.000  C
  C776     1.0000 0.81481  0.66146  0.89057  Biso   1.000  C
  C777     1.0000 0.78944  0.64396  0.89896  Biso   1.000  C
  H578     1.0000 0.78210  0.62930  0.89050  Biso   1.000  H
  C778     1.0000 0.84134  0.71811  0.87732  Biso   1.000  C
  H579     1.0000 0.84170  0.73150  0.89080  Biso   1.000  H
  H580     1.0000 0.82360  0.71600  0.87090  Biso   1.000  H
  H581     1.0000 0.85270  0.72330  0.86290  Biso   1.000  H
  C779     1.0000 0.87215  0.68938  0.90864  Biso   1.000  C
  H582     1.0000 0.87350  0.67070  0.91170  Biso   1.000  H
  H583     1.0000 0.86780  0.69820  0.92490  Biso   1.000  H
  H584     1.0000 0.88880  0.69590  0.90220  Biso   1.000  H
  C780     1.0000 0.77992  0.65879  0.92613  Biso   1.000  C
  H585     1.0000 0.76580  0.65180  0.93570  Biso   1.000  H
  O131     1.0000 0.76428  0.18384  0.47004  Biso   1.000  O
  O132     1.0000 0.79760  0.20990  0.47160  Biso   1.000  O
  C781     1.0000 0.78725  0.19247  0.46374  Biso   1.000  C
  C782     1.0000 0.79329  0.18343  0.43604  Biso   1.000  C
  C783     1.0000 0.81533  0.18921  0.42845  Biso   1.000  C
  H586     1.0000 0.82780  0.19610  0.44020  Biso   1.000  H
  C784     1.0000 0.82251  0.18508  0.39905  Biso   1.000  C
  C785     1.0000 0.84996  0.19486  0.38761  Biso   1.000  C
  C786     1.0000 0.85030  0.17179  0.36795  Biso   1.000  C
  C787     1.0000 0.83157  0.15143  0.36704  Biso   1.000  C
  C788     1.0000 0.81481  0.16146  0.39057  Biso   1.000  C
  C789     1.0000 0.78944  0.14396  0.39896  Biso   1.000  C
  H587     1.0000 0.78210  0.12930  0.39050  Biso   1.000  H
  C790     1.0000 0.84134  0.21811  0.37732  Biso   1.000  C
  H588     1.0000 0.84170  0.23150  0.39080  Biso   1.000  H
  H589     1.0000 0.82360  0.21600  0.37090  Biso   1.000  H
  H590     1.0000 0.85270  0.22330  0.36290  Biso   1.000  H
  C791     1.0000 0.87215  0.18938  0.40864  Biso   1.000  C
  H591     1.0000 0.87350  0.17070  0.41170  Biso   1.000  H
  H592     1.0000 0.86780  0.19820  0.42490  Biso   1.000  H
  H593     1.0000 0.88880  0.19590  0.40220  Biso   1.000  H
  C792     1.0000 0.77992  0.15879  0.42613  Biso   1.000  C
  H594     1.0000 0.76580  0.15180  0.43570  Biso   1.000  H
  O133     1.0000 0.26428  0.68384  0.47004  Biso   1.000  O
  O134     1.0000 0.29760  0.70990  0.47160  Biso   1.000  O
  C793     1.0000 0.28725  0.69247  0.46374  Biso   1.000  C
  C794     1.0000 0.29329  0.68343  0.43604  Biso   1.000  C
  C795     1.0000 0.31533  0.68921  0.42845  Biso   1.000  C
  H595     1.0000 0.32780  0.69610  0.44020  Biso   1.000  H
  C796     1.0000 0.32251  0.68508  0.39905  Biso   1.000  C
  C797     1.0000 0.34996  0.69486  0.38761  Biso   1.000  C
  C798     1.0000 0.35030  0.67179  0.36795  Biso   1.000  C
  C799     1.0000 0.33157  0.65143  0.36704  Biso   1.000  C
  C800     1.0000 0.31481  0.66146  0.39057  Biso   1.000  C
  C801     1.0000 0.28944  0.64396  0.39896  Biso   1.000  C
  H596     1.0000 0.28210  0.62930  0.39050  Biso   1.000  H
  C802     1.0000 0.34134  0.71811  0.37732  Biso   1.000  C
  H597     1.0000 0.34170  0.73150  0.39080  Biso   1.000  H
  H598     1.0000 0.32360  0.71600  0.37090  Biso   1.000  H
  H599     1.0000 0.35270  0.72330  0.36290  Biso   1.000  H
  C803     1.0000 0.37215  0.68938  0.40864  Biso   1.000  C
  H600     1.0000 0.37350  0.67070  0.41170  Biso   1.000  H
  H601     1.0000 0.36780  0.69820  0.42490  Biso   1.000  H
  H602     1.0000 0.38880  0.69590  0.40220  Biso   1.000  H
  C804     1.0000 0.27992  0.65879  0.42613  Biso   1.000  C
  H603     1.0000 0.26580  0.65180  0.43570  Biso   1.000  H
  O135     1.0000 0.26428  0.18384  0.97004  Biso   1.000  O
  O136     1.0000 0.29760  0.20990  0.97160  Biso   1.000  O
  C805     1.0000 0.28725  0.19247  0.96374  Biso   1.000  C
  C806     1.0000 0.29329  0.18343  0.93604  Biso   1.000  C
  C807     1.0000 0.31533  0.18921  0.92845  Biso   1.000  C
  H604     1.0000 0.32780  0.19610  0.94020  Biso   1.000  H
  C808     1.0000 0.32251  0.18508  0.89905  Biso   1.000  C
  C809     1.0000 0.34996  0.19486  0.88761  Biso   1.000  C
  C810     1.0000 0.35030  0.17179  0.86795  Biso   1.000  C
  C811     1.0000 0.33157  0.15143  0.86704  Biso   1.000  C
  C812     1.0000 0.31481  0.16146  0.89057  Biso   1.000  C
  C813     1.0000 0.28944  0.14396  0.89896  Biso   1.000  C
  H605     1.0000 0.28210  0.12930  0.89050  Biso   1.000  H
  C814     1.0000 0.34134  0.21811  0.87732  Biso   1.000  C
  H606     1.0000 0.34170  0.23150  0.89080  Biso   1.000  H
  H607     1.0000 0.32360  0.21600  0.87090  Biso   1.000  H
  H608     1.0000 0.35270  0.22330  0.86290  Biso   1.000  H
  C815     1.0000 0.37215  0.18938  0.90864  Biso   1.000  C
  H609     1.0000 0.37350  0.17070  0.91170  Biso   1.000  H
  H610     1.0000 0.36780  0.19820  0.92490  Biso   1.000  H
  H611     1.0000 0.38880  0.19590  0.90220  Biso   1.000  H
  C816     1.0000 0.27992  0.15879  0.92613  Biso   1.000  C
  H612     1.0000 0.26580  0.15180  0.93570  Biso   1.000  H
  O137     1.0000 0.23572  0.68384  0.02996  Biso   1.000  O
  O138     1.0000 0.20240  0.70990  0.02840  Biso   1.000  O
  C817     1.0000 0.21275  0.69247  0.03626  Biso   1.000  C
  C818     1.0000 0.20671  0.68343  0.06396  Biso   1.000  C
  C819     1.0000 0.18467  0.68921  0.07155  Biso   1.000  C
  H613     1.0000 0.17220  0.69610  0.05980  Biso   1.000  H
  C820     1.0000 0.17749  0.68508  0.10095  Biso   1.000  C
  C821     1.0000 0.15004  0.69486  0.11239  Biso   1.000  C
  C822     1.0000 0.14970  0.67179  0.13205  Biso   1.000  C
  C823     1.0000 0.16843  0.65143  0.13296  Biso   1.000  C
  C824     1.0000 0.18519  0.66146  0.10943  Biso   1.000  C
  C825     1.0000 0.21056  0.64396  0.10104  Biso   1.000  C
  H614     1.0000 0.21790  0.62930  0.10950  Biso   1.000  H
  C826     1.0000 0.15866  0.71811  0.12268  Biso   1.000  C
  H615     1.0000 0.15830  0.73150  0.10920  Biso   1.000  H
  H616     1.0000 0.17640  0.71600  0.12910  Biso   1.000  H
  H617     1.0000 0.14730  0.72330  0.13710  Biso   1.000  H
  C827     1.0000 0.12785  0.68938  0.09136  Biso   1.000  C
  H618     1.0000 0.12650  0.67070  0.08830  Biso   1.000  H
  H619     1.0000 0.13220  0.69820  0.07510  Biso   1.000  H
  H620     1.0000 0.11120  0.69590  0.09780  Biso   1.000  H
  C828     1.0000 0.22008  0.65879  0.07387  Biso   1.000  C
  H621     1.0000 0.23420  0.65180  0.06430  Biso   1.000  H
  O139     1.0000 0.23572  0.18384  0.52996  Biso   1.000  O
  O140     1.0000 0.20240  0.20990  0.52840  Biso   1.000  O
  C829     1.0000 0.21275  0.19247  0.53626  Biso   1.000  C
  C830     1.0000 0.20671  0.18343  0.56396  Biso   1.000  C
  C831     1.0000 0.18467  0.18921  0.57155  Biso   1.000  C
  H622     1.0000 0.17220  0.19610  0.55980  Biso   1.000  H
  C832     1.0000 0.17749  0.18508  0.60095  Biso   1.000  C
  C833     1.0000 0.15004  0.19486  0.61239  Biso   1.000  C
  C834     1.0000 0.14970  0.17179  0.63205  Biso   1.000  C
  C835     1.0000 0.16843  0.15143  0.63296  Biso   1.000  C
  C836     1.0000 0.18519  0.16146  0.60943  Biso   1.000  C
  C837     1.0000 0.21056  0.14396  0.60104  Biso   1.000  C
  H623     1.0000 0.21790  0.12930  0.60950  Biso   1.000  H
  C838     1.0000 0.15866  0.21811  0.62268  Biso   1.000  C
  H624     1.0000 0.15830  0.23150  0.60920  Biso   1.000  H
  H625     1.0000 0.17640  0.21600  0.62910  Biso   1.000  H
  H626     1.0000 0.14730  0.22330  0.63710  Biso   1.000  H
  C839     1.0000 0.12785  0.18938  0.59136  Biso   1.000  C
  H627     1.0000 0.12650  0.17070  0.58830  Biso   1.000  H
  H628     1.0000 0.13220  0.19820  0.57510  Biso   1.000  H
  H629     1.0000 0.11120  0.19590  0.59780  Biso   1.000  H
  C840     1.0000 0.22008  0.15879  0.57387  Biso   1.000  C
  H630     1.0000 0.23420  0.15180  0.56430  Biso   1.000  H
  O141     1.0000 0.73572  0.68384  0.52996  Biso   1.000  O
  O142     1.0000 0.70240  0.70990  0.52840  Biso   1.000  O
  C841     1.0000 0.71275  0.69247  0.53626  Biso   1.000  C
  C842     1.0000 0.70671  0.68343  0.56396  Biso   1.000  C
  C843     1.0000 0.68467  0.68921  0.57155  Biso   1.000  C
  H631     1.0000 0.67220  0.69610  0.55980  Biso   1.000  H
  C844     1.0000 0.67749  0.68508  0.60095  Biso   1.000  C
  C845     1.0000 0.65004  0.69486  0.61239  Biso   1.000  C
  C846     1.0000 0.64970  0.67179  0.63205  Biso   1.000  C
  C847     1.0000 0.66843  0.65143  0.63296  Biso   1.000  C
  C848     1.0000 0.68519  0.66146  0.60943  Biso   1.000  C
  C849     1.0000 0.71056  0.64396  0.60104  Biso   1.000  C
  H632     1.0000 0.71790  0.62930  0.60950  Biso   1.000  H
  C850     1.0000 0.65866  0.71811  0.62268  Biso   1.000  C
  H633     1.0000 0.65830  0.73150  0.60920  Biso   1.000  H
  H634     1.0000 0.67640  0.71600  0.62910  Biso   1.000  H
  H635     1.0000 0.64730  0.72330  0.63710  Biso   1.000  H
  C851     1.0000 0.62785  0.68938  0.59136  Biso   1.000  C
  H636     1.0000 0.62650  0.67070  0.58830  Biso   1.000  H
  H637     1.0000 0.63220  0.69820  0.57510  Biso   1.000  H
  H638     1.0000 0.61120  0.69590  0.59780  Biso   1.000  H
  C852     1.0000 0.72008  0.65879  0.57387  Biso   1.000  C
  H639     1.0000 0.73420  0.65180  0.56430  Biso   1.000  H
  O143     1.0000 0.73572  0.18384  0.02996  Biso   1.000  O
  O144     1.0000 0.70240  0.20990  0.02840  Biso   1.000  O
  C853     1.0000 0.71275  0.19247  0.03626  Biso   1.000  C
  C854     1.0000 0.70671  0.18343  0.06396  Biso   1.000  C
  C855     1.0000 0.68467  0.18921  0.07155  Biso   1.000  C
  H640     1.0000 0.67220  0.19610  0.05980  Biso   1.000  H
  C856     1.0000 0.67749  0.18508  0.10095  Biso   1.000  C
  C857     1.0000 0.65004  0.19486  0.11239  Biso   1.000  C
  C858     1.0000 0.64970  0.17179  0.13205  Biso   1.000  C
  C859     1.0000 0.66843  0.15143  0.13296  Biso   1.000  C
  C860     1.0000 0.68519  0.16146  0.10943  Biso   1.000  C
  C861     1.0000 0.71056  0.14396  0.10104  Biso   1.000  C
  H641     1.0000 0.71790  0.12930  0.10950  Biso   1.000  H
  C862     1.0000 0.65866  0.21811  0.12268  Biso   1.000  C
  H642     1.0000 0.65830  0.23150  0.10920  Biso   1.000  H
  H643     1.0000 0.67640  0.21600  0.12910  Biso   1.000  H
  H644     1.0000 0.64730  0.22330  0.13710  Biso   1.000  H
  C863     1.0000 0.62785  0.18938  0.09136  Biso   1.000  C
  H645     1.0000 0.62650  0.17070  0.08830  Biso   1.000  H
  H646     1.0000 0.63220  0.19820  0.07510  Biso   1.000  H
  H647     1.0000 0.61120  0.19590  0.09780  Biso   1.000  H
  C864     1.0000 0.72008  0.15879  0.07387  Biso   1.000  C
  H648     1.0000 0.73420  0.15180  0.06430  Biso   1.000  H
  O145     1.0000 0.23572  0.31616  0.97004  Biso   1.000  O
  O146     1.0000 0.20240  0.29010  0.97160  Biso   1.000  O
  C865     1.0000 0.21275  0.30753  0.96374  Biso   1.000  C
  C866     1.0000 0.20671  0.31657  0.93604  Biso   1.000  C
  C867     1.0000 0.18467  0.31079  0.92845  Biso   1.000  C
  H649     1.0000 0.17220  0.30390  0.94020  Biso   1.000  H
  C868     1.0000 0.17749  0.31492  0.89905  Biso   1.000  C
  C869     1.0000 0.15004  0.30514  0.88761  Biso   1.000  C
  C870     1.0000 0.14970  0.32821  0.86795  Biso   1.000  C
  C871     1.0000 0.16843  0.34857  0.86704  Biso   1.000  C
  C872     1.0000 0.18519  0.33854  0.89057  Biso   1.000  C
  C873     1.0000 0.21056  0.35604  0.89896  Biso   1.000  C
  H650     1.0000 0.21790  0.37070  0.89050  Biso   1.000  H
  C874     1.0000 0.15866  0.28189  0.87732  Biso   1.000  C
  H651     1.0000 0.15830  0.26850  0.89080  Biso   1.000  H
  H652     1.0000 0.17640  0.28400  0.87090  Biso   1.000  H
  H653     1.0000 0.14730  0.27670  0.86290  Biso   1.000  H
  C875     1.0000 0.12785  0.31062  0.90864  Biso   1.000  C
  H654     1.0000 0.12650  0.32930  0.91170  Biso   1.000  H
  H655     1.0000 0.13220  0.30180  0.92490  Biso   1.000  H
  H656     1.0000 0.11120  0.30410  0.90220  Biso   1.000  H
  C876     1.0000 0.22008  0.34121  0.92613  Biso   1.000  C
  H657     1.0000 0.23420  0.34820  0.93570  Biso   1.000  H
  O147     1.0000 0.23572  0.81616  0.47004  Biso   1.000  O
  O148     1.0000 0.20240  0.79010  0.47160  Biso   1.000  O
  C877     1.0000 0.21275  0.80753  0.46374  Biso   1.000  C
  C878     1.0000 0.20671  0.81657  0.43604  Biso   1.000  C
  C879     1.0000 0.18467  0.81079  0.42845  Biso   1.000  C
  H658     1.0000 0.17220  0.80390  0.44020  Biso   1.000  H
  C880     1.0000 0.17749  0.81492  0.39905  Biso   1.000  C
  C881     1.0000 0.15004  0.80514  0.38761  Biso   1.000  C
  C882     1.0000 0.14970  0.82821  0.36795  Biso   1.000  C
  C883     1.0000 0.16843  0.84857  0.36704  Biso   1.000  C
  C884     1.0000 0.18519  0.83854  0.39057  Biso   1.000  C
  C885     1.0000 0.21056  0.85604  0.39896  Biso   1.000  C
  H659     1.0000 0.21790  0.87070  0.39050  Biso   1.000  H
  C886     1.0000 0.15866  0.78189  0.37732  Biso   1.000  C
  H660     1.0000 0.15830  0.76850  0.39080  Biso   1.000  H
  H661     1.0000 0.17640  0.78400  0.37090  Biso   1.000  H
  H662     1.0000 0.14730  0.77670  0.36290  Biso   1.000  H
  C887     1.0000 0.12785  0.81062  0.40864  Biso   1.000  C
  H663     1.0000 0.12650  0.82930  0.41170  Biso   1.000  H
  H664     1.0000 0.13220  0.80180  0.42490  Biso   1.000  H
  H665     1.0000 0.11120  0.80410  0.40220  Biso   1.000  H
  C888     1.0000 0.22008  0.84121  0.42613  Biso   1.000  C
  H666     1.0000 0.23420  0.84820  0.43570  Biso   1.000  H
  O149     1.0000 0.73572  0.31616  0.47004  Biso   1.000  O
  O150     1.0000 0.70240  0.29010  0.47160  Biso   1.000  O
  C889     1.0000 0.71275  0.30753  0.46374  Biso   1.000  C
  C890     1.0000 0.70671  0.31657  0.43604  Biso   1.000  C
  C891     1.0000 0.68467  0.31079  0.42845  Biso   1.000  C
  H667     1.0000 0.67220  0.30390  0.44020  Biso   1.000  H
  C892     1.0000 0.67749  0.31492  0.39905  Biso   1.000  C
  C893     1.0000 0.65004  0.30514  0.38761  Biso   1.000  C
  C894     1.0000 0.64970  0.32821  0.36795  Biso   1.000  C
  C895     1.0000 0.66843  0.34857  0.36704  Biso   1.000  C
  C896     1.0000 0.68519  0.33854  0.39057  Biso   1.000  C
  C897     1.0000 0.71056  0.35604  0.39896  Biso   1.000  C
  H668     1.0000 0.71790  0.37070  0.39050  Biso   1.000  H
  C898     1.0000 0.65866  0.28189  0.37732  Biso   1.000  C
  H669     1.0000 0.65830  0.26850  0.39080  Biso   1.000  H
  H670     1.0000 0.67640  0.28400  0.37090  Biso   1.000  H
  H671     1.0000 0.64730  0.27670  0.36290  Biso   1.000  H
  C899     1.0000 0.62785  0.31062  0.40864  Biso   1.000  C
  H672     1.0000 0.62650  0.32930  0.41170  Biso   1.000  H
  H673     1.0000 0.63220  0.30180  0.42490  Biso   1.000  H
  H674     1.0000 0.61120  0.30410  0.40220  Biso   1.000  H
  C900     1.0000 0.72008  0.34121  0.42613  Biso   1.000  C
  H675     1.0000 0.73420  0.34820  0.43570  Biso   1.000  H
  O151     1.0000 0.73572  0.81616  0.97004  Biso   1.000  O
  O152     1.0000 0.70240  0.79010  0.97160  Biso   1.000  O
  C901     1.0000 0.71275  0.80753  0.96374  Biso   1.000  C
  C902     1.0000 0.70671  0.81657  0.93604  Biso   1.000  C
  C903     1.0000 0.68467  0.81079  0.92845  Biso   1.000  C
  H676     1.0000 0.67220  0.80390  0.94020  Biso   1.000  H
  C904     1.0000 0.67749  0.81492  0.89905  Biso   1.000  C
  C905     1.0000 0.65004  0.80514  0.88761  Biso   1.000  C
  C906     1.0000 0.64970  0.82821  0.86795  Biso   1.000  C
  C907     1.0000 0.66843  0.84857  0.86704  Biso   1.000  C
  C908     1.0000 0.68519  0.83854  0.89057  Biso   1.000  C
  C909     1.0000 0.71056  0.85604  0.89896  Biso   1.000  C
  H677     1.0000 0.71790  0.87070  0.89050  Biso   1.000  H
  C910     1.0000 0.65866  0.78189  0.87732  Biso   1.000  C
  H678     1.0000 0.65830  0.76850  0.89080  Biso   1.000  H
  H679     1.0000 0.67640  0.78400  0.87090  Biso   1.000  H
  H680     1.0000 0.64730  0.77670  0.86290  Biso   1.000  H
  C911     1.0000 0.62785  0.81062  0.90864  Biso   1.000  C
  H681     1.0000 0.62650  0.82930  0.91170  Biso   1.000  H
  H682     1.0000 0.63220  0.80180  0.92490  Biso   1.000  H
  H683     1.0000 0.61120  0.80410  0.90220  Biso   1.000  H
  C912     1.0000 0.72008  0.84121  0.92613  Biso   1.000  C
  H684     1.0000 0.73420  0.84820  0.93570  Biso   1.000  H
  O153     1.0000 0.76428  0.31616  0.02996  Biso   1.000  O
  O154     1.0000 0.79760  0.29010  0.02840  Biso   1.000  O
  C913     1.0000 0.78725  0.30753  0.03626  Biso   1.000  C
  C914     1.0000 0.79329  0.31657  0.06396  Biso   1.000  C
  C915     1.0000 0.81533  0.31079  0.07155  Biso   1.000  C
  H685     1.0000 0.82780  0.30390  0.05980  Biso   1.000  H
  C916     1.0000 0.82251  0.31492  0.10095  Biso   1.000  C
  C917     1.0000 0.84996  0.30514  0.11239  Biso   1.000  C
  C918     1.0000 0.85030  0.32821  0.13205  Biso   1.000  C
  C919     1.0000 0.83157  0.34857  0.13296  Biso   1.000  C
  C920     1.0000 0.81481  0.33854  0.10943  Biso   1.000  C
  C921     1.0000 0.78944  0.35604  0.10104  Biso   1.000  C
  H686     1.0000 0.78210  0.37070  0.10950  Biso   1.000  H
  C922     1.0000 0.84134  0.28189  0.12268  Biso   1.000  C
  H687     1.0000 0.84170  0.26850  0.10920  Biso   1.000  H
  H688     1.0000 0.82360  0.28400  0.12910  Biso   1.000  H
  H689     1.0000 0.85270  0.27670  0.13710  Biso   1.000  H
  C923     1.0000 0.87215  0.31062  0.09136  Biso   1.000  C
  H690     1.0000 0.87350  0.32930  0.08830  Biso   1.000  H
  H691     1.0000 0.86780  0.30180  0.07510  Biso   1.000  H
  H692     1.0000 0.88880  0.30410  0.09780  Biso   1.000  H
  C924     1.0000 0.77992  0.34121  0.07387  Biso   1.000  C
  H693     1.0000 0.76580  0.34820  0.06430  Biso   1.000  H
  O155     1.0000 0.76428  0.81616  0.52996  Biso   1.000  O
  O156     1.0000 0.79760  0.79010  0.52840  Biso   1.000  O
  C925     1.0000 0.78725  0.80753  0.53626  Biso   1.000  C
  C926     1.0000 0.79329  0.81657  0.56396  Biso   1.000  C
  C927     1.0000 0.81533  0.81079  0.57155  Biso   1.000  C
  H694     1.0000 0.82780  0.80390  0.55980  Biso   1.000  H
  C928     1.0000 0.82251  0.81492  0.60095  Biso   1.000  C
  C929     1.0000 0.84996  0.80514  0.61239  Biso   1.000  C
  C930     1.0000 0.85030  0.82821  0.63205  Biso   1.000  C
  C931     1.0000 0.83157  0.84857  0.63296  Biso   1.000  C
  C932     1.0000 0.81481  0.83854  0.60943  Biso   1.000  C
  C933     1.0000 0.78944  0.85604  0.60104  Biso   1.000  C
  H695     1.0000 0.78210  0.87070  0.60950  Biso   1.000  H
  C934     1.0000 0.84134  0.78189  0.62268  Biso   1.000  C
  H696     1.0000 0.84170  0.76850  0.60920  Biso   1.000  H
  H697     1.0000 0.82360  0.78400  0.62910  Biso   1.000  H
  H698     1.0000 0.85270  0.77670  0.63710  Biso   1.000  H
  C935     1.0000 0.87215  0.81062  0.59136  Biso   1.000  C
  H699     1.0000 0.87350  0.82930  0.58830  Biso   1.000  H
  H700     1.0000 0.86780  0.80180  0.57510  Biso   1.000  H
  H701     1.0000 0.88880  0.80410  0.59780  Biso   1.000  H
  C936     1.0000 0.77992  0.84121  0.57387  Biso   1.000  C
  H702     1.0000 0.76580  0.84820  0.56430  Biso   1.000  H
  O157     1.0000 0.26428  0.31616  0.52996  Biso   1.000  O
  O158     1.0000 0.29760  0.29010  0.52840  Biso   1.000  O
  C937     1.0000 0.28725  0.30753  0.53626  Biso   1.000  C
  C938     1.0000 0.29329  0.31657  0.56396  Biso   1.000  C
  C939     1.0000 0.31533  0.31079  0.57155  Biso   1.000  C
  H703     1.0000 0.32780  0.30390  0.55980  Biso   1.000  H
  C940     1.0000 0.32251  0.31492  0.60095  Biso   1.000  C
  C941     1.0000 0.34996  0.30514  0.61239  Biso   1.000  C
  C942     1.0000 0.35030  0.32821  0.63205  Biso   1.000  C
  C943     1.0000 0.33157  0.34857  0.63296  Biso   1.000  C
  C944     1.0000 0.31481  0.33854  0.60943  Biso   1.000  C
  C945     1.0000 0.28944  0.35604  0.60104  Biso   1.000  C
  H704     1.0000 0.28210  0.37070  0.60950  Biso   1.000  H
  C946     1.0000 0.34134  0.28189  0.62268  Biso   1.000  C
  H705     1.0000 0.34170  0.26850  0.60920  Biso   1.000  H
  H706     1.0000 0.32360  0.28400  0.62910  Biso   1.000  H
  H707     1.0000 0.35270  0.27670  0.63710  Biso   1.000  H
  C947     1.0000 0.37215  0.31062  0.59136  Biso   1.000  C
  H708     1.0000 0.37350  0.32930  0.58830  Biso   1.000  H
  H709     1.0000 0.36780  0.30180  0.57510  Biso   1.000  H
  H710     1.0000 0.38880  0.30410  0.59780  Biso   1.000  H
  C948     1.0000 0.27992  0.34121  0.57387  Biso   1.000  C
  H711     1.0000 0.26580  0.34820  0.56430  Biso   1.000  H
  O159     1.0000 0.26428  0.81616  0.02996  Biso   1.000  O
  O160     1.0000 0.29760  0.79010  0.02840  Biso   1.000  O
  C949     1.0000 0.28725  0.80753  0.03626  Biso   1.000  C
  C950     1.0000 0.29329  0.81657  0.06396  Biso   1.000  C
  C951     1.0000 0.31533  0.81079  0.07155  Biso   1.000  C
  H712     1.0000 0.32780  0.80390  0.05980  Biso   1.000  H
  C952     1.0000 0.32251  0.81492  0.10095  Biso   1.000  C
  C953     1.0000 0.34996  0.80514  0.11239  Biso   1.000  C
  C954     1.0000 0.35030  0.82821  0.13205  Biso   1.000  C
  C955     1.0000 0.33157  0.84857  0.13296  Biso   1.000  C
  C956     1.0000 0.31481  0.83854  0.10943  Biso   1.000  C
  C957     1.0000 0.28944  0.85604  0.10104  Biso   1.000  C
  H713     1.0000 0.28210  0.87070  0.10950  Biso   1.000  H
  C958     1.0000 0.34134  0.78189  0.12268  Biso   1.000  C
  H714     1.0000 0.34170  0.76850  0.10920  Biso   1.000  H
  H715     1.0000 0.32360  0.78400  0.12910  Biso   1.000  H
  H716     1.0000 0.35270  0.77670  0.13710  Biso   1.000  H
  C959     1.0000 0.37215  0.81062  0.09136  Biso   1.000  C
  H717     1.0000 0.37350  0.82930  0.08830  Biso   1.000  H
  H718     1.0000 0.36780  0.80180  0.07510  Biso   1.000  H
  H719     1.0000 0.38880  0.80410  0.09780  Biso   1.000  H
  C960     1.0000 0.27992  0.84121  0.07387  Biso   1.000  C
  H720     1.0000 0.26580  0.84820  0.06430  Biso   1.000  H
  O161     1.0000 0.68384  0.02996  0.23572  Biso   1.000  O
  O162     1.0000 0.70990  0.02840  0.20240  Biso   1.000  O
  C961     1.0000 0.69247  0.03626  0.21275  Biso   1.000  C
  C962     1.0000 0.68343  0.06396  0.20671  Biso   1.000  C
  C963     1.0000 0.68921  0.07155  0.18467  Biso   1.000  C
  H721     1.0000 0.69610  0.05980  0.17220  Biso   1.000  H
  C964     1.0000 0.68508  0.10095  0.17749  Biso   1.000  C
  C965     1.0000 0.69486  0.11239  0.15004  Biso   1.000  C
  C966     1.0000 0.67179  0.13205  0.14970  Biso   1.000  C
  C967     1.0000 0.65143  0.13296  0.16843  Biso   1.000  C
  C968     1.0000 0.66146  0.10943  0.18519  Biso   1.000  C
  C969     1.0000 0.64396  0.10104  0.21056  Biso   1.000  C
  H722     1.0000 0.62930  0.10950  0.21790  Biso   1.000  H
  C970     1.0000 0.71811  0.12268  0.15866  Biso   1.000  C
  H723     1.0000 0.73150  0.10920  0.15830  Biso   1.000  H
  H724     1.0000 0.71600  0.12910  0.17640  Biso   1.000  H
  H725     1.0000 0.72330  0.13710  0.14730  Biso   1.000  H
  C971     1.0000 0.68938  0.09136  0.12785  Biso   1.000  C
  H726     1.0000 0.67070  0.08830  0.12650  Biso   1.000  H
  H727     1.0000 0.69820  0.07510  0.13220  Biso   1.000  H
  H728     1.0000 0.69590  0.09780  0.11120  Biso   1.000  H
  C972     1.0000 0.65879  0.07387  0.22008  Biso   1.000  C
  H729     1.0000 0.65180  0.06430  0.23420  Biso   1.000  H
  O163     1.0000 0.68384  0.52996  0.73572  Biso   1.000  O
  O164     1.0000 0.70990  0.52840  0.70240  Biso   1.000  O
  C973     1.0000 0.69247  0.53626  0.71275  Biso   1.000  C
  C974     1.0000 0.68343  0.56396  0.70671  Biso   1.000  C
  C975     1.0000 0.68921  0.57155  0.68467  Biso   1.000  C
  H730     1.0000 0.69610  0.55980  0.67220  Biso   1.000  H
  C976     1.0000 0.68508  0.60095  0.67749  Biso   1.000  C
  C977     1.0000 0.69486  0.61239  0.65004  Biso   1.000  C
  C978     1.0000 0.67179  0.63205  0.64970  Biso   1.000  C
  C979     1.0000 0.65143  0.63296  0.66843  Biso   1.000  C
  C980     1.0000 0.66146  0.60943  0.68519  Biso   1.000  C
  C981     1.0000 0.64396  0.60104  0.71056  Biso   1.000  C
  H731     1.0000 0.62930  0.60950  0.71790  Biso   1.000  H
  C982     1.0000 0.71811  0.62268  0.65866  Biso   1.000  C
  H732     1.0000 0.73150  0.60920  0.65830  Biso   1.000  H
  H733     1.0000 0.71600  0.62910  0.67640  Biso   1.000  H
  H734     1.0000 0.72330  0.63710  0.64730  Biso   1.000  H
  C983     1.0000 0.68938  0.59136  0.62785  Biso   1.000  C
  H735     1.0000 0.67070  0.58830  0.62650  Biso   1.000  H
  H736     1.0000 0.69820  0.57510  0.63220  Biso   1.000  H
  H737     1.0000 0.69590  0.59780  0.61120  Biso   1.000  H
  C984     1.0000 0.65879  0.57387  0.72008  Biso   1.000  C
  H738     1.0000 0.65180  0.56430  0.73420  Biso   1.000  H
  O165     1.0000 0.18384  0.02996  0.73572  Biso   1.000  O
  O166     1.0000 0.20990  0.02840  0.70240  Biso   1.000  O
  C985     1.0000 0.19247  0.03626  0.71275  Biso   1.000  C
  C986     1.0000 0.18343  0.06396  0.70671  Biso   1.000  C
  C987     1.0000 0.18921  0.07155  0.68467  Biso   1.000  C
  H739     1.0000 0.19610  0.05980  0.67220  Biso   1.000  H
  C988     1.0000 0.18508  0.10095  0.67749  Biso   1.000  C
  C989     1.0000 0.19486  0.11239  0.65004  Biso   1.000  C
  C990     1.0000 0.17179  0.13205  0.64970  Biso   1.000  C
  C991     1.0000 0.15143  0.13296  0.66843  Biso   1.000  C
  C992     1.0000 0.16146  0.10943  0.68519  Biso   1.000  C
  C993     1.0000 0.14396  0.10104  0.71056  Biso   1.000  C
  H740     1.0000 0.12930  0.10950  0.71790  Biso   1.000  H
  C994     1.0000 0.21811  0.12268  0.65866  Biso   1.000  C
  H741     1.0000 0.23150  0.10920  0.65830  Biso   1.000  H
  H742     1.0000 0.21600  0.12910  0.67640  Biso   1.000  H
  H743     1.0000 0.22330  0.13710  0.64730  Biso   1.000  H
  C995     1.0000 0.18938  0.09136  0.62785  Biso   1.000  C
  H744     1.0000 0.17070  0.08830  0.62650  Biso   1.000  H
  H745     1.0000 0.19820  0.07510  0.63220  Biso   1.000  H
  H746     1.0000 0.19590  0.09780  0.61120  Biso   1.000  H
  C996     1.0000 0.15879  0.07387  0.72008  Biso   1.000  C
  H747     1.0000 0.15180  0.06430  0.73420  Biso   1.000  H
  O167     1.0000 0.18384  0.52996  0.23572  Biso   1.000  O
  O168     1.0000 0.20990  0.52840  0.20240  Biso   1.000  O
  C997     1.0000 0.19247  0.53626  0.21275  Biso   1.000  C
  C998     1.0000 0.18343  0.56396  0.20671  Biso   1.000  C
  C999     1.0000 0.18921  0.57155  0.18467  Biso   1.000  C
  H748     1.0000 0.19610  0.55980  0.17220  Biso   1.000  H
  C1000    1.0000 0.18508  0.60095  0.17749  Biso   1.000  C
  C1001    1.0000 0.19486  0.61239  0.15004  Biso   1.000  C
  C1002    1.0000 0.17179  0.63205  0.14970  Biso   1.000  C
  C1003    1.0000 0.15143  0.63296  0.16843  Biso   1.000  C
  C1004    1.0000 0.16146  0.60943  0.18519  Biso   1.000  C
  C1005    1.0000 0.14396  0.60104  0.21056  Biso   1.000  C
  H749     1.0000 0.12930  0.60950  0.21790  Biso   1.000  H
  C1006    1.0000 0.21811  0.62268  0.15866  Biso   1.000  C
  H750     1.0000 0.23150  0.60920  0.15830  Biso   1.000  H
  H751     1.0000 0.21600  0.62910  0.17640  Biso   1.000  H
  H752     1.0000 0.22330  0.63710  0.14730  Biso   1.000  H
  C1007    1.0000 0.18938  0.59136  0.12785  Biso   1.000  C
  H753     1.0000 0.17070  0.58830  0.12650  Biso   1.000  H
  H754     1.0000 0.19820  0.57510  0.13220  Biso   1.000  H
  H755     1.0000 0.19590  0.59780  0.11120  Biso   1.000  H
  C1008    1.0000 0.15879  0.57387  0.22008  Biso   1.000  C
  H756     1.0000 0.15180  0.56430  0.23420  Biso   1.000  H
  O169     1.0000 0.68384  0.97004  0.76428  Biso   1.000  O
  O170     1.0000 0.70990  0.97160  0.79760  Biso   1.000  O
  C1009    1.0000 0.69247  0.96374  0.78725  Biso   1.000  C
  C1010    1.0000 0.68343  0.93604  0.79329  Biso   1.000  C
  C1011    1.0000 0.68921  0.92845  0.81533  Biso   1.000  C
  H757     1.0000 0.69610  0.94020  0.82780  Biso   1.000  H
  C1012    1.0000 0.68508  0.89905  0.82251  Biso   1.000  C
  C1013    1.0000 0.69486  0.88761  0.84996  Biso   1.000  C
  C1014    1.0000 0.67179  0.86795  0.85030  Biso   1.000  C
  C1015    1.0000 0.65143  0.86704  0.83157  Biso   1.000  C
  C1016    1.0000 0.66146  0.89057  0.81481  Biso   1.000  C
  C1017    1.0000 0.64396  0.89896  0.78944  Biso   1.000  C
  H758     1.0000 0.62930  0.89050  0.78210  Biso   1.000  H
  C1018    1.0000 0.71811  0.87732  0.84134  Biso   1.000  C
  H759     1.0000 0.73150  0.89080  0.84170  Biso   1.000  H
  H760     1.0000 0.71600  0.87090  0.82360  Biso   1.000  H
  H761     1.0000 0.72330  0.86290  0.85270  Biso   1.000  H
  C1019    1.0000 0.68938  0.90864  0.87215  Biso   1.000  C
  H762     1.0000 0.67070  0.91170  0.87350  Biso   1.000  H
  H763     1.0000 0.69820  0.92490  0.86780  Biso   1.000  H
  H764     1.0000 0.69590  0.90220  0.88880  Biso   1.000  H
  C1020    1.0000 0.65879  0.92613  0.77992  Biso   1.000  C
  H765     1.0000 0.65180  0.93570  0.76580  Biso   1.000  H
  O171     1.0000 0.68384  0.47004  0.26428  Biso   1.000  O
  O172     1.0000 0.70990  0.47160  0.29760  Biso   1.000  O
  C1021    1.0000 0.69247  0.46374  0.28725  Biso   1.000  C
  C1022    1.0000 0.68343  0.43604  0.29329  Biso   1.000  C
  C1023    1.0000 0.68921  0.42845  0.31533  Biso   1.000  C
  H766     1.0000 0.69610  0.44020  0.32780  Biso   1.000  H
  C1024    1.0000 0.68508  0.39905  0.32251  Biso   1.000  C
  C1025    1.0000 0.69486  0.38761  0.34996  Biso   1.000  C
  C1026    1.0000 0.67179  0.36795  0.35030  Biso   1.000  C
  C1027    1.0000 0.65143  0.36704  0.33157  Biso   1.000  C
  C1028    1.0000 0.66146  0.39057  0.31481  Biso   1.000  C
  C1029    1.0000 0.64396  0.39896  0.28944  Biso   1.000  C
  H767     1.0000 0.62930  0.39050  0.28210  Biso   1.000  H
  C1030    1.0000 0.71811  0.37732  0.34134  Biso   1.000  C
  H768     1.0000 0.73150  0.39080  0.34170  Biso   1.000  H
  H769     1.0000 0.71600  0.37090  0.32360  Biso   1.000  H
  H770     1.0000 0.72330  0.36290  0.35270  Biso   1.000  H
  C1031    1.0000 0.68938  0.40864  0.37215  Biso   1.000  C
  H771     1.0000 0.67070  0.41170  0.37350  Biso   1.000  H
  H772     1.0000 0.69820  0.42490  0.36780  Biso   1.000  H
  H773     1.0000 0.69590  0.40220  0.38880  Biso   1.000  H
  C1032    1.0000 0.65879  0.42613  0.27992  Biso   1.000  C
  H774     1.0000 0.65180  0.43570  0.26580  Biso   1.000  H
  O173     1.0000 0.18384  0.97004  0.26428  Biso   1.000  O
  O174     1.0000 0.20990  0.97160  0.29760  Biso   1.000  O
  C1033    1.0000 0.19247  0.96374  0.28725  Biso   1.000  C
  C1034    1.0000 0.18343  0.93604  0.29329  Biso   1.000  C
  C1035    1.0000 0.18921  0.92845  0.31533  Biso   1.000  C
  H775     1.0000 0.19610  0.94020  0.32780  Biso   1.000  H
  C1036    1.0000 0.18508  0.89905  0.32251  Biso   1.000  C
  C1037    1.0000 0.19486  0.88761  0.34996  Biso   1.000  C
  C1038    1.0000 0.17179  0.86795  0.35030  Biso   1.000  C
  C1039    1.0000 0.15143  0.86704  0.33157  Biso   1.000  C
  C1040    1.0000 0.16146  0.89057  0.31481  Biso   1.000  C
  C1041    1.0000 0.14396  0.89896  0.28944  Biso   1.000  C
  H776     1.0000 0.12930  0.89050  0.28210  Biso   1.000  H
  C1042    1.0000 0.21811  0.87732  0.34134  Biso   1.000  C
  H777     1.0000 0.23150  0.89080  0.34170  Biso   1.000  H
  H778     1.0000 0.21600  0.87090  0.32360  Biso   1.000  H
  H779     1.0000 0.22330  0.86290  0.35270  Biso   1.000  H
  C1043    1.0000 0.18938  0.90864  0.37215  Biso   1.000  C
  H780     1.0000 0.17070  0.91170  0.37350  Biso   1.000  H
  H781     1.0000 0.19820  0.92490  0.36780  Biso   1.000  H
  H782     1.0000 0.19590  0.90220  0.38880  Biso   1.000  H
  C1044    1.0000 0.15879  0.92613  0.27992  Biso   1.000  C
  H783     1.0000 0.15180  0.93570  0.26580  Biso   1.000  H
  O175     1.0000 0.18384  0.47004  0.76428  Biso   1.000  O
  O176     1.0000 0.20990  0.47160  0.79760  Biso   1.000  O
  C1045    1.0000 0.19247  0.46374  0.78725  Biso   1.000  C
  C1046    1.0000 0.18343  0.43604  0.79329  Biso   1.000  C
  C1047    1.0000 0.18921  0.42845  0.81533  Biso   1.000  C
  H784     1.0000 0.19610  0.44020  0.82780  Biso   1.000  H
  C1048    1.0000 0.18508  0.39905  0.82251  Biso   1.000  C
  C1049    1.0000 0.19486  0.38761  0.84996  Biso   1.000  C
  C1050    1.0000 0.17179  0.36795  0.85030  Biso   1.000  C
  C1051    1.0000 0.15143  0.36704  0.83157  Biso   1.000  C
  C1052    1.0000 0.16146  0.39057  0.81481  Biso   1.000  C
  C1053    1.0000 0.14396  0.39896  0.78944  Biso   1.000  C
  H785     1.0000 0.12930  0.39050  0.78210  Biso   1.000  H
  C1054    1.0000 0.21811  0.37732  0.84134  Biso   1.000  C
  H786     1.0000 0.23150  0.39080  0.84170  Biso   1.000  H
  H787     1.0000 0.21600  0.37090  0.82360  Biso   1.000  H
  H788     1.0000 0.22330  0.36290  0.85270  Biso   1.000  H
  C1055    1.0000 0.18938  0.40864  0.87215  Biso   1.000  C
  H789     1.0000 0.17070  0.41170  0.87350  Biso   1.000  H
  H790     1.0000 0.19820  0.42490  0.86780  Biso   1.000  H
  H791     1.0000 0.19590  0.40220  0.88880  Biso   1.000  H
  C1056    1.0000 0.15879  0.42613  0.77992  Biso   1.000  C
  H792     1.0000 0.15180  0.43570  0.76580  Biso   1.000  H
  O177     1.0000 0.31616  0.02996  0.76428  Biso   1.000  O
  O178     1.0000 0.29010  0.02840  0.79760  Biso   1.000  O
  C1057    1.0000 0.30753  0.03626  0.78725  Biso   1.000  C
  C1058    1.0000 0.31657  0.06396  0.79329  Biso   1.000  C
  C1059    1.0000 0.31079  0.07155  0.81533  Biso   1.000  C
  H793     1.0000 0.30390  0.05980  0.82780  Biso   1.000  H
  C1060    1.0000 0.31492  0.10095  0.82251  Biso   1.000  C
  C1061    1.0000 0.30514  0.11239  0.84996  Biso   1.000  C
  C1062    1.0000 0.32821  0.13205  0.85030  Biso   1.000  C
  C1063    1.0000 0.34857  0.13296  0.83157  Biso   1.000  C
  C1064    1.0000 0.33854  0.10943  0.81481  Biso   1.000  C
  C1065    1.0000 0.35604  0.10104  0.78944  Biso   1.000  C
  H794     1.0000 0.37070  0.10950  0.78210  Biso   1.000  H
  C1066    1.0000 0.28189  0.12268  0.84134  Biso   1.000  C
  H795     1.0000 0.26850  0.10920  0.84170  Biso   1.000  H
  H796     1.0000 0.28400  0.12910  0.82360  Biso   1.000  H
  H797     1.0000 0.27670  0.13710  0.85270  Biso   1.000  H
  C1067    1.0000 0.31062  0.09136  0.87215  Biso   1.000  C
  H798     1.0000 0.32930  0.08830  0.87350  Biso   1.000  H
  H799     1.0000 0.30180  0.07510  0.86780  Biso   1.000  H
  H800     1.0000 0.30410  0.09780  0.88880  Biso   1.000  H
  C1068    1.0000 0.34121  0.07387  0.77992  Biso   1.000  C
  H801     1.0000 0.34820  0.06430  0.76580  Biso   1.000  H
  O179     1.0000 0.31616  0.52996  0.26428  Biso   1.000  O
  O180     1.0000 0.29010  0.52840  0.29760  Biso   1.000  O
  C1069    1.0000 0.30753  0.53626  0.28725  Biso   1.000  C
  C1070    1.0000 0.31657  0.56396  0.29329  Biso   1.000  C
  C1071    1.0000 0.31079  0.57155  0.31533  Biso   1.000  C
  H802     1.0000 0.30390  0.55980  0.32780  Biso   1.000  H
  C1072    1.0000 0.31492  0.60095  0.32251  Biso   1.000  C
  C1073    1.0000 0.30514  0.61239  0.34996  Biso   1.000  C
  C1074    1.0000 0.32821  0.63205  0.35030  Biso   1.000  C
  C1075    1.0000 0.34857  0.63296  0.33157  Biso   1.000  C
  C1076    1.0000 0.33854  0.60943  0.31481  Biso   1.000  C
  C1077    1.0000 0.35604  0.60104  0.28944  Biso   1.000  C
  H803     1.0000 0.37070  0.60950  0.28210  Biso   1.000  H
  C1078    1.0000 0.28189  0.62268  0.34134  Biso   1.000  C
  H804     1.0000 0.26850  0.60920  0.34170  Biso   1.000  H
  H805     1.0000 0.28400  0.62910  0.32360  Biso   1.000  H
  H806     1.0000 0.27670  0.63710  0.35270  Biso   1.000  H
  C1079    1.0000 0.31062  0.59136  0.37215  Biso   1.000  C
  H807     1.0000 0.32930  0.58830  0.37350  Biso   1.000  H
  H808     1.0000 0.30180  0.57510  0.36780  Biso   1.000  H
  H809     1.0000 0.30410  0.59780  0.38880  Biso   1.000  H
  C1080    1.0000 0.34121  0.57387  0.27992  Biso   1.000  C
  H810     1.0000 0.34820  0.56430  0.26580  Biso   1.000  H
  O181     1.0000 0.81616  0.02996  0.26428  Biso   1.000  O
  O182     1.0000 0.79010  0.02840  0.29760  Biso   1.000  O
  C1081    1.0000 0.80753  0.03626  0.28725  Biso   1.000  C
  C1082    1.0000 0.81657  0.06396  0.29329  Biso   1.000  C
  C1083    1.0000 0.81079  0.07155  0.31533  Biso   1.000  C
  H811     1.0000 0.80390  0.05980  0.32780  Biso   1.000  H
  C1084    1.0000 0.81492  0.10095  0.32251  Biso   1.000  C
  C1085    1.0000 0.80514  0.11239  0.34996  Biso   1.000  C
  C1086    1.0000 0.82821  0.13205  0.35030  Biso   1.000  C
  C1087    1.0000 0.84857  0.13296  0.33157  Biso   1.000  C
  C1088    1.0000 0.83854  0.10943  0.31481  Biso   1.000  C
  C1089    1.0000 0.85604  0.10104  0.28944  Biso   1.000  C
  H812     1.0000 0.87070  0.10950  0.28210  Biso   1.000  H
  C1090    1.0000 0.78189  0.12268  0.34134  Biso   1.000  C
  H813     1.0000 0.76850  0.10920  0.34170  Biso   1.000  H
  H814     1.0000 0.78400  0.12910  0.32360  Biso   1.000  H
  H815     1.0000 0.77670  0.13710  0.35270  Biso   1.000  H
  C1091    1.0000 0.81062  0.09136  0.37215  Biso   1.000  C
  H816     1.0000 0.82930  0.08830  0.37350  Biso   1.000  H
  H817     1.0000 0.80180  0.07510  0.36780  Biso   1.000  H
  H818     1.0000 0.80410  0.09780  0.38880  Biso   1.000  H
  C1092    1.0000 0.84121  0.07387  0.27992  Biso   1.000  C
  H819     1.0000 0.84820  0.06430  0.26580  Biso   1.000  H
  O183     1.0000 0.81616  0.52996  0.76428  Biso   1.000  O
  O184     1.0000 0.79010  0.52840  0.79760  Biso   1.000  O
  C1093    1.0000 0.80753  0.53626  0.78725  Biso   1.000  C
  C1094    1.0000 0.81657  0.56396  0.79329  Biso   1.000  C
  C1095    1.0000 0.81079  0.57155  0.81533  Biso   1.000  C
  H820     1.0000 0.80390  0.55980  0.82780  Biso   1.000  H
  C1096    1.0000 0.81492  0.60095  0.82251  Biso   1.000  C
  C1097    1.0000 0.80514  0.61239  0.84996  Biso   1.000  C
  C1098    1.0000 0.82821  0.63205  0.85030  Biso   1.000  C
  C1099    1.0000 0.84857  0.63296  0.83157  Biso   1.000  C
  C1100    1.0000 0.83854  0.60943  0.81481  Biso   1.000  C
  C1101    1.0000 0.85604  0.60104  0.78944  Biso   1.000  C
  H821     1.0000 0.87070  0.60950  0.78210  Biso   1.000  H
  C1102    1.0000 0.78189  0.62268  0.84134  Biso   1.000  C
  H822     1.0000 0.76850  0.60920  0.84170  Biso   1.000  H
  H823     1.0000 0.78400  0.62910  0.82360  Biso   1.000  H
  H824     1.0000 0.77670  0.63710  0.85270  Biso   1.000  H
  C1103    1.0000 0.81062  0.59136  0.87215  Biso   1.000  C
  H825     1.0000 0.82930  0.58830  0.87350  Biso   1.000  H
  H826     1.0000 0.80180  0.57510  0.86780  Biso   1.000  H
  H827     1.0000 0.80410  0.59780  0.88880  Biso   1.000  H
  C1104    1.0000 0.84121  0.57387  0.77992  Biso   1.000  C
  H828     1.0000 0.84820  0.56430  0.76580  Biso   1.000  H
  O185     1.0000 0.31616  0.97004  0.23572  Biso   1.000  O
  O186     1.0000 0.29010  0.97160  0.20240  Biso   1.000  O
  C1105    1.0000 0.30753  0.96374  0.21275  Biso   1.000  C
  C1106    1.0000 0.31657  0.93604  0.20671  Biso   1.000  C
  C1107    1.0000 0.31079  0.92845  0.18467  Biso   1.000  C
  H829     1.0000 0.30390  0.94020  0.17220  Biso   1.000  H
  C1108    1.0000 0.31492  0.89905  0.17749  Biso   1.000  C
  C1109    1.0000 0.30514  0.88761  0.15004  Biso   1.000  C
  C1110    1.0000 0.32821  0.86795  0.14970  Biso   1.000  C
  C1111    1.0000 0.34857  0.86704  0.16843  Biso   1.000  C
  C1112    1.0000 0.33854  0.89057  0.18519  Biso   1.000  C
  C1113    1.0000 0.35604  0.89896  0.21056  Biso   1.000  C
  H830     1.0000 0.37070  0.89050  0.21790  Biso   1.000  H
  C1114    1.0000 0.28189  0.87732  0.15866  Biso   1.000  C
  H831     1.0000 0.26850  0.89080  0.15830  Biso   1.000  H
  H832     1.0000 0.28400  0.87090  0.17640  Biso   1.000  H
  H833     1.0000 0.27670  0.86290  0.14730  Biso   1.000  H
  C1115    1.0000 0.31062  0.90864  0.12785  Biso   1.000  C
  H834     1.0000 0.32930  0.91170  0.12650  Biso   1.000  H
  H835     1.0000 0.30180  0.92490  0.13220  Biso   1.000  H
  H836     1.0000 0.30410  0.90220  0.11120  Biso   1.000  H
  C1116    1.0000 0.34121  0.92613  0.22008  Biso   1.000  C
  H837     1.0000 0.34820  0.93570  0.23420  Biso   1.000  H
  O187     1.0000 0.31616  0.47004  0.73572  Biso   1.000  O
  O188     1.0000 0.29010  0.47160  0.70240  Biso   1.000  O
  C1117    1.0000 0.30753  0.46374  0.71275  Biso   1.000  C
  C1118    1.0000 0.31657  0.43604  0.70671  Biso   1.000  C
  C1119    1.0000 0.31079  0.42845  0.68467  Biso   1.000  C
  H838     1.0000 0.30390  0.44020  0.67220  Biso   1.000  H
  C1120    1.0000 0.31492  0.39905  0.67749  Biso   1.000  C
  C1121    1.0000 0.30514  0.38761  0.65004  Biso   1.000  C
  C1122    1.0000 0.32821  0.36795  0.64970  Biso   1.000  C
  C1123    1.0000 0.34857  0.36704  0.66843  Biso   1.000  C
  C1124    1.0000 0.33854  0.39057  0.68519  Biso   1.000  C
  C1125    1.0000 0.35604  0.39896  0.71056  Biso   1.000  C
  H839     1.0000 0.37070  0.39050  0.71790  Biso   1.000  H
  C1126    1.0000 0.28189  0.37732  0.65866  Biso   1.000  C
  H840     1.0000 0.26850  0.39080  0.65830  Biso   1.000  H
  H841     1.0000 0.28400  0.37090  0.67640  Biso   1.000  H
  H842     1.0000 0.27670  0.36290  0.64730  Biso   1.000  H
  C1127    1.0000 0.31062  0.40864  0.62785  Biso   1.000  C
  H843     1.0000 0.32930  0.41170  0.62650  Biso   1.000  H
  H844     1.0000 0.30180  0.42490  0.63220  Biso   1.000  H
  H845     1.0000 0.30410  0.40220  0.61120  Biso   1.000  H
  C1128    1.0000 0.34121  0.42613  0.72008  Biso   1.000  C
  H846     1.0000 0.34820  0.43570  0.73420  Biso   1.000  H
  O189     1.0000 0.81616  0.97004  0.73572  Biso   1.000  O
  O190     1.0000 0.79010  0.97160  0.70240  Biso   1.000  O
  C1129    1.0000 0.80753  0.96374  0.71275  Biso   1.000  C
  C1130    1.0000 0.81657  0.93604  0.70671  Biso   1.000  C
  C1131    1.0000 0.81079  0.92845  0.68467  Biso   1.000  C
  H847     1.0000 0.80390  0.94020  0.67220  Biso   1.000  H
  C1132    1.0000 0.81492  0.89905  0.67749  Biso   1.000  C
  C1133    1.0000 0.80514  0.88761  0.65004  Biso   1.000  C
  C1134    1.0000 0.82821  0.86795  0.64970  Biso   1.000  C
  C1135    1.0000 0.84857  0.86704  0.66843  Biso   1.000  C
  C1136    1.0000 0.83854  0.89057  0.68519  Biso   1.000  C
  C1137    1.0000 0.85604  0.89896  0.71056  Biso   1.000  C
  H848     1.0000 0.87070  0.89050  0.71790  Biso   1.000  H
  C1138    1.0000 0.78189  0.87732  0.65866  Biso   1.000  C
  H849     1.0000 0.76850  0.89080  0.65830  Biso   1.000  H
  H850     1.0000 0.78400  0.87090  0.67640  Biso   1.000  H
  H851     1.0000 0.77670  0.86290  0.64730  Biso   1.000  H
  C1139    1.0000 0.81062  0.90864  0.62785  Biso   1.000  C
  H852     1.0000 0.82930  0.91170  0.62650  Biso   1.000  H
  H853     1.0000 0.80180  0.92490  0.63220  Biso   1.000  H
  H854     1.0000 0.80410  0.90220  0.61120  Biso   1.000  H
  C1140    1.0000 0.84121  0.92613  0.72008  Biso   1.000  C
  H855     1.0000 0.84820  0.93570  0.73420  Biso   1.000  H
  O191     1.0000 0.81616  0.47004  0.23572  Biso   1.000  O
  O192     1.0000 0.79010  0.47160  0.20240  Biso   1.000  O
  C1141    1.0000 0.80753  0.46374  0.21275  Biso   1.000  C
  C1142    1.0000 0.81657  0.43604  0.20671  Biso   1.000  C
  C1143    1.0000 0.81079  0.42845  0.18467  Biso   1.000  C
  H856     1.0000 0.80390  0.44020  0.17220  Biso   1.000  H
  C1144    1.0000 0.81492  0.39905  0.17749  Biso   1.000  C
  C1145    1.0000 0.80514  0.38761  0.15004  Biso   1.000  C
  C1146    1.0000 0.82821  0.36795  0.14970  Biso   1.000  C
  C1147    1.0000 0.84857  0.36704  0.16843  Biso   1.000  C
  C1148    1.0000 0.83854  0.39057  0.18519  Biso   1.000  C
  C1149    1.0000 0.85604  0.39896  0.21056  Biso   1.000  C
  H857     1.0000 0.87070  0.39050  0.21790  Biso   1.000  H
  C1150    1.0000 0.78189  0.37732  0.15866  Biso   1.000  C
  H858     1.0000 0.76850  0.39080  0.15830  Biso   1.000  H
  H859     1.0000 0.78400  0.37090  0.17640  Biso   1.000  H
  H860     1.0000 0.77670  0.36290  0.14730  Biso   1.000  H
  C1151    1.0000 0.81062  0.40864  0.12785  Biso   1.000  C
  H861     1.0000 0.82930  0.41170  0.12650  Biso   1.000  H
  H862     1.0000 0.80180  0.42490  0.13220  Biso   1.000  H
  H863     1.0000 0.80410  0.40220  0.11120  Biso   1.000  H
  C1152    1.0000 0.84121  0.42613  0.22008  Biso   1.000  C
  H864     1.0000 0.84820  0.43570  0.23420  Biso   1.000  H
  O193     1.0000 0.73572  0.47004  0.81616  Biso   1.000  O
  O194     1.0000 0.70240  0.47160  0.79010  Biso   1.000  O
  C1153    1.0000 0.71275  0.46374  0.80753  Biso   1.000  C
  C1154    1.0000 0.70671  0.43604  0.81657  Biso   1.000  C
  C1155    1.0000 0.68467  0.42845  0.81079  Biso   1.000  C
  H865     1.0000 0.67220  0.44020  0.80390  Biso   1.000  H
  C1156    1.0000 0.67749  0.39905  0.81492  Biso   1.000  C
  C1157    1.0000 0.65004  0.38761  0.80514  Biso   1.000  C
  C1158    1.0000 0.64970  0.36795  0.82821  Biso   1.000  C
  C1159    1.0000 0.66843  0.36704  0.84857  Biso   1.000  C
  C1160    1.0000 0.68519  0.39057  0.83854  Biso   1.000  C
  C1161    1.0000 0.71056  0.39896  0.85604  Biso   1.000  C
  H866     1.0000 0.71790  0.39050  0.87070  Biso   1.000  H
  C1162    1.0000 0.65866  0.37732  0.78189  Biso   1.000  C
  H867     1.0000 0.65830  0.39080  0.76850  Biso   1.000  H
  H868     1.0000 0.67640  0.37090  0.78400  Biso   1.000  H
  H869     1.0000 0.64730  0.36290  0.77670  Biso   1.000  H
  C1163    1.0000 0.62785  0.40864  0.81062  Biso   1.000  C
  H870     1.0000 0.62650  0.41170  0.82930  Biso   1.000  H
  H871     1.0000 0.63220  0.42490  0.80180  Biso   1.000  H
  H872     1.0000 0.61120  0.40220  0.80410  Biso   1.000  H
  C1164    1.0000 0.72008  0.42613  0.84121  Biso   1.000  C
  H873     1.0000 0.73420  0.43570  0.84820  Biso   1.000  H
  O195     1.0000 0.73572  0.97004  0.31616  Biso   1.000  O
  O196     1.0000 0.70240  0.97160  0.29010  Biso   1.000  O
  C1165    1.0000 0.71275  0.96374  0.30753  Biso   1.000  C
  C1166    1.0000 0.70671  0.93604  0.31657  Biso   1.000  C
  C1167    1.0000 0.68467  0.92845  0.31079  Biso   1.000  C
  H874     1.0000 0.67220  0.94020  0.30390  Biso   1.000  H
  C1168    1.0000 0.67749  0.89905  0.31492  Biso   1.000  C
  C1169    1.0000 0.65004  0.88761  0.30514  Biso   1.000  C
  C1170    1.0000 0.64970  0.86795  0.32821  Biso   1.000  C
  C1171    1.0000 0.66843  0.86704  0.34857  Biso   1.000  C
  C1172    1.0000 0.68519  0.89057  0.33854  Biso   1.000  C
  C1173    1.0000 0.71056  0.89896  0.35604  Biso   1.000  C
  H875     1.0000 0.71790  0.89050  0.37070  Biso   1.000  H
  C1174    1.0000 0.65866  0.87732  0.28189  Biso   1.000  C
  H876     1.0000 0.65830  0.89080  0.26850  Biso   1.000  H
  H877     1.0000 0.67640  0.87090  0.28400  Biso   1.000  H
  H878     1.0000 0.64730  0.86290  0.27670  Biso   1.000  H
  C1175    1.0000 0.62785  0.90864  0.31062  Biso   1.000  C
  H879     1.0000 0.62650  0.91170  0.32930  Biso   1.000  H
  H880     1.0000 0.63220  0.92490  0.30180  Biso   1.000  H
  H881     1.0000 0.61120  0.90220  0.30410  Biso   1.000  H
  C1176    1.0000 0.72008  0.92613  0.34121  Biso   1.000  C
  H882     1.0000 0.73420  0.93570  0.34820  Biso   1.000  H
  O197     1.0000 0.23572  0.47004  0.31616  Biso   1.000  O
  O198     1.0000 0.20240  0.47160  0.29010  Biso   1.000  O
  C1177    1.0000 0.21275  0.46374  0.30753  Biso   1.000  C
  C1178    1.0000 0.20671  0.43604  0.31657  Biso   1.000  C
  C1179    1.0000 0.18467  0.42845  0.31079  Biso   1.000  C
  H883     1.0000 0.17220  0.44020  0.30390  Biso   1.000  H
  C1180    1.0000 0.17749  0.39905  0.31492  Biso   1.000  C
  C1181    1.0000 0.15004  0.38761  0.30514  Biso   1.000  C
  C1182    1.0000 0.14970  0.36795  0.32821  Biso   1.000  C
  C1183    1.0000 0.16843  0.36704  0.34857  Biso   1.000  C
  C1184    1.0000 0.18519  0.39057  0.33854  Biso   1.000  C
  C1185    1.0000 0.21056  0.39896  0.35604  Biso   1.000  C
  H884     1.0000 0.21790  0.39050  0.37070  Biso   1.000  H
  C1186    1.0000 0.15866  0.37732  0.28189  Biso   1.000  C
  H885     1.0000 0.15830  0.39080  0.26850  Biso   1.000  H
  H886     1.0000 0.17640  0.37090  0.28400  Biso   1.000  H
  H887     1.0000 0.14730  0.36290  0.27670  Biso   1.000  H
  C1187    1.0000 0.12785  0.40864  0.31062  Biso   1.000  C
  H888     1.0000 0.12650  0.41170  0.32930  Biso   1.000  H
  H889     1.0000 0.13220  0.42490  0.30180  Biso   1.000  H
  H890     1.0000 0.11120  0.40220  0.30410  Biso   1.000  H
  C1188    1.0000 0.22008  0.42613  0.34121  Biso   1.000  C
  H891     1.0000 0.23420  0.43570  0.34820  Biso   1.000  H
  O199     1.0000 0.23572  0.97004  0.81616  Biso   1.000  O
  O200     1.0000 0.20240  0.97160  0.79010  Biso   1.000  O
  C1189    1.0000 0.21275  0.96374  0.80753  Biso   1.000  C
  C1190    1.0000 0.20671  0.93604  0.81657  Biso   1.000  C
  C1191    1.0000 0.18467  0.92845  0.81079  Biso   1.000  C
  H892     1.0000 0.17220  0.94020  0.80390  Biso   1.000  H
  C1192    1.0000 0.17749  0.89905  0.81492  Biso   1.000  C
  C1193    1.0000 0.15004  0.88761  0.80514  Biso   1.000  C
  C1194    1.0000 0.14970  0.86795  0.82821  Biso   1.000  C
  C1195    1.0000 0.16843  0.86704  0.84857  Biso   1.000  C
  C1196    1.0000 0.18519  0.89057  0.83854  Biso   1.000  C
  C1197    1.0000 0.21056  0.89896  0.85604  Biso   1.000  C
  H893     1.0000 0.21790  0.89050  0.87070  Biso   1.000  H
  C1198    1.0000 0.15866  0.87732  0.78189  Biso   1.000  C
  H894     1.0000 0.15830  0.89080  0.76850  Biso   1.000  H
  H895     1.0000 0.17640  0.87090  0.78400  Biso   1.000  H
  H896     1.0000 0.14730  0.86290  0.77670  Biso   1.000  H
  C1199    1.0000 0.12785  0.90864  0.81062  Biso   1.000  C
  H897     1.0000 0.12650  0.91170  0.82930  Biso   1.000  H
  H898     1.0000 0.13220  0.92490  0.80180  Biso   1.000  H
  H899     1.0000 0.11120  0.90220  0.80410  Biso   1.000  H
  C1200    1.0000 0.22008  0.92613  0.84121  Biso   1.000  C
  H900     1.0000 0.23420  0.93570  0.84820  Biso   1.000  H
  O201     1.0000 0.26428  0.52996  0.81616  Biso   1.000  O
  O202     1.0000 0.29760  0.52840  0.79010  Biso   1.000  O
  C1201    1.0000 0.28725  0.53626  0.80753  Biso   1.000  C
  C1202    1.0000 0.29329  0.56396  0.81657  Biso   1.000  C
  C1203    1.0000 0.31533  0.57155  0.81079  Biso   1.000  C
  H901     1.0000 0.32780  0.55980  0.80390  Biso   1.000  H
  C1204    1.0000 0.32251  0.60095  0.81492  Biso   1.000  C
  C1205    1.0000 0.34996  0.61239  0.80514  Biso   1.000  C
  C1206    1.0000 0.35030  0.63205  0.82821  Biso   1.000  C
  C1207    1.0000 0.33157  0.63296  0.84857  Biso   1.000  C
  C1208    1.0000 0.31481  0.60943  0.83854  Biso   1.000  C
  C1209    1.0000 0.28944  0.60104  0.85604  Biso   1.000  C
  H902     1.0000 0.28210  0.60950  0.87070  Biso   1.000  H
  C1210    1.0000 0.34134  0.62268  0.78189  Biso   1.000  C
  H903     1.0000 0.34170  0.60920  0.76850  Biso   1.000  H
  H904     1.0000 0.32360  0.62910  0.78400  Biso   1.000  H
  H905     1.0000 0.35270  0.63710  0.77670  Biso   1.000  H
  C1211    1.0000 0.37215  0.59136  0.81062  Biso   1.000  C
  H906     1.0000 0.37350  0.58830  0.82930  Biso   1.000  H
  H907     1.0000 0.36780  0.57510  0.80180  Biso   1.000  H
  H908     1.0000 0.38880  0.59780  0.80410  Biso   1.000  H
  C1212    1.0000 0.27992  0.57387  0.84121  Biso   1.000  C
  H909     1.0000 0.26580  0.56430  0.84820  Biso   1.000  H
  O203     1.0000 0.26428  0.02996  0.31616  Biso   1.000  O
  O204     1.0000 0.29760  0.02840  0.29010  Biso   1.000  O
  C1213    1.0000 0.28725  0.03626  0.30753  Biso   1.000  C
  C1214    1.0000 0.29329  0.06396  0.31657  Biso   1.000  C
  C1215    1.0000 0.31533  0.07155  0.31079  Biso   1.000  C
  H910     1.0000 0.32780  0.05980  0.30390  Biso   1.000  H
  C1216    1.0000 0.32251  0.10095  0.31492  Biso   1.000  C
  C1217    1.0000 0.34996  0.11239  0.30514  Biso   1.000  C
  C1218    1.0000 0.35030  0.13205  0.32821  Biso   1.000  C
  C1219    1.0000 0.33157  0.13296  0.34857  Biso   1.000  C
  C1220    1.0000 0.31481  0.10943  0.33854  Biso   1.000  C
  C1221    1.0000 0.28944  0.10104  0.35604  Biso   1.000  C
  H911     1.0000 0.28210  0.10950  0.37070  Biso   1.000  H
  C1222    1.0000 0.34134  0.12268  0.28189  Biso   1.000  C
  H912     1.0000 0.34170  0.10920  0.26850  Biso   1.000  H
  H913     1.0000 0.32360  0.12910  0.28400  Biso   1.000  H
  H914     1.0000 0.35270  0.13710  0.27670  Biso   1.000  H
  C1223    1.0000 0.37215  0.09136  0.31062  Biso   1.000  C
  H915     1.0000 0.37350  0.08830  0.32930  Biso   1.000  H
  H916     1.0000 0.36780  0.07510  0.30180  Biso   1.000  H
  H917     1.0000 0.38880  0.09780  0.30410  Biso   1.000  H
  C1224    1.0000 0.27992  0.07387  0.34121  Biso   1.000  C
  H918     1.0000 0.26580  0.06430  0.34820  Biso   1.000  H
  O205     1.0000 0.76428  0.52996  0.31616  Biso   1.000  O
  O206     1.0000 0.79760  0.52840  0.29010  Biso   1.000  O
  C1225    1.0000 0.78725  0.53626  0.30753  Biso   1.000  C
  C1226    1.0000 0.79329  0.56396  0.31657  Biso   1.000  C
  C1227    1.0000 0.81533  0.57155  0.31079  Biso   1.000  C
  H919     1.0000 0.82780  0.55980  0.30390  Biso   1.000  H
  C1228    1.0000 0.82251  0.60095  0.31492  Biso   1.000  C
  C1229    1.0000 0.84996  0.61239  0.30514  Biso   1.000  C
  C1230    1.0000 0.85030  0.63205  0.32821  Biso   1.000  C
  C1231    1.0000 0.83157  0.63296  0.34857  Biso   1.000  C
  C1232    1.0000 0.81481  0.60943  0.33854  Biso   1.000  C
  C1233    1.0000 0.78944  0.60104  0.35604  Biso   1.000  C
  H920     1.0000 0.78210  0.60950  0.37070  Biso   1.000  H
  C1234    1.0000 0.84134  0.62268  0.28189  Biso   1.000  C
  H921     1.0000 0.84170  0.60920  0.26850  Biso   1.000  H
  H922     1.0000 0.82360  0.62910  0.28400  Biso   1.000  H
  H923     1.0000 0.85270  0.63710  0.27670  Biso   1.000  H
  C1235    1.0000 0.87215  0.59136  0.31062  Biso   1.000  C
  H924     1.0000 0.87350  0.58830  0.32930  Biso   1.000  H
  H925     1.0000 0.86780  0.57510  0.30180  Biso   1.000  H
  H926     1.0000 0.88880  0.59780  0.30410  Biso   1.000  H
  C1236    1.0000 0.77992  0.57387  0.34121  Biso   1.000  C
  H927     1.0000 0.76580  0.56430  0.34820  Biso   1.000  H
  O207     1.0000 0.76428  0.02996  0.81616  Biso   1.000  O
  O208     1.0000 0.79760  0.02840  0.79010  Biso   1.000  O
  C1237    1.0000 0.78725  0.03626  0.80753  Biso   1.000  C
  C1238    1.0000 0.79329  0.06396  0.81657  Biso   1.000  C
  C1239    1.0000 0.81533  0.07155  0.81079  Biso   1.000  C
  H928     1.0000 0.82780  0.05980  0.80390  Biso   1.000  H
  C1240    1.0000 0.82251  0.10095  0.81492  Biso   1.000  C
  C1241    1.0000 0.84996  0.11239  0.80514  Biso   1.000  C
  C1242    1.0000 0.85030  0.13205  0.82821  Biso   1.000  C
  C1243    1.0000 0.83157  0.13296  0.84857  Biso   1.000  C
  C1244    1.0000 0.81481  0.10943  0.83854  Biso   1.000  C
  C1245    1.0000 0.78944  0.10104  0.85604  Biso   1.000  C
  H929     1.0000 0.78210  0.10950  0.87070  Biso   1.000  H
  C1246    1.0000 0.84134  0.12268  0.78189  Biso   1.000  C
  H930     1.0000 0.84170  0.10920  0.76850  Biso   1.000  H
  H931     1.0000 0.82360  0.12910  0.78400  Biso   1.000  H
  H932     1.0000 0.85270  0.13710  0.77670  Biso   1.000  H
  C1247    1.0000 0.87215  0.09136  0.81062  Biso   1.000  C
  H933     1.0000 0.87350  0.08830  0.82930  Biso   1.000  H
  H934     1.0000 0.86780  0.07510  0.80180  Biso   1.000  H
  H935     1.0000 0.88880  0.09780  0.80410  Biso   1.000  H
  C1248    1.0000 0.77992  0.07387  0.84121  Biso   1.000  C
  H936     1.0000 0.76580  0.06430  0.84820  Biso   1.000  H
  O209     1.0000 0.26428  0.47004  0.18384  Biso   1.000  O
  O210     1.0000 0.29760  0.47160  0.20990  Biso   1.000  O
  C1249    1.0000 0.28725  0.46374  0.19247  Biso   1.000  C
  C1250    1.0000 0.29329  0.43604  0.18343  Biso   1.000  C
  C1251    1.0000 0.31533  0.42845  0.18921  Biso   1.000  C
  H937     1.0000 0.32780  0.44020  0.19610  Biso   1.000  H
  C1252    1.0000 0.32251  0.39905  0.18508  Biso   1.000  C
  C1253    1.0000 0.34996  0.38761  0.19486  Biso   1.000  C
  C1254    1.0000 0.35030  0.36795  0.17179  Biso   1.000  C
  C1255    1.0000 0.33157  0.36704  0.15143  Biso   1.000  C
  C1256    1.0000 0.31481  0.39057  0.16146  Biso   1.000  C
  C1257    1.0000 0.28944  0.39896  0.14396  Biso   1.000  C
  H938     1.0000 0.28210  0.39050  0.12930  Biso   1.000  H
  C1258    1.0000 0.34134  0.37732  0.21811  Biso   1.000  C
  H939     1.0000 0.34170  0.39080  0.23150  Biso   1.000  H
  H940     1.0000 0.32360  0.37090  0.21600  Biso   1.000  H
  H941     1.0000 0.35270  0.36290  0.22330  Biso   1.000  H
  C1259    1.0000 0.37215  0.40864  0.18938  Biso   1.000  C
  H942     1.0000 0.37350  0.41170  0.17070  Biso   1.000  H
  H943     1.0000 0.36780  0.42490  0.19820  Biso   1.000  H
  H944     1.0000 0.38880  0.40220  0.19590  Biso   1.000  H
  C1260    1.0000 0.27992  0.42613  0.15879  Biso   1.000  C
  H945     1.0000 0.26580  0.43570  0.15180  Biso   1.000  H
  O211     1.0000 0.26428  0.97004  0.68384  Biso   1.000  O
  O212     1.0000 0.29760  0.97160  0.70990  Biso   1.000  O
  C1261    1.0000 0.28725  0.96374  0.69247  Biso   1.000  C
  C1262    1.0000 0.29329  0.93604  0.68343  Biso   1.000  C
  C1263    1.0000 0.31533  0.92845  0.68921  Biso   1.000  C
  H946     1.0000 0.32780  0.94020  0.69610  Biso   1.000  H
  C1264    1.0000 0.32251  0.89905  0.68508  Biso   1.000  C
  C1265    1.0000 0.34996  0.88761  0.69486  Biso   1.000  C
  C1266    1.0000 0.35030  0.86795  0.67179  Biso   1.000  C
  C1267    1.0000 0.33157  0.86704  0.65143  Biso   1.000  C
  C1268    1.0000 0.31481  0.89057  0.66146  Biso   1.000  C
  C1269    1.0000 0.28944  0.89896  0.64396  Biso   1.000  C
  H947     1.0000 0.28210  0.89050  0.62930  Biso   1.000  H
  C1270    1.0000 0.34134  0.87732  0.71811  Biso   1.000  C
  H948     1.0000 0.34170  0.89080  0.73150  Biso   1.000  H
  H949     1.0000 0.32360  0.87090  0.71600  Biso   1.000  H
  H950     1.0000 0.35270  0.86290  0.72330  Biso   1.000  H
  C1271    1.0000 0.37215  0.90864  0.68938  Biso   1.000  C
  H951     1.0000 0.37350  0.91170  0.67070  Biso   1.000  H
  H952     1.0000 0.36780  0.92490  0.69820  Biso   1.000  H
  H953     1.0000 0.38880  0.90220  0.69590  Biso   1.000  H
  C1272    1.0000 0.27992  0.92613  0.65879  Biso   1.000  C
  H954     1.0000 0.26580  0.93570  0.65180  Biso   1.000  H
  O213     1.0000 0.76428  0.47004  0.68384  Biso   1.000  O
  O214     1.0000 0.79760  0.47160  0.70990  Biso   1.000  O
  C1273    1.0000 0.78725  0.46374  0.69247  Biso   1.000  C
  C1274    1.0000 0.79329  0.43604  0.68343  Biso   1.000  C
  C1275    1.0000 0.81533  0.42845  0.68921  Biso   1.000  C
  H955     1.0000 0.82780  0.44020  0.69610  Biso   1.000  H
  C1276    1.0000 0.82251  0.39905  0.68508  Biso   1.000  C
  C1277    1.0000 0.84996  0.38761  0.69486  Biso   1.000  C
  C1278    1.0000 0.85030  0.36795  0.67179  Biso   1.000  C
  C1279    1.0000 0.83157  0.36704  0.65143  Biso   1.000  C
  C1280    1.0000 0.81481  0.39057  0.66146  Biso   1.000  C
  C1281    1.0000 0.78944  0.39896  0.64396  Biso   1.000  C
  H956     1.0000 0.78210  0.39050  0.62930  Biso   1.000  H
  C1282    1.0000 0.84134  0.37732  0.71811  Biso   1.000  C
  H957     1.0000 0.84170  0.39080  0.73150  Biso   1.000  H
  H958     1.0000 0.82360  0.37090  0.71600  Biso   1.000  H
  H959     1.0000 0.85270  0.36290  0.72330  Biso   1.000  H
  C1283    1.0000 0.87215  0.40864  0.68938  Biso   1.000  C
  H960     1.0000 0.87350  0.41170  0.67070  Biso   1.000  H
  H961     1.0000 0.86780  0.42490  0.69820  Biso   1.000  H
  H962     1.0000 0.88880  0.40220  0.69590  Biso   1.000  H
  C1284    1.0000 0.77992  0.42613  0.65879  Biso   1.000  C
  H963     1.0000 0.76580  0.43570  0.65180  Biso   1.000  H
  O215     1.0000 0.76428  0.97004  0.18384  Biso   1.000  O
  O216     1.0000 0.79760  0.97160  0.20990  Biso   1.000  O
  C1285    1.0000 0.78725  0.96374  0.19247  Biso   1.000  C
  C1286    1.0000 0.79329  0.93604  0.18343  Biso   1.000  C
  C1287    1.0000 0.81533  0.92845  0.18921  Biso   1.000  C
  H964     1.0000 0.82780  0.94020  0.19610  Biso   1.000  H
  C1288    1.0000 0.82251  0.89905  0.18508  Biso   1.000  C
  C1289    1.0000 0.84996  0.88761  0.19486  Biso   1.000  C
  C1290    1.0000 0.85030  0.86795  0.17179  Biso   1.000  C
  C1291    1.0000 0.83157  0.86704  0.15143  Biso   1.000  C
  C1292    1.0000 0.81481  0.89057  0.16146  Biso   1.000  C
  C1293    1.0000 0.78944  0.89896  0.14396  Biso   1.000  C
  H965     1.0000 0.78210  0.89050  0.12930  Biso   1.000  H
  C1294    1.0000 0.84134  0.87732  0.21811  Biso   1.000  C
  H966     1.0000 0.84170  0.89080  0.23150  Biso   1.000  H
  H967     1.0000 0.82360  0.87090  0.21600  Biso   1.000  H
  H968     1.0000 0.85270  0.86290  0.22330  Biso   1.000  H
  C1295    1.0000 0.87215  0.90864  0.18938  Biso   1.000  C
  H969     1.0000 0.87350  0.91170  0.17070  Biso   1.000  H
  H970     1.0000 0.86780  0.92490  0.19820  Biso   1.000  H
  H971     1.0000 0.88880  0.90220  0.19590  Biso   1.000  H
  C1296    1.0000 0.77992  0.92613  0.15879  Biso   1.000  C
  H972     1.0000 0.76580  0.93570  0.15180  Biso   1.000  H
  O217     1.0000 0.73572  0.52996  0.18384  Biso   1.000  O
  O218     1.0000 0.70240  0.52840  0.20990  Biso   1.000  O
  C1297    1.0000 0.71275  0.53626  0.19247  Biso   1.000  C
  C1298    1.0000 0.70671  0.56396  0.18343  Biso   1.000  C
  C1299    1.0000 0.68467  0.57155  0.18921  Biso   1.000  C
  H973     1.0000 0.67220  0.55980  0.19610  Biso   1.000  H
  C1300    1.0000 0.67749  0.60095  0.18508  Biso   1.000  C
  C1301    1.0000 0.65004  0.61239  0.19486  Biso   1.000  C
  C1302    1.0000 0.64970  0.63205  0.17179  Biso   1.000  C
  C1303    1.0000 0.66843  0.63296  0.15143  Biso   1.000  C
  C1304    1.0000 0.68519  0.60943  0.16146  Biso   1.000  C
  C1305    1.0000 0.71056  0.60104  0.14396  Biso   1.000  C
  H974     1.0000 0.71790  0.60950  0.12930  Biso   1.000  H
  C1306    1.0000 0.65866  0.62268  0.21811  Biso   1.000  C
  H975     1.0000 0.65830  0.60920  0.23150  Biso   1.000  H
  H976     1.0000 0.67640  0.62910  0.21600  Biso   1.000  H
  H977     1.0000 0.64730  0.63710  0.22330  Biso   1.000  H
  C1307    1.0000 0.62785  0.59136  0.18938  Biso   1.000  C
  H978     1.0000 0.62650  0.58830  0.17070  Biso   1.000  H
  H979     1.0000 0.63220  0.57510  0.19820  Biso   1.000  H
  H980     1.0000 0.61120  0.59780  0.19590  Biso   1.000  H
  C1308    1.0000 0.72008  0.57387  0.15879  Biso   1.000  C
  H981     1.0000 0.73420  0.56430  0.15180  Biso   1.000  H
  O219     1.0000 0.73572  0.02996  0.68384  Biso   1.000  O
  O220     1.0000 0.70240  0.02840  0.70990  Biso   1.000  O
  C1309    1.0000 0.71275  0.03626  0.69247  Biso   1.000  C
  C1310    1.0000 0.70671  0.06396  0.68343  Biso   1.000  C
  C1311    1.0000 0.68467  0.07155  0.68921  Biso   1.000  C
  H982     1.0000 0.67220  0.05980  0.69610  Biso   1.000  H
  C1312    1.0000 0.67749  0.10095  0.68508  Biso   1.000  C
  C1313    1.0000 0.65004  0.11239  0.69486  Biso   1.000  C
  C1314    1.0000 0.64970  0.13205  0.67179  Biso   1.000  C
  C1315    1.0000 0.66843  0.13296  0.65143  Biso   1.000  C
  C1316    1.0000 0.68519  0.10943  0.66146  Biso   1.000  C
  C1317    1.0000 0.71056  0.10104  0.64396  Biso   1.000  C
  H983     1.0000 0.71790  0.10950  0.62930  Biso   1.000  H
  C1318    1.0000 0.65866  0.12268  0.71811  Biso   1.000  C
  H984     1.0000 0.65830  0.10920  0.73150  Biso   1.000  H
  H985     1.0000 0.67640  0.12910  0.71600  Biso   1.000  H
  H986     1.0000 0.64730  0.13710  0.72330  Biso   1.000  H
  C1319    1.0000 0.62785  0.09136  0.68938  Biso   1.000  C
  H987     1.0000 0.62650  0.08830  0.67070  Biso   1.000  H
  H988     1.0000 0.63220  0.07510  0.69820  Biso   1.000  H
  H989     1.0000 0.61120  0.09780  0.69590  Biso   1.000  H
  C1320    1.0000 0.72008  0.07387  0.65879  Biso   1.000  C
  H990     1.0000 0.73420  0.06430  0.65180  Biso   1.000  H
  O221     1.0000 0.23572  0.52996  0.68384  Biso   1.000  O
  O222     1.0000 0.20240  0.52840  0.70990  Biso   1.000  O
  C1321    1.0000 0.21275  0.53626  0.69247  Biso   1.000  C
  C1322    1.0000 0.20671  0.56396  0.68343  Biso   1.000  C
  C1323    1.0000 0.18467  0.57155  0.68921  Biso   1.000  C
  H991     1.0000 0.17220  0.55980  0.69610  Biso   1.000  H
  C1324    1.0000 0.17749  0.60095  0.68508  Biso   1.000  C
  C1325    1.0000 0.15004  0.61239  0.69486  Biso   1.000  C
  C1326    1.0000 0.14970  0.63205  0.67179  Biso   1.000  C
  C1327    1.0000 0.16843  0.63296  0.65143  Biso   1.000  C
  C1328    1.0000 0.18519  0.60943  0.66146  Biso   1.000  C
  C1329    1.0000 0.21056  0.60104  0.64396  Biso   1.000  C
  H992     1.0000 0.21790  0.60950  0.62930  Biso   1.000  H
  C1330    1.0000 0.15866  0.62268  0.71811  Biso   1.000  C
  H993     1.0000 0.15830  0.60920  0.73150  Biso   1.000  H
  H994     1.0000 0.17640  0.62910  0.71600  Biso   1.000  H
  H995     1.0000 0.14730  0.63710  0.72330  Biso   1.000  H
  C1331    1.0000 0.12785  0.59136  0.68938  Biso   1.000  C
  H996     1.0000 0.12650  0.58830  0.67070  Biso   1.000  H
  H997     1.0000 0.13220  0.57510  0.69820  Biso   1.000  H
  H998     1.0000 0.11120  0.59780  0.69590  Biso   1.000  H
  C1332    1.0000 0.22008  0.57387  0.65879  Biso   1.000  C
  H999     1.0000 0.23420  0.56430  0.65180  Biso   1.000  H
  O223     1.0000 0.23572  0.02996  0.18384  Biso   1.000  O
  O224     1.0000 0.20240  0.02840  0.20990  Biso   1.000  O
  C1333    1.0000 0.21275  0.03626  0.19247  Biso   1.000  C
  C1334    1.0000 0.20671  0.06396  0.18343  Biso   1.000  C
  C1335    1.0000 0.18467  0.07155  0.18921  Biso   1.000  C
  H1000    1.0000 0.17220  0.05980  0.19610  Biso   1.000  H
  C1336    1.0000 0.17749  0.10095  0.18508  Biso   1.000  C
  C1337    1.0000 0.15004  0.11239  0.19486  Biso   1.000  C
  C1338    1.0000 0.14970  0.13205  0.17179  Biso   1.000  C
  C1339    1.0000 0.16843  0.13296  0.15143  Biso   1.000  C
  C1340    1.0000 0.18519  0.10943  0.16146  Biso   1.000  C
  C1341    1.0000 0.21056  0.10104  0.14396  Biso   1.000  C
  H1001    1.0000 0.21790  0.10950  0.12930  Biso   1.000  H
  C1342    1.0000 0.15866  0.12268  0.21811  Biso   1.000  C
  H1002    1.0000 0.15830  0.10920  0.23150  Biso   1.000  H
  H1003    1.0000 0.17640  0.12910  0.21600  Biso   1.000  H
  H1004    1.0000 0.14730  0.13710  0.22330  Biso   1.000  H
  C1343    1.0000 0.12785  0.09136  0.18938  Biso   1.000  C
  H1005    1.0000 0.12650  0.08830  0.17070  Biso   1.000  H
  H1006    1.0000 0.13220  0.07510  0.19820  Biso   1.000  H
  H1007    1.0000 0.11120  0.09780  0.19590  Biso   1.000  H
  C1344    1.0000 0.22008  0.07387  0.15879  Biso   1.000  C
  H1008    1.0000 0.23420  0.06430  0.15180  Biso   1.000  H
  O225     1.0000 0.81616  0.73572  0.47004  Biso   1.000  O
  O226     1.0000 0.79010  0.70240  0.47160  Biso   1.000  O
  C1345    1.0000 0.80753  0.71275  0.46374  Biso   1.000  C
  C1346    1.0000 0.81657  0.70671  0.43604  Biso   1.000  C
  C1347    1.0000 0.81079  0.68467  0.42845  Biso   1.000  C
  H1009    1.0000 0.80390  0.67220  0.44020  Biso   1.000  H
  C1348    1.0000 0.81492  0.67749  0.39905  Biso   1.000  C
  C1349    1.0000 0.80514  0.65004  0.38761  Biso   1.000  C
  C1350    1.0000 0.82821  0.64970  0.36795  Biso   1.000  C
  C1351    1.0000 0.84857  0.66843  0.36704  Biso   1.000  C
  C1352    1.0000 0.83854  0.68519  0.39057  Biso   1.000  C
  C1353    1.0000 0.85604  0.71056  0.39896  Biso   1.000  C
  H1010    1.0000 0.87070  0.71790  0.39050  Biso   1.000  H
  C1354    1.0000 0.78189  0.65866  0.37732  Biso   1.000  C
  H1011    1.0000 0.76850  0.65830  0.39080  Biso   1.000  H
  H1012    1.0000 0.78400  0.67640  0.37090  Biso   1.000  H
  H1013    1.0000 0.77670  0.64730  0.36290  Biso   1.000  H
  C1355    1.0000 0.81062  0.62785  0.40864  Biso   1.000  C
  H1014    1.0000 0.82930  0.62650  0.41170  Biso   1.000  H
  H1015    1.0000 0.80180  0.63220  0.42490  Biso   1.000  H
  H1016    1.0000 0.80410  0.61120  0.40220  Biso   1.000  H
  C1356    1.0000 0.84121  0.72008  0.42613  Biso   1.000  C
  H1017    1.0000 0.84820  0.73420  0.43570  Biso   1.000  H
  O227     1.0000 0.81616  0.23572  0.97004  Biso   1.000  O
  O228     1.0000 0.79010  0.20240  0.97160  Biso   1.000  O
  C1357    1.0000 0.80753  0.21275  0.96374  Biso   1.000  C
  C1358    1.0000 0.81657  0.20671  0.93604  Biso   1.000  C
  C1359    1.0000 0.81079  0.18467  0.92845  Biso   1.000  C
  H1018    1.0000 0.80390  0.17220  0.94020  Biso   1.000  H
  C1360    1.0000 0.81492  0.17749  0.89905  Biso   1.000  C
  C1361    1.0000 0.80514  0.15004  0.88761  Biso   1.000  C
  C1362    1.0000 0.82821  0.14970  0.86795  Biso   1.000  C
  C1363    1.0000 0.84857  0.16843  0.86704  Biso   1.000  C
  C1364    1.0000 0.83854  0.18519  0.89057  Biso   1.000  C
  C1365    1.0000 0.85604  0.21056  0.89896  Biso   1.000  C
  H1019    1.0000 0.87070  0.21790  0.89050  Biso   1.000  H
  C1366    1.0000 0.78189  0.15866  0.87732  Biso   1.000  C
  H1020    1.0000 0.76850  0.15830  0.89080  Biso   1.000  H
  H1021    1.0000 0.78400  0.17640  0.87090  Biso   1.000  H
  H1022    1.0000 0.77670  0.14730  0.86290  Biso   1.000  H
  C1367    1.0000 0.81062  0.12785  0.90864  Biso   1.000  C
  H1023    1.0000 0.82930  0.12650  0.91170  Biso   1.000  H
  H1024    1.0000 0.80180  0.13220  0.92490  Biso   1.000  H
  H1025    1.0000 0.80410  0.11120  0.90220  Biso   1.000  H
  C1368    1.0000 0.84121  0.22008  0.92613  Biso   1.000  C
  H1026    1.0000 0.84820  0.23420  0.93570  Biso   1.000  H
  O229     1.0000 0.31616  0.73572  0.97004  Biso   1.000  O
  O230     1.0000 0.29010  0.70240  0.97160  Biso   1.000  O
  C1369    1.0000 0.30753  0.71275  0.96374  Biso   1.000  C
  C1370    1.0000 0.31657  0.70671  0.93604  Biso   1.000  C
  C1371    1.0000 0.31079  0.68467  0.92845  Biso   1.000  C
  H1027    1.0000 0.30390  0.67220  0.94020  Biso   1.000  H
  C1372    1.0000 0.31492  0.67749  0.89905  Biso   1.000  C
  C1373    1.0000 0.30514  0.65004  0.88761  Biso   1.000  C
  C1374    1.0000 0.32821  0.64970  0.86795  Biso   1.000  C
  C1375    1.0000 0.34857  0.66843  0.86704  Biso   1.000  C
  C1376    1.0000 0.33854  0.68519  0.89057  Biso   1.000  C
  C1377    1.0000 0.35604  0.71056  0.89896  Biso   1.000  C
  H1028    1.0000 0.37070  0.71790  0.89050  Biso   1.000  H
  C1378    1.0000 0.28189  0.65866  0.87732  Biso   1.000  C
  H1029    1.0000 0.26850  0.65830  0.89080  Biso   1.000  H
  H1030    1.0000 0.28400  0.67640  0.87090  Biso   1.000  H
  H1031    1.0000 0.27670  0.64730  0.86290  Biso   1.000  H
  C1379    1.0000 0.31062  0.62785  0.90864  Biso   1.000  C
  H1032    1.0000 0.32930  0.62650  0.91170  Biso   1.000  H
  H1033    1.0000 0.30180  0.63220  0.92490  Biso   1.000  H
  H1034    1.0000 0.30410  0.61120  0.90220  Biso   1.000  H
  C1380    1.0000 0.34121  0.72008  0.92613  Biso   1.000  C
  H1035    1.0000 0.34820  0.73420  0.93570  Biso   1.000  H
  O231     1.0000 0.31616  0.23572  0.47004  Biso   1.000  O
  O232     1.0000 0.29010  0.20240  0.47160  Biso   1.000  O
  C1381    1.0000 0.30753  0.21275  0.46374  Biso   1.000  C
  C1382    1.0000 0.31657  0.20671  0.43604  Biso   1.000  C
  C1383    1.0000 0.31079  0.18467  0.42845  Biso   1.000  C
  H1036    1.0000 0.30390  0.17220  0.44020  Biso   1.000  H
  C1384    1.0000 0.31492  0.17749  0.39905  Biso   1.000  C
  C1385    1.0000 0.30514  0.15004  0.38761  Biso   1.000  C
  C1386    1.0000 0.32821  0.14970  0.36795  Biso   1.000  C
  C1387    1.0000 0.34857  0.16843  0.36704  Biso   1.000  C
  C1388    1.0000 0.33854  0.18519  0.39057  Biso   1.000  C
  C1389    1.0000 0.35604  0.21056  0.39896  Biso   1.000  C
  H1037    1.0000 0.37070  0.21790  0.39050  Biso   1.000  H
  C1390    1.0000 0.28189  0.15866  0.37732  Biso   1.000  C
  H1038    1.0000 0.26850  0.15830  0.39080  Biso   1.000  H
  H1039    1.0000 0.28400  0.17640  0.37090  Biso   1.000  H
  H1040    1.0000 0.27670  0.14730  0.36290  Biso   1.000  H
  C1391    1.0000 0.31062  0.12785  0.40864  Biso   1.000  C
  H1041    1.0000 0.32930  0.12650  0.41170  Biso   1.000  H
  H1042    1.0000 0.30180  0.13220  0.42490  Biso   1.000  H
  H1043    1.0000 0.30410  0.11120  0.40220  Biso   1.000  H
  C1392    1.0000 0.34121  0.22008  0.42613  Biso   1.000  C
  H1044    1.0000 0.34820  0.23420  0.43570  Biso   1.000  H
  O233     1.0000 0.81616  0.26428  0.52996  Biso   1.000  O
  O234     1.0000 0.79010  0.29760  0.52840  Biso   1.000  O
  C1393    1.0000 0.80753  0.28725  0.53626  Biso   1.000  C
  C1394    1.0000 0.81657  0.29329  0.56396  Biso   1.000  C
  C1395    1.0000 0.81079  0.31533  0.57155  Biso   1.000  C
  H1045    1.0000 0.80390  0.32780  0.55980  Biso   1.000  H
  C1396    1.0000 0.81492  0.32251  0.60095  Biso   1.000  C
  C1397    1.0000 0.80514  0.34996  0.61239  Biso   1.000  C
  C1398    1.0000 0.82821  0.35030  0.63205  Biso   1.000  C
  C1399    1.0000 0.84857  0.33157  0.63296  Biso   1.000  C
  C1400    1.0000 0.83854  0.31481  0.60943  Biso   1.000  C
  C1401    1.0000 0.85604  0.28944  0.60104  Biso   1.000  C
  H1046    1.0000 0.87070  0.28210  0.60950  Biso   1.000  H
  C1402    1.0000 0.78189  0.34134  0.62268  Biso   1.000  C
  H1047    1.0000 0.76850  0.34170  0.60920  Biso   1.000  H
  H1048    1.0000 0.78400  0.32360  0.62910  Biso   1.000  H
  H1049    1.0000 0.77670  0.35270  0.63710  Biso   1.000  H
  C1403    1.0000 0.81062  0.37215  0.59136  Biso   1.000  C
  H1050    1.0000 0.82930  0.37350  0.58830  Biso   1.000  H
  H1051    1.0000 0.80180  0.36780  0.57510  Biso   1.000  H
  H1052    1.0000 0.80410  0.38880  0.59780  Biso   1.000  H
  C1404    1.0000 0.84121  0.27992  0.57387  Biso   1.000  C
  H1053    1.0000 0.84820  0.26580  0.56430  Biso   1.000  H
  O235     1.0000 0.81616  0.76428  0.02996  Biso   1.000  O
  O236     1.0000 0.79010  0.79760  0.02840  Biso   1.000  O
  C1405    1.0000 0.80753  0.78725  0.03626  Biso   1.000  C
  C1406    1.0000 0.81657  0.79329  0.06396  Biso   1.000  C
  C1407    1.0000 0.81079  0.81533  0.07155  Biso   1.000  C
  H1054    1.0000 0.80390  0.82780  0.05980  Biso   1.000  H
  C1408    1.0000 0.81492  0.82251  0.10095  Biso   1.000  C
  C1409    1.0000 0.80514  0.84996  0.11239  Biso   1.000  C
  C1410    1.0000 0.82821  0.85030  0.13205  Biso   1.000  C
  C1411    1.0000 0.84857  0.83157  0.13296  Biso   1.000  C
  C1412    1.0000 0.83854  0.81481  0.10943  Biso   1.000  C
  C1413    1.0000 0.85604  0.78944  0.10104  Biso   1.000  C
  H1055    1.0000 0.87070  0.78210  0.10950  Biso   1.000  H
  C1414    1.0000 0.78189  0.84134  0.12268  Biso   1.000  C
  H1056    1.0000 0.76850  0.84170  0.10920  Biso   1.000  H
  H1057    1.0000 0.78400  0.82360  0.12910  Biso   1.000  H
  H1058    1.0000 0.77670  0.85270  0.13710  Biso   1.000  H
  C1415    1.0000 0.81062  0.87215  0.09136  Biso   1.000  C
  H1059    1.0000 0.82930  0.87350  0.08830  Biso   1.000  H
  H1060    1.0000 0.80180  0.86780  0.07510  Biso   1.000  H
  H1061    1.0000 0.80410  0.88880  0.09780  Biso   1.000  H
  C1416    1.0000 0.84121  0.77992  0.07387  Biso   1.000  C
  H1062    1.0000 0.84820  0.76580  0.06430  Biso   1.000  H
  O237     1.0000 0.31616  0.26428  0.02996  Biso   1.000  O
  O238     1.0000 0.29010  0.29760  0.02840  Biso   1.000  O
  C1417    1.0000 0.30753  0.28725  0.03626  Biso   1.000  C
  C1418    1.0000 0.31657  0.29329  0.06396  Biso   1.000  C
  C1419    1.0000 0.31079  0.31533  0.07155  Biso   1.000  C
  H1063    1.0000 0.30390  0.32780  0.05980  Biso   1.000  H
  C1420    1.0000 0.31492  0.32251  0.10095  Biso   1.000  C
  C1421    1.0000 0.30514  0.34996  0.11239  Biso   1.000  C
  C1422    1.0000 0.32821  0.35030  0.13205  Biso   1.000  C
  C1423    1.0000 0.34857  0.33157  0.13296  Biso   1.000  C
  C1424    1.0000 0.33854  0.31481  0.10943  Biso   1.000  C
  C1425    1.0000 0.35604  0.28944  0.10104  Biso   1.000  C
  H1064    1.0000 0.37070  0.28210  0.10950  Biso   1.000  H
  C1426    1.0000 0.28189  0.34134  0.12268  Biso   1.000  C
  H1065    1.0000 0.26850  0.34170  0.10920  Biso   1.000  H
  H1066    1.0000 0.28400  0.32360  0.12910  Biso   1.000  H
  H1067    1.0000 0.27670  0.35270  0.13710  Biso   1.000  H
  C1427    1.0000 0.31062  0.37215  0.09136  Biso   1.000  C
  H1068    1.0000 0.32930  0.37350  0.08830  Biso   1.000  H
  H1069    1.0000 0.30180  0.36780  0.07510  Biso   1.000  H
  H1070    1.0000 0.30410  0.38880  0.09780  Biso   1.000  H
  C1428    1.0000 0.34121  0.27992  0.07387  Biso   1.000  C
  H1071    1.0000 0.34820  0.26580  0.06430  Biso   1.000  H
  O239     1.0000 0.31616  0.76428  0.52996  Biso   1.000  O
  O240     1.0000 0.29010  0.79760  0.52840  Biso   1.000  O
  C1429    1.0000 0.30753  0.78725  0.53626  Biso   1.000  C
  C1430    1.0000 0.31657  0.79329  0.56396  Biso   1.000  C
  C1431    1.0000 0.31079  0.81533  0.57155  Biso   1.000  C
  H1072    1.0000 0.30390  0.82780  0.55980  Biso   1.000  H
  C1432    1.0000 0.31492  0.82251  0.60095  Biso   1.000  C
  C1433    1.0000 0.30514  0.84996  0.61239  Biso   1.000  C
  C1434    1.0000 0.32821  0.85030  0.63205  Biso   1.000  C
  C1435    1.0000 0.34857  0.83157  0.63296  Biso   1.000  C
  C1436    1.0000 0.33854  0.81481  0.60943  Biso   1.000  C
  C1437    1.0000 0.35604  0.78944  0.60104  Biso   1.000  C
  H1073    1.0000 0.37070  0.78210  0.60950  Biso   1.000  H
  C1438    1.0000 0.28189  0.84134  0.62268  Biso   1.000  C
  H1074    1.0000 0.26850  0.84170  0.60920  Biso   1.000  H
  H1075    1.0000 0.28400  0.82360  0.62910  Biso   1.000  H
  H1076    1.0000 0.27670  0.85270  0.63710  Biso   1.000  H
  C1439    1.0000 0.31062  0.87215  0.59136  Biso   1.000  C
  H1077    1.0000 0.32930  0.87350  0.58830  Biso   1.000  H
  H1078    1.0000 0.30180  0.86780  0.57510  Biso   1.000  H
  H1079    1.0000 0.30410  0.88880  0.59780  Biso   1.000  H
  C1440    1.0000 0.34121  0.77992  0.57387  Biso   1.000  C
  H1080    1.0000 0.34820  0.76580  0.56430  Biso   1.000  H
  O241     1.0000 0.18384  0.26428  0.47004  Biso   1.000  O
  O242     1.0000 0.20990  0.29760  0.47160  Biso   1.000  O
  C1441    1.0000 0.19247  0.28725  0.46374  Biso   1.000  C
  C1442    1.0000 0.18343  0.29329  0.43604  Biso   1.000  C
  C1443    1.0000 0.18921  0.31533  0.42845  Biso   1.000  C
  H1081    1.0000 0.19610  0.32780  0.44020  Biso   1.000  H
  C1444    1.0000 0.18508  0.32251  0.39905  Biso   1.000  C
  C1445    1.0000 0.19486  0.34996  0.38761  Biso   1.000  C
  C1446    1.0000 0.17179  0.35030  0.36795  Biso   1.000  C
  C1447    1.0000 0.15143  0.33157  0.36704  Biso   1.000  C
  C1448    1.0000 0.16146  0.31481  0.39057  Biso   1.000  C
  C1449    1.0000 0.14396  0.28944  0.39896  Biso   1.000  C
  H1082    1.0000 0.12930  0.28210  0.39050  Biso   1.000  H
  C1450    1.0000 0.21811  0.34134  0.37732  Biso   1.000  C
  H1083    1.0000 0.23150  0.34170  0.39080  Biso   1.000  H
  H1084    1.0000 0.21600  0.32360  0.37090  Biso   1.000  H
  H1085    1.0000 0.22330  0.35270  0.36290  Biso   1.000  H
  C1451    1.0000 0.18938  0.37215  0.40864  Biso   1.000  C
  H1086    1.0000 0.17070  0.37350  0.41170  Biso   1.000  H
  H1087    1.0000 0.19820  0.36780  0.42490  Biso   1.000  H
  H1088    1.0000 0.19590  0.38880  0.40220  Biso   1.000  H
  C1452    1.0000 0.15879  0.27992  0.42613  Biso   1.000  C
  H1089    1.0000 0.15180  0.26580  0.43570  Biso   1.000  H
  O243     1.0000 0.18384  0.76428  0.97004  Biso   1.000  O
  O244     1.0000 0.20990  0.79760  0.97160  Biso   1.000  O
  C1453    1.0000 0.19247  0.78725  0.96374  Biso   1.000  C
  C1454    1.0000 0.18343  0.79329  0.93604  Biso   1.000  C
  C1455    1.0000 0.18921  0.81533  0.92845  Biso   1.000  C
  H1090    1.0000 0.19610  0.82780  0.94020  Biso   1.000  H
  C1456    1.0000 0.18508  0.82251  0.89905  Biso   1.000  C
  C1457    1.0000 0.19486  0.84996  0.88761  Biso   1.000  C
  C1458    1.0000 0.17179  0.85030  0.86795  Biso   1.000  C
  C1459    1.0000 0.15143  0.83157  0.86704  Biso   1.000  C
  C1460    1.0000 0.16146  0.81481  0.89057  Biso   1.000  C
  C1461    1.0000 0.14396  0.78944  0.89896  Biso   1.000  C
  H1091    1.0000 0.12930  0.78210  0.89050  Biso   1.000  H
  C1462    1.0000 0.21811  0.84134  0.87732  Biso   1.000  C
  H1092    1.0000 0.23150  0.84170  0.89080  Biso   1.000  H
  H1093    1.0000 0.21600  0.82360  0.87090  Biso   1.000  H
  H1094    1.0000 0.22330  0.85270  0.86290  Biso   1.000  H
  C1463    1.0000 0.18938  0.87215  0.90864  Biso   1.000  C
  H1095    1.0000 0.17070  0.87350  0.91170  Biso   1.000  H
  H1096    1.0000 0.19820  0.86780  0.92490  Biso   1.000  H
  H1097    1.0000 0.19590  0.88880  0.90220  Biso   1.000  H
  C1464    1.0000 0.15879  0.77992  0.92613  Biso   1.000  C
  H1098    1.0000 0.15180  0.76580  0.93570  Biso   1.000  H
  O245     1.0000 0.68384  0.26428  0.97004  Biso   1.000  O
  O246     1.0000 0.70990  0.29760  0.97160  Biso   1.000  O
  C1465    1.0000 0.69247  0.28725  0.96374  Biso   1.000  C
  C1466    1.0000 0.68343  0.29329  0.93604  Biso   1.000  C
  C1467    1.0000 0.68921  0.31533  0.92845  Biso   1.000  C
  H1099    1.0000 0.69610  0.32780  0.94020  Biso   1.000  H
  C1468    1.0000 0.68508  0.32251  0.89905  Biso   1.000  C
  C1469    1.0000 0.69486  0.34996  0.88761  Biso   1.000  C
  C1470    1.0000 0.67179  0.35030  0.86795  Biso   1.000  C
  C1471    1.0000 0.65143  0.33157  0.86704  Biso   1.000  C
  C1472    1.0000 0.66146  0.31481  0.89057  Biso   1.000  C
  C1473    1.0000 0.64396  0.28944  0.89896  Biso   1.000  C
  H1100    1.0000 0.62930  0.28210  0.89050  Biso   1.000  H
  C1474    1.0000 0.71811  0.34134  0.87732  Biso   1.000  C
  H1101    1.0000 0.73150  0.34170  0.89080  Biso   1.000  H
  H1102    1.0000 0.71600  0.32360  0.87090  Biso   1.000  H
  H1103    1.0000 0.72330  0.35270  0.86290  Biso   1.000  H
  C1475    1.0000 0.68938  0.37215  0.90864  Biso   1.000  C
  H1104    1.0000 0.67070  0.37350  0.91170  Biso   1.000  H
  H1105    1.0000 0.69820  0.36780  0.92490  Biso   1.000  H
  H1106    1.0000 0.69590  0.38880  0.90220  Biso   1.000  H
  C1476    1.0000 0.65879  0.27992  0.92613  Biso   1.000  C
  H1107    1.0000 0.65180  0.26580  0.93570  Biso   1.000  H
  O247     1.0000 0.68384  0.76428  0.47004  Biso   1.000  O
  O248     1.0000 0.70990  0.79760  0.47160  Biso   1.000  O
  C1477    1.0000 0.69247  0.78725  0.46374  Biso   1.000  C
  C1478    1.0000 0.68343  0.79329  0.43604  Biso   1.000  C
  C1479    1.0000 0.68921  0.81533  0.42845  Biso   1.000  C
  H1108    1.0000 0.69610  0.82780  0.44020  Biso   1.000  H
  C1480    1.0000 0.68508  0.82251  0.39905  Biso   1.000  C
  C1481    1.0000 0.69486  0.84996  0.38761  Biso   1.000  C
  C1482    1.0000 0.67179  0.85030  0.36795  Biso   1.000  C
  C1483    1.0000 0.65143  0.83157  0.36704  Biso   1.000  C
  C1484    1.0000 0.66146  0.81481  0.39057  Biso   1.000  C
  C1485    1.0000 0.64396  0.78944  0.39896  Biso   1.000  C
  H1109    1.0000 0.62930  0.78210  0.39050  Biso   1.000  H
  C1486    1.0000 0.71811  0.84134  0.37732  Biso   1.000  C
  H1110    1.0000 0.73150  0.84170  0.39080  Biso   1.000  H
  H1111    1.0000 0.71600  0.82360  0.37090  Biso   1.000  H
  H1112    1.0000 0.72330  0.85270  0.36290  Biso   1.000  H
  C1487    1.0000 0.68938  0.87215  0.40864  Biso   1.000  C
  H1113    1.0000 0.67070  0.87350  0.41170  Biso   1.000  H
  H1114    1.0000 0.69820  0.86780  0.42490  Biso   1.000  H
  H1115    1.0000 0.69590  0.88880  0.40220  Biso   1.000  H
  C1488    1.0000 0.65879  0.77992  0.42613  Biso   1.000  C
  H1116    1.0000 0.65180  0.76580  0.43570  Biso   1.000  H
  O249     1.0000 0.18384  0.73572  0.52996  Biso   1.000  O
  O250     1.0000 0.20990  0.70240  0.52840  Biso   1.000  O
  C1489    1.0000 0.19247  0.71275  0.53626  Biso   1.000  C
  C1490    1.0000 0.18343  0.70671  0.56396  Biso   1.000  C
  C1491    1.0000 0.18921  0.68467  0.57155  Biso   1.000  C
  H1117    1.0000 0.19610  0.67220  0.55980  Biso   1.000  H
  C1492    1.0000 0.18508  0.67749  0.60095  Biso   1.000  C
  C1493    1.0000 0.19486  0.65004  0.61239  Biso   1.000  C
  C1494    1.0000 0.17179  0.64970  0.63205  Biso   1.000  C
  C1495    1.0000 0.15143  0.66843  0.63296  Biso   1.000  C
  C1496    1.0000 0.16146  0.68519  0.60943  Biso   1.000  C
  C1497    1.0000 0.14396  0.71056  0.60104  Biso   1.000  C
  H1118    1.0000 0.12930  0.71790  0.60950  Biso   1.000  H
  C1498    1.0000 0.21811  0.65866  0.62268  Biso   1.000  C
  H1119    1.0000 0.23150  0.65830  0.60920  Biso   1.000  H
  H1120    1.0000 0.21600  0.67640  0.62910  Biso   1.000  H
  H1121    1.0000 0.22330  0.64730  0.63710  Biso   1.000  H
  C1499    1.0000 0.18938  0.62785  0.59136  Biso   1.000  C
  H1122    1.0000 0.17070  0.62650  0.58830  Biso   1.000  H
  H1123    1.0000 0.19820  0.63220  0.57510  Biso   1.000  H
  H1124    1.0000 0.19590  0.61120  0.59780  Biso   1.000  H
  C1500    1.0000 0.15879  0.72008  0.57387  Biso   1.000  C
  H1125    1.0000 0.15180  0.73420  0.56430  Biso   1.000  H
  O251     1.0000 0.18384  0.23572  0.02996  Biso   1.000  O
  O252     1.0000 0.20990  0.20240  0.02840  Biso   1.000  O
  C1501    1.0000 0.19247  0.21275  0.03626  Biso   1.000  C
  C1502    1.0000 0.18343  0.20671  0.06396  Biso   1.000  C
  C1503    1.0000 0.18921  0.18467  0.07155  Biso   1.000  C
  H1126    1.0000 0.19610  0.17220  0.05980  Biso   1.000  H
  C1504    1.0000 0.18508  0.17749  0.10095  Biso   1.000  C
  C1505    1.0000 0.19486  0.15004  0.11239  Biso   1.000  C
  C1506    1.0000 0.17179  0.14970  0.13205  Biso   1.000  C
  C1507    1.0000 0.15143  0.16843  0.13296  Biso   1.000  C
  C1508    1.0000 0.16146  0.18519  0.10943  Biso   1.000  C
  C1509    1.0000 0.14396  0.21056  0.10104  Biso   1.000  C
  H1127    1.0000 0.12930  0.21790  0.10950  Biso   1.000  H
  C1510    1.0000 0.21811  0.15866  0.12268  Biso   1.000  C
  H1128    1.0000 0.23150  0.15830  0.10920  Biso   1.000  H
  H1129    1.0000 0.21600  0.17640  0.12910  Biso   1.000  H
  H1130    1.0000 0.22330  0.14730  0.13710  Biso   1.000  H
  C1511    1.0000 0.18938  0.12785  0.09136  Biso   1.000  C
  H1131    1.0000 0.17070  0.12650  0.08830  Biso   1.000  H
  H1132    1.0000 0.19820  0.13220  0.07510  Biso   1.000  H
  H1133    1.0000 0.19590  0.11120  0.09780  Biso   1.000  H
  C1512    1.0000 0.15879  0.22008  0.07387  Biso   1.000  C
  H1134    1.0000 0.15180  0.23420  0.06430  Biso   1.000  H
  O253     1.0000 0.68384  0.73572  0.02996  Biso   1.000  O
  O254     1.0000 0.70990  0.70240  0.02840  Biso   1.000  O
  C1513    1.0000 0.69247  0.71275  0.03626  Biso   1.000  C
  C1514    1.0000 0.68343  0.70671  0.06396  Biso   1.000  C
  C1515    1.0000 0.68921  0.68467  0.07155  Biso   1.000  C
  H1135    1.0000 0.69610  0.67220  0.05980  Biso   1.000  H
  C1516    1.0000 0.68508  0.67749  0.10095  Biso   1.000  C
  C1517    1.0000 0.69486  0.65004  0.11239  Biso   1.000  C
  C1518    1.0000 0.67179  0.64970  0.13205  Biso   1.000  C
  C1519    1.0000 0.65143  0.66843  0.13296  Biso   1.000  C
  C1520    1.0000 0.66146  0.68519  0.10943  Biso   1.000  C
  C1521    1.0000 0.64396  0.71056  0.10104  Biso   1.000  C
  H1136    1.0000 0.62930  0.71790  0.10950  Biso   1.000  H
  C1522    1.0000 0.71811  0.65866  0.12268  Biso   1.000  C
  H1137    1.0000 0.73150  0.65830  0.10920  Biso   1.000  H
  H1138    1.0000 0.71600  0.67640  0.12910  Biso   1.000  H
  H1139    1.0000 0.72330  0.64730  0.13710  Biso   1.000  H
  C1523    1.0000 0.68938  0.62785  0.09136  Biso   1.000  C
  H1140    1.0000 0.67070  0.62650  0.08830  Biso   1.000  H
  H1141    1.0000 0.69820  0.63220  0.07510  Biso   1.000  H
  H1142    1.0000 0.69590  0.61120  0.09780  Biso   1.000  H
  C1524    1.0000 0.65879  0.72008  0.07387  Biso   1.000  C
  H1143    1.0000 0.65180  0.73420  0.06430  Biso   1.000  H
  O255     1.0000 0.68384  0.23572  0.52996  Biso   1.000  O
  O256     1.0000 0.70990  0.20240  0.52840  Biso   1.000  O
  C1525    1.0000 0.69247  0.21275  0.53626  Biso   1.000  C
  C1526    1.0000 0.68343  0.20671  0.56396  Biso   1.000  C
  C1527    1.0000 0.68921  0.18467  0.57155  Biso   1.000  C
  H1144    1.0000 0.69610  0.17220  0.55980  Biso   1.000  H
  C1528    1.0000 0.68508  0.17749  0.60095  Biso   1.000  C
  C1529    1.0000 0.69486  0.15004  0.61239  Biso   1.000  C
  C1530    1.0000 0.67179  0.14970  0.63205  Biso   1.000  C
  C1531    1.0000 0.65143  0.16843  0.63296  Biso   1.000  C
  C1532    1.0000 0.66146  0.18519  0.60943  Biso   1.000  C
  C1533    1.0000 0.64396  0.21056  0.60104  Biso   1.000  C
  H1145    1.0000 0.62930  0.21790  0.60950  Biso   1.000  H
  C1534    1.0000 0.71811  0.15866  0.62268  Biso   1.000  C
  H1146    1.0000 0.73150  0.15830  0.60920  Biso   1.000  H
  H1147    1.0000 0.71600  0.17640  0.62910  Biso   1.000  H
  H1148    1.0000 0.72330  0.14730  0.63710  Biso   1.000  H
  C1535    1.0000 0.68938  0.12785  0.59136  Biso   1.000  C
  H1149    1.0000 0.67070  0.12650  0.58830  Biso   1.000  H
  H1150    1.0000 0.69820  0.13220  0.57510  Biso   1.000  H
  H1151    1.0000 0.69590  0.11120  0.59780  Biso   1.000  H
  C1536    1.0000 0.65879  0.22008  0.57387  Biso   1.000  C
  H1152    1.0000 0.65180  0.23420  0.56430  Biso   1.000  H
  O257     1.0000 0.47004  0.81616  0.73572  Biso   1.000  O
  O258     1.0000 0.47160  0.79010  0.70240  Biso   1.000  O
  C1537    1.0000 0.46374  0.80753  0.71275  Biso   1.000  C
  C1538    1.0000 0.43604  0.81657  0.70671  Biso   1.000  C
  C1539    1.0000 0.42845  0.81079  0.68467  Biso   1.000  C
  H1153    1.0000 0.44020  0.80390  0.67220  Biso   1.000  H
  C1540    1.0000 0.39905  0.81492  0.67749  Biso   1.000  C
  C1541    1.0000 0.38761  0.80514  0.65004  Biso   1.000  C
  C1542    1.0000 0.36795  0.82821  0.64970  Biso   1.000  C
  C1543    1.0000 0.36704  0.84857  0.66843  Biso   1.000  C
  C1544    1.0000 0.39057  0.83854  0.68519  Biso   1.000  C
  C1545    1.0000 0.39896  0.85604  0.71056  Biso   1.000  C
  H1154    1.0000 0.39050  0.87070  0.71790  Biso   1.000  H
  C1546    1.0000 0.37732  0.78189  0.65866  Biso   1.000  C
  H1155    1.0000 0.39080  0.76850  0.65830  Biso   1.000  H
  H1156    1.0000 0.37090  0.78400  0.67640  Biso   1.000  H
  H1157    1.0000 0.36290  0.77670  0.64730  Biso   1.000  H
  C1547    1.0000 0.40864  0.81062  0.62785  Biso   1.000  C
  H1158    1.0000 0.41170  0.82930  0.62650  Biso   1.000  H
  H1159    1.0000 0.42490  0.80180  0.63220  Biso   1.000  H
  H1160    1.0000 0.40220  0.80410  0.61120  Biso   1.000  H
  C1548    1.0000 0.42613  0.84121  0.72008  Biso   1.000  C
  H1161    1.0000 0.43570  0.84820  0.73420  Biso   1.000  H
  O259     1.0000 0.47004  0.31616  0.23572  Biso   1.000  O
  O260     1.0000 0.47160  0.29010  0.20240  Biso   1.000  O
  C1549    1.0000 0.46374  0.30753  0.21275  Biso   1.000  C
  C1550    1.0000 0.43604  0.31657  0.20671  Biso   1.000  C
  C1551    1.0000 0.42845  0.31079  0.18467  Biso   1.000  C
  H1162    1.0000 0.44020  0.30390  0.17220  Biso   1.000  H
  C1552    1.0000 0.39905  0.31492  0.17749  Biso   1.000  C
  C1553    1.0000 0.38761  0.30514  0.15004  Biso   1.000  C
  C1554    1.0000 0.36795  0.32821  0.14970  Biso   1.000  C
  C1555    1.0000 0.36704  0.34857  0.16843  Biso   1.000  C
  C1556    1.0000 0.39057  0.33854  0.18519  Biso   1.000  C
  C1557    1.0000 0.39896  0.35604  0.21056  Biso   1.000  C
  H1163    1.0000 0.39050  0.37070  0.21790  Biso   1.000  H
  C1558    1.0000 0.37732  0.28189  0.15866  Biso   1.000  C
  H1164    1.0000 0.39080  0.26850  0.15830  Biso   1.000  H
  H1165    1.0000 0.37090  0.28400  0.17640  Biso   1.000  H
  H1166    1.0000 0.36290  0.27670  0.14730  Biso   1.000  H
  C1559    1.0000 0.40864  0.31062  0.12785  Biso   1.000  C
  H1167    1.0000 0.41170  0.32930  0.12650  Biso   1.000  H
  H1168    1.0000 0.42490  0.30180  0.13220  Biso   1.000  H
  H1169    1.0000 0.40220  0.30410  0.11120  Biso   1.000  H
  C1560    1.0000 0.42613  0.34121  0.22008  Biso   1.000  C
  H1170    1.0000 0.43570  0.34820  0.23420  Biso   1.000  H
  O261     1.0000 0.97004  0.81616  0.23572  Biso   1.000  O
  O262     1.0000 0.97160  0.79010  0.20240  Biso   1.000  O
  C1561    1.0000 0.96374  0.80753  0.21275  Biso   1.000  C
  C1562    1.0000 0.93604  0.81657  0.20671  Biso   1.000  C
  C1563    1.0000 0.92845  0.81079  0.18467  Biso   1.000  C
  H1171    1.0000 0.94020  0.80390  0.17220  Biso   1.000  H
  C1564    1.0000 0.89905  0.81492  0.17749  Biso   1.000  C
  C1565    1.0000 0.88761  0.80514  0.15004  Biso   1.000  C
  C1566    1.0000 0.86795  0.82821  0.14970  Biso   1.000  C
  C1567    1.0000 0.86704  0.84857  0.16843  Biso   1.000  C
  C1568    1.0000 0.89057  0.83854  0.18519  Biso   1.000  C
  C1569    1.0000 0.89896  0.85604  0.21056  Biso   1.000  C
  H1172    1.0000 0.89050  0.87070  0.21790  Biso   1.000  H
  C1570    1.0000 0.87732  0.78189  0.15866  Biso   1.000  C
  H1173    1.0000 0.89080  0.76850  0.15830  Biso   1.000  H
  H1174    1.0000 0.87090  0.78400  0.17640  Biso   1.000  H
  H1175    1.0000 0.86290  0.77670  0.14730  Biso   1.000  H
  C1571    1.0000 0.90864  0.81062  0.12785  Biso   1.000  C
  H1176    1.0000 0.91170  0.82930  0.12650  Biso   1.000  H
  H1177    1.0000 0.92490  0.80180  0.13220  Biso   1.000  H
  H1178    1.0000 0.90220  0.80410  0.11120  Biso   1.000  H
  C1572    1.0000 0.92613  0.84121  0.22008  Biso   1.000  C
  H1179    1.0000 0.93570  0.84820  0.23420  Biso   1.000  H
  O263     1.0000 0.97004  0.31616  0.73572  Biso   1.000  O
  O264     1.0000 0.97160  0.29010  0.70240  Biso   1.000  O
  C1573    1.0000 0.96374  0.30753  0.71275  Biso   1.000  C
  C1574    1.0000 0.93604  0.31657  0.70671  Biso   1.000  C
  C1575    1.0000 0.92845  0.31079  0.68467  Biso   1.000  C
  H1180    1.0000 0.94020  0.30390  0.67220  Biso   1.000  H
  C1576    1.0000 0.89905  0.31492  0.67749  Biso   1.000  C
  C1577    1.0000 0.88761  0.30514  0.65004  Biso   1.000  C
  C1578    1.0000 0.86795  0.32821  0.64970  Biso   1.000  C
  C1579    1.0000 0.86704  0.34857  0.66843  Biso   1.000  C
  C1580    1.0000 0.89057  0.33854  0.68519  Biso   1.000  C
  C1581    1.0000 0.89896  0.35604  0.71056  Biso   1.000  C
  H1181    1.0000 0.89050  0.37070  0.71790  Biso   1.000  H
  C1582    1.0000 0.87732  0.28189  0.65866  Biso   1.000  C
  H1182    1.0000 0.89080  0.26850  0.65830  Biso   1.000  H
  H1183    1.0000 0.87090  0.28400  0.67640  Biso   1.000  H
  H1184    1.0000 0.86290  0.27670  0.64730  Biso   1.000  H
  C1583    1.0000 0.90864  0.31062  0.62785  Biso   1.000  C
  H1185    1.0000 0.91170  0.32930  0.62650  Biso   1.000  H
  H1186    1.0000 0.92490  0.30180  0.63220  Biso   1.000  H
  H1187    1.0000 0.90220  0.30410  0.61120  Biso   1.000  H
  C1584    1.0000 0.92613  0.34121  0.72008  Biso   1.000  C
  H1188    1.0000 0.93570  0.34820  0.73420  Biso   1.000  H
  O265     1.0000 0.52996  0.81616  0.26428  Biso   1.000  O
  O266     1.0000 0.52840  0.79010  0.29760  Biso   1.000  O
  C1585    1.0000 0.53626  0.80753  0.28725  Biso   1.000  C
  C1586    1.0000 0.56396  0.81657  0.29329  Biso   1.000  C
  C1587    1.0000 0.57155  0.81079  0.31533  Biso   1.000  C
  H1189    1.0000 0.55980  0.80390  0.32780  Biso   1.000  H
  C1588    1.0000 0.60095  0.81492  0.32251  Biso   1.000  C
  C1589    1.0000 0.61239  0.80514  0.34996  Biso   1.000  C
  C1590    1.0000 0.63205  0.82821  0.35030  Biso   1.000  C
  C1591    1.0000 0.63296  0.84857  0.33157  Biso   1.000  C
  C1592    1.0000 0.60943  0.83854  0.31481  Biso   1.000  C
  C1593    1.0000 0.60104  0.85604  0.28944  Biso   1.000  C
  H1190    1.0000 0.60950  0.87070  0.28210  Biso   1.000  H
  C1594    1.0000 0.62268  0.78189  0.34134  Biso   1.000  C
  H1191    1.0000 0.60920  0.76850  0.34170  Biso   1.000  H
  H1192    1.0000 0.62910  0.78400  0.32360  Biso   1.000  H
  H1193    1.0000 0.63710  0.77670  0.35270  Biso   1.000  H
  C1595    1.0000 0.59136  0.81062  0.37215  Biso   1.000  C
  H1194    1.0000 0.58830  0.82930  0.37350  Biso   1.000  H
  H1195    1.0000 0.57510  0.80180  0.36780  Biso   1.000  H
  H1196    1.0000 0.59780  0.80410  0.38880  Biso   1.000  H
  C1596    1.0000 0.57387  0.84121  0.27992  Biso   1.000  C
  H1197    1.0000 0.56430  0.84820  0.26580  Biso   1.000  H
  O267     1.0000 0.52996  0.31616  0.76428  Biso   1.000  O
  O268     1.0000 0.52840  0.29010  0.79760  Biso   1.000  O
  C1597    1.0000 0.53626  0.30753  0.78725  Biso   1.000  C
  C1598    1.0000 0.56396  0.31657  0.79329  Biso   1.000  C
  C1599    1.0000 0.57155  0.31079  0.81533  Biso   1.000  C
  H1198    1.0000 0.55980  0.30390  0.82780  Biso   1.000  H
  C1600    1.0000 0.60095  0.31492  0.82251  Biso   1.000  C
  C1601    1.0000 0.61239  0.30514  0.84996  Biso   1.000  C
  C1602    1.0000 0.63205  0.32821  0.85030  Biso   1.000  C
  C1603    1.0000 0.63296  0.34857  0.83157  Biso   1.000  C
  C1604    1.0000 0.60943  0.33854  0.81481  Biso   1.000  C
  C1605    1.0000 0.60104  0.35604  0.78944  Biso   1.000  C
  H1199    1.0000 0.60950  0.37070  0.78210  Biso   1.000  H
  C1606    1.0000 0.62268  0.28189  0.84134  Biso   1.000  C
  H1200    1.0000 0.60920  0.26850  0.84170  Biso   1.000  H
  H1201    1.0000 0.62910  0.28400  0.82360  Biso   1.000  H
  H1202    1.0000 0.63710  0.27670  0.85270  Biso   1.000  H
  C1607    1.0000 0.59136  0.31062  0.87215  Biso   1.000  C
  H1203    1.0000 0.58830  0.32930  0.87350  Biso   1.000  H
  H1204    1.0000 0.57510  0.30180  0.86780  Biso   1.000  H
  H1205    1.0000 0.59780  0.30410  0.88880  Biso   1.000  H
  C1608    1.0000 0.57387  0.34121  0.77992  Biso   1.000  C
  H1206    1.0000 0.56430  0.34820  0.76580  Biso   1.000  H
  O269     1.0000 0.02996  0.81616  0.76428  Biso   1.000  O
  O270     1.0000 0.02840  0.79010  0.79760  Biso   1.000  O
  C1609    1.0000 0.03626  0.80753  0.78725  Biso   1.000  C
  C1610    1.0000 0.06396  0.81657  0.79329  Biso   1.000  C
  C1611    1.0000 0.07155  0.81079  0.81533  Biso   1.000  C
  H1207    1.0000 0.05980  0.80390  0.82780  Biso   1.000  H
  C1612    1.0000 0.10095  0.81492  0.82251  Biso   1.000  C
  C1613    1.0000 0.11239  0.80514  0.84996  Biso   1.000  C
  C1614    1.0000 0.13205  0.82821  0.85030  Biso   1.000  C
  C1615    1.0000 0.13296  0.84857  0.83157  Biso   1.000  C
  C1616    1.0000 0.10943  0.83854  0.81481  Biso   1.000  C
  C1617    1.0000 0.10104  0.85604  0.78944  Biso   1.000  C
  H1208    1.0000 0.10950  0.87070  0.78210  Biso   1.000  H
  C1618    1.0000 0.12268  0.78189  0.84134  Biso   1.000  C
  H1209    1.0000 0.10920  0.76850  0.84170  Biso   1.000  H
  H1210    1.0000 0.12910  0.78400  0.82360  Biso   1.000  H
  H1211    1.0000 0.13710  0.77670  0.85270  Biso   1.000  H
  C1619    1.0000 0.09136  0.81062  0.87215  Biso   1.000  C
  H1212    1.0000 0.08830  0.82930  0.87350  Biso   1.000  H
  H1213    1.0000 0.07510  0.80180  0.86780  Biso   1.000  H
  H1214    1.0000 0.09780  0.80410  0.88880  Biso   1.000  H
  C1620    1.0000 0.07387  0.84121  0.77992  Biso   1.000  C
  H1215    1.0000 0.06430  0.84820  0.76580  Biso   1.000  H
  O271     1.0000 0.02996  0.31616  0.26428  Biso   1.000  O
  O272     1.0000 0.02840  0.29010  0.29760  Biso   1.000  O
  C1621    1.0000 0.03626  0.30753  0.28725  Biso   1.000  C
  C1622    1.0000 0.06396  0.31657  0.29329  Biso   1.000  C
  C1623    1.0000 0.07155  0.31079  0.31533  Biso   1.000  C
  H1216    1.0000 0.05980  0.30390  0.32780  Biso   1.000  H
  C1624    1.0000 0.10095  0.31492  0.32251  Biso   1.000  C
  C1625    1.0000 0.11239  0.30514  0.34996  Biso   1.000  C
  C1626    1.0000 0.13205  0.32821  0.35030  Biso   1.000  C
  C1627    1.0000 0.13296  0.34857  0.33157  Biso   1.000  C
  C1628    1.0000 0.10943  0.33854  0.31481  Biso   1.000  C
  C1629    1.0000 0.10104  0.35604  0.28944  Biso   1.000  C
  H1217    1.0000 0.10950  0.37070  0.28210  Biso   1.000  H
  C1630    1.0000 0.12268  0.28189  0.34134  Biso   1.000  C
  H1218    1.0000 0.10920  0.26850  0.34170  Biso   1.000  H
  H1219    1.0000 0.12910  0.28400  0.32360  Biso   1.000  H
  H1220    1.0000 0.13710  0.27670  0.35270  Biso   1.000  H
  C1631    1.0000 0.09136  0.31062  0.37215  Biso   1.000  C
  H1221    1.0000 0.08830  0.32930  0.37350  Biso   1.000  H
  H1222    1.0000 0.07510  0.30180  0.36780  Biso   1.000  H
  H1223    1.0000 0.09780  0.30410  0.38880  Biso   1.000  H
  C1632    1.0000 0.07387  0.34121  0.27992  Biso   1.000  C
  H1224    1.0000 0.06430  0.34820  0.26580  Biso   1.000  H
  O273     1.0000 0.47004  0.18384  0.26428  Biso   1.000  O
  O274     1.0000 0.47160  0.20990  0.29760  Biso   1.000  O
  C1633    1.0000 0.46374  0.19247  0.28725  Biso   1.000  C
  C1634    1.0000 0.43604  0.18343  0.29329  Biso   1.000  C
  C1635    1.0000 0.42845  0.18921  0.31533  Biso   1.000  C
  H1225    1.0000 0.44020  0.19610  0.32780  Biso   1.000  H
  C1636    1.0000 0.39905  0.18508  0.32251  Biso   1.000  C
  C1637    1.0000 0.38761  0.19486  0.34996  Biso   1.000  C
  C1638    1.0000 0.36795  0.17179  0.35030  Biso   1.000  C
  C1639    1.0000 0.36704  0.15143  0.33157  Biso   1.000  C
  C1640    1.0000 0.39057  0.16146  0.31481  Biso   1.000  C
  C1641    1.0000 0.39896  0.14396  0.28944  Biso   1.000  C
  H1226    1.0000 0.39050  0.12930  0.28210  Biso   1.000  H
  C1642    1.0000 0.37732  0.21811  0.34134  Biso   1.000  C
  H1227    1.0000 0.39080  0.23150  0.34170  Biso   1.000  H
  H1228    1.0000 0.37090  0.21600  0.32360  Biso   1.000  H
  H1229    1.0000 0.36290  0.22330  0.35270  Biso   1.000  H
  C1643    1.0000 0.40864  0.18938  0.37215  Biso   1.000  C
  H1230    1.0000 0.41170  0.17070  0.37350  Biso   1.000  H
  H1231    1.0000 0.42490  0.19820  0.36780  Biso   1.000  H
  H1232    1.0000 0.40220  0.19590  0.38880  Biso   1.000  H
  C1644    1.0000 0.42613  0.15879  0.27992  Biso   1.000  C
  H1233    1.0000 0.43570  0.15180  0.26580  Biso   1.000  H
  O275     1.0000 0.47004  0.68384  0.76428  Biso   1.000  O
  O276     1.0000 0.47160  0.70990  0.79760  Biso   1.000  O
  C1645    1.0000 0.46374  0.69247  0.78725  Biso   1.000  C
  C1646    1.0000 0.43604  0.68343  0.79329  Biso   1.000  C
  C1647    1.0000 0.42845  0.68921  0.81533  Biso   1.000  C
  H1234    1.0000 0.44020  0.69610  0.82780  Biso   1.000  H
  C1648    1.0000 0.39905  0.68508  0.82251  Biso   1.000  C
  C1649    1.0000 0.38761  0.69486  0.84996  Biso   1.000  C
  C1650    1.0000 0.36795  0.67179  0.85030  Biso   1.000  C
  C1651    1.0000 0.36704  0.65143  0.83157  Biso   1.000  C
  C1652    1.0000 0.39057  0.66146  0.81481  Biso   1.000  C
  C1653    1.0000 0.39896  0.64396  0.78944  Biso   1.000  C
  H1235    1.0000 0.39050  0.62930  0.78210  Biso   1.000  H
  C1654    1.0000 0.37732  0.71811  0.84134  Biso   1.000  C
  H1236    1.0000 0.39080  0.73150  0.84170  Biso   1.000  H
  H1237    1.0000 0.37090  0.71600  0.82360  Biso   1.000  H
  H1238    1.0000 0.36290  0.72330  0.85270  Biso   1.000  H
  C1655    1.0000 0.40864  0.68938  0.87215  Biso   1.000  C
  H1239    1.0000 0.41170  0.67070  0.87350  Biso   1.000  H
  H1240    1.0000 0.42490  0.69820  0.86780  Biso   1.000  H
  H1241    1.0000 0.40220  0.69590  0.88880  Biso   1.000  H
  C1656    1.0000 0.42613  0.65879  0.77992  Biso   1.000  C
  H1242    1.0000 0.43570  0.65180  0.76580  Biso   1.000  H
  O277     1.0000 0.97004  0.18384  0.76428  Biso   1.000  O
  O278     1.0000 0.97160  0.20990  0.79760  Biso   1.000  O
  C1657    1.0000 0.96374  0.19247  0.78725  Biso   1.000  C
  C1658    1.0000 0.93604  0.18343  0.79329  Biso   1.000  C
  C1659    1.0000 0.92845  0.18921  0.81533  Biso   1.000  C
  H1243    1.0000 0.94020  0.19610  0.82780  Biso   1.000  H
  C1660    1.0000 0.89905  0.18508  0.82251  Biso   1.000  C
  C1661    1.0000 0.88761  0.19486  0.84996  Biso   1.000  C
  C1662    1.0000 0.86795  0.17179  0.85030  Biso   1.000  C
  C1663    1.0000 0.86704  0.15143  0.83157  Biso   1.000  C
  C1664    1.0000 0.89057  0.16146  0.81481  Biso   1.000  C
  C1665    1.0000 0.89896  0.14396  0.78944  Biso   1.000  C
  H1244    1.0000 0.89050  0.12930  0.78210  Biso   1.000  H
  C1666    1.0000 0.87732  0.21811  0.84134  Biso   1.000  C
  H1245    1.0000 0.89080  0.23150  0.84170  Biso   1.000  H
  H1246    1.0000 0.87090  0.21600  0.82360  Biso   1.000  H
  H1247    1.0000 0.86290  0.22330  0.85270  Biso   1.000  H
  C1667    1.0000 0.90864  0.18938  0.87215  Biso   1.000  C
  H1248    1.0000 0.91170  0.17070  0.87350  Biso   1.000  H
  H1249    1.0000 0.92490  0.19820  0.86780  Biso   1.000  H
  H1250    1.0000 0.90220  0.19590  0.88880  Biso   1.000  H
  C1668    1.0000 0.92613  0.15879  0.77992  Biso   1.000  C
  H1251    1.0000 0.93570  0.15180  0.76580  Biso   1.000  H
  O279     1.0000 0.97004  0.68384  0.26428  Biso   1.000  O
  O280     1.0000 0.97160  0.70990  0.29760  Biso   1.000  O
  C1669    1.0000 0.96374  0.69247  0.28725  Biso   1.000  C
  C1670    1.0000 0.93604  0.68343  0.29329  Biso   1.000  C
  C1671    1.0000 0.92845  0.68921  0.31533  Biso   1.000  C
  H1252    1.0000 0.94020  0.69610  0.32780  Biso   1.000  H
  C1672    1.0000 0.89905  0.68508  0.32251  Biso   1.000  C
  C1673    1.0000 0.88761  0.69486  0.34996  Biso   1.000  C
  C1674    1.0000 0.86795  0.67179  0.35030  Biso   1.000  C
  C1675    1.0000 0.86704  0.65143  0.33157  Biso   1.000  C
  C1676    1.0000 0.89057  0.66146  0.31481  Biso   1.000  C
  C1677    1.0000 0.89896  0.64396  0.28944  Biso   1.000  C
  H1253    1.0000 0.89050  0.62930  0.28210  Biso   1.000  H
  C1678    1.0000 0.87732  0.71811  0.34134  Biso   1.000  C
  H1254    1.0000 0.89080  0.73150  0.34170  Biso   1.000  H
  H1255    1.0000 0.87090  0.71600  0.32360  Biso   1.000  H
  H1256    1.0000 0.86290  0.72330  0.35270  Biso   1.000  H
  C1679    1.0000 0.90864  0.68938  0.37215  Biso   1.000  C
  H1257    1.0000 0.91170  0.67070  0.37350  Biso   1.000  H
  H1258    1.0000 0.92490  0.69820  0.36780  Biso   1.000  H
  H1259    1.0000 0.90220  0.69590  0.38880  Biso   1.000  H
  C1680    1.0000 0.92613  0.65879  0.27992  Biso   1.000  C
  H1260    1.0000 0.93570  0.65180  0.26580  Biso   1.000  H
  O281     1.0000 0.52996  0.18384  0.73572  Biso   1.000  O
  O282     1.0000 0.52840  0.20990  0.70240  Biso   1.000  O
  C1681    1.0000 0.53626  0.19247  0.71275  Biso   1.000  C
  C1682    1.0000 0.56396  0.18343  0.70671  Biso   1.000  C
  C1683    1.0000 0.57155  0.18921  0.68467  Biso   1.000  C
  H1261    1.0000 0.55980  0.19610  0.67220  Biso   1.000  H
  C1684    1.0000 0.60095  0.18508  0.67749  Biso   1.000  C
  C1685    1.0000 0.61239  0.19486  0.65004  Biso   1.000  C
  C1686    1.0000 0.63205  0.17179  0.64970  Biso   1.000  C
  C1687    1.0000 0.63296  0.15143  0.66843  Biso   1.000  C
  C1688    1.0000 0.60943  0.16146  0.68519  Biso   1.000  C
  C1689    1.0000 0.60104  0.14396  0.71056  Biso   1.000  C
  H1262    1.0000 0.60950  0.12930  0.71790  Biso   1.000  H
  C1690    1.0000 0.62268  0.21811  0.65866  Biso   1.000  C
  H1263    1.0000 0.60920  0.23150  0.65830  Biso   1.000  H
  H1264    1.0000 0.62910  0.21600  0.67640  Biso   1.000  H
  H1265    1.0000 0.63710  0.22330  0.64730  Biso   1.000  H
  C1691    1.0000 0.59136  0.18938  0.62785  Biso   1.000  C
  H1266    1.0000 0.58830  0.17070  0.62650  Biso   1.000  H
  H1267    1.0000 0.57510  0.19820  0.63220  Biso   1.000  H
  H1268    1.0000 0.59780  0.19590  0.61120  Biso   1.000  H
  C1692    1.0000 0.57387  0.15879  0.72008  Biso   1.000  C
  H1269    1.0000 0.56430  0.15180  0.73420  Biso   1.000  H
  O283     1.0000 0.52996  0.68384  0.23572  Biso   1.000  O
  O284     1.0000 0.52840  0.70990  0.20240  Biso   1.000  O
  C1693    1.0000 0.53626  0.69247  0.21275  Biso   1.000  C
  C1694    1.0000 0.56396  0.68343  0.20671  Biso   1.000  C
  C1695    1.0000 0.57155  0.68921  0.18467  Biso   1.000  C
  H1270    1.0000 0.55980  0.69610  0.17220  Biso   1.000  H
  C1696    1.0000 0.60095  0.68508  0.17749  Biso   1.000  C
  C1697    1.0000 0.61239  0.69486  0.15004  Biso   1.000  C
  C1698    1.0000 0.63205  0.67179  0.14970  Biso   1.000  C
  C1699    1.0000 0.63296  0.65143  0.16843  Biso   1.000  C
  C1700    1.0000 0.60943  0.66146  0.18519  Biso   1.000  C
  C1701    1.0000 0.60104  0.64396  0.21056  Biso   1.000  C
  H1271    1.0000 0.60950  0.62930  0.21790  Biso   1.000  H
  C1702    1.0000 0.62268  0.71811  0.15866  Biso   1.000  C
  H1272    1.0000 0.60920  0.73150  0.15830  Biso   1.000  H
  H1273    1.0000 0.62910  0.71600  0.17640  Biso   1.000  H
  H1274    1.0000 0.63710  0.72330  0.14730  Biso   1.000  H
  C1703    1.0000 0.59136  0.68938  0.12785  Biso   1.000  C
  H1275    1.0000 0.58830  0.67070  0.12650  Biso   1.000  H
  H1276    1.0000 0.57510  0.69820  0.13220  Biso   1.000  H
  H1277    1.0000 0.59780  0.69590  0.11120  Biso   1.000  H
  C1704    1.0000 0.57387  0.65879  0.22008  Biso   1.000  C
  H1278    1.0000 0.56430  0.65180  0.23420  Biso   1.000  H
  O285     1.0000 0.02996  0.18384  0.23572  Biso   1.000  O
  O286     1.0000 0.02840  0.20990  0.20240  Biso   1.000  O
  C1705    1.0000 0.03626  0.19247  0.21275  Biso   1.000  C
  C1706    1.0000 0.06396  0.18343  0.20671  Biso   1.000  C
  C1707    1.0000 0.07155  0.18921  0.18467  Biso   1.000  C
  H1279    1.0000 0.05980  0.19610  0.17220  Biso   1.000  H
  C1708    1.0000 0.10095  0.18508  0.17749  Biso   1.000  C
  C1709    1.0000 0.11239  0.19486  0.15004  Biso   1.000  C
  C1710    1.0000 0.13205  0.17179  0.14970  Biso   1.000  C
  C1711    1.0000 0.13296  0.15143  0.16843  Biso   1.000  C
  C1712    1.0000 0.10943  0.16146  0.18519  Biso   1.000  C
  C1713    1.0000 0.10104  0.14396  0.21056  Biso   1.000  C
  H1280    1.0000 0.10950  0.12930  0.21790  Biso   1.000  H
  C1714    1.0000 0.12268  0.21811  0.15866  Biso   1.000  C
  H1281    1.0000 0.10920  0.23150  0.15830  Biso   1.000  H
  H1282    1.0000 0.12910  0.21600  0.17640  Biso   1.000  H
  H1283    1.0000 0.13710  0.22330  0.14730  Biso   1.000  H
  C1715    1.0000 0.09136  0.18938  0.12785  Biso   1.000  C
  H1284    1.0000 0.08830  0.17070  0.12650  Biso   1.000  H
  H1285    1.0000 0.07510  0.19820  0.13220  Biso   1.000  H
  H1286    1.0000 0.09780  0.19590  0.11120  Biso   1.000  H
  C1716    1.0000 0.07387  0.15879  0.22008  Biso   1.000  C
  H1287    1.0000 0.06430  0.15180  0.23420  Biso   1.000  H
  O287     1.0000 0.02996  0.68384  0.73572  Biso   1.000  O
  O288     1.0000 0.02840  0.70990  0.70240  Biso   1.000  O
  C1717    1.0000 0.03626  0.69247  0.71275  Biso   1.000  C
  C1718    1.0000 0.06396  0.68343  0.70671  Biso   1.000  C
  C1719    1.0000 0.07155  0.68921  0.68467  Biso   1.000  C
  H1288    1.0000 0.05980  0.69610  0.67220  Biso   1.000  H
  C1720    1.0000 0.10095  0.68508  0.67749  Biso   1.000  C
  C1721    1.0000 0.11239  0.69486  0.65004  Biso   1.000  C
  C1722    1.0000 0.13205  0.67179  0.64970  Biso   1.000  C
  C1723    1.0000 0.13296  0.65143  0.66843  Biso   1.000  C
  C1724    1.0000 0.10943  0.66146  0.68519  Biso   1.000  C
  C1725    1.0000 0.10104  0.64396  0.71056  Biso   1.000  C
  H1289    1.0000 0.10950  0.62930  0.71790  Biso   1.000  H
  C1726    1.0000 0.12268  0.71811  0.65866  Biso   1.000  C
  H1290    1.0000 0.10920  0.73150  0.65830  Biso   1.000  H
  H1291    1.0000 0.12910  0.71600  0.67640  Biso   1.000  H
  H1292    1.0000 0.13710  0.72330  0.64730  Biso   1.000  H
  C1727    1.0000 0.09136  0.68938  0.62785  Biso   1.000  C
  H1293    1.0000 0.08830  0.67070  0.62650  Biso   1.000  H
  H1294    1.0000 0.07510  0.69820  0.63220  Biso   1.000  H
  H1295    1.0000 0.09780  0.69590  0.61120  Biso   1.000  H
  C1728    1.0000 0.07387  0.65879  0.72008  Biso   1.000  C
  H1296    1.0000 0.06430  0.65180  0.73420  Biso   1.000  H
  O289     1.0000 0.97004  0.23572  0.68384  Biso   1.000  O
  O290     1.0000 0.97160  0.20240  0.70990  Biso   1.000  O
  C1729    1.0000 0.96374  0.21275  0.69247  Biso   1.000  C
  C1730    1.0000 0.93604  0.20671  0.68343  Biso   1.000  C
  C1731    1.0000 0.92845  0.18467  0.68921  Biso   1.000  C
  H1297    1.0000 0.94020  0.17220  0.69610  Biso   1.000  H
  C1732    1.0000 0.89905  0.17749  0.68508  Biso   1.000  C
  C1733    1.0000 0.88761  0.15004  0.69486  Biso   1.000  C
  C1734    1.0000 0.86795  0.14970  0.67179  Biso   1.000  C
  C1735    1.0000 0.86704  0.16843  0.65143  Biso   1.000  C
  C1736    1.0000 0.89057  0.18519  0.66146  Biso   1.000  C
  C1737    1.0000 0.89896  0.21056  0.64396  Biso   1.000  C
  H1298    1.0000 0.89050  0.21790  0.62930  Biso   1.000  H
  C1738    1.0000 0.87732  0.15866  0.71811  Biso   1.000  C
  H1299    1.0000 0.89080  0.15830  0.73150  Biso   1.000  H
  H1300    1.0000 0.87090  0.17640  0.71600  Biso   1.000  H
  H1301    1.0000 0.86290  0.14730  0.72330  Biso   1.000  H
  C1739    1.0000 0.90864  0.12785  0.68938  Biso   1.000  C
  H1302    1.0000 0.91170  0.12650  0.67070  Biso   1.000  H
  H1303    1.0000 0.92490  0.13220  0.69820  Biso   1.000  H
  H1304    1.0000 0.90220  0.11120  0.69590  Biso   1.000  H
  C1740    1.0000 0.92613  0.22008  0.65879  Biso   1.000  C
  H1305    1.0000 0.93570  0.23420  0.65180  Biso   1.000  H
  O291     1.0000 0.97004  0.73572  0.18384  Biso   1.000  O
  O292     1.0000 0.97160  0.70240  0.20990  Biso   1.000  O
  C1741    1.0000 0.96374  0.71275  0.19247  Biso   1.000  C
  C1742    1.0000 0.93604  0.70671  0.18343  Biso   1.000  C
  C1743    1.0000 0.92845  0.68467  0.18921  Biso   1.000  C
  H1306    1.0000 0.94020  0.67220  0.19610  Biso   1.000  H
  C1744    1.0000 0.89905  0.67749  0.18508  Biso   1.000  C
  C1745    1.0000 0.88761  0.65004  0.19486  Biso   1.000  C
  C1746    1.0000 0.86795  0.64970  0.17179  Biso   1.000  C
  C1747    1.0000 0.86704  0.66843  0.15143  Biso   1.000  C
  C1748    1.0000 0.89057  0.68519  0.16146  Biso   1.000  C
  C1749    1.0000 0.89896  0.71056  0.14396  Biso   1.000  C
  H1307    1.0000 0.89050  0.71790  0.12930  Biso   1.000  H
  C1750    1.0000 0.87732  0.65866  0.21811  Biso   1.000  C
  H1308    1.0000 0.89080  0.65830  0.23150  Biso   1.000  H
  H1309    1.0000 0.87090  0.67640  0.21600  Biso   1.000  H
  H1310    1.0000 0.86290  0.64730  0.22330  Biso   1.000  H
  C1751    1.0000 0.90864  0.62785  0.18938  Biso   1.000  C
  H1311    1.0000 0.91170  0.62650  0.17070  Biso   1.000  H
  H1312    1.0000 0.92490  0.63220  0.19820  Biso   1.000  H
  H1313    1.0000 0.90220  0.61120  0.19590  Biso   1.000  H
  C1752    1.0000 0.92613  0.72008  0.15879  Biso   1.000  C
  H1314    1.0000 0.93570  0.73420  0.15180  Biso   1.000  H
  O293     1.0000 0.47004  0.23572  0.18384  Biso   1.000  O
  O294     1.0000 0.47160  0.20240  0.20990  Biso   1.000  O
  C1753    1.0000 0.46374  0.21275  0.19247  Biso   1.000  C
  C1754    1.0000 0.43604  0.20671  0.18343  Biso   1.000  C
  C1755    1.0000 0.42845  0.18467  0.18921  Biso   1.000  C
  H1315    1.0000 0.44020  0.17220  0.19610  Biso   1.000  H
  C1756    1.0000 0.39905  0.17749  0.18508  Biso   1.000  C
  C1757    1.0000 0.38761  0.15004  0.19486  Biso   1.000  C
  C1758    1.0000 0.36795  0.14970  0.17179  Biso   1.000  C
  C1759    1.0000 0.36704  0.16843  0.15143  Biso   1.000  C
  C1760    1.0000 0.39057  0.18519  0.16146  Biso   1.000  C
  C1761    1.0000 0.39896  0.21056  0.14396  Biso   1.000  C
  H1316    1.0000 0.39050  0.21790  0.12930  Biso   1.000  H
  C1762    1.0000 0.37732  0.15866  0.21811  Biso   1.000  C
  H1317    1.0000 0.39080  0.15830  0.23150  Biso   1.000  H
  H1318    1.0000 0.37090  0.17640  0.21600  Biso   1.000  H
  H1319    1.0000 0.36290  0.14730  0.22330  Biso   1.000  H
  C1763    1.0000 0.40864  0.12785  0.18938  Biso   1.000  C
  H1320    1.0000 0.41170  0.12650  0.17070  Biso   1.000  H
  H1321    1.0000 0.42490  0.13220  0.19820  Biso   1.000  H
  H1322    1.0000 0.40220  0.11120  0.19590  Biso   1.000  H
  C1764    1.0000 0.42613  0.22008  0.15879  Biso   1.000  C
  H1323    1.0000 0.43570  0.23420  0.15180  Biso   1.000  H
  O295     1.0000 0.47004  0.73572  0.68384  Biso   1.000  O
  O296     1.0000 0.47160  0.70240  0.70990  Biso   1.000  O
  C1765    1.0000 0.46374  0.71275  0.69247  Biso   1.000  C
  C1766    1.0000 0.43604  0.70671  0.68343  Biso   1.000  C
  C1767    1.0000 0.42845  0.68467  0.68921  Biso   1.000  C
  H1324    1.0000 0.44020  0.67220  0.69610  Biso   1.000  H
  C1768    1.0000 0.39905  0.67749  0.68508  Biso   1.000  C
  C1769    1.0000 0.38761  0.65004  0.69486  Biso   1.000  C
  C1770    1.0000 0.36795  0.64970  0.67179  Biso   1.000  C
  C1771    1.0000 0.36704  0.66843  0.65143  Biso   1.000  C
  C1772    1.0000 0.39057  0.68519  0.66146  Biso   1.000  C
  C1773    1.0000 0.39896  0.71056  0.64396  Biso   1.000  C
  H1325    1.0000 0.39050  0.71790  0.62930  Biso   1.000  H
  C1774    1.0000 0.37732  0.65866  0.71811  Biso   1.000  C
  H1326    1.0000 0.39080  0.65830  0.73150  Biso   1.000  H
  H1327    1.0000 0.37090  0.67640  0.71600  Biso   1.000  H
  H1328    1.0000 0.36290  0.64730  0.72330  Biso   1.000  H
  C1775    1.0000 0.40864  0.62785  0.68938  Biso   1.000  C
  H1329    1.0000 0.41170  0.62650  0.67070  Biso   1.000  H
  H1330    1.0000 0.42490  0.63220  0.69820  Biso   1.000  H
  H1331    1.0000 0.40220  0.61120  0.69590  Biso   1.000  H
  C1776    1.0000 0.42613  0.72008  0.65879  Biso   1.000  C
  H1332    1.0000 0.43570  0.73420  0.65180  Biso   1.000  H
  O297     1.0000 0.02996  0.76428  0.68384  Biso   1.000  O
  O298     1.0000 0.02840  0.79760  0.70990  Biso   1.000  O
  C1777    1.0000 0.03626  0.78725  0.69247  Biso   1.000  C
  C1778    1.0000 0.06396  0.79329  0.68343  Biso   1.000  C
  C1779    1.0000 0.07155  0.81533  0.68921  Biso   1.000  C
  H1333    1.0000 0.05980  0.82780  0.69610  Biso   1.000  H
  C1780    1.0000 0.10095  0.82251  0.68508  Biso   1.000  C
  C1781    1.0000 0.11239  0.84996  0.69486  Biso   1.000  C
  C1782    1.0000 0.13205  0.85030  0.67179  Biso   1.000  C
  C1783    1.0000 0.13296  0.83157  0.65143  Biso   1.000  C
  C1784    1.0000 0.10943  0.81481  0.66146  Biso   1.000  C
  C1785    1.0000 0.10104  0.78944  0.64396  Biso   1.000  C
  H1334    1.0000 0.10950  0.78210  0.62930  Biso   1.000  H
  C1786    1.0000 0.12268  0.84134  0.71811  Biso   1.000  C
  H1335    1.0000 0.10920  0.84170  0.73150  Biso   1.000  H
  H1336    1.0000 0.12910  0.82360  0.71600  Biso   1.000  H
  H1337    1.0000 0.13710  0.85270  0.72330  Biso   1.000  H
  C1787    1.0000 0.09136  0.87215  0.68938  Biso   1.000  C
  H1338    1.0000 0.08830  0.87350  0.67070  Biso   1.000  H
  H1339    1.0000 0.07510  0.86780  0.69820  Biso   1.000  H
  H1340    1.0000 0.09780  0.88880  0.69590  Biso   1.000  H
  C1788    1.0000 0.07387  0.77992  0.65879  Biso   1.000  C
  H1341    1.0000 0.06430  0.76580  0.65180  Biso   1.000  H
  O299     1.0000 0.02996  0.26428  0.18384  Biso   1.000  O
  O300     1.0000 0.02840  0.29760  0.20990  Biso   1.000  O
  C1789    1.0000 0.03626  0.28725  0.19247  Biso   1.000  C
  C1790    1.0000 0.06396  0.29329  0.18343  Biso   1.000  C
  C1791    1.0000 0.07155  0.31533  0.18921  Biso   1.000  C
  H1342    1.0000 0.05980  0.32780  0.19610  Biso   1.000  H
  C1792    1.0000 0.10095  0.32251  0.18508  Biso   1.000  C
  C1793    1.0000 0.11239  0.34996  0.19486  Biso   1.000  C
  C1794    1.0000 0.13205  0.35030  0.17179  Biso   1.000  C
  C1795    1.0000 0.13296  0.33157  0.15143  Biso   1.000  C
  C1796    1.0000 0.10943  0.31481  0.16146  Biso   1.000  C
  C1797    1.0000 0.10104  0.28944  0.14396  Biso   1.000  C
  H1343    1.0000 0.10950  0.28210  0.12930  Biso   1.000  H
  C1798    1.0000 0.12268  0.34134  0.21811  Biso   1.000  C
  H1344    1.0000 0.10920  0.34170  0.23150  Biso   1.000  H
  H1345    1.0000 0.12910  0.32360  0.21600  Biso   1.000  H
  H1346    1.0000 0.13710  0.35270  0.22330  Biso   1.000  H
  C1799    1.0000 0.09136  0.37215  0.18938  Biso   1.000  C
  H1347    1.0000 0.08830  0.37350  0.17070  Biso   1.000  H
  H1348    1.0000 0.07510  0.36780  0.19820  Biso   1.000  H
  H1349    1.0000 0.09780  0.38880  0.19590  Biso   1.000  H
  C1800    1.0000 0.07387  0.27992  0.15879  Biso   1.000  C
  H1350    1.0000 0.06430  0.26580  0.15180  Biso   1.000  H
  O301     1.0000 0.52996  0.76428  0.18384  Biso   1.000  O
  O302     1.0000 0.52840  0.79760  0.20990  Biso   1.000  O
  C1801    1.0000 0.53626  0.78725  0.19247  Biso   1.000  C
  C1802    1.0000 0.56396  0.79329  0.18343  Biso   1.000  C
  C1803    1.0000 0.57155  0.81533  0.18921  Biso   1.000  C
  H1351    1.0000 0.55980  0.82780  0.19610  Biso   1.000  H
  C1804    1.0000 0.60095  0.82251  0.18508  Biso   1.000  C
  C1805    1.0000 0.61239  0.84996  0.19486  Biso   1.000  C
  C1806    1.0000 0.63205  0.85030  0.17179  Biso   1.000  C
  C1807    1.0000 0.63296  0.83157  0.15143  Biso   1.000  C
  C1808    1.0000 0.60943  0.81481  0.16146  Biso   1.000  C
  C1809    1.0000 0.60104  0.78944  0.14396  Biso   1.000  C
  H1352    1.0000 0.60950  0.78210  0.12930  Biso   1.000  H
  C1810    1.0000 0.62268  0.84134  0.21811  Biso   1.000  C
  H1353    1.0000 0.60920  0.84170  0.23150  Biso   1.000  H
  H1354    1.0000 0.62910  0.82360  0.21600  Biso   1.000  H
  H1355    1.0000 0.63710  0.85270  0.22330  Biso   1.000  H
  C1811    1.0000 0.59136  0.87215  0.18938  Biso   1.000  C
  H1356    1.0000 0.58830  0.87350  0.17070  Biso   1.000  H
  H1357    1.0000 0.57510  0.86780  0.19820  Biso   1.000  H
  H1358    1.0000 0.59780  0.88880  0.19590  Biso   1.000  H
  C1812    1.0000 0.57387  0.77992  0.15879  Biso   1.000  C
  H1359    1.0000 0.56430  0.76580  0.15180  Biso   1.000  H
  O303     1.0000 0.52996  0.26428  0.68384  Biso   1.000  O
  O304     1.0000 0.52840  0.29760  0.70990  Biso   1.000  O
  C1813    1.0000 0.53626  0.28725  0.69247  Biso   1.000  C
  C1814    1.0000 0.56396  0.29329  0.68343  Biso   1.000  C
  C1815    1.0000 0.57155  0.31533  0.68921  Biso   1.000  C
  H1360    1.0000 0.55980  0.32780  0.69610  Biso   1.000  H
  C1816    1.0000 0.60095  0.32251  0.68508  Biso   1.000  C
  C1817    1.0000 0.61239  0.34996  0.69486  Biso   1.000  C
  C1818    1.0000 0.63205  0.35030  0.67179  Biso   1.000  C
  C1819    1.0000 0.63296  0.33157  0.65143  Biso   1.000  C
  C1820    1.0000 0.60943  0.31481  0.66146  Biso   1.000  C
  C1821    1.0000 0.60104  0.28944  0.64396  Biso   1.000  C
  H1361    1.0000 0.60950  0.28210  0.62930  Biso   1.000  H
  C1822    1.0000 0.62268  0.34134  0.71811  Biso   1.000  C
  H1362    1.0000 0.60920  0.34170  0.73150  Biso   1.000  H
  H1363    1.0000 0.62910  0.32360  0.71600  Biso   1.000  H
  H1364    1.0000 0.63710  0.35270  0.72330  Biso   1.000  H
  C1823    1.0000 0.59136  0.37215  0.68938  Biso   1.000  C
  H1365    1.0000 0.58830  0.37350  0.67070  Biso   1.000  H
  H1366    1.0000 0.57510  0.36780  0.69820  Biso   1.000  H
  H1367    1.0000 0.59780  0.38880  0.69590  Biso   1.000  H
  C1824    1.0000 0.57387  0.27992  0.65879  Biso   1.000  C
  H1368    1.0000 0.56430  0.26580  0.65180  Biso   1.000  H
  O305     1.0000 0.97004  0.76428  0.31616  Biso   1.000  O
  O306     1.0000 0.97160  0.79760  0.29010  Biso   1.000  O
  C1825    1.0000 0.96374  0.78725  0.30753  Biso   1.000  C
  C1826    1.0000 0.93604  0.79329  0.31657  Biso   1.000  C
  C1827    1.0000 0.92845  0.81533  0.31079  Biso   1.000  C
  H1369    1.0000 0.94020  0.82780  0.30390  Biso   1.000  H
  C1828    1.0000 0.89905  0.82251  0.31492  Biso   1.000  C
  C1829    1.0000 0.88761  0.84996  0.30514  Biso   1.000  C
  C1830    1.0000 0.86795  0.85030  0.32821  Biso   1.000  C
  C1831    1.0000 0.86704  0.83157  0.34857  Biso   1.000  C
  C1832    1.0000 0.89057  0.81481  0.33854  Biso   1.000  C
  C1833    1.0000 0.89896  0.78944  0.35604  Biso   1.000  C
  H1370    1.0000 0.89050  0.78210  0.37070  Biso   1.000  H
  C1834    1.0000 0.87732  0.84134  0.28189  Biso   1.000  C
  H1371    1.0000 0.89080  0.84170  0.26850  Biso   1.000  H
  H1372    1.0000 0.87090  0.82360  0.28400  Biso   1.000  H
  H1373    1.0000 0.86290  0.85270  0.27670  Biso   1.000  H
  C1835    1.0000 0.90864  0.87215  0.31062  Biso   1.000  C
  H1374    1.0000 0.91170  0.87350  0.32930  Biso   1.000  H
  H1375    1.0000 0.92490  0.86780  0.30180  Biso   1.000  H
  H1376    1.0000 0.90220  0.88880  0.30410  Biso   1.000  H
  C1836    1.0000 0.92613  0.77992  0.34121  Biso   1.000  C
  H1377    1.0000 0.93570  0.76580  0.34820  Biso   1.000  H
  O307     1.0000 0.97004  0.26428  0.81616  Biso   1.000  O
  O308     1.0000 0.97160  0.29760  0.79010  Biso   1.000  O
  C1837    1.0000 0.96374  0.28725  0.80753  Biso   1.000  C
  C1838    1.0000 0.93604  0.29329  0.81657  Biso   1.000  C
  C1839    1.0000 0.92845  0.31533  0.81079  Biso   1.000  C
  H1378    1.0000 0.94020  0.32780  0.80390  Biso   1.000  H
  C1840    1.0000 0.89905  0.32251  0.81492  Biso   1.000  C
  C1841    1.0000 0.88761  0.34996  0.80514  Biso   1.000  C
  C1842    1.0000 0.86795  0.35030  0.82821  Biso   1.000  C
  C1843    1.0000 0.86704  0.33157  0.84857  Biso   1.000  C
  C1844    1.0000 0.89057  0.31481  0.83854  Biso   1.000  C
  C1845    1.0000 0.89896  0.28944  0.85604  Biso   1.000  C
  H1379    1.0000 0.89050  0.28210  0.87070  Biso   1.000  H
  C1846    1.0000 0.87732  0.34134  0.78189  Biso   1.000  C
  H1380    1.0000 0.89080  0.34170  0.76850  Biso   1.000  H
  H1381    1.0000 0.87090  0.32360  0.78400  Biso   1.000  H
  H1382    1.0000 0.86290  0.35270  0.77670  Biso   1.000  H
  C1847    1.0000 0.90864  0.37215  0.81062  Biso   1.000  C
  H1383    1.0000 0.91170  0.37350  0.82930  Biso   1.000  H
  H1384    1.0000 0.92490  0.36780  0.80180  Biso   1.000  H
  H1385    1.0000 0.90220  0.38880  0.80410  Biso   1.000  H
  C1848    1.0000 0.92613  0.27992  0.84121  Biso   1.000  C
  H1386    1.0000 0.93570  0.26580  0.84820  Biso   1.000  H
  O309     1.0000 0.47004  0.76428  0.81616  Biso   1.000  O
  O310     1.0000 0.47160  0.79760  0.79010  Biso   1.000  O
  C1849    1.0000 0.46374  0.78725  0.80753  Biso   1.000  C
  C1850    1.0000 0.43604  0.79329  0.81657  Biso   1.000  C
  C1851    1.0000 0.42845  0.81533  0.81079  Biso   1.000  C
  H1387    1.0000 0.44020  0.82780  0.80390  Biso   1.000  H
  C1852    1.0000 0.39905  0.82251  0.81492  Biso   1.000  C
  C1853    1.0000 0.38761  0.84996  0.80514  Biso   1.000  C
  C1854    1.0000 0.36795  0.85030  0.82821  Biso   1.000  C
  C1855    1.0000 0.36704  0.83157  0.84857  Biso   1.000  C
  C1856    1.0000 0.39057  0.81481  0.83854  Biso   1.000  C
  C1857    1.0000 0.39896  0.78944  0.85604  Biso   1.000  C
  H1388    1.0000 0.39050  0.78210  0.87070  Biso   1.000  H
  C1858    1.0000 0.37732  0.84134  0.78189  Biso   1.000  C
  H1389    1.0000 0.39080  0.84170  0.76850  Biso   1.000  H
  H1390    1.0000 0.37090  0.82360  0.78400  Biso   1.000  H
  H1391    1.0000 0.36290  0.85270  0.77670  Biso   1.000  H
  C1859    1.0000 0.40864  0.87215  0.81062  Biso   1.000  C
  H1392    1.0000 0.41170  0.87350  0.82930  Biso   1.000  H
  H1393    1.0000 0.42490  0.86780  0.80180  Biso   1.000  H
  H1394    1.0000 0.40220  0.88880  0.80410  Biso   1.000  H
  C1860    1.0000 0.42613  0.77992  0.84121  Biso   1.000  C
  H1395    1.0000 0.43570  0.76580  0.84820  Biso   1.000  H
  O311     1.0000 0.47004  0.26428  0.31616  Biso   1.000  O
  O312     1.0000 0.47160  0.29760  0.29010  Biso   1.000  O
  C1861    1.0000 0.46374  0.28725  0.30753  Biso   1.000  C
  C1862    1.0000 0.43604  0.29329  0.31657  Biso   1.000  C
  C1863    1.0000 0.42845  0.31533  0.31079  Biso   1.000  C
  H1396    1.0000 0.44020  0.32780  0.30390  Biso   1.000  H
  C1864    1.0000 0.39905  0.32251  0.31492  Biso   1.000  C
  C1865    1.0000 0.38761  0.34996  0.30514  Biso   1.000  C
  C1866    1.0000 0.36795  0.35030  0.32821  Biso   1.000  C
  C1867    1.0000 0.36704  0.33157  0.34857  Biso   1.000  C
  C1868    1.0000 0.39057  0.31481  0.33854  Biso   1.000  C
  C1869    1.0000 0.39896  0.28944  0.35604  Biso   1.000  C
  H1397    1.0000 0.39050  0.28210  0.37070  Biso   1.000  H
  C1870    1.0000 0.37732  0.34134  0.28189  Biso   1.000  C
  H1398    1.0000 0.39080  0.34170  0.26850  Biso   1.000  H
  H1399    1.0000 0.37090  0.32360  0.28400  Biso   1.000  H
  H1400    1.0000 0.36290  0.35270  0.27670  Biso   1.000  H
  C1871    1.0000 0.40864  0.37215  0.31062  Biso   1.000  C
  H1401    1.0000 0.41170  0.37350  0.32930  Biso   1.000  H
  H1402    1.0000 0.42490  0.36780  0.30180  Biso   1.000  H
  H1403    1.0000 0.40220  0.38880  0.30410  Biso   1.000  H
  C1872    1.0000 0.42613  0.27992  0.34121  Biso   1.000  C
  H1404    1.0000 0.43570  0.26580  0.34820  Biso   1.000  H
  O313     1.0000 0.02996  0.23572  0.31616  Biso   1.000  O
  O314     1.0000 0.02840  0.20240  0.29010  Biso   1.000  O
  C1873    1.0000 0.03626  0.21275  0.30753  Biso   1.000  C
  C1874    1.0000 0.06396  0.20671  0.31657  Biso   1.000  C
  C1875    1.0000 0.07155  0.18467  0.31079  Biso   1.000  C
  H1405    1.0000 0.05980  0.17220  0.30390  Biso   1.000  H
  C1876    1.0000 0.10095  0.17749  0.31492  Biso   1.000  C
  C1877    1.0000 0.11239  0.15004  0.30514  Biso   1.000  C
  C1878    1.0000 0.13205  0.14970  0.32821  Biso   1.000  C
  C1879    1.0000 0.13296  0.16843  0.34857  Biso   1.000  C
  C1880    1.0000 0.10943  0.18519  0.33854  Biso   1.000  C
  C1881    1.0000 0.10104  0.21056  0.35604  Biso   1.000  C
  H1406    1.0000 0.10950  0.21790  0.37070  Biso   1.000  H
  C1882    1.0000 0.12268  0.15866  0.28189  Biso   1.000  C
  H1407    1.0000 0.10920  0.15830  0.26850  Biso   1.000  H
  H1408    1.0000 0.12910  0.17640  0.28400  Biso   1.000  H
  H1409    1.0000 0.13710  0.14730  0.27670  Biso   1.000  H
  C1883    1.0000 0.09136  0.12785  0.31062  Biso   1.000  C
  H1410    1.0000 0.08830  0.12650  0.32930  Biso   1.000  H
  H1411    1.0000 0.07510  0.13220  0.30180  Biso   1.000  H
  H1412    1.0000 0.09780  0.11120  0.30410  Biso   1.000  H
  C1884    1.0000 0.07387  0.22008  0.34121  Biso   1.000  C
  H1413    1.0000 0.06430  0.23420  0.34820  Biso   1.000  H
  O315     1.0000 0.02996  0.73572  0.81616  Biso   1.000  O
  O316     1.0000 0.02840  0.70240  0.79010  Biso   1.000  O
  C1885    1.0000 0.03626  0.71275  0.80753  Biso   1.000  C
  C1886    1.0000 0.06396  0.70671  0.81657  Biso   1.000  C
  C1887    1.0000 0.07155  0.68467  0.81079  Biso   1.000  C
  H1414    1.0000 0.05980  0.67220  0.80390  Biso   1.000  H
  C1888    1.0000 0.10095  0.67749  0.81492  Biso   1.000  C
  C1889    1.0000 0.11239  0.65004  0.80514  Biso   1.000  C
  C1890    1.0000 0.13205  0.64970  0.82821  Biso   1.000  C
  C1891    1.0000 0.13296  0.66843  0.84857  Biso   1.000  C
  C1892    1.0000 0.10943  0.68519  0.83854  Biso   1.000  C
  C1893    1.0000 0.10104  0.71056  0.85604  Biso   1.000  C
  H1415    1.0000 0.10950  0.71790  0.87070  Biso   1.000  H
  C1894    1.0000 0.12268  0.65866  0.78189  Biso   1.000  C
  H1416    1.0000 0.10920  0.65830  0.76850  Biso   1.000  H
  H1417    1.0000 0.12910  0.67640  0.78400  Biso   1.000  H
  H1418    1.0000 0.13710  0.64730  0.77670  Biso   1.000  H
  C1895    1.0000 0.09136  0.62785  0.81062  Biso   1.000  C
  H1419    1.0000 0.08830  0.62650  0.82930  Biso   1.000  H
  H1420    1.0000 0.07510  0.63220  0.80180  Biso   1.000  H
  H1421    1.0000 0.09780  0.61120  0.80410  Biso   1.000  H
  C1896    1.0000 0.07387  0.72008  0.84121  Biso   1.000  C
  H1422    1.0000 0.06430  0.73420  0.84820  Biso   1.000  H
  O317     1.0000 0.52996  0.23572  0.81616  Biso   1.000  O
  O318     1.0000 0.52840  0.20240  0.79010  Biso   1.000  O
  C1897    1.0000 0.53626  0.21275  0.80753  Biso   1.000  C
  C1898    1.0000 0.56396  0.20671  0.81657  Biso   1.000  C
  C1899    1.0000 0.57155  0.18467  0.81079  Biso   1.000  C
  H1423    1.0000 0.55980  0.17220  0.80390  Biso   1.000  H
  C1900    1.0000 0.60095  0.17749  0.81492  Biso   1.000  C
  C1901    1.0000 0.61239  0.15004  0.80514  Biso   1.000  C
  C1902    1.0000 0.63205  0.14970  0.82821  Biso   1.000  C
  C1903    1.0000 0.63296  0.16843  0.84857  Biso   1.000  C
  C1904    1.0000 0.60943  0.18519  0.83854  Biso   1.000  C
  C1905    1.0000 0.60104  0.21056  0.85604  Biso   1.000  C
  H1424    1.0000 0.60950  0.21790  0.87070  Biso   1.000  H
  C1906    1.0000 0.62268  0.15866  0.78189  Biso   1.000  C
  H1425    1.0000 0.60920  0.15830  0.76850  Biso   1.000  H
  H1426    1.0000 0.62910  0.17640  0.78400  Biso   1.000  H
  H1427    1.0000 0.63710  0.14730  0.77670  Biso   1.000  H
  C1907    1.0000 0.59136  0.12785  0.81062  Biso   1.000  C
  H1428    1.0000 0.58830  0.12650  0.82930  Biso   1.000  H
  H1429    1.0000 0.57510  0.13220  0.80180  Biso   1.000  H
  H1430    1.0000 0.59780  0.11120  0.80410  Biso   1.000  H
  C1908    1.0000 0.57387  0.22008  0.84121  Biso   1.000  C
  H1431    1.0000 0.56430  0.23420  0.84820  Biso   1.000  H
  O319     1.0000 0.52996  0.73572  0.31616  Biso   1.000  O
  O320     1.0000 0.52840  0.70240  0.29010  Biso   1.000  O
  C1909    1.0000 0.53626  0.71275  0.30753  Biso   1.000  C
  C1910    1.0000 0.56396  0.70671  0.31657  Biso   1.000  C
  C1911    1.0000 0.57155  0.68467  0.31079  Biso   1.000  C
  H1432    1.0000 0.55980  0.67220  0.30390  Biso   1.000  H
  C1912    1.0000 0.60095  0.67749  0.31492  Biso   1.000  C
  C1913    1.0000 0.61239  0.65004  0.30514  Biso   1.000  C
  C1914    1.0000 0.63205  0.64970  0.32821  Biso   1.000  C
  C1915    1.0000 0.63296  0.66843  0.34857  Biso   1.000  C
  C1916    1.0000 0.60943  0.68519  0.33854  Biso   1.000  C
  C1917    1.0000 0.60104  0.71056  0.35604  Biso   1.000  C
  H1433    1.0000 0.60950  0.71790  0.37070  Biso   1.000  H
  C1918    1.0000 0.62268  0.65866  0.28189  Biso   1.000  C
  H1434    1.0000 0.60920  0.65830  0.26850  Biso   1.000  H
  H1435    1.0000 0.62910  0.67640  0.28400  Biso   1.000  H
  H1436    1.0000 0.63710  0.64730  0.27670  Biso   1.000  H
  C1919    1.0000 0.59136  0.62785  0.31062  Biso   1.000  C
  H1437    1.0000 0.58830  0.62650  0.32930  Biso   1.000  H
  H1438    1.0000 0.57510  0.63220  0.30180  Biso   1.000  H
  H1439    1.0000 0.59780  0.61120  0.30410  Biso   1.000  H
  C1920    1.0000 0.57387  0.72008  0.34121  Biso   1.000  C
  H1440    1.0000 0.56430  0.73420  0.34820  Biso   1.000  H
  O321     1.0000 0.23572  0.31616  0.02996  Biso   1.000  O
  O322     1.0000 0.20240  0.29010  0.02840  Biso   1.000  O
  C1921    1.0000 0.21275  0.30753  0.03626  Biso   1.000  C
  C1922    1.0000 0.20671  0.31657  0.06396  Biso   1.000  C
  C1923    1.0000 0.18467  0.31079  0.07155  Biso   1.000  C
  H1441    1.0000 0.17220  0.30390  0.05980  Biso   1.000  H
  C1924    1.0000 0.17749  0.31492  0.10095  Biso   1.000  C
  C1925    1.0000 0.15004  0.30514  0.11239  Biso   1.000  C
  C1926    1.0000 0.14970  0.32821  0.13205  Biso   1.000  C
  C1927    1.0000 0.16843  0.34857  0.13296  Biso   1.000  C
  C1928    1.0000 0.18519  0.33854  0.10943  Biso   1.000  C
  C1929    1.0000 0.21056  0.35604  0.10104  Biso   1.000  C
  H1442    1.0000 0.21790  0.37070  0.10950  Biso   1.000  H
  C1930    1.0000 0.15866  0.28189  0.12268  Biso   1.000  C
  H1443    1.0000 0.15830  0.26850  0.10920  Biso   1.000  H
  H1444    1.0000 0.17640  0.28400  0.12910  Biso   1.000  H
  H1445    1.0000 0.14730  0.27670  0.13710  Biso   1.000  H
  C1931    1.0000 0.12785  0.31062  0.09136  Biso   1.000  C
  H1446    1.0000 0.12650  0.32930  0.08830  Biso   1.000  H
  H1447    1.0000 0.13220  0.30180  0.07510  Biso   1.000  H
  H1448    1.0000 0.11120  0.30410  0.09780  Biso   1.000  H
  C1932    1.0000 0.22008  0.34121  0.07387  Biso   1.000  C
  H1449    1.0000 0.23420  0.34820  0.06430  Biso   1.000  H
  O323     1.0000 0.23572  0.81616  0.52996  Biso   1.000  O
  O324     1.0000 0.20240  0.79010  0.52840  Biso   1.000  O
  C1933    1.0000 0.21275  0.80753  0.53626  Biso   1.000  C
  C1934    1.0000 0.20671  0.81657  0.56396  Biso   1.000  C
  C1935    1.0000 0.18467  0.81079  0.57155  Biso   1.000  C
  H1450    1.0000 0.17220  0.80390  0.55980  Biso   1.000  H
  C1936    1.0000 0.17749  0.81492  0.60095  Biso   1.000  C
  C1937    1.0000 0.15004  0.80514  0.61239  Biso   1.000  C
  C1938    1.0000 0.14970  0.82821  0.63205  Biso   1.000  C
  C1939    1.0000 0.16843  0.84857  0.63296  Biso   1.000  C
  C1940    1.0000 0.18519  0.83854  0.60943  Biso   1.000  C
  C1941    1.0000 0.21056  0.85604  0.60104  Biso   1.000  C
  H1451    1.0000 0.21790  0.87070  0.60950  Biso   1.000  H
  C1942    1.0000 0.15866  0.78189  0.62268  Biso   1.000  C
  H1452    1.0000 0.15830  0.76850  0.60920  Biso   1.000  H
  H1453    1.0000 0.17640  0.78400  0.62910  Biso   1.000  H
  H1454    1.0000 0.14730  0.77670  0.63710  Biso   1.000  H
  C1943    1.0000 0.12785  0.81062  0.59136  Biso   1.000  C
  H1455    1.0000 0.12650  0.82930  0.58830  Biso   1.000  H
  H1456    1.0000 0.13220  0.80180  0.57510  Biso   1.000  H
  H1457    1.0000 0.11120  0.80410  0.59780  Biso   1.000  H
  C1944    1.0000 0.22008  0.84121  0.57387  Biso   1.000  C
  H1458    1.0000 0.23420  0.84820  0.56430  Biso   1.000  H
  O325     1.0000 0.73572  0.31616  0.52996  Biso   1.000  O
  O326     1.0000 0.70240  0.29010  0.52840  Biso   1.000  O
  C1945    1.0000 0.71275  0.30753  0.53626  Biso   1.000  C
  C1946    1.0000 0.70671  0.31657  0.56396  Biso   1.000  C
  C1947    1.0000 0.68467  0.31079  0.57155  Biso   1.000  C
  H1459    1.0000 0.67220  0.30390  0.55980  Biso   1.000  H
  C1948    1.0000 0.67749  0.31492  0.60095  Biso   1.000  C
  C1949    1.0000 0.65004  0.30514  0.61239  Biso   1.000  C
  C1950    1.0000 0.64970  0.32821  0.63205  Biso   1.000  C
  C1951    1.0000 0.66843  0.34857  0.63296  Biso   1.000  C
  C1952    1.0000 0.68519  0.33854  0.60943  Biso   1.000  C
  C1953    1.0000 0.71056  0.35604  0.60104  Biso   1.000  C
  H1460    1.0000 0.71790  0.37070  0.60950  Biso   1.000  H
  C1954    1.0000 0.65866  0.28189  0.62268  Biso   1.000  C
  H1461    1.0000 0.65830  0.26850  0.60920  Biso   1.000  H
  H1462    1.0000 0.67640  0.28400  0.62910  Biso   1.000  H
  H1463    1.0000 0.64730  0.27670  0.63710  Biso   1.000  H
  C1955    1.0000 0.62785  0.31062  0.59136  Biso   1.000  C
  H1464    1.0000 0.62650  0.32930  0.58830  Biso   1.000  H
  H1465    1.0000 0.63220  0.30180  0.57510  Biso   1.000  H
  H1466    1.0000 0.61120  0.30410  0.59780  Biso   1.000  H
  C1956    1.0000 0.72008  0.34121  0.57387  Biso   1.000  C
  H1467    1.0000 0.73420  0.34820  0.56430  Biso   1.000  H
  O327     1.0000 0.73572  0.81616  0.02996  Biso   1.000  O
  O328     1.0000 0.70240  0.79010  0.02840  Biso   1.000  O
  C1957    1.0000 0.71275  0.80753  0.03626  Biso   1.000  C
  C1958    1.0000 0.70671  0.81657  0.06396  Biso   1.000  C
  C1959    1.0000 0.68467  0.81079  0.07155  Biso   1.000  C
  H1468    1.0000 0.67220  0.80390  0.05980  Biso   1.000  H
  C1960    1.0000 0.67749  0.81492  0.10095  Biso   1.000  C
  C1961    1.0000 0.65004  0.80514  0.11239  Biso   1.000  C
  C1962    1.0000 0.64970  0.82821  0.13205  Biso   1.000  C
  C1963    1.0000 0.66843  0.84857  0.13296  Biso   1.000  C
  C1964    1.0000 0.68519  0.83854  0.10943  Biso   1.000  C
  C1965    1.0000 0.71056  0.85604  0.10104  Biso   1.000  C
  H1469    1.0000 0.71790  0.87070  0.10950  Biso   1.000  H
  C1966    1.0000 0.65866  0.78189  0.12268  Biso   1.000  C
  H1470    1.0000 0.65830  0.76850  0.10920  Biso   1.000  H
  H1471    1.0000 0.67640  0.78400  0.12910  Biso   1.000  H
  H1472    1.0000 0.64730  0.77670  0.13710  Biso   1.000  H
  C1967    1.0000 0.62785  0.81062  0.09136  Biso   1.000  C
  H1473    1.0000 0.62650  0.82930  0.08830  Biso   1.000  H
  H1474    1.0000 0.63220  0.80180  0.07510  Biso   1.000  H
  H1475    1.0000 0.61120  0.80410  0.09780  Biso   1.000  H
  C1968    1.0000 0.72008  0.84121  0.07387  Biso   1.000  C
  H1476    1.0000 0.73420  0.84820  0.06430  Biso   1.000  H
  O329     1.0000 0.76428  0.31616  0.97004  Biso   1.000  O
  O330     1.0000 0.79760  0.29010  0.97160  Biso   1.000  O
  C1969    1.0000 0.78725  0.30753  0.96374  Biso   1.000  C
  C1970    1.0000 0.79329  0.31657  0.93604  Biso   1.000  C
  C1971    1.0000 0.81533  0.31079  0.92845  Biso   1.000  C
  H1477    1.0000 0.82780  0.30390  0.94020  Biso   1.000  H
  C1972    1.0000 0.82251  0.31492  0.89905  Biso   1.000  C
  C1973    1.0000 0.84996  0.30514  0.88761  Biso   1.000  C
  C1974    1.0000 0.85030  0.32821  0.86795  Biso   1.000  C
  C1975    1.0000 0.83157  0.34857  0.86704  Biso   1.000  C
  C1976    1.0000 0.81481  0.33854  0.89057  Biso   1.000  C
  C1977    1.0000 0.78944  0.35604  0.89896  Biso   1.000  C
  H1478    1.0000 0.78210  0.37070  0.89050  Biso   1.000  H
  C1978    1.0000 0.84134  0.28189  0.87732  Biso   1.000  C
  H1479    1.0000 0.84170  0.26850  0.89080  Biso   1.000  H
  H1480    1.0000 0.82360  0.28400  0.87090  Biso   1.000  H
  H1481    1.0000 0.85270  0.27670  0.86290  Biso   1.000  H
  C1979    1.0000 0.87215  0.31062  0.90864  Biso   1.000  C
  H1482    1.0000 0.87350  0.32930  0.91170  Biso   1.000  H
  H1483    1.0000 0.86780  0.30180  0.92490  Biso   1.000  H
  H1484    1.0000 0.88880  0.30410  0.90220  Biso   1.000  H
  C1980    1.0000 0.77992  0.34121  0.92613  Biso   1.000  C
  H1485    1.0000 0.76580  0.34820  0.93570  Biso   1.000  H
  O331     1.0000 0.76428  0.81616  0.47004  Biso   1.000  O
  O332     1.0000 0.79760  0.79010  0.47160  Biso   1.000  O
  C1981    1.0000 0.78725  0.80753  0.46374  Biso   1.000  C
  C1982    1.0000 0.79329  0.81657  0.43604  Biso   1.000  C
  C1983    1.0000 0.81533  0.81079  0.42845  Biso   1.000  C
  H1486    1.0000 0.82780  0.80390  0.44020  Biso   1.000  H
  C1984    1.0000 0.82251  0.81492  0.39905  Biso   1.000  C
  C1985    1.0000 0.84996  0.80514  0.38761  Biso   1.000  C
  C1986    1.0000 0.85030  0.82821  0.36795  Biso   1.000  C
  C1987    1.0000 0.83157  0.84857  0.36704  Biso   1.000  C
  C1988    1.0000 0.81481  0.83854  0.39057  Biso   1.000  C
  C1989    1.0000 0.78944  0.85604  0.39896  Biso   1.000  C
  H1487    1.0000 0.78210  0.87070  0.39050  Biso   1.000  H
  C1990    1.0000 0.84134  0.78189  0.37732  Biso   1.000  C
  H1488    1.0000 0.84170  0.76850  0.39080  Biso   1.000  H
  H1489    1.0000 0.82360  0.78400  0.37090  Biso   1.000  H
  H1490    1.0000 0.85270  0.77670  0.36290  Biso   1.000  H
  C1991    1.0000 0.87215  0.81062  0.40864  Biso   1.000  C
  H1491    1.0000 0.87350  0.82930  0.41170  Biso   1.000  H
  H1492    1.0000 0.86780  0.80180  0.42490  Biso   1.000  H
  H1493    1.0000 0.88880  0.80410  0.40220  Biso   1.000  H
  C1992    1.0000 0.77992  0.84121  0.42613  Biso   1.000  C
  H1494    1.0000 0.76580  0.84820  0.43570  Biso   1.000  H
  O333     1.0000 0.26428  0.31616  0.47004  Biso   1.000  O
  O334     1.0000 0.29760  0.29010  0.47160  Biso   1.000  O
  C1993    1.0000 0.28725  0.30753  0.46374  Biso   1.000  C
  C1994    1.0000 0.29329  0.31657  0.43604  Biso   1.000  C
  C1995    1.0000 0.31533  0.31079  0.42845  Biso   1.000  C
  H1495    1.0000 0.32780  0.30390  0.44020  Biso   1.000  H
  C1996    1.0000 0.32251  0.31492  0.39905  Biso   1.000  C
  C1997    1.0000 0.34996  0.30514  0.38761  Biso   1.000  C
  C1998    1.0000 0.35030  0.32821  0.36795  Biso   1.000  C
  C1999    1.0000 0.33157  0.34857  0.36704  Biso   1.000  C
  C2000    1.0000 0.31481  0.33854  0.39057  Biso   1.000  C
  C2001    1.0000 0.28944  0.35604  0.39896  Biso   1.000  C
  H1496    1.0000 0.28210  0.37070  0.39050  Biso   1.000  H
  C2002    1.0000 0.34134  0.28189  0.37732  Biso   1.000  C
  H1497    1.0000 0.34170  0.26850  0.39080  Biso   1.000  H
  H1498    1.0000 0.32360  0.28400  0.37090  Biso   1.000  H
  H1499    1.0000 0.35270  0.27670  0.36290  Biso   1.000  H
  C2003    1.0000 0.37215  0.31062  0.40864  Biso   1.000  C
  H1500    1.0000 0.37350  0.32930  0.41170  Biso   1.000  H
  H1501    1.0000 0.36780  0.30180  0.42490  Biso   1.000  H
  H1502    1.0000 0.38880  0.30410  0.40220  Biso   1.000  H
  C2004    1.0000 0.27992  0.34121  0.42613  Biso   1.000  C
  H1503    1.0000 0.26580  0.34820  0.43570  Biso   1.000  H
  O335     1.0000 0.26428  0.81616  0.97004  Biso   1.000  O
  O336     1.0000 0.29760  0.79010  0.97160  Biso   1.000  O
  C2005    1.0000 0.28725  0.80753  0.96374  Biso   1.000  C
  C2006    1.0000 0.29329  0.81657  0.93604  Biso   1.000  C
  C2007    1.0000 0.31533  0.81079  0.92845  Biso   1.000  C
  H1504    1.0000 0.32780  0.80390  0.94020  Biso   1.000  H
  C2008    1.0000 0.32251  0.81492  0.89905  Biso   1.000  C
  C2009    1.0000 0.34996  0.80514  0.88761  Biso   1.000  C
  C2010    1.0000 0.35030  0.82821  0.86795  Biso   1.000  C
  C2011    1.0000 0.33157  0.84857  0.86704  Biso   1.000  C
  C2012    1.0000 0.31481  0.83854  0.89057  Biso   1.000  C
  C2013    1.0000 0.28944  0.85604  0.89896  Biso   1.000  C
  H1505    1.0000 0.28210  0.87070  0.89050  Biso   1.000  H
  C2014    1.0000 0.34134  0.78189  0.87732  Biso   1.000  C
  H1506    1.0000 0.34170  0.76850  0.89080  Biso   1.000  H
  H1507    1.0000 0.32360  0.78400  0.87090  Biso   1.000  H
  H1508    1.0000 0.35270  0.77670  0.86290  Biso   1.000  H
  C2015    1.0000 0.37215  0.81062  0.90864  Biso   1.000  C
  H1509    1.0000 0.37350  0.82930  0.91170  Biso   1.000  H
  H1510    1.0000 0.36780  0.80180  0.92490  Biso   1.000  H
  H1511    1.0000 0.38880  0.80410  0.90220  Biso   1.000  H
  C2016    1.0000 0.27992  0.84121  0.92613  Biso   1.000  C
  H1512    1.0000 0.26580  0.84820  0.93570  Biso   1.000  H
  O337     1.0000 0.76428  0.68384  0.02996  Biso   1.000  O
  O338     1.0000 0.79760  0.70990  0.02840  Biso   1.000  O
  C2017    1.0000 0.78725  0.69247  0.03626  Biso   1.000  C
  C2018    1.0000 0.79329  0.68343  0.06396  Biso   1.000  C
  C2019    1.0000 0.81533  0.68921  0.07155  Biso   1.000  C
  H1513    1.0000 0.82780  0.69610  0.05980  Biso   1.000  H
  C2020    1.0000 0.82251  0.68508  0.10095  Biso   1.000  C
  C2021    1.0000 0.84996  0.69486  0.11239  Biso   1.000  C
  C2022    1.0000 0.85030  0.67179  0.13205  Biso   1.000  C
  C2023    1.0000 0.83157  0.65143  0.13296  Biso   1.000  C
  C2024    1.0000 0.81481  0.66146  0.10943  Biso   1.000  C
  C2025    1.0000 0.78944  0.64396  0.10104  Biso   1.000  C
  H1514    1.0000 0.78210  0.62930  0.10950  Biso   1.000  H
  C2026    1.0000 0.84134  0.71811  0.12268  Biso   1.000  C
  H1515    1.0000 0.84170  0.73150  0.10920  Biso   1.000  H
  H1516    1.0000 0.82360  0.71600  0.12910  Biso   1.000  H
  H1517    1.0000 0.85270  0.72330  0.13710  Biso   1.000  H
  C2027    1.0000 0.87215  0.68938  0.09136  Biso   1.000  C
  H1518    1.0000 0.87350  0.67070  0.08830  Biso   1.000  H
  H1519    1.0000 0.86780  0.69820  0.07510  Biso   1.000  H
  H1520    1.0000 0.88880  0.69590  0.09780  Biso   1.000  H
  C2028    1.0000 0.77992  0.65879  0.07387  Biso   1.000  C
  H1521    1.0000 0.76580  0.65180  0.06430  Biso   1.000  H
  O339     1.0000 0.76428  0.18384  0.52996  Biso   1.000  O
  O340     1.0000 0.79760  0.20990  0.52840  Biso   1.000  O
  C2029    1.0000 0.78725  0.19247  0.53626  Biso   1.000  C
  C2030    1.0000 0.79329  0.18343  0.56396  Biso   1.000  C
  C2031    1.0000 0.81533  0.18921  0.57155  Biso   1.000  C
  H1522    1.0000 0.82780  0.19610  0.55980  Biso   1.000  H
  C2032    1.0000 0.82251  0.18508  0.60095  Biso   1.000  C
  C2033    1.0000 0.84996  0.19486  0.61239  Biso   1.000  C
  C2034    1.0000 0.85030  0.17179  0.63205  Biso   1.000  C
  C2035    1.0000 0.83157  0.15143  0.63296  Biso   1.000  C
  C2036    1.0000 0.81481  0.16146  0.60943  Biso   1.000  C
  C2037    1.0000 0.78944  0.14396  0.60104  Biso   1.000  C
  H1523    1.0000 0.78210  0.12930  0.60950  Biso   1.000  H
  C2038    1.0000 0.84134  0.21811  0.62268  Biso   1.000  C
  H1524    1.0000 0.84170  0.23150  0.60920  Biso   1.000  H
  H1525    1.0000 0.82360  0.21600  0.62910  Biso   1.000  H
  H1526    1.0000 0.85270  0.22330  0.63710  Biso   1.000  H
  C2039    1.0000 0.87215  0.18938  0.59136  Biso   1.000  C
  H1527    1.0000 0.87350  0.17070  0.58830  Biso   1.000  H
  H1528    1.0000 0.86780  0.19820  0.57510  Biso   1.000  H
  H1529    1.0000 0.88880  0.19590  0.59780  Biso   1.000  H
  C2040    1.0000 0.77992  0.15879  0.57387  Biso   1.000  C
  H1530    1.0000 0.76580  0.15180  0.56430  Biso   1.000  H
  O341     1.0000 0.26428  0.68384  0.52996  Biso   1.000  O
  O342     1.0000 0.29760  0.70990  0.52840  Biso   1.000  O
  C2041    1.0000 0.28725  0.69247  0.53626  Biso   1.000  C
  C2042    1.0000 0.29329  0.68343  0.56396  Biso   1.000  C
  C2043    1.0000 0.31533  0.68921  0.57155  Biso   1.000  C
  H1531    1.0000 0.32780  0.69610  0.55980  Biso   1.000  H
  C2044    1.0000 0.32251  0.68508  0.60095  Biso   1.000  C
  C2045    1.0000 0.34996  0.69486  0.61239  Biso   1.000  C
  C2046    1.0000 0.35030  0.67179  0.63205  Biso   1.000  C
  C2047    1.0000 0.33157  0.65143  0.63296  Biso   1.000  C
  C2048    1.0000 0.31481  0.66146  0.60943  Biso   1.000  C
  C2049    1.0000 0.28944  0.64396  0.60104  Biso   1.000  C
  H1532    1.0000 0.28210  0.62930  0.60950  Biso   1.000  H
  C2050    1.0000 0.34134  0.71811  0.62268  Biso   1.000  C
  H1533    1.0000 0.34170  0.73150  0.60920  Biso   1.000  H
  H1534    1.0000 0.32360  0.71600  0.62910  Biso   1.000  H
  H1535    1.0000 0.35270  0.72330  0.63710  Biso   1.000  H
  C2051    1.0000 0.37215  0.68938  0.59136  Biso   1.000  C
  H1536    1.0000 0.37350  0.67070  0.58830  Biso   1.000  H
  H1537    1.0000 0.36780  0.69820  0.57510  Biso   1.000  H
  H1538    1.0000 0.38880  0.69590  0.59780  Biso   1.000  H
  C2052    1.0000 0.27992  0.65879  0.57387  Biso   1.000  C
  H1539    1.0000 0.26580  0.65180  0.56430  Biso   1.000  H
  O343     1.0000 0.26428  0.18384  0.02996  Biso   1.000  O
  O344     1.0000 0.29760  0.20990  0.02840  Biso   1.000  O
  C2053    1.0000 0.28725  0.19247  0.03626  Biso   1.000  C
  C2054    1.0000 0.29329  0.18343  0.06396  Biso   1.000  C
  C2055    1.0000 0.31533  0.18921  0.07155  Biso   1.000  C
  H1540    1.0000 0.32780  0.19610  0.05980  Biso   1.000  H
  C2056    1.0000 0.32251  0.18508  0.10095  Biso   1.000  C
  C2057    1.0000 0.34996  0.19486  0.11239  Biso   1.000  C
  C2058    1.0000 0.35030  0.17179  0.13205  Biso   1.000  C
  C2059    1.0000 0.33157  0.15143  0.13296  Biso   1.000  C
  C2060    1.0000 0.31481  0.16146  0.10943  Biso   1.000  C
  C2061    1.0000 0.28944  0.14396  0.10104  Biso   1.000  C
  H1541    1.0000 0.28210  0.12930  0.10950  Biso   1.000  H
  C2062    1.0000 0.34134  0.21811  0.12268  Biso   1.000  C
  H1542    1.0000 0.34170  0.23150  0.10920  Biso   1.000  H
  H1543    1.0000 0.32360  0.21600  0.12910  Biso   1.000  H
  H1544    1.0000 0.35270  0.22330  0.13710  Biso   1.000  H
  C2063    1.0000 0.37215  0.18938  0.09136  Biso   1.000  C
  H1545    1.0000 0.37350  0.17070  0.08830  Biso   1.000  H
  H1546    1.0000 0.36780  0.19820  0.07510  Biso   1.000  H
  H1547    1.0000 0.38880  0.19590  0.09780  Biso   1.000  H
  C2064    1.0000 0.27992  0.15879  0.07387  Biso   1.000  C
  H1548    1.0000 0.26580  0.15180  0.06430  Biso   1.000  H
  O345     1.0000 0.23572  0.68384  0.97004  Biso   1.000  O
  O346     1.0000 0.20240  0.70990  0.97160  Biso   1.000  O
  C2065    1.0000 0.21275  0.69247  0.96374  Biso   1.000  C
  C2066    1.0000 0.20671  0.68343  0.93604  Biso   1.000  C
  C2067    1.0000 0.18467  0.68921  0.92845  Biso   1.000  C
  H1549    1.0000 0.17220  0.69610  0.94020  Biso   1.000  H
  C2068    1.0000 0.17749  0.68508  0.89905  Biso   1.000  C
  C2069    1.0000 0.15004  0.69486  0.88761  Biso   1.000  C
  C2070    1.0000 0.14970  0.67179  0.86795  Biso   1.000  C
  C2071    1.0000 0.16843  0.65143  0.86704  Biso   1.000  C
  C2072    1.0000 0.18519  0.66146  0.89057  Biso   1.000  C
  C2073    1.0000 0.21056  0.64396  0.89896  Biso   1.000  C
  H1550    1.0000 0.21790  0.62930  0.89050  Biso   1.000  H
  C2074    1.0000 0.15866  0.71811  0.87732  Biso   1.000  C
  H1551    1.0000 0.15830  0.73150  0.89080  Biso   1.000  H
  H1552    1.0000 0.17640  0.71600  0.87090  Biso   1.000  H
  H1553    1.0000 0.14730  0.72330  0.86290  Biso   1.000  H
  C2075    1.0000 0.12785  0.68938  0.90864  Biso   1.000  C
  H1554    1.0000 0.12650  0.67070  0.91170  Biso   1.000  H
  H1555    1.0000 0.13220  0.69820  0.92490  Biso   1.000  H
  H1556    1.0000 0.11120  0.69590  0.90220  Biso   1.000  H
  C2076    1.0000 0.22008  0.65879  0.92613  Biso   1.000  C
  H1557    1.0000 0.23420  0.65180  0.93570  Biso   1.000  H
  O347     1.0000 0.23572  0.18384  0.47004  Biso   1.000  O
  O348     1.0000 0.20240  0.20990  0.47160  Biso   1.000  O
  C2077    1.0000 0.21275  0.19247  0.46374  Biso   1.000  C
  C2078    1.0000 0.20671  0.18343  0.43604  Biso   1.000  C
  C2079    1.0000 0.18467  0.18921  0.42845  Biso   1.000  C
  H1558    1.0000 0.17220  0.19610  0.44020  Biso   1.000  H
  C2080    1.0000 0.17749  0.18508  0.39905  Biso   1.000  C
  C2081    1.0000 0.15004  0.19486  0.38761  Biso   1.000  C
  C2082    1.0000 0.14970  0.17179  0.36795  Biso   1.000  C
  C2083    1.0000 0.16843  0.15143  0.36704  Biso   1.000  C
  C2084    1.0000 0.18519  0.16146  0.39057  Biso   1.000  C
  C2085    1.0000 0.21056  0.14396  0.39896  Biso   1.000  C
  H1559    1.0000 0.21790  0.12930  0.39050  Biso   1.000  H
  C2086    1.0000 0.15866  0.21811  0.37732  Biso   1.000  C
  H1560    1.0000 0.15830  0.23150  0.39080  Biso   1.000  H
  H1561    1.0000 0.17640  0.21600  0.37090  Biso   1.000  H
  H1562    1.0000 0.14730  0.22330  0.36290  Biso   1.000  H
  C2087    1.0000 0.12785  0.18938  0.40864  Biso   1.000  C
  H1563    1.0000 0.12650  0.17070  0.41170  Biso   1.000  H
  H1564    1.0000 0.13220  0.19820  0.42490  Biso   1.000  H
  H1565    1.0000 0.11120  0.19590  0.40220  Biso   1.000  H
  C2088    1.0000 0.22008  0.15879  0.42613  Biso   1.000  C
  H1566    1.0000 0.23420  0.15180  0.43570  Biso   1.000  H
  O349     1.0000 0.73572  0.68384  0.47004  Biso   1.000  O
  O350     1.0000 0.70240  0.70990  0.47160  Biso   1.000  O
  C2089    1.0000 0.71275  0.69247  0.46374  Biso   1.000  C
  C2090    1.0000 0.70671  0.68343  0.43604  Biso   1.000  C
  C2091    1.0000 0.68467  0.68921  0.42845  Biso   1.000  C
  H1567    1.0000 0.67220  0.69610  0.44020  Biso   1.000  H
  C2092    1.0000 0.67749  0.68508  0.39905  Biso   1.000  C
  C2093    1.0000 0.65004  0.69486  0.38761  Biso   1.000  C
  C2094    1.0000 0.64970  0.67179  0.36795  Biso   1.000  C
  C2095    1.0000 0.66843  0.65143  0.36704  Biso   1.000  C
  C2096    1.0000 0.68519  0.66146  0.39057  Biso   1.000  C
  C2097    1.0000 0.71056  0.64396  0.39896  Biso   1.000  C
  H1568    1.0000 0.71790  0.62930  0.39050  Biso   1.000  H
  C2098    1.0000 0.65866  0.71811  0.37732  Biso   1.000  C
  H1569    1.0000 0.65830  0.73150  0.39080  Biso   1.000  H
  H1570    1.0000 0.67640  0.71600  0.37090  Biso   1.000  H
  H1571    1.0000 0.64730  0.72330  0.36290  Biso   1.000  H
  C2099    1.0000 0.62785  0.68938  0.40864  Biso   1.000  C
  H1572    1.0000 0.62650  0.67070  0.41170  Biso   1.000  H
  H1573    1.0000 0.63220  0.69820  0.42490  Biso   1.000  H
  H1574    1.0000 0.61120  0.69590  0.40220  Biso   1.000  H
  C2100    1.0000 0.72008  0.65879  0.42613  Biso   1.000  C
  H1575    1.0000 0.73420  0.65180  0.43570  Biso   1.000  H
  O351     1.0000 0.73572  0.18384  0.97004  Biso   1.000  O
  O352     1.0000 0.70240  0.20990  0.97160  Biso   1.000  O
  C2101    1.0000 0.71275  0.19247  0.96374  Biso   1.000  C
  C2102    1.0000 0.70671  0.18343  0.93604  Biso   1.000  C
  C2103    1.0000 0.68467  0.18921  0.92845  Biso   1.000  C
  H1576    1.0000 0.67220  0.19610  0.94020  Biso   1.000  H
  C2104    1.0000 0.67749  0.18508  0.89905  Biso   1.000  C
  C2105    1.0000 0.65004  0.19486  0.88761  Biso   1.000  C
  C2106    1.0000 0.64970  0.17179  0.86795  Biso   1.000  C
  C2107    1.0000 0.66843  0.15143  0.86704  Biso   1.000  C
  C2108    1.0000 0.68519  0.16146  0.89057  Biso   1.000  C
  C2109    1.0000 0.71056  0.14396  0.89896  Biso   1.000  C
  H1577    1.0000 0.71790  0.12930  0.89050  Biso   1.000  H
  C2110    1.0000 0.65866  0.21811  0.87732  Biso   1.000  C
  H1578    1.0000 0.65830  0.23150  0.89080  Biso   1.000  H
  H1579    1.0000 0.67640  0.21600  0.87090  Biso   1.000  H
  H1580    1.0000 0.64730  0.22330  0.86290  Biso   1.000  H
  C2111    1.0000 0.62785  0.18938  0.90864  Biso   1.000  C
  H1581    1.0000 0.62650  0.17070  0.91170  Biso   1.000  H
  H1582    1.0000 0.63220  0.19820  0.92490  Biso   1.000  H
  H1583    1.0000 0.61120  0.19590  0.90220  Biso   1.000  H
  C2112    1.0000 0.72008  0.15879  0.92613  Biso   1.000  C
  H1584    1.0000 0.73420  0.15180  0.93570  Biso   1.000  H
  O353     1.0000 0.31616  0.97004  0.76428  Biso   1.000  O
  O354     1.0000 0.29010  0.97160  0.79760  Biso   1.000  O
  C2113    1.0000 0.30753  0.96374  0.78725  Biso   1.000  C
  C2114    1.0000 0.31657  0.93604  0.79329  Biso   1.000  C
  C2115    1.0000 0.31079  0.92845  0.81533  Biso   1.000  C
  H1585    1.0000 0.30390  0.94020  0.82780  Biso   1.000  H
  C2116    1.0000 0.31492  0.89905  0.82251  Biso   1.000  C
  C2117    1.0000 0.30514  0.88761  0.84996  Biso   1.000  C
  C2118    1.0000 0.32821  0.86795  0.85030  Biso   1.000  C
  C2119    1.0000 0.34857  0.86704  0.83157  Biso   1.000  C
  C2120    1.0000 0.33854  0.89057  0.81481  Biso   1.000  C
  C2121    1.0000 0.35604  0.89896  0.78944  Biso   1.000  C
  H1586    1.0000 0.37070  0.89050  0.78210  Biso   1.000  H
  C2122    1.0000 0.28189  0.87732  0.84134  Biso   1.000  C
  H1587    1.0000 0.26850  0.89080  0.84170  Biso   1.000  H
  H1588    1.0000 0.28400  0.87090  0.82360  Biso   1.000  H
  H1589    1.0000 0.27670  0.86290  0.85270  Biso   1.000  H
  C2123    1.0000 0.31062  0.90864  0.87215  Biso   1.000  C
  H1590    1.0000 0.32930  0.91170  0.87350  Biso   1.000  H
  H1591    1.0000 0.30180  0.92490  0.86780  Biso   1.000  H
  H1592    1.0000 0.30410  0.90220  0.88880  Biso   1.000  H
  C2124    1.0000 0.34121  0.92613  0.77992  Biso   1.000  C
  H1593    1.0000 0.34820  0.93570  0.76580  Biso   1.000  H
  O355     1.0000 0.31616  0.47004  0.26428  Biso   1.000  O
  O356     1.0000 0.29010  0.47160  0.29760  Biso   1.000  O
  C2125    1.0000 0.30753  0.46374  0.28725  Biso   1.000  C
  C2126    1.0000 0.31657  0.43604  0.29329  Biso   1.000  C
  C2127    1.0000 0.31079  0.42845  0.31533  Biso   1.000  C
  H1594    1.0000 0.30390  0.44020  0.32780  Biso   1.000  H
  C2128    1.0000 0.31492  0.39905  0.32251  Biso   1.000  C
  C2129    1.0000 0.30514  0.38761  0.34996  Biso   1.000  C
  C2130    1.0000 0.32821  0.36795  0.35030  Biso   1.000  C
  C2131    1.0000 0.34857  0.36704  0.33157  Biso   1.000  C
  C2132    1.0000 0.33854  0.39057  0.31481  Biso   1.000  C
  C2133    1.0000 0.35604  0.39896  0.28944  Biso   1.000  C
  H1595    1.0000 0.37070  0.39050  0.28210  Biso   1.000  H
  C2134    1.0000 0.28189  0.37732  0.34134  Biso   1.000  C
  H1596    1.0000 0.26850  0.39080  0.34170  Biso   1.000  H
  H1597    1.0000 0.28400  0.37090  0.32360  Biso   1.000  H
  H1598    1.0000 0.27670  0.36290  0.35270  Biso   1.000  H
  C2135    1.0000 0.31062  0.40864  0.37215  Biso   1.000  C
  H1599    1.0000 0.32930  0.41170  0.37350  Biso   1.000  H
  H1600    1.0000 0.30180  0.42490  0.36780  Biso   1.000  H
  H1601    1.0000 0.30410  0.40220  0.38880  Biso   1.000  H
  C2136    1.0000 0.34121  0.42613  0.27992  Biso   1.000  C
  H1602    1.0000 0.34820  0.43570  0.26580  Biso   1.000  H
  O357     1.0000 0.81616  0.97004  0.26428  Biso   1.000  O
  O358     1.0000 0.79010  0.97160  0.29760  Biso   1.000  O
  C2137    1.0000 0.80753  0.96374  0.28725  Biso   1.000  C
  C2138    1.0000 0.81657  0.93604  0.29329  Biso   1.000  C
  C2139    1.0000 0.81079  0.92845  0.31533  Biso   1.000  C
  H1603    1.0000 0.80390  0.94020  0.32780  Biso   1.000  H
  C2140    1.0000 0.81492  0.89905  0.32251  Biso   1.000  C
  C2141    1.0000 0.80514  0.88761  0.34996  Biso   1.000  C
  C2142    1.0000 0.82821  0.86795  0.35030  Biso   1.000  C
  C2143    1.0000 0.84857  0.86704  0.33157  Biso   1.000  C
  C2144    1.0000 0.83854  0.89057  0.31481  Biso   1.000  C
  C2145    1.0000 0.85604  0.89896  0.28944  Biso   1.000  C
  H1604    1.0000 0.87070  0.89050  0.28210  Biso   1.000  H
  C2146    1.0000 0.78189  0.87732  0.34134  Biso   1.000  C
  H1605    1.0000 0.76850  0.89080  0.34170  Biso   1.000  H
  H1606    1.0000 0.78400  0.87090  0.32360  Biso   1.000  H
  H1607    1.0000 0.77670  0.86290  0.35270  Biso   1.000  H
  C2147    1.0000 0.81062  0.90864  0.37215  Biso   1.000  C
  H1608    1.0000 0.82930  0.91170  0.37350  Biso   1.000  H
  H1609    1.0000 0.80180  0.92490  0.36780  Biso   1.000  H
  H1610    1.0000 0.80410  0.90220  0.38880  Biso   1.000  H
  C2148    1.0000 0.84121  0.92613  0.27992  Biso   1.000  C
  H1611    1.0000 0.84820  0.93570  0.26580  Biso   1.000  H
  O359     1.0000 0.81616  0.47004  0.76428  Biso   1.000  O
  O360     1.0000 0.79010  0.47160  0.79760  Biso   1.000  O
  C2149    1.0000 0.80753  0.46374  0.78725  Biso   1.000  C
  C2150    1.0000 0.81657  0.43604  0.79329  Biso   1.000  C
  C2151    1.0000 0.81079  0.42845  0.81533  Biso   1.000  C
  H1612    1.0000 0.80390  0.44020  0.82780  Biso   1.000  H
  C2152    1.0000 0.81492  0.39905  0.82251  Biso   1.000  C
  C2153    1.0000 0.80514  0.38761  0.84996  Biso   1.000  C
  C2154    1.0000 0.82821  0.36795  0.85030  Biso   1.000  C
  C2155    1.0000 0.84857  0.36704  0.83157  Biso   1.000  C
  C2156    1.0000 0.83854  0.39057  0.81481  Biso   1.000  C
  C2157    1.0000 0.85604  0.39896  0.78944  Biso   1.000  C
  H1613    1.0000 0.87070  0.39050  0.78210  Biso   1.000  H
  C2158    1.0000 0.78189  0.37732  0.84134  Biso   1.000  C
  H1614    1.0000 0.76850  0.39080  0.84170  Biso   1.000  H
  H1615    1.0000 0.78400  0.37090  0.82360  Biso   1.000  H
  H1616    1.0000 0.77670  0.36290  0.85270  Biso   1.000  H
  C2159    1.0000 0.81062  0.40864  0.87215  Biso   1.000  C
  H1617    1.0000 0.82930  0.41170  0.87350  Biso   1.000  H
  H1618    1.0000 0.80180  0.42490  0.86780  Biso   1.000  H
  H1619    1.0000 0.80410  0.40220  0.88880  Biso   1.000  H
  C2160    1.0000 0.84121  0.42613  0.77992  Biso   1.000  C
  H1620    1.0000 0.84820  0.43570  0.76580  Biso   1.000  H
  O361     1.0000 0.31616  0.02996  0.23572  Biso   1.000  O
  O362     1.0000 0.29010  0.02840  0.20240  Biso   1.000  O
  C2161    1.0000 0.30753  0.03626  0.21275  Biso   1.000  C
  C2162    1.0000 0.31657  0.06396  0.20671  Biso   1.000  C
  C2163    1.0000 0.31079  0.07155  0.18467  Biso   1.000  C
  H1621    1.0000 0.30390  0.05980  0.17220  Biso   1.000  H
  C2164    1.0000 0.31492  0.10095  0.17749  Biso   1.000  C
  C2165    1.0000 0.30514  0.11239  0.15004  Biso   1.000  C
  C2166    1.0000 0.32821  0.13205  0.14970  Biso   1.000  C
  C2167    1.0000 0.34857  0.13296  0.16843  Biso   1.000  C
  C2168    1.0000 0.33854  0.10943  0.18519  Biso   1.000  C
  C2169    1.0000 0.35604  0.10104  0.21056  Biso   1.000  C
  H1622    1.0000 0.37070  0.10950  0.21790  Biso   1.000  H
  C2170    1.0000 0.28189  0.12268  0.15866  Biso   1.000  C
  H1623    1.0000 0.26850  0.10920  0.15830  Biso   1.000  H
  H1624    1.0000 0.28400  0.12910  0.17640  Biso   1.000  H
  H1625    1.0000 0.27670  0.13710  0.14730  Biso   1.000  H
  C2171    1.0000 0.31062  0.09136  0.12785  Biso   1.000  C
  H1626    1.0000 0.32930  0.08830  0.12650  Biso   1.000  H
  H1627    1.0000 0.30180  0.07510  0.13220  Biso   1.000  H
  H1628    1.0000 0.30410  0.09780  0.11120  Biso   1.000  H
  C2172    1.0000 0.34121  0.07387  0.22008  Biso   1.000  C
  H1629    1.0000 0.34820  0.06430  0.23420  Biso   1.000  H
  O363     1.0000 0.31616  0.52996  0.73572  Biso   1.000  O
  O364     1.0000 0.29010  0.52840  0.70240  Biso   1.000  O
  C2173    1.0000 0.30753  0.53626  0.71275  Biso   1.000  C
  C2174    1.0000 0.31657  0.56396  0.70671  Biso   1.000  C
  C2175    1.0000 0.31079  0.57155  0.68467  Biso   1.000  C
  H1630    1.0000 0.30390  0.55980  0.67220  Biso   1.000  H
  C2176    1.0000 0.31492  0.60095  0.67749  Biso   1.000  C
  C2177    1.0000 0.30514  0.61239  0.65004  Biso   1.000  C
  C2178    1.0000 0.32821  0.63205  0.64970  Biso   1.000  C
  C2179    1.0000 0.34857  0.63296  0.66843  Biso   1.000  C
  C2180    1.0000 0.33854  0.60943  0.68519  Biso   1.000  C
  C2181    1.0000 0.35604  0.60104  0.71056  Biso   1.000  C
  H1631    1.0000 0.37070  0.60950  0.71790  Biso   1.000  H
  C2182    1.0000 0.28189  0.62268  0.65866  Biso   1.000  C
  H1632    1.0000 0.26850  0.60920  0.65830  Biso   1.000  H
  H1633    1.0000 0.28400  0.62910  0.67640  Biso   1.000  H
  H1634    1.0000 0.27670  0.63710  0.64730  Biso   1.000  H
  C2183    1.0000 0.31062  0.59136  0.62785  Biso   1.000  C
  H1635    1.0000 0.32930  0.58830  0.62650  Biso   1.000  H
  H1636    1.0000 0.30180  0.57510  0.63220  Biso   1.000  H
  H1637    1.0000 0.30410  0.59780  0.61120  Biso   1.000  H
  C2184    1.0000 0.34121  0.57387  0.72008  Biso   1.000  C
  H1638    1.0000 0.34820  0.56430  0.73420  Biso   1.000  H
  O365     1.0000 0.81616  0.02996  0.73572  Biso   1.000  O
  O366     1.0000 0.79010  0.02840  0.70240  Biso   1.000  O
  C2185    1.0000 0.80753  0.03626  0.71275  Biso   1.000  C
  C2186    1.0000 0.81657  0.06396  0.70671  Biso   1.000  C
  C2187    1.0000 0.81079  0.07155  0.68467  Biso   1.000  C
  H1639    1.0000 0.80390  0.05980  0.67220  Biso   1.000  H
  C2188    1.0000 0.81492  0.10095  0.67749  Biso   1.000  C
  C2189    1.0000 0.80514  0.11239  0.65004  Biso   1.000  C
  C2190    1.0000 0.82821  0.13205  0.64970  Biso   1.000  C
  C2191    1.0000 0.84857  0.13296  0.66843  Biso   1.000  C
  C2192    1.0000 0.83854  0.10943  0.68519  Biso   1.000  C
  C2193    1.0000 0.85604  0.10104  0.71056  Biso   1.000  C
  H1640    1.0000 0.87070  0.10950  0.71790  Biso   1.000  H
  C2194    1.0000 0.78189  0.12268  0.65866  Biso   1.000  C
  H1641    1.0000 0.76850  0.10920  0.65830  Biso   1.000  H
  H1642    1.0000 0.78400  0.12910  0.67640  Biso   1.000  H
  H1643    1.0000 0.77670  0.13710  0.64730  Biso   1.000  H
  C2195    1.0000 0.81062  0.09136  0.62785  Biso   1.000  C
  H1644    1.0000 0.82930  0.08830  0.62650  Biso   1.000  H
  H1645    1.0000 0.80180  0.07510  0.63220  Biso   1.000  H
  H1646    1.0000 0.80410  0.09780  0.61120  Biso   1.000  H
  C2196    1.0000 0.84121  0.07387  0.72008  Biso   1.000  C
  H1647    1.0000 0.84820  0.06430  0.73420  Biso   1.000  H
  O367     1.0000 0.81616  0.52996  0.23572  Biso   1.000  O
  O368     1.0000 0.79010  0.52840  0.20240  Biso   1.000  O
  C2197    1.0000 0.80753  0.53626  0.21275  Biso   1.000  C
  C2198    1.0000 0.81657  0.56396  0.20671  Biso   1.000  C
  C2199    1.0000 0.81079  0.57155  0.18467  Biso   1.000  C
  H1648    1.0000 0.80390  0.55980  0.17220  Biso   1.000  H
  C2200    1.0000 0.81492  0.60095  0.17749  Biso   1.000  C
  C2201    1.0000 0.80514  0.61239  0.15004  Biso   1.000  C
  C2202    1.0000 0.82821  0.63205  0.14970  Biso   1.000  C
  C2203    1.0000 0.84857  0.63296  0.16843  Biso   1.000  C
  C2204    1.0000 0.83854  0.60943  0.18519  Biso   1.000  C
  C2205    1.0000 0.85604  0.60104  0.21056  Biso   1.000  C
  H1649    1.0000 0.87070  0.60950  0.21790  Biso   1.000  H
  C2206    1.0000 0.78189  0.62268  0.15866  Biso   1.000  C
  H1650    1.0000 0.76850  0.60920  0.15830  Biso   1.000  H
  H1651    1.0000 0.78400  0.62910  0.17640  Biso   1.000  H
  H1652    1.0000 0.77670  0.63710  0.14730  Biso   1.000  H
  C2207    1.0000 0.81062  0.59136  0.12785  Biso   1.000  C
  H1653    1.0000 0.82930  0.58830  0.12650  Biso   1.000  H
  H1654    1.0000 0.80180  0.57510  0.13220  Biso   1.000  H
  H1655    1.0000 0.80410  0.59780  0.11120  Biso   1.000  H
  C2208    1.0000 0.84121  0.57387  0.22008  Biso   1.000  C
  H1656    1.0000 0.84820  0.56430  0.23420  Biso   1.000  H
  O369     1.0000 0.68384  0.97004  0.23572  Biso   1.000  O
  O370     1.0000 0.70990  0.97160  0.20240  Biso   1.000  O
  C2209    1.0000 0.69247  0.96374  0.21275  Biso   1.000  C
  C2210    1.0000 0.68343  0.93604  0.20671  Biso   1.000  C
  C2211    1.0000 0.68921  0.92845  0.18467  Biso   1.000  C
  H1657    1.0000 0.69610  0.94020  0.17220  Biso   1.000  H
  C2212    1.0000 0.68508  0.89905  0.17749  Biso   1.000  C
  C2213    1.0000 0.69486  0.88761  0.15004  Biso   1.000  C
  C2214    1.0000 0.67179  0.86795  0.14970  Biso   1.000  C
  C2215    1.0000 0.65143  0.86704  0.16843  Biso   1.000  C
  C2216    1.0000 0.66146  0.89057  0.18519  Biso   1.000  C
  C2217    1.0000 0.64396  0.89896  0.21056  Biso   1.000  C
  H1658    1.0000 0.62930  0.89050  0.21790  Biso   1.000  H
  C2218    1.0000 0.71811  0.87732  0.15866  Biso   1.000  C
  H1659    1.0000 0.73150  0.89080  0.15830  Biso   1.000  H
  H1660    1.0000 0.71600  0.87090  0.17640  Biso   1.000  H
  H1661    1.0000 0.72330  0.86290  0.14730  Biso   1.000  H
  C2219    1.0000 0.68938  0.90864  0.12785  Biso   1.000  C
  H1662    1.0000 0.67070  0.91170  0.12650  Biso   1.000  H
  H1663    1.0000 0.69820  0.92490  0.13220  Biso   1.000  H
  H1664    1.0000 0.69590  0.90220  0.11120  Biso   1.000  H
  C2220    1.0000 0.65879  0.92613  0.22008  Biso   1.000  C
  H1665    1.0000 0.65180  0.93570  0.23420  Biso   1.000  H
  O371     1.0000 0.68384  0.47004  0.73572  Biso   1.000  O
  O372     1.0000 0.70990  0.47160  0.70240  Biso   1.000  O
  C2221    1.0000 0.69247  0.46374  0.71275  Biso   1.000  C
  C2222    1.0000 0.68343  0.43604  0.70671  Biso   1.000  C
  C2223    1.0000 0.68921  0.42845  0.68467  Biso   1.000  C
  H1666    1.0000 0.69610  0.44020  0.67220  Biso   1.000  H
  C2224    1.0000 0.68508  0.39905  0.67749  Biso   1.000  C
  C2225    1.0000 0.69486  0.38761  0.65004  Biso   1.000  C
  C2226    1.0000 0.67179  0.36795  0.64970  Biso   1.000  C
  C2227    1.0000 0.65143  0.36704  0.66843  Biso   1.000  C
  C2228    1.0000 0.66146  0.39057  0.68519  Biso   1.000  C
  C2229    1.0000 0.64396  0.39896  0.71056  Biso   1.000  C
  H1667    1.0000 0.62930  0.39050  0.71790  Biso   1.000  H
  C2230    1.0000 0.71811  0.37732  0.65866  Biso   1.000  C
  H1668    1.0000 0.73150  0.39080  0.65830  Biso   1.000  H
  H1669    1.0000 0.71600  0.37090  0.67640  Biso   1.000  H
  H1670    1.0000 0.72330  0.36290  0.64730  Biso   1.000  H
  C2231    1.0000 0.68938  0.40864  0.62785  Biso   1.000  C
  H1671    1.0000 0.67070  0.41170  0.62650  Biso   1.000  H
  H1672    1.0000 0.69820  0.42490  0.63220  Biso   1.000  H
  H1673    1.0000 0.69590  0.40220  0.61120  Biso   1.000  H
  C2232    1.0000 0.65879  0.42613  0.72008  Biso   1.000  C
  H1674    1.0000 0.65180  0.43570  0.73420  Biso   1.000  H
  O373     1.0000 0.18384  0.97004  0.73572  Biso   1.000  O
  O374     1.0000 0.20990  0.97160  0.70240  Biso   1.000  O
  C2233    1.0000 0.19247  0.96374  0.71275  Biso   1.000  C
  C2234    1.0000 0.18343  0.93604  0.70671  Biso   1.000  C
  C2235    1.0000 0.18921  0.92845  0.68467  Biso   1.000  C
  H1675    1.0000 0.19610  0.94020  0.67220  Biso   1.000  H
  C2236    1.0000 0.18508  0.89905  0.67749  Biso   1.000  C
  C2237    1.0000 0.19486  0.88761  0.65004  Biso   1.000  C
  C2238    1.0000 0.17179  0.86795  0.64970  Biso   1.000  C
  C2239    1.0000 0.15143  0.86704  0.66843  Biso   1.000  C
  C2240    1.0000 0.16146  0.89057  0.68519  Biso   1.000  C
  C2241    1.0000 0.14396  0.89896  0.71056  Biso   1.000  C
  H1676    1.0000 0.12930  0.89050  0.71790  Biso   1.000  H
  C2242    1.0000 0.21811  0.87732  0.65866  Biso   1.000  C
  H1677    1.0000 0.23150  0.89080  0.65830  Biso   1.000  H
  H1678    1.0000 0.21600  0.87090  0.67640  Biso   1.000  H
  H1679    1.0000 0.22330  0.86290  0.64730  Biso   1.000  H
  C2243    1.0000 0.18938  0.90864  0.62785  Biso   1.000  C
  H1680    1.0000 0.17070  0.91170  0.62650  Biso   1.000  H
  H1681    1.0000 0.19820  0.92490  0.63220  Biso   1.000  H
  H1682    1.0000 0.19590  0.90220  0.61120  Biso   1.000  H
  C2244    1.0000 0.15879  0.92613  0.72008  Biso   1.000  C
  H1683    1.0000 0.15180  0.93570  0.73420  Biso   1.000  H
  O375     1.0000 0.18384  0.47004  0.23572  Biso   1.000  O
  O376     1.0000 0.20990  0.47160  0.20240  Biso   1.000  O
  C2245    1.0000 0.19247  0.46374  0.21275  Biso   1.000  C
  C2246    1.0000 0.18343  0.43604  0.20671  Biso   1.000  C
  C2247    1.0000 0.18921  0.42845  0.18467  Biso   1.000  C
  H1684    1.0000 0.19610  0.44020  0.17220  Biso   1.000  H
  C2248    1.0000 0.18508  0.39905  0.17749  Biso   1.000  C
  C2249    1.0000 0.19486  0.38761  0.15004  Biso   1.000  C
  C2250    1.0000 0.17179  0.36795  0.14970  Biso   1.000  C
  C2251    1.0000 0.15143  0.36704  0.16843  Biso   1.000  C
  C2252    1.0000 0.16146  0.39057  0.18519  Biso   1.000  C
  C2253    1.0000 0.14396  0.39896  0.21056  Biso   1.000  C
  H1685    1.0000 0.12930  0.39050  0.21790  Biso   1.000  H
  C2254    1.0000 0.21811  0.37732  0.15866  Biso   1.000  C
  H1686    1.0000 0.23150  0.39080  0.15830  Biso   1.000  H
  H1687    1.0000 0.21600  0.37090  0.17640  Biso   1.000  H
  H1688    1.0000 0.22330  0.36290  0.14730  Biso   1.000  H
  C2255    1.0000 0.18938  0.40864  0.12785  Biso   1.000  C
  H1689    1.0000 0.17070  0.41170  0.12650  Biso   1.000  H
  H1690    1.0000 0.19820  0.42490  0.13220  Biso   1.000  H
  H1691    1.0000 0.19590  0.40220  0.11120  Biso   1.000  H
  C2256    1.0000 0.15879  0.42613  0.22008  Biso   1.000  C
  H1692    1.0000 0.15180  0.43570  0.23420  Biso   1.000  H
  O377     1.0000 0.68384  0.02996  0.76428  Biso   1.000  O
  O378     1.0000 0.70990  0.02840  0.79760  Biso   1.000  O
  C2257    1.0000 0.69247  0.03626  0.78725  Biso   1.000  C
  C2258    1.0000 0.68343  0.06396  0.79329  Biso   1.000  C
  C2259    1.0000 0.68921  0.07155  0.81533  Biso   1.000  C
  H1693    1.0000 0.69610  0.05980  0.82780  Biso   1.000  H
  C2260    1.0000 0.68508  0.10095  0.82251  Biso   1.000  C
  C2261    1.0000 0.69486  0.11239  0.84996  Biso   1.000  C
  C2262    1.0000 0.67179  0.13205  0.85030  Biso   1.000  C
  C2263    1.0000 0.65143  0.13296  0.83157  Biso   1.000  C
  C2264    1.0000 0.66146  0.10943  0.81481  Biso   1.000  C
  C2265    1.0000 0.64396  0.10104  0.78944  Biso   1.000  C
  H1694    1.0000 0.62930  0.10950  0.78210  Biso   1.000  H
  C2266    1.0000 0.71811  0.12268  0.84134  Biso   1.000  C
  H1695    1.0000 0.73150  0.10920  0.84170  Biso   1.000  H
  H1696    1.0000 0.71600  0.12910  0.82360  Biso   1.000  H
  H1697    1.0000 0.72330  0.13710  0.85270  Biso   1.000  H
  C2267    1.0000 0.68938  0.09136  0.87215  Biso   1.000  C
  H1698    1.0000 0.67070  0.08830  0.87350  Biso   1.000  H
  H1699    1.0000 0.69820  0.07510  0.86780  Biso   1.000  H
  H1700    1.0000 0.69590  0.09780  0.88880  Biso   1.000  H
  C2268    1.0000 0.65879  0.07387  0.77992  Biso   1.000  C
  H1701    1.0000 0.65180  0.06430  0.76580  Biso   1.000  H
  O379     1.0000 0.68384  0.52996  0.26428  Biso   1.000  O
  O380     1.0000 0.70990  0.52840  0.29760  Biso   1.000  O
  C2269    1.0000 0.69247  0.53626  0.28725  Biso   1.000  C
  C2270    1.0000 0.68343  0.56396  0.29329  Biso   1.000  C
  C2271    1.0000 0.68921  0.57155  0.31533  Biso   1.000  C
  H1702    1.0000 0.69610  0.55980  0.32780  Biso   1.000  H
  C2272    1.0000 0.68508  0.60095  0.32251  Biso   1.000  C
  C2273    1.0000 0.69486  0.61239  0.34996  Biso   1.000  C
  C2274    1.0000 0.67179  0.63205  0.35030  Biso   1.000  C
  C2275    1.0000 0.65143  0.63296  0.33157  Biso   1.000  C
  C2276    1.0000 0.66146  0.60943  0.31481  Biso   1.000  C
  C2277    1.0000 0.64396  0.60104  0.28944  Biso   1.000  C
  H1703    1.0000 0.62930  0.60950  0.28210  Biso   1.000  H
  C2278    1.0000 0.71811  0.62268  0.34134  Biso   1.000  C
  H1704    1.0000 0.73150  0.60920  0.34170  Biso   1.000  H
  H1705    1.0000 0.71600  0.62910  0.32360  Biso   1.000  H
  H1706    1.0000 0.72330  0.63710  0.35270  Biso   1.000  H
  C2279    1.0000 0.68938  0.59136  0.37215  Biso   1.000  C
  H1707    1.0000 0.67070  0.58830  0.37350  Biso   1.000  H
  H1708    1.0000 0.69820  0.57510  0.36780  Biso   1.000  H
  H1709    1.0000 0.69590  0.59780  0.38880  Biso   1.000  H
  C2280    1.0000 0.65879  0.57387  0.27992  Biso   1.000  C
  H1710    1.0000 0.65180  0.56430  0.26580  Biso   1.000  H
  O381     1.0000 0.18384  0.02996  0.26428  Biso   1.000  O
  O382     1.0000 0.20990  0.02840  0.29760  Biso   1.000  O
  C2281    1.0000 0.19247  0.03626  0.28725  Biso   1.000  C
  C2282    1.0000 0.18343  0.06396  0.29329  Biso   1.000  C
  C2283    1.0000 0.18921  0.07155  0.31533  Biso   1.000  C
  H1711    1.0000 0.19610  0.05980  0.32780  Biso   1.000  H
  C2284    1.0000 0.18508  0.10095  0.32251  Biso   1.000  C
  C2285    1.0000 0.19486  0.11239  0.34996  Biso   1.000  C
  C2286    1.0000 0.17179  0.13205  0.35030  Biso   1.000  C
  C2287    1.0000 0.15143  0.13296  0.33157  Biso   1.000  C
  C2288    1.0000 0.16146  0.10943  0.31481  Biso   1.000  C
  C2289    1.0000 0.14396  0.10104  0.28944  Biso   1.000  C
  H1712    1.0000 0.12930  0.10950  0.28210  Biso   1.000  H
  C2290    1.0000 0.21811  0.12268  0.34134  Biso   1.000  C
  H1713    1.0000 0.23150  0.10920  0.34170  Biso   1.000  H
  H1714    1.0000 0.21600  0.12910  0.32360  Biso   1.000  H
  H1715    1.0000 0.22330  0.13710  0.35270  Biso   1.000  H
  C2291    1.0000 0.18938  0.09136  0.37215  Biso   1.000  C
  H1716    1.0000 0.17070  0.08830  0.37350  Biso   1.000  H
  H1717    1.0000 0.19820  0.07510  0.36780  Biso   1.000  H
  H1718    1.0000 0.19590  0.09780  0.38880  Biso   1.000  H
  C2292    1.0000 0.15879  0.07387  0.27992  Biso   1.000  C
  H1719    1.0000 0.15180  0.06430  0.26580  Biso   1.000  H
  O383     1.0000 0.18384  0.52996  0.76428  Biso   1.000  O
  O384     1.0000 0.20990  0.52840  0.79760  Biso   1.000  O
  C2293    1.0000 0.19247  0.53626  0.78725  Biso   1.000  C
  C2294    1.0000 0.18343  0.56396  0.79329  Biso   1.000  C
  C2295    1.0000 0.18921  0.57155  0.81533  Biso   1.000  C
  H1720    1.0000 0.19610  0.55980  0.82780  Biso   1.000  H
  C2296    1.0000 0.18508  0.60095  0.82251  Biso   1.000  C
  C2297    1.0000 0.19486  0.61239  0.84996  Biso   1.000  C
  C2298    1.0000 0.17179  0.63205  0.85030  Biso   1.000  C
  C2299    1.0000 0.15143  0.63296  0.83157  Biso   1.000  C
  C2300    1.0000 0.16146  0.60943  0.81481  Biso   1.000  C
  C2301    1.0000 0.14396  0.60104  0.78944  Biso   1.000  C
  H1721    1.0000 0.12930  0.60950  0.78210  Biso   1.000  H
  C2302    1.0000 0.21811  0.62268  0.84134  Biso   1.000  C
  H1722    1.0000 0.23150  0.60920  0.84170  Biso   1.000  H
  H1723    1.0000 0.21600  0.62910  0.82360  Biso   1.000  H
  H1724    1.0000 0.22330  0.63710  0.85270  Biso   1.000  H
  C2303    1.0000 0.18938  0.59136  0.87215  Biso   1.000  C
  H1725    1.0000 0.17070  0.58830  0.87350  Biso   1.000  H
  H1726    1.0000 0.19820  0.57510  0.86780  Biso   1.000  H
  H1727    1.0000 0.19590  0.59780  0.88880  Biso   1.000  H
  C2304    1.0000 0.15879  0.57387  0.77992  Biso   1.000  C
  H1728    1.0000 0.15180  0.56430  0.76580  Biso   1.000  H
  Y1       1.0000 0.23311  0.50000  0.18654  Biso   1.000  Y
  Y2       1.0000 0.23311  0.00000  0.68654  Biso   1.000  Y
  Y3       1.0000 0.73311  0.50000  0.68654  Biso   1.000  Y
  Y4       1.0000 0.73311  0.00000  0.18654  Biso   1.000  Y
  Y5       1.0000 0.76689  0.50000  0.18654  Biso   1.000  Y
  Y6       1.0000 0.76689  0.00000  0.68654  Biso   1.000  Y
  Y7       1.0000 0.26689  0.50000  0.68654  Biso   1.000  Y
  Y8       1.0000 0.26689  0.00000  0.18654  Biso   1.000  Y
  Y9       1.0000 0.76689  0.50000  0.81346  Biso   1.000  Y
  Y10      1.0000 0.76689  0.00000  0.31346  Biso   1.000  Y
  Y11      1.0000 0.26689  0.50000  0.31346  Biso   1.000  Y
  Y12      1.0000 0.26689  0.00000  0.81346  Biso   1.000  Y
  Y13      1.0000 0.23311  0.50000  0.81346  Biso   1.000  Y
  Y14      1.0000 0.23311  0.00000  0.31346  Biso   1.000  Y
  Y15      1.0000 0.73311  0.50000  0.31346  Biso   1.000  Y
  Y16      1.0000 0.73311  0.00000  0.81346  Biso   1.000  Y
  Y17      1.0000 0.18654  0.23311  0.50000  Biso   1.000  Y
  Y18      1.0000 0.18654  0.73311  0.00000  Biso   1.000  Y
  Y19      1.0000 0.68654  0.23311  0.00000  Biso   1.000  Y
  Y20      1.0000 0.68654  0.73311  0.50000  Biso   1.000  Y
  Y21      1.0000 0.18654  0.76689  0.50000  Biso   1.000  Y
  Y22      1.0000 0.18654  0.26689  0.00000  Biso   1.000  Y
  Y23      1.0000 0.68654  0.76689  0.00000  Biso   1.000  Y
  Y24      1.0000 0.68654  0.26689  0.50000  Biso   1.000  Y
  Y25      1.0000 0.81346  0.76689  0.50000  Biso   1.000  Y
  Y26      1.0000 0.81346  0.26689  0.00000  Biso   1.000  Y
  Y27      1.0000 0.31346  0.76689  0.00000  Biso   1.000  Y
  Y28      1.0000 0.31346  0.26689  0.50000  Biso   1.000  Y
  Y29      1.0000 0.81346  0.23311  0.50000  Biso   1.000  Y
  Y30      1.0000 0.81346  0.73311  0.00000  Biso   1.000  Y
  Y31      1.0000 0.31346  0.23311  0.00000  Biso   1.000  Y
  Y32      1.0000 0.31346  0.73311  0.50000  Biso   1.000  Y
  Y33      1.0000 0.50000  0.18654  0.23311  Biso   1.000  Y
  Y34      1.0000 0.50000  0.68654  0.73311  Biso   1.000  Y
  Y35      1.0000 0.00000  0.18654  0.73311  Biso   1.000  Y
  Y36      1.0000 0.00000  0.68654  0.23311  Biso   1.000  Y
  Y37      1.0000 0.50000  0.18654  0.76689  Biso   1.000  Y
  Y38      1.0000 0.50000  0.68654  0.26689  Biso   1.000  Y
  Y39      1.0000 0.00000  0.18654  0.26689  Biso   1.000  Y
  Y40      1.0000 0.00000  0.68654  0.76689  Biso   1.000  Y
  Y41      1.0000 0.50000  0.81346  0.76689  Biso   1.000  Y
  Y42      1.0000 0.50000  0.31346  0.26689  Biso   1.000  Y
  Y43      1.0000 0.00000  0.81346  0.26689  Biso   1.000  Y
  Y44      1.0000 0.00000  0.31346  0.76689  Biso   1.000  Y
  Y45      1.0000 0.50000  0.81346  0.23311  Biso   1.000  Y
  Y46      1.0000 0.50000  0.31346  0.73311  Biso   1.000  Y
  Y47      1.0000 0.00000  0.81346  0.73311  Biso   1.000  Y
  Y48      1.0000 0.00000  0.31346  0.23311  Biso   1.000  Y
  Y49      1.0000 0.00000  0.73311  0.31346  Biso   1.000  Y
  Y50      1.0000 0.00000  0.23311  0.81346  Biso   1.000  Y
  Y51      1.0000 0.50000  0.73311  0.81346  Biso   1.000  Y
  Y52      1.0000 0.50000  0.23311  0.31346  Biso   1.000  Y
  Y53      1.0000 0.00000  0.26689  0.31346  Biso   1.000  Y
  Y54      1.0000 0.00000  0.76689  0.81346  Biso   1.000  Y
  Y55      1.0000 0.50000  0.26689  0.81346  Biso   1.000  Y
  Y56      1.0000 0.50000  0.76689  0.31346  Biso   1.000  Y
  Y57      1.0000 0.00000  0.26689  0.68654  Biso   1.000  Y
  Y58      1.0000 0.00000  0.76689  0.18654  Biso   1.000  Y
  Y59      1.0000 0.50000  0.26689  0.18654  Biso   1.000  Y
  Y60      1.0000 0.50000  0.76689  0.68654  Biso   1.000  Y
  Y61      1.0000 0.00000  0.73311  0.68654  Biso   1.000  Y
  Y62      1.0000 0.00000  0.23311  0.18654  Biso   1.000  Y
  Y63      1.0000 0.50000  0.73311  0.18654  Biso   1.000  Y
  Y64      1.0000 0.50000  0.23311  0.68654  Biso   1.000  Y
  Y65      1.0000 0.73311  0.68654  0.00000  Biso   1.000  Y
  Y66      1.0000 0.73311  0.18654  0.50000  Biso   1.000  Y
  Y67      1.0000 0.23311  0.68654  0.50000  Biso   1.000  Y
  Y68      1.0000 0.23311  0.18654  0.00000  Biso   1.000  Y
  Y69      1.0000 0.26689  0.68654  0.00000  Biso   1.000  Y
  Y70      1.0000 0.26689  0.18654  0.50000  Biso   1.000  Y
  Y71      1.0000 0.76689  0.68654  0.50000  Biso   1.000  Y
  Y72      1.0000 0.76689  0.18654  0.00000  Biso   1.000  Y
  Y73      1.0000 0.26689  0.31346  0.00000  Biso   1.000  Y
  Y74      1.0000 0.26689  0.81346  0.50000  Biso   1.000  Y
  Y75      1.0000 0.76689  0.31346  0.50000  Biso   1.000  Y
  Y76      1.0000 0.76689  0.81346  0.00000  Biso   1.000  Y
  Y77      1.0000 0.73311  0.31346  0.00000  Biso   1.000  Y
  Y78      1.0000 0.73311  0.81346  0.50000  Biso   1.000  Y
  Y79      1.0000 0.23311  0.31346  0.50000  Biso   1.000  Y
  Y80      1.0000 0.23311  0.81346  0.00000  Biso   1.000  Y
  Y81      1.0000 0.68654  0.00000  0.26689  Biso   1.000  Y
  Y82      1.0000 0.68654  0.50000  0.76689  Biso   1.000  Y
  Y83      1.0000 0.18654  0.00000  0.76689  Biso   1.000  Y
  Y84      1.0000 0.18654  0.50000  0.26689  Biso   1.000  Y
  Y85      1.0000 0.68654  0.00000  0.73311  Biso   1.000  Y
  Y86      1.0000 0.68654  0.50000  0.23311  Biso   1.000  Y
  Y87      1.0000 0.18654  0.00000  0.23311  Biso   1.000  Y
  Y88      1.0000 0.18654  0.50000  0.73311  Biso   1.000  Y
  Y89      1.0000 0.31346  0.00000  0.73311  Biso   1.000  Y
  Y90      1.0000 0.31346  0.50000  0.23311  Biso   1.000  Y
  Y91      1.0000 0.81346  0.00000  0.23311  Biso   1.000  Y
  Y92      1.0000 0.81346  0.50000  0.73311  Biso   1.000  Y
  Y93      1.0000 0.31346  0.00000  0.26689  Biso   1.000  Y
  Y94      1.0000 0.31346  0.50000  0.76689  Biso   1.000  Y
  Y95      1.0000 0.81346  0.00000  0.76689  Biso   1.000  Y
  Y96      1.0000 0.81346  0.50000  0.26689  Biso   1.000  Y
