data_image0
_cell_length_a       29.311
_cell_length_b       29.311
_cell_length_c       29.311
_cell_angle_alpha    90
_cell_angle_beta     90
_cell_angle_gamma    90

_symmetry_space_group_name_H-M    "P 1"
_symmetry_int_tables_number       1

loop_
  _symmetry_equiv_pos_as_xyz
  'x, y, z'

loop_
  _atom_site_label
  _atom_site_occupancy
  _atom_site_fract_x
  _atom_site_fract_y
  _atom_site_fract_z
  _atom_site_thermal_displace_type
  _atom_site_B_iso_or_equiv
  _atom_site_type_symbol
  Yb1      1.0000 0.14433  0.24537  0.18293  Biso   1.000  Yb
  N1       1.0000 0.10760  0.24980  0.81320  Biso   1.000  N
  O1       1.0000 0.81940  0.25010  0.78020  Biso   1.000  O
  O2       1.0000 0.81521  0.29250  0.84260  Biso   1.000  O
  O3       1.0000 0.14366  0.24390  0.10805  Biso   1.000  O
  O4       1.0000 0.20330  0.20330  0.08211  Biso   1.000  O
  O5       1.0000 0.22326  0.24900  0.17526  Biso   1.000  O
  H1       1.0000 0.23210  0.27210  0.16000  Biso   1.000  H
  C1       1.0000 0.84070  0.26280  0.81620  Biso   1.000  C
  C2       1.0000 0.88720  0.26640  0.81950  Biso   1.000  C
  C3       1.0000 0.91410  0.24260  0.78800  Biso   1.000  C
  H2       1.0000 0.90080  0.23110  0.76160  Biso   1.000  H
  C4       1.0000 0.96180  0.23580  0.79580  Biso   1.000  C
  H3       1.0000 0.97910  0.21890  0.77530  Biso   1.000  H
  C5       1.0000 0.98140  0.25420  0.83330  Biso   1.000  C
  C6       1.0000 0.95410  0.27690  0.86400  Biso   1.000  C
  H4       1.0000 0.96720  0.28850  0.89040  Biso   1.000  H
  C7       1.0000 0.90760  0.28310  0.85700  Biso   1.000  C
  H5       1.0000 0.89050  0.29900  0.87850  Biso   1.000  H
  C8       1.0000 0.06220  0.25290  0.80920  Biso   1.000  C
  H6       1.0000 0.05080  0.25800  0.78000  Biso   1.000  H
  C9       1.0000 0.03030  0.24940  0.84420  Biso   1.000  C
  C10      1.0000 0.04780  0.24500  0.88730  Biso   1.000  C
  H7       1.0000 0.02820  0.24430  0.91220  Biso   1.000  H
  C11      1.0000 0.09390  0.24170  0.89430  Biso   1.000  C
  C12      1.0000 0.12280  0.24460  0.85750  Biso   1.000  C
  H8       1.0000 0.15400  0.24280  0.86270  Biso   1.000  H
  C13      1.0000 0.16640  0.22430  0.07810  Biso   1.000  C
  C14      1.0000 0.14870  0.22820  0.02920  Biso   1.000  C
  C15      1.0000 0.17200  0.21050  0.99130  Biso   1.000  C
  H9       1.0000 0.19990  0.19590  0.99550  Biso   1.000  H
  C16      1.0000 0.15440  0.21460  0.94840  Biso   1.000  C
  H10      1.0000 0.17040  0.20250  0.92380  Biso   1.000  H
  C17      1.0000 0.11360  0.23630  0.94080  Biso   1.000  C
  C18      1.0000 0.09050  0.25510  0.97660  Biso   1.000  C
  H11      1.0000 0.06410  0.27200  0.97170  Biso   1.000  H
  C19      1.0000 0.10760  0.24850  0.02120  Biso   1.000  C
  H12      1.0000 0.09020  0.25820  0.04590  Biso   1.000  H
  Yb2      1.0000 0.35567  0.75463  0.68293  Biso   1.000  Yb
  N2       1.0000 0.39240  0.75020  0.31320  Biso   1.000  N
  O6       1.0000 0.68060  0.74990  0.28020  Biso   1.000  O
  O7       1.0000 0.68479  0.70750  0.34260  Biso   1.000  O
  O8       1.0000 0.35634  0.75610  0.60805  Biso   1.000  O
  O9       1.0000 0.29670  0.79670  0.58211  Biso   1.000  O
  O10      1.0000 0.27674  0.75100  0.67526  Biso   1.000  O
  H13      1.0000 0.26790  0.72790  0.66000  Biso   1.000  H
  C20      1.0000 0.65930  0.73720  0.31620  Biso   1.000  C
  C21      1.0000 0.61280  0.73360  0.31950  Biso   1.000  C
  C22      1.0000 0.58590  0.75740  0.28800  Biso   1.000  C
  H14      1.0000 0.59920  0.76890  0.26160  Biso   1.000  H
  C23      1.0000 0.53820  0.76420  0.29580  Biso   1.000  C
  H15      1.0000 0.52090  0.78110  0.27530  Biso   1.000  H
  C24      1.0000 0.51860  0.74580  0.33330  Biso   1.000  C
  C25      1.0000 0.54590  0.72310  0.36400  Biso   1.000  C
  H16      1.0000 0.53280  0.71150  0.39040  Biso   1.000  H
  C26      1.0000 0.59240  0.71690  0.35700  Biso   1.000  C
  H17      1.0000 0.60950  0.70100  0.37850  Biso   1.000  H
  C27      1.0000 0.43780  0.74710  0.30920  Biso   1.000  C
  H18      1.0000 0.44920  0.74200  0.28000  Biso   1.000  H
  C28      1.0000 0.46970  0.75060  0.34420  Biso   1.000  C
  C29      1.0000 0.45220  0.75500  0.38730  Biso   1.000  C
  H19      1.0000 0.47180  0.75570  0.41220  Biso   1.000  H
  C30      1.0000 0.40610  0.75830  0.39430  Biso   1.000  C
  C31      1.0000 0.37720  0.75540  0.35750  Biso   1.000  C
  H20      1.0000 0.34600  0.75720  0.36270  Biso   1.000  H
  C32      1.0000 0.33360  0.77570  0.57810  Biso   1.000  C
  C33      1.0000 0.35130  0.77180  0.52920  Biso   1.000  C
  C34      1.0000 0.32800  0.78950  0.49130  Biso   1.000  C
  H21      1.0000 0.30010  0.80410  0.49550  Biso   1.000  H
  C35      1.0000 0.34560  0.78540  0.44840  Biso   1.000  C
  H22      1.0000 0.32960  0.79750  0.42380  Biso   1.000  H
  C36      1.0000 0.38640  0.76370  0.44080  Biso   1.000  C
  C37      1.0000 0.40950  0.74490  0.47660  Biso   1.000  C
  H23      1.0000 0.43590  0.72800  0.47170  Biso   1.000  H
  C38      1.0000 0.39240  0.75150  0.52120  Biso   1.000  C
  H24      1.0000 0.40980  0.74180  0.54590  Biso   1.000  H
  Yb3      1.0000 0.85567  0.74537  0.31707  Biso   1.000  Yb
  N3       1.0000 0.89240  0.74980  0.68680  Biso   1.000  N
  O11      1.0000 0.18060  0.75010  0.71980  Biso   1.000  O
  O12      1.0000 0.18479  0.79250  0.65740  Biso   1.000  O
  O13      1.0000 0.85634  0.74390  0.39195  Biso   1.000  O
  O14      1.0000 0.79670  0.70330  0.41789  Biso   1.000  O
  O15      1.0000 0.77674  0.74900  0.32474  Biso   1.000  O
  H25      1.0000 0.76790  0.77210  0.34000  Biso   1.000  H
  C39      1.0000 0.15930  0.76280  0.68380  Biso   1.000  C
  C40      1.0000 0.11280  0.76640  0.68050  Biso   1.000  C
  C41      1.0000 0.08590  0.74260  0.71200  Biso   1.000  C
  H26      1.0000 0.09920  0.73110  0.73840  Biso   1.000  H
  C42      1.0000 0.03820  0.73580  0.70420  Biso   1.000  C
  H27      1.0000 0.02090  0.71890  0.72470  Biso   1.000  H
  C43      1.0000 0.01860  0.75420  0.66670  Biso   1.000  C
  C44      1.0000 0.04590  0.77690  0.63600  Biso   1.000  C
  H28      1.0000 0.03280  0.78850  0.60960  Biso   1.000  H
  C45      1.0000 0.09240  0.78310  0.64300  Biso   1.000  C
  H29      1.0000 0.10950  0.79900  0.62150  Biso   1.000  H
  C46      1.0000 0.93780  0.75290  0.69080  Biso   1.000  C
  H30      1.0000 0.94920  0.75800  0.72000  Biso   1.000  H
  C47      1.0000 0.96970  0.74940  0.65580  Biso   1.000  C
  C48      1.0000 0.95220  0.74500  0.61270  Biso   1.000  C
  H31      1.0000 0.97180  0.74430  0.58780  Biso   1.000  H
  C49      1.0000 0.90610  0.74170  0.60570  Biso   1.000  C
  C50      1.0000 0.87720  0.74460  0.64250  Biso   1.000  C
  H32      1.0000 0.84600  0.74280  0.63730  Biso   1.000  H
  C51      1.0000 0.83360  0.72430  0.42190  Biso   1.000  C
  C52      1.0000 0.85130  0.72820  0.47080  Biso   1.000  C
  C53      1.0000 0.82800  0.71050  0.50870  Biso   1.000  C
  H33      1.0000 0.80010  0.69590  0.50450  Biso   1.000  H
  C54      1.0000 0.84560  0.71460  0.55160  Biso   1.000  C
  H34      1.0000 0.82960  0.70250  0.57620  Biso   1.000  H
  C55      1.0000 0.88640  0.73630  0.55920  Biso   1.000  C
  C56      1.0000 0.90950  0.75510  0.52340  Biso   1.000  C
  H35      1.0000 0.93590  0.77200  0.52830  Biso   1.000  H
  C57      1.0000 0.89240  0.74850  0.47880  Biso   1.000  C
  H36      1.0000 0.90980  0.75820  0.45410  Biso   1.000  H
  Yb4      1.0000 0.64433  0.25463  0.81707  Biso   1.000  Yb
  N4       1.0000 0.60760  0.25020  0.18680  Biso   1.000  N
  O16      1.0000 0.31940  0.24990  0.21980  Biso   1.000  O
  O17      1.0000 0.31521  0.20750  0.15740  Biso   1.000  O
  O18      1.0000 0.64366  0.25610  0.89195  Biso   1.000  O
  O19      1.0000 0.70330  0.29670  0.91789  Biso   1.000  O
  O20      1.0000 0.72326  0.25100  0.82474  Biso   1.000  O
  H37      1.0000 0.73210  0.22790  0.84000  Biso   1.000  H
  C58      1.0000 0.34070  0.23720  0.18380  Biso   1.000  C
  C59      1.0000 0.38720  0.23360  0.18050  Biso   1.000  C
  C60      1.0000 0.41410  0.25740  0.21200  Biso   1.000  C
  H38      1.0000 0.40080  0.26890  0.23840  Biso   1.000  H
  C61      1.0000 0.46180  0.26420  0.20420  Biso   1.000  C
  H39      1.0000 0.47910  0.28110  0.22470  Biso   1.000  H
  C62      1.0000 0.48140  0.24580  0.16670  Biso   1.000  C
  C63      1.0000 0.45410  0.22310  0.13600  Biso   1.000  C
  H40      1.0000 0.46720  0.21150  0.10960  Biso   1.000  H
  C64      1.0000 0.40760  0.21690  0.14300  Biso   1.000  C
  H41      1.0000 0.39050  0.20100  0.12150  Biso   1.000  H
  C65      1.0000 0.56220  0.24710  0.19080  Biso   1.000  C
  H42      1.0000 0.55080  0.24200  0.22000  Biso   1.000  H
  C66      1.0000 0.53030  0.25060  0.15580  Biso   1.000  C
  C67      1.0000 0.54780  0.25500  0.11270  Biso   1.000  C
  H43      1.0000 0.52820  0.25570  0.08780  Biso   1.000  H
  C68      1.0000 0.59390  0.25830  0.10570  Biso   1.000  C
  C69      1.0000 0.62280  0.25540  0.14250  Biso   1.000  C
  H44      1.0000 0.65400  0.25720  0.13730  Biso   1.000  H
  C70      1.0000 0.66640  0.27570  0.92190  Biso   1.000  C
  C71      1.0000 0.64870  0.27180  0.97080  Biso   1.000  C
  C72      1.0000 0.67200  0.28950  0.00870  Biso   1.000  C
  H45      1.0000 0.69990  0.30410  0.00450  Biso   1.000  H
  C73      1.0000 0.65440  0.28540  0.05160  Biso   1.000  C
  H46      1.0000 0.67040  0.29750  0.07620  Biso   1.000  H
  C74      1.0000 0.61360  0.26370  0.05920  Biso   1.000  C
  C75      1.0000 0.59050  0.24490  0.02340  Biso   1.000  C
  H47      1.0000 0.56410  0.22800  0.02830  Biso   1.000  H
  C76      1.0000 0.60760  0.25150  0.97880  Biso   1.000  C
  H48      1.0000 0.59020  0.24180  0.95410  Biso   1.000  H
  Yb5      1.0000 0.18293  0.14433  0.24537  Biso   1.000  Yb
  N5       1.0000 0.81320  0.10760  0.24980  Biso   1.000  N
  O21      1.0000 0.78020  0.81940  0.25010  Biso   1.000  O
  O22      1.0000 0.84260  0.81521  0.29250  Biso   1.000  O
  O23      1.0000 0.10805  0.14366  0.24390  Biso   1.000  O
  O24      1.0000 0.08211  0.20330  0.20330  Biso   1.000  O
  O25      1.0000 0.17526  0.22326  0.24900  Biso   1.000  O
  H49      1.0000 0.16000  0.23210  0.27210  Biso   1.000  H
  C77      1.0000 0.81620  0.84070  0.26280  Biso   1.000  C
  C78      1.0000 0.81950  0.88720  0.26640  Biso   1.000  C
  C79      1.0000 0.78800  0.91410  0.24260  Biso   1.000  C
  H50      1.0000 0.76160  0.90080  0.23110  Biso   1.000  H
  C80      1.0000 0.79580  0.96180  0.23580  Biso   1.000  C
  H51      1.0000 0.77530  0.97910  0.21890  Biso   1.000  H
  C81      1.0000 0.83330  0.98140  0.25420  Biso   1.000  C
  C82      1.0000 0.86400  0.95410  0.27690  Biso   1.000  C
  H52      1.0000 0.89040  0.96720  0.28850  Biso   1.000  H
  C83      1.0000 0.85700  0.90760  0.28310  Biso   1.000  C
  H53      1.0000 0.87850  0.89050  0.29900  Biso   1.000  H
  C84      1.0000 0.80920  0.06220  0.25290  Biso   1.000  C
  H54      1.0000 0.78000  0.05080  0.25800  Biso   1.000  H
  C85      1.0000 0.84420  0.03030  0.24940  Biso   1.000  C
  C86      1.0000 0.88730  0.04780  0.24500  Biso   1.000  C
  H55      1.0000 0.91220  0.02820  0.24430  Biso   1.000  H
  C87      1.0000 0.89430  0.09390  0.24170  Biso   1.000  C
  C88      1.0000 0.85750  0.12280  0.24460  Biso   1.000  C
  H56      1.0000 0.86270  0.15400  0.24280  Biso   1.000  H
  C89      1.0000 0.07810  0.16640  0.22430  Biso   1.000  C
  C90      1.0000 0.02920  0.14870  0.22820  Biso   1.000  C
  C91      1.0000 0.99130  0.17200  0.21050  Biso   1.000  C
  H57      1.0000 0.99550  0.19990  0.19590  Biso   1.000  H
  C92      1.0000 0.94840  0.15440  0.21460  Biso   1.000  C
  H58      1.0000 0.92380  0.17040  0.20250  Biso   1.000  H
  C93      1.0000 0.94080  0.11360  0.23630  Biso   1.000  C
  C94      1.0000 0.97660  0.09050  0.25510  Biso   1.000  C
  H59      1.0000 0.97170  0.06410  0.27200  Biso   1.000  H
  C95      1.0000 0.02120  0.10760  0.24850  Biso   1.000  C
  H60      1.0000 0.04590  0.09020  0.25820  Biso   1.000  H
  Yb6      1.0000 0.68293  0.35567  0.75463  Biso   1.000  Yb
  N6       1.0000 0.31320  0.39240  0.75020  Biso   1.000  N
  O26      1.0000 0.28020  0.68060  0.74990  Biso   1.000  O
  O27      1.0000 0.34260  0.68479  0.70750  Biso   1.000  O
  O28      1.0000 0.60805  0.35634  0.75610  Biso   1.000  O
  O29      1.0000 0.58211  0.29670  0.79670  Biso   1.000  O
  O30      1.0000 0.67526  0.27674  0.75100  Biso   1.000  O
  H61      1.0000 0.66000  0.26790  0.72790  Biso   1.000  H
  C96      1.0000 0.31620  0.65930  0.73720  Biso   1.000  C
  C97      1.0000 0.31950  0.61280  0.73360  Biso   1.000  C
  C98      1.0000 0.28800  0.58590  0.75740  Biso   1.000  C
  H62      1.0000 0.26160  0.59920  0.76890  Biso   1.000  H
  C99      1.0000 0.29580  0.53820  0.76420  Biso   1.000  C
  H63      1.0000 0.27530  0.52090  0.78110  Biso   1.000  H
  C100     1.0000 0.33330  0.51860  0.74580  Biso   1.000  C
  C101     1.0000 0.36400  0.54590  0.72310  Biso   1.000  C
  H64      1.0000 0.39040  0.53280  0.71150  Biso   1.000  H
  C102     1.0000 0.35700  0.59240  0.71690  Biso   1.000  C
  H65      1.0000 0.37850  0.60950  0.70100  Biso   1.000  H
  C103     1.0000 0.30920  0.43780  0.74710  Biso   1.000  C
  H66      1.0000 0.28000  0.44920  0.74200  Biso   1.000  H
  C104     1.0000 0.34420  0.46970  0.75060  Biso   1.000  C
  C105     1.0000 0.38730  0.45220  0.75500  Biso   1.000  C
  H67      1.0000 0.41220  0.47180  0.75570  Biso   1.000  H
  C106     1.0000 0.39430  0.40610  0.75830  Biso   1.000  C
  C107     1.0000 0.35750  0.37720  0.75540  Biso   1.000  C
  H68      1.0000 0.36270  0.34600  0.75720  Biso   1.000  H
  C108     1.0000 0.57810  0.33360  0.77570  Biso   1.000  C
  C109     1.0000 0.52920  0.35130  0.77180  Biso   1.000  C
  C110     1.0000 0.49130  0.32800  0.78950  Biso   1.000  C
  H69      1.0000 0.49550  0.30010  0.80410  Biso   1.000  H
  C111     1.0000 0.44840  0.34560  0.78540  Biso   1.000  C
  H70      1.0000 0.42380  0.32960  0.79750  Biso   1.000  H
  C112     1.0000 0.44080  0.38640  0.76370  Biso   1.000  C
  C113     1.0000 0.47660  0.40950  0.74490  Biso   1.000  C
  H71      1.0000 0.47170  0.43590  0.72800  Biso   1.000  H
  C114     1.0000 0.52120  0.39240  0.75150  Biso   1.000  C
  H72      1.0000 0.54590  0.40980  0.74180  Biso   1.000  H
  Yb7      1.0000 0.31707  0.85567  0.74537  Biso   1.000  Yb
  N7       1.0000 0.68680  0.89240  0.74980  Biso   1.000  N
  O31      1.0000 0.71980  0.18060  0.75010  Biso   1.000  O
  O32      1.0000 0.65740  0.18479  0.79250  Biso   1.000  O
  O33      1.0000 0.39195  0.85634  0.74390  Biso   1.000  O
  O34      1.0000 0.41789  0.79670  0.70330  Biso   1.000  O
  O35      1.0000 0.32474  0.77674  0.74900  Biso   1.000  O
  H73      1.0000 0.34000  0.76790  0.77210  Biso   1.000  H
  C115     1.0000 0.68380  0.15930  0.76280  Biso   1.000  C
  C116     1.0000 0.68050  0.11280  0.76640  Biso   1.000  C
  C117     1.0000 0.71200  0.08590  0.74260  Biso   1.000  C
  H74      1.0000 0.73840  0.09920  0.73110  Biso   1.000  H
  C118     1.0000 0.70420  0.03820  0.73580  Biso   1.000  C
  H75      1.0000 0.72470  0.02090  0.71890  Biso   1.000  H
  C119     1.0000 0.66670  0.01860  0.75420  Biso   1.000  C
  C120     1.0000 0.63600  0.04590  0.77690  Biso   1.000  C
  H76      1.0000 0.60960  0.03280  0.78850  Biso   1.000  H
  C121     1.0000 0.64300  0.09240  0.78310  Biso   1.000  C
  H77      1.0000 0.62150  0.10950  0.79900  Biso   1.000  H
  C122     1.0000 0.69080  0.93780  0.75290  Biso   1.000  C
  H78      1.0000 0.72000  0.94920  0.75800  Biso   1.000  H
  C123     1.0000 0.65580  0.96970  0.74940  Biso   1.000  C
  C124     1.0000 0.61270  0.95220  0.74500  Biso   1.000  C
  H79      1.0000 0.58780  0.97180  0.74430  Biso   1.000  H
  C125     1.0000 0.60570  0.90610  0.74170  Biso   1.000  C
  C126     1.0000 0.64250  0.87720  0.74460  Biso   1.000  C
  H80      1.0000 0.63730  0.84600  0.74280  Biso   1.000  H
  C127     1.0000 0.42190  0.83360  0.72430  Biso   1.000  C
  C128     1.0000 0.47080  0.85130  0.72820  Biso   1.000  C
  C129     1.0000 0.50870  0.82800  0.71050  Biso   1.000  C
  H81      1.0000 0.50450  0.80010  0.69590  Biso   1.000  H
  C130     1.0000 0.55160  0.84560  0.71460  Biso   1.000  C
  H82      1.0000 0.57620  0.82960  0.70250  Biso   1.000  H
  C131     1.0000 0.55920  0.88640  0.73630  Biso   1.000  C
  C132     1.0000 0.52340  0.90950  0.75510  Biso   1.000  C
  H83      1.0000 0.52830  0.93590  0.77200  Biso   1.000  H
  C133     1.0000 0.47880  0.89240  0.74850  Biso   1.000  C
  H84      1.0000 0.45410  0.90980  0.75820  Biso   1.000  H
  Yb8      1.0000 0.81707  0.64433  0.25463  Biso   1.000  Yb
  N8       1.0000 0.18680  0.60760  0.25020  Biso   1.000  N
  O36      1.0000 0.21980  0.31940  0.24990  Biso   1.000  O
  O37      1.0000 0.15740  0.31521  0.20750  Biso   1.000  O
  O38      1.0000 0.89195  0.64366  0.25610  Biso   1.000  O
  O39      1.0000 0.91789  0.70330  0.29670  Biso   1.000  O
  O40      1.0000 0.82474  0.72326  0.25100  Biso   1.000  O
  H85      1.0000 0.84000  0.73210  0.22790  Biso   1.000  H
  C134     1.0000 0.18380  0.34070  0.23720  Biso   1.000  C
  C135     1.0000 0.18050  0.38720  0.23360  Biso   1.000  C
  C136     1.0000 0.21200  0.41410  0.25740  Biso   1.000  C
  H86      1.0000 0.23840  0.40080  0.26890  Biso   1.000  H
  C137     1.0000 0.20420  0.46180  0.26420  Biso   1.000  C
  H87      1.0000 0.22470  0.47910  0.28110  Biso   1.000  H
  C138     1.0000 0.16670  0.48140  0.24580  Biso   1.000  C
  C139     1.0000 0.13600  0.45410  0.22310  Biso   1.000  C
  H88      1.0000 0.10960  0.46720  0.21150  Biso   1.000  H
  C140     1.0000 0.14300  0.40760  0.21690  Biso   1.000  C
  H89      1.0000 0.12150  0.39050  0.20100  Biso   1.000  H
  C141     1.0000 0.19080  0.56220  0.24710  Biso   1.000  C
  H90      1.0000 0.22000  0.55080  0.24200  Biso   1.000  H
  C142     1.0000 0.15580  0.53030  0.25060  Biso   1.000  C
  C143     1.0000 0.11270  0.54780  0.25500  Biso   1.000  C
  H91      1.0000 0.08780  0.52820  0.25570  Biso   1.000  H
  C144     1.0000 0.10570  0.59390  0.25830  Biso   1.000  C
  C145     1.0000 0.14250  0.62280  0.25540  Biso   1.000  C
  H92      1.0000 0.13730  0.65400  0.25720  Biso   1.000  H
  C146     1.0000 0.92190  0.66640  0.27570  Biso   1.000  C
  C147     1.0000 0.97080  0.64870  0.27180  Biso   1.000  C
  C148     1.0000 0.00870  0.67200  0.28950  Biso   1.000  C
  H93      1.0000 0.00450  0.69990  0.30410  Biso   1.000  H
  C149     1.0000 0.05160  0.65440  0.28540  Biso   1.000  C
  H94      1.0000 0.07620  0.67040  0.29750  Biso   1.000  H
  C150     1.0000 0.05920  0.61360  0.26370  Biso   1.000  C
  C151     1.0000 0.02340  0.59050  0.24490  Biso   1.000  C
  H95      1.0000 0.02830  0.56410  0.22800  Biso   1.000  H
  C152     1.0000 0.97880  0.60760  0.25150  Biso   1.000  C
  H96      1.0000 0.95410  0.59020  0.24180  Biso   1.000  H
  Yb9      1.0000 0.24537  0.18293  0.14433  Biso   1.000  Yb
  N9       1.0000 0.24980  0.81320  0.10760  Biso   1.000  N
  O41      1.0000 0.25010  0.78020  0.81940  Biso   1.000  O
  O42      1.0000 0.29250  0.84260  0.81521  Biso   1.000  O
  O43      1.0000 0.24390  0.10805  0.14366  Biso   1.000  O
  O44      1.0000 0.20330  0.08211  0.20330  Biso   1.000  O
  O45      1.0000 0.24900  0.17526  0.22326  Biso   1.000  O
  H97      1.0000 0.27210  0.16000  0.23210  Biso   1.000  H
  C153     1.0000 0.26280  0.81620  0.84070  Biso   1.000  C
  C154     1.0000 0.26640  0.81950  0.88720  Biso   1.000  C
  C155     1.0000 0.24260  0.78800  0.91410  Biso   1.000  C
  H98      1.0000 0.23110  0.76160  0.90080  Biso   1.000  H
  C156     1.0000 0.23580  0.79580  0.96180  Biso   1.000  C
  H99      1.0000 0.21890  0.77530  0.97910  Biso   1.000  H
  C157     1.0000 0.25420  0.83330  0.98140  Biso   1.000  C
  C158     1.0000 0.27690  0.86400  0.95410  Biso   1.000  C
  H100     1.0000 0.28850  0.89040  0.96720  Biso   1.000  H
  C159     1.0000 0.28310  0.85700  0.90760  Biso   1.000  C
  H101     1.0000 0.29900  0.87850  0.89050  Biso   1.000  H
  C160     1.0000 0.25290  0.80920  0.06220  Biso   1.000  C
  H102     1.0000 0.25800  0.78000  0.05080  Biso   1.000  H
  C161     1.0000 0.24940  0.84420  0.03030  Biso   1.000  C
  C162     1.0000 0.24500  0.88730  0.04780  Biso   1.000  C
  H103     1.0000 0.24430  0.91220  0.02820  Biso   1.000  H
  C163     1.0000 0.24170  0.89430  0.09390  Biso   1.000  C
  C164     1.0000 0.24460  0.85750  0.12280  Biso   1.000  C
  H104     1.0000 0.24280  0.86270  0.15400  Biso   1.000  H
  C165     1.0000 0.22430  0.07810  0.16640  Biso   1.000  C
  C166     1.0000 0.22820  0.02920  0.14870  Biso   1.000  C
  C167     1.0000 0.21050  0.99130  0.17200  Biso   1.000  C
  H105     1.0000 0.19590  0.99550  0.19990  Biso   1.000  H
  C168     1.0000 0.21460  0.94840  0.15440  Biso   1.000  C
  H106     1.0000 0.20250  0.92380  0.17040  Biso   1.000  H
  C169     1.0000 0.23630  0.94080  0.11360  Biso   1.000  C
  C170     1.0000 0.25510  0.97660  0.09050  Biso   1.000  C
  H107     1.0000 0.27200  0.97170  0.06410  Biso   1.000  H
  C171     1.0000 0.24850  0.02120  0.10760  Biso   1.000  C
  H108     1.0000 0.25820  0.04590  0.09020  Biso   1.000  H
  Yb10     1.0000 0.75463  0.68293  0.35567  Biso   1.000  Yb
  N10      1.0000 0.75020  0.31320  0.39240  Biso   1.000  N
  O46      1.0000 0.74990  0.28020  0.68060  Biso   1.000  O
  O47      1.0000 0.70750  0.34260  0.68479  Biso   1.000  O
  O48      1.0000 0.75610  0.60805  0.35634  Biso   1.000  O
  O49      1.0000 0.79670  0.58211  0.29670  Biso   1.000  O
  O50      1.0000 0.75100  0.67526  0.27674  Biso   1.000  O
  H109     1.0000 0.72790  0.66000  0.26790  Biso   1.000  H
  C172     1.0000 0.73720  0.31620  0.65930  Biso   1.000  C
  C173     1.0000 0.73360  0.31950  0.61280  Biso   1.000  C
  C174     1.0000 0.75740  0.28800  0.58590  Biso   1.000  C
  H110     1.0000 0.76890  0.26160  0.59920  Biso   1.000  H
  C175     1.0000 0.76420  0.29580  0.53820  Biso   1.000  C
  H111     1.0000 0.78110  0.27530  0.52090  Biso   1.000  H
  C176     1.0000 0.74580  0.33330  0.51860  Biso   1.000  C
  C177     1.0000 0.72310  0.36400  0.54590  Biso   1.000  C
  H112     1.0000 0.71150  0.39040  0.53280  Biso   1.000  H
  C178     1.0000 0.71690  0.35700  0.59240  Biso   1.000  C
  H113     1.0000 0.70100  0.37850  0.60950  Biso   1.000  H
  C179     1.0000 0.74710  0.30920  0.43780  Biso   1.000  C
  H114     1.0000 0.74200  0.28000  0.44920  Biso   1.000  H
  C180     1.0000 0.75060  0.34420  0.46970  Biso   1.000  C
  C181     1.0000 0.75500  0.38730  0.45220  Biso   1.000  C
  H115     1.0000 0.75570  0.41220  0.47180  Biso   1.000  H
  C182     1.0000 0.75830  0.39430  0.40610  Biso   1.000  C
  C183     1.0000 0.75540  0.35750  0.37720  Biso   1.000  C
  H116     1.0000 0.75720  0.36270  0.34600  Biso   1.000  H
  C184     1.0000 0.77570  0.57810  0.33360  Biso   1.000  C
  C185     1.0000 0.77180  0.52920  0.35130  Biso   1.000  C
  C186     1.0000 0.78950  0.49130  0.32800  Biso   1.000  C
  H117     1.0000 0.80410  0.49550  0.30010  Biso   1.000  H
  C187     1.0000 0.78540  0.44840  0.34560  Biso   1.000  C
  H118     1.0000 0.79750  0.42380  0.32960  Biso   1.000  H
  C188     1.0000 0.76370  0.44080  0.38640  Biso   1.000  C
  C189     1.0000 0.74490  0.47660  0.40950  Biso   1.000  C
  H119     1.0000 0.72800  0.47170  0.43590  Biso   1.000  H
  C190     1.0000 0.75150  0.52120  0.39240  Biso   1.000  C
  H120     1.0000 0.74180  0.54590  0.40980  Biso   1.000  H
  Yb11     1.0000 0.74537  0.31707  0.85567  Biso   1.000  Yb
  N11      1.0000 0.74980  0.68680  0.89240  Biso   1.000  N
  O51      1.0000 0.75010  0.71980  0.18060  Biso   1.000  O
  O52      1.0000 0.79250  0.65740  0.18479  Biso   1.000  O
  O53      1.0000 0.74390  0.39195  0.85634  Biso   1.000  O
  O54      1.0000 0.70330  0.41789  0.79670  Biso   1.000  O
  O55      1.0000 0.74900  0.32474  0.77674  Biso   1.000  O
  H121     1.0000 0.77210  0.34000  0.76790  Biso   1.000  H
  C191     1.0000 0.76280  0.68380  0.15930  Biso   1.000  C
  C192     1.0000 0.76640  0.68050  0.11280  Biso   1.000  C
  C193     1.0000 0.74260  0.71200  0.08590  Biso   1.000  C
  H122     1.0000 0.73110  0.73840  0.09920  Biso   1.000  H
  C194     1.0000 0.73580  0.70420  0.03820  Biso   1.000  C
  H123     1.0000 0.71890  0.72470  0.02090  Biso   1.000  H
  C195     1.0000 0.75420  0.66670  0.01860  Biso   1.000  C
  C196     1.0000 0.77690  0.63600  0.04590  Biso   1.000  C
  H124     1.0000 0.78850  0.60960  0.03280  Biso   1.000  H
  C197     1.0000 0.78310  0.64300  0.09240  Biso   1.000  C
  H125     1.0000 0.79900  0.62150  0.10950  Biso   1.000  H
  C198     1.0000 0.75290  0.69080  0.93780  Biso   1.000  C
  H126     1.0000 0.75800  0.72000  0.94920  Biso   1.000  H
  C199     1.0000 0.74940  0.65580  0.96970  Biso   1.000  C
  C200     1.0000 0.74500  0.61270  0.95220  Biso   1.000  C
  H127     1.0000 0.74430  0.58780  0.97180  Biso   1.000  H
  C201     1.0000 0.74170  0.60570  0.90610  Biso   1.000  C
  C202     1.0000 0.74460  0.64250  0.87720  Biso   1.000  C
  H128     1.0000 0.74280  0.63730  0.84600  Biso   1.000  H
  C203     1.0000 0.72430  0.42190  0.83360  Biso   1.000  C
  C204     1.0000 0.72820  0.47080  0.85130  Biso   1.000  C
  C205     1.0000 0.71050  0.50870  0.82800  Biso   1.000  C
  H129     1.0000 0.69590  0.50450  0.80010  Biso   1.000  H
  C206     1.0000 0.71460  0.55160  0.84560  Biso   1.000  C
  H130     1.0000 0.70250  0.57620  0.82960  Biso   1.000  H
  C207     1.0000 0.73630  0.55920  0.88640  Biso   1.000  C
  C208     1.0000 0.75510  0.52340  0.90950  Biso   1.000  C
  H131     1.0000 0.77200  0.52830  0.93590  Biso   1.000  H
  C209     1.0000 0.74850  0.47880  0.89240  Biso   1.000  C
  H132     1.0000 0.75820  0.45410  0.90980  Biso   1.000  H
  Yb12     1.0000 0.25463  0.81707  0.64433  Biso   1.000  Yb
  N12      1.0000 0.25020  0.18680  0.60760  Biso   1.000  N
  O56      1.0000 0.24990  0.21980  0.31940  Biso   1.000  O
  O57      1.0000 0.20750  0.15740  0.31521  Biso   1.000  O
  O58      1.0000 0.25610  0.89195  0.64366  Biso   1.000  O
  O59      1.0000 0.29670  0.91789  0.70330  Biso   1.000  O
  O60      1.0000 0.25100  0.82474  0.72326  Biso   1.000  O
  H133     1.0000 0.22790  0.84000  0.73210  Biso   1.000  H
  C210     1.0000 0.23720  0.18380  0.34070  Biso   1.000  C
  C211     1.0000 0.23360  0.18050  0.38720  Biso   1.000  C
  C212     1.0000 0.25740  0.21200  0.41410  Biso   1.000  C
  H134     1.0000 0.26890  0.23840  0.40080  Biso   1.000  H
  C213     1.0000 0.26420  0.20420  0.46180  Biso   1.000  C
  H135     1.0000 0.28110  0.22470  0.47910  Biso   1.000  H
  C214     1.0000 0.24580  0.16670  0.48140  Biso   1.000  C
  C215     1.0000 0.22310  0.13600  0.45410  Biso   1.000  C
  H136     1.0000 0.21150  0.10960  0.46720  Biso   1.000  H
  C216     1.0000 0.21690  0.14300  0.40760  Biso   1.000  C
  H137     1.0000 0.20100  0.12150  0.39050  Biso   1.000  H
  C217     1.0000 0.24710  0.19080  0.56220  Biso   1.000  C
  H138     1.0000 0.24200  0.22000  0.55080  Biso   1.000  H
  C218     1.0000 0.25060  0.15580  0.53030  Biso   1.000  C
  C219     1.0000 0.25500  0.11270  0.54780  Biso   1.000  C
  H139     1.0000 0.25570  0.08780  0.52820  Biso   1.000  H
  C220     1.0000 0.25830  0.10570  0.59390  Biso   1.000  C
  C221     1.0000 0.25540  0.14250  0.62280  Biso   1.000  C
  H140     1.0000 0.25720  0.13730  0.65400  Biso   1.000  H
  C222     1.0000 0.27570  0.92190  0.66640  Biso   1.000  C
  C223     1.0000 0.27180  0.97080  0.64870  Biso   1.000  C
  C224     1.0000 0.28950  0.00870  0.67200  Biso   1.000  C
  H141     1.0000 0.30410  0.00450  0.69990  Biso   1.000  H
  C225     1.0000 0.28540  0.05160  0.65440  Biso   1.000  C
  H142     1.0000 0.29750  0.07620  0.67040  Biso   1.000  H
  C226     1.0000 0.26370  0.05920  0.61360  Biso   1.000  C
  C227     1.0000 0.24490  0.02340  0.59050  Biso   1.000  C
  H143     1.0000 0.22800  0.02830  0.56410  Biso   1.000  H
  C228     1.0000 0.25150  0.97880  0.60760  Biso   1.000  C
  H144     1.0000 0.24180  0.95410  0.59020  Biso   1.000  H
  Yb13     1.0000 0.74954  0.25046  0.75046  Biso   1.000  Yb
  Yb14     1.0000 0.75046  0.74954  0.25046  Biso   1.000  Yb
  Yb15     1.0000 0.25046  0.75046  0.74954  Biso   1.000  Yb
  Yb16     1.0000 0.24954  0.24954  0.24954  Biso   1.000  Yb
  O61      1.0000 0.17257  0.17257  0.17257  Biso   1.000  O
  H145     1.0000 0.15587  0.15587  0.15587  Biso   1.000  H
  O62      1.0000 0.32743  0.82743  0.67257  Biso   1.000  O
  H146     1.0000 0.34413  0.84413  0.65587  Biso   1.000  H
  O63      1.0000 0.82743  0.67257  0.32743  Biso   1.000  O
  H147     1.0000 0.84413  0.65587  0.34413  Biso   1.000  H
  O64      1.0000 0.67257  0.32743  0.82743  Biso   1.000  O
  H148     1.0000 0.65587  0.34413  0.84413  Biso   1.000  H
  Yb17     1.0000 0.85567  0.75463  0.81707  Biso   1.000  Yb
  N13      1.0000 0.89240  0.75020  0.18680  Biso   1.000  N
  O65      1.0000 0.18060  0.74990  0.21980  Biso   1.000  O
  O66      1.0000 0.18479  0.70750  0.15740  Biso   1.000  O
  O67      1.0000 0.85634  0.75610  0.89195  Biso   1.000  O
  O68      1.0000 0.79670  0.79670  0.91789  Biso   1.000  O
  O69      1.0000 0.77674  0.75100  0.82474  Biso   1.000  O
  H149     1.0000 0.76790  0.72790  0.84000  Biso   1.000  H
  C229     1.0000 0.15930  0.73720  0.18380  Biso   1.000  C
  C230     1.0000 0.11280  0.73360  0.18050  Biso   1.000  C
  C231     1.0000 0.08590  0.75740  0.21200  Biso   1.000  C
  H150     1.0000 0.09920  0.76890  0.23840  Biso   1.000  H
  C232     1.0000 0.03820  0.76420  0.20420  Biso   1.000  C
  H151     1.0000 0.02090  0.78110  0.22470  Biso   1.000  H
  C233     1.0000 0.01860  0.74580  0.16670  Biso   1.000  C
  C234     1.0000 0.04590  0.72310  0.13600  Biso   1.000  C
  H152     1.0000 0.03280  0.71150  0.10960  Biso   1.000  H
  C235     1.0000 0.09240  0.71690  0.14300  Biso   1.000  C
  H153     1.0000 0.10950  0.70100  0.12150  Biso   1.000  H
  C236     1.0000 0.93780  0.74710  0.19080  Biso   1.000  C
  H154     1.0000 0.94920  0.74200  0.22000  Biso   1.000  H
  C237     1.0000 0.96970  0.75060  0.15580  Biso   1.000  C
  C238     1.0000 0.95220  0.75500  0.11270  Biso   1.000  C
  H155     1.0000 0.97180  0.75570  0.08780  Biso   1.000  H
  C239     1.0000 0.90610  0.75830  0.10570  Biso   1.000  C
  C240     1.0000 0.87720  0.75540  0.14250  Biso   1.000  C
  H156     1.0000 0.84600  0.75720  0.13730  Biso   1.000  H
  C241     1.0000 0.83360  0.77570  0.92190  Biso   1.000  C
  C242     1.0000 0.85130  0.77180  0.97080  Biso   1.000  C
  C243     1.0000 0.82800  0.78950  0.00870  Biso   1.000  C
  H157     1.0000 0.80010  0.80410  0.00450  Biso   1.000  H
  C244     1.0000 0.84560  0.78540  0.05160  Biso   1.000  C
  H158     1.0000 0.82960  0.79750  0.07620  Biso   1.000  H
  C245     1.0000 0.88640  0.76370  0.05920  Biso   1.000  C
  C246     1.0000 0.90950  0.74490  0.02340  Biso   1.000  C
  H159     1.0000 0.93590  0.72800  0.02830  Biso   1.000  H
  C247     1.0000 0.89240  0.75150  0.97880  Biso   1.000  C
  H160     1.0000 0.90980  0.74180  0.95410  Biso   1.000  H
  Yb18     1.0000 0.64433  0.24537  0.31707  Biso   1.000  Yb
  N14      1.0000 0.60760  0.24980  0.68680  Biso   1.000  N
  O70      1.0000 0.31940  0.25010  0.71980  Biso   1.000  O
  O71      1.0000 0.31521  0.29250  0.65740  Biso   1.000  O
  O72      1.0000 0.64366  0.24390  0.39195  Biso   1.000  O
  O73      1.0000 0.70330  0.20330  0.41789  Biso   1.000  O
  O74      1.0000 0.72326  0.24900  0.32474  Biso   1.000  O
  H161     1.0000 0.73210  0.27210  0.34000  Biso   1.000  H
  C248     1.0000 0.34070  0.26280  0.68380  Biso   1.000  C
  C249     1.0000 0.38720  0.26640  0.68050  Biso   1.000  C
  C250     1.0000 0.41410  0.24260  0.71200  Biso   1.000  C
  H162     1.0000 0.40080  0.23110  0.73840  Biso   1.000  H
  C251     1.0000 0.46180  0.23580  0.70420  Biso   1.000  C
  H163     1.0000 0.47910  0.21890  0.72470  Biso   1.000  H
  C252     1.0000 0.48140  0.25420  0.66670  Biso   1.000  C
  C253     1.0000 0.45410  0.27690  0.63600  Biso   1.000  C
  H164     1.0000 0.46720  0.28850  0.60960  Biso   1.000  H
  C254     1.0000 0.40760  0.28310  0.64300  Biso   1.000  C
  H165     1.0000 0.39050  0.29900  0.62150  Biso   1.000  H
  C255     1.0000 0.56220  0.25290  0.69080  Biso   1.000  C
  H166     1.0000 0.55080  0.25800  0.72000  Biso   1.000  H
  C256     1.0000 0.53030  0.24940  0.65580  Biso   1.000  C
  C257     1.0000 0.54780  0.24500  0.61270  Biso   1.000  C
  H167     1.0000 0.52820  0.24430  0.58780  Biso   1.000  H
  C258     1.0000 0.59390  0.24170  0.60570  Biso   1.000  C
  C259     1.0000 0.62280  0.24460  0.64250  Biso   1.000  C
  H168     1.0000 0.65400  0.24280  0.63730  Biso   1.000  H
  C260     1.0000 0.66640  0.22430  0.42190  Biso   1.000  C
  C261     1.0000 0.64870  0.22820  0.47080  Biso   1.000  C
  C262     1.0000 0.67200  0.21050  0.50870  Biso   1.000  C
  H169     1.0000 0.69990  0.19590  0.50450  Biso   1.000  H
  C263     1.0000 0.65440  0.21460  0.55160  Biso   1.000  C
  H170     1.0000 0.67040  0.20250  0.57620  Biso   1.000  H
  C264     1.0000 0.61360  0.23630  0.55920  Biso   1.000  C
  C265     1.0000 0.59050  0.25510  0.52340  Biso   1.000  C
  H171     1.0000 0.56410  0.27200  0.52830  Biso   1.000  H
  C266     1.0000 0.60760  0.24850  0.47880  Biso   1.000  C
  H172     1.0000 0.59020  0.25820  0.45410  Biso   1.000  H
  Yb19     1.0000 0.14433  0.25463  0.68293  Biso   1.000  Yb
  N15      1.0000 0.10760  0.25020  0.31320  Biso   1.000  N
  O75      1.0000 0.81940  0.24990  0.28020  Biso   1.000  O
  O76      1.0000 0.81521  0.20750  0.34260  Biso   1.000  O
  O77      1.0000 0.14366  0.25610  0.60805  Biso   1.000  O
  O78      1.0000 0.20330  0.29670  0.58211  Biso   1.000  O
  O79      1.0000 0.22326  0.25100  0.67526  Biso   1.000  O
  H173     1.0000 0.23210  0.22790  0.66000  Biso   1.000  H
  C267     1.0000 0.84070  0.23720  0.31620  Biso   1.000  C
  C268     1.0000 0.88720  0.23360  0.31950  Biso   1.000  C
  C269     1.0000 0.91410  0.25740  0.28800  Biso   1.000  C
  H174     1.0000 0.90080  0.26890  0.26160  Biso   1.000  H
  C270     1.0000 0.96180  0.26420  0.29580  Biso   1.000  C
  H175     1.0000 0.97910  0.28110  0.27530  Biso   1.000  H
  C271     1.0000 0.98140  0.24580  0.33330  Biso   1.000  C
  C272     1.0000 0.95410  0.22310  0.36400  Biso   1.000  C
  H176     1.0000 0.96720  0.21150  0.39040  Biso   1.000  H
  C273     1.0000 0.90760  0.21690  0.35700  Biso   1.000  C
  H177     1.0000 0.89050  0.20100  0.37850  Biso   1.000  H
  C274     1.0000 0.06220  0.24710  0.30920  Biso   1.000  C
  H178     1.0000 0.05080  0.24200  0.28000  Biso   1.000  H
  C275     1.0000 0.03030  0.25060  0.34420  Biso   1.000  C
  C276     1.0000 0.04780  0.25500  0.38730  Biso   1.000  C
  H179     1.0000 0.02820  0.25570  0.41220  Biso   1.000  H
  C277     1.0000 0.09390  0.25830  0.39430  Biso   1.000  C
  C278     1.0000 0.12280  0.25540  0.35750  Biso   1.000  C
  H180     1.0000 0.15400  0.25720  0.36270  Biso   1.000  H
  C279     1.0000 0.16640  0.27570  0.57810  Biso   1.000  C
  C280     1.0000 0.14870  0.27180  0.52920  Biso   1.000  C
  C281     1.0000 0.17200  0.28950  0.49130  Biso   1.000  C
  H181     1.0000 0.19990  0.30410  0.49550  Biso   1.000  H
  C282     1.0000 0.15440  0.28540  0.44840  Biso   1.000  C
  H182     1.0000 0.17040  0.29750  0.42380  Biso   1.000  H
  C283     1.0000 0.11360  0.26370  0.44080  Biso   1.000  C
  C284     1.0000 0.09050  0.24490  0.47660  Biso   1.000  C
  H183     1.0000 0.06410  0.22800  0.47170  Biso   1.000  H
  C285     1.0000 0.10760  0.25150  0.52120  Biso   1.000  C
  H184     1.0000 0.09020  0.24180  0.54590  Biso   1.000  H
  Yb20     1.0000 0.35567  0.74537  0.18293  Biso   1.000  Yb
  N16      1.0000 0.39240  0.74980  0.81320  Biso   1.000  N
  O80      1.0000 0.68060  0.75010  0.78020  Biso   1.000  O
  O81      1.0000 0.68479  0.79250  0.84260  Biso   1.000  O
  O82      1.0000 0.35634  0.74390  0.10805  Biso   1.000  O
  O83      1.0000 0.29670  0.70330  0.08211  Biso   1.000  O
  O84      1.0000 0.27674  0.74900  0.17526  Biso   1.000  O
  H185     1.0000 0.26790  0.77210  0.16000  Biso   1.000  H
  C286     1.0000 0.65930  0.76280  0.81620  Biso   1.000  C
  C287     1.0000 0.61280  0.76640  0.81950  Biso   1.000  C
  C288     1.0000 0.58590  0.74260  0.78800  Biso   1.000  C
  H186     1.0000 0.59920  0.73110  0.76160  Biso   1.000  H
  C289     1.0000 0.53820  0.73580  0.79580  Biso   1.000  C
  H187     1.0000 0.52090  0.71890  0.77530  Biso   1.000  H
  C290     1.0000 0.51860  0.75420  0.83330  Biso   1.000  C
  C291     1.0000 0.54590  0.77690  0.86400  Biso   1.000  C
  H188     1.0000 0.53280  0.78850  0.89040  Biso   1.000  H
  C292     1.0000 0.59240  0.78310  0.85700  Biso   1.000  C
  H189     1.0000 0.60950  0.79900  0.87850  Biso   1.000  H
  C293     1.0000 0.43780  0.75290  0.80920  Biso   1.000  C
  H190     1.0000 0.44920  0.75800  0.78000  Biso   1.000  H
  C294     1.0000 0.46970  0.74940  0.84420  Biso   1.000  C
  C295     1.0000 0.45220  0.74500  0.88730  Biso   1.000  C
  H191     1.0000 0.47180  0.74430  0.91220  Biso   1.000  H
  C296     1.0000 0.40610  0.74170  0.89430  Biso   1.000  C
  C297     1.0000 0.37720  0.74460  0.85750  Biso   1.000  C
  H192     1.0000 0.34600  0.74280  0.86270  Biso   1.000  H
  C298     1.0000 0.33360  0.72430  0.07810  Biso   1.000  C
  C299     1.0000 0.35130  0.72820  0.02920  Biso   1.000  C
  C300     1.0000 0.32800  0.71050  0.99130  Biso   1.000  C
  H193     1.0000 0.30010  0.69590  0.99550  Biso   1.000  H
  C301     1.0000 0.34560  0.71460  0.94840  Biso   1.000  C
  H194     1.0000 0.32960  0.70250  0.92380  Biso   1.000  H
  C302     1.0000 0.38640  0.73630  0.94080  Biso   1.000  C
  C303     1.0000 0.40950  0.75510  0.97660  Biso   1.000  C
  H195     1.0000 0.43590  0.77200  0.97170  Biso   1.000  H
  C304     1.0000 0.39240  0.74850  0.02120  Biso   1.000  C
  H196     1.0000 0.40980  0.75820  0.04590  Biso   1.000  H
  Yb21     1.0000 0.81707  0.85567  0.75463  Biso   1.000  Yb
  N17      1.0000 0.18680  0.89240  0.75020  Biso   1.000  N
  O85      1.0000 0.21980  0.18060  0.74990  Biso   1.000  O
  O86      1.0000 0.15740  0.18479  0.70750  Biso   1.000  O
  O87      1.0000 0.89195  0.85634  0.75610  Biso   1.000  O
  O88      1.0000 0.91789  0.79670  0.79670  Biso   1.000  O
  O89      1.0000 0.82474  0.77674  0.75100  Biso   1.000  O
  H197     1.0000 0.84000  0.76790  0.72790  Biso   1.000  H
  C305     1.0000 0.18380  0.15930  0.73720  Biso   1.000  C
  C306     1.0000 0.18050  0.11280  0.73360  Biso   1.000  C
  C307     1.0000 0.21200  0.08590  0.75740  Biso   1.000  C
  H198     1.0000 0.23840  0.09920  0.76890  Biso   1.000  H
  C308     1.0000 0.20420  0.03820  0.76420  Biso   1.000  C
  H199     1.0000 0.22470  0.02090  0.78110  Biso   1.000  H
  C309     1.0000 0.16670  0.01860  0.74580  Biso   1.000  C
  C310     1.0000 0.13600  0.04590  0.72310  Biso   1.000  C
  H200     1.0000 0.10960  0.03280  0.71150  Biso   1.000  H
  C311     1.0000 0.14300  0.09240  0.71690  Biso   1.000  C
  H201     1.0000 0.12150  0.10950  0.70100  Biso   1.000  H
  C312     1.0000 0.19080  0.93780  0.74710  Biso   1.000  C
  H202     1.0000 0.22000  0.94920  0.74200  Biso   1.000  H
  C313     1.0000 0.15580  0.96970  0.75060  Biso   1.000  C
  C314     1.0000 0.11270  0.95220  0.75500  Biso   1.000  C
  H203     1.0000 0.08780  0.97180  0.75570  Biso   1.000  H
  C315     1.0000 0.10570  0.90610  0.75830  Biso   1.000  C
  C316     1.0000 0.14250  0.87720  0.75540  Biso   1.000  C
  H204     1.0000 0.13730  0.84600  0.75720  Biso   1.000  H
  C317     1.0000 0.92190  0.83360  0.77570  Biso   1.000  C
  C318     1.0000 0.97080  0.85130  0.77180  Biso   1.000  C
  C319     1.0000 0.00870  0.82800  0.78950  Biso   1.000  C
  H205     1.0000 0.00450  0.80010  0.80410  Biso   1.000  H
  C320     1.0000 0.05160  0.84560  0.78540  Biso   1.000  C
  H206     1.0000 0.07620  0.82960  0.79750  Biso   1.000  H
  C321     1.0000 0.05920  0.88640  0.76370  Biso   1.000  C
  C322     1.0000 0.02340  0.90950  0.74490  Biso   1.000  C
  H207     1.0000 0.02830  0.93590  0.72800  Biso   1.000  H
  C323     1.0000 0.97880  0.89240  0.75150  Biso   1.000  C
  H208     1.0000 0.95410  0.90980  0.74180  Biso   1.000  H
  Yb22     1.0000 0.31707  0.64433  0.24537  Biso   1.000  Yb
  N18      1.0000 0.68680  0.60760  0.24980  Biso   1.000  N
  O90      1.0000 0.71980  0.31940  0.25010  Biso   1.000  O
  O91      1.0000 0.65740  0.31521  0.29250  Biso   1.000  O
  O92      1.0000 0.39195  0.64366  0.24390  Biso   1.000  O
  O93      1.0000 0.41789  0.70330  0.20330  Biso   1.000  O
  O94      1.0000 0.32474  0.72326  0.24900  Biso   1.000  O
  H209     1.0000 0.34000  0.73210  0.27210  Biso   1.000  H
  C324     1.0000 0.68380  0.34070  0.26280  Biso   1.000  C
  C325     1.0000 0.68050  0.38720  0.26640  Biso   1.000  C
  C326     1.0000 0.71200  0.41410  0.24260  Biso   1.000  C
  H210     1.0000 0.73840  0.40080  0.23110  Biso   1.000  H
  C327     1.0000 0.70420  0.46180  0.23580  Biso   1.000  C
  H211     1.0000 0.72470  0.47910  0.21890  Biso   1.000  H
  C328     1.0000 0.66670  0.48140  0.25420  Biso   1.000  C
  C329     1.0000 0.63600  0.45410  0.27690  Biso   1.000  C
  H212     1.0000 0.60960  0.46720  0.28850  Biso   1.000  H
  C330     1.0000 0.64300  0.40760  0.28310  Biso   1.000  C
  H213     1.0000 0.62150  0.39050  0.29900  Biso   1.000  H
  C331     1.0000 0.69080  0.56220  0.25290  Biso   1.000  C
  H214     1.0000 0.72000  0.55080  0.25800  Biso   1.000  H
  C332     1.0000 0.65580  0.53030  0.24940  Biso   1.000  C
  C333     1.0000 0.61270  0.54780  0.24500  Biso   1.000  C
  H215     1.0000 0.58780  0.52820  0.24430  Biso   1.000  H
  C334     1.0000 0.60570  0.59390  0.24170  Biso   1.000  C
  C335     1.0000 0.64250  0.62280  0.24460  Biso   1.000  C
  H216     1.0000 0.63730  0.65400  0.24280  Biso   1.000  H
  C336     1.0000 0.42190  0.66640  0.22430  Biso   1.000  C
  C337     1.0000 0.47080  0.64870  0.22820  Biso   1.000  C
  C338     1.0000 0.50870  0.67200  0.21050  Biso   1.000  C
  H217     1.0000 0.50450  0.69990  0.19590  Biso   1.000  H
  C339     1.0000 0.55160  0.65440  0.21460  Biso   1.000  C
  H218     1.0000 0.57620  0.67040  0.20250  Biso   1.000  H
  C340     1.0000 0.55920  0.61360  0.23630  Biso   1.000  C
  C341     1.0000 0.52340  0.59050  0.25510  Biso   1.000  C
  H219     1.0000 0.52830  0.56410  0.27200  Biso   1.000  H
  C342     1.0000 0.47880  0.60760  0.24850  Biso   1.000  C
  H220     1.0000 0.45410  0.59020  0.25820  Biso   1.000  H
  Yb23     1.0000 0.68293  0.14433  0.25463  Biso   1.000  Yb
  N19      1.0000 0.31320  0.10760  0.25020  Biso   1.000  N
  O95      1.0000 0.28020  0.81940  0.24990  Biso   1.000  O
  O96      1.0000 0.34260  0.81521  0.20750  Biso   1.000  O
  O97      1.0000 0.60805  0.14366  0.25610  Biso   1.000  O
  O98      1.0000 0.58211  0.20330  0.29670  Biso   1.000  O
  O99      1.0000 0.67526  0.22326  0.25100  Biso   1.000  O
  H221     1.0000 0.66000  0.23210  0.22790  Biso   1.000  H
  C343     1.0000 0.31620  0.84070  0.23720  Biso   1.000  C
  C344     1.0000 0.31950  0.88720  0.23360  Biso   1.000  C
  C345     1.0000 0.28800  0.91410  0.25740  Biso   1.000  C
  H222     1.0000 0.26160  0.90080  0.26890  Biso   1.000  H
  C346     1.0000 0.29580  0.96180  0.26420  Biso   1.000  C
  H223     1.0000 0.27530  0.97910  0.28110  Biso   1.000  H
  C347     1.0000 0.33330  0.98140  0.24580  Biso   1.000  C
  C348     1.0000 0.36400  0.95410  0.22310  Biso   1.000  C
  H224     1.0000 0.39040  0.96720  0.21150  Biso   1.000  H
  C349     1.0000 0.35700  0.90760  0.21690  Biso   1.000  C
  H225     1.0000 0.37850  0.89050  0.20100  Biso   1.000  H
  C350     1.0000 0.30920  0.06220  0.24710  Biso   1.000  C
  H226     1.0000 0.28000  0.05080  0.24200  Biso   1.000  H
  C351     1.0000 0.34420  0.03030  0.25060  Biso   1.000  C
  C352     1.0000 0.38730  0.04780  0.25500  Biso   1.000  C
  H227     1.0000 0.41220  0.02820  0.25570  Biso   1.000  H
  C353     1.0000 0.39430  0.09390  0.25830  Biso   1.000  C
  C354     1.0000 0.35750  0.12280  0.25540  Biso   1.000  C
  H228     1.0000 0.36270  0.15400  0.25720  Biso   1.000  H
  C355     1.0000 0.57810  0.16640  0.27570  Biso   1.000  C
  C356     1.0000 0.52920  0.14870  0.27180  Biso   1.000  C
  C357     1.0000 0.49130  0.17200  0.28950  Biso   1.000  C
  H229     1.0000 0.49550  0.19990  0.30410  Biso   1.000  H
  C358     1.0000 0.44840  0.15440  0.28540  Biso   1.000  C
  H230     1.0000 0.42380  0.17040  0.29750  Biso   1.000  H
  C359     1.0000 0.44080  0.11360  0.26370  Biso   1.000  C
  C360     1.0000 0.47660  0.09050  0.24490  Biso   1.000  C
  H231     1.0000 0.47170  0.06410  0.22800  Biso   1.000  H
  C361     1.0000 0.52120  0.10760  0.25150  Biso   1.000  C
  H232     1.0000 0.54590  0.09020  0.24180  Biso   1.000  H
  Yb24     1.0000 0.18293  0.35567  0.74537  Biso   1.000  Yb
  N20      1.0000 0.81320  0.39240  0.74980  Biso   1.000  N
  O100     1.0000 0.78020  0.68060  0.75010  Biso   1.000  O
  O101     1.0000 0.84260  0.68479  0.79250  Biso   1.000  O
  O102     1.0000 0.10805  0.35634  0.74390  Biso   1.000  O
  O103     1.0000 0.08211  0.29670  0.70330  Biso   1.000  O
  O104     1.0000 0.17526  0.27674  0.74900  Biso   1.000  O
  H233     1.0000 0.16000  0.26790  0.77210  Biso   1.000  H
  C362     1.0000 0.81620  0.65930  0.76280  Biso   1.000  C
  C363     1.0000 0.81950  0.61280  0.76640  Biso   1.000  C
  C364     1.0000 0.78800  0.58590  0.74260  Biso   1.000  C
  H234     1.0000 0.76160  0.59920  0.73110  Biso   1.000  H
  C365     1.0000 0.79580  0.53820  0.73580  Biso   1.000  C
  H235     1.0000 0.77530  0.52090  0.71890  Biso   1.000  H
  C366     1.0000 0.83330  0.51860  0.75420  Biso   1.000  C
  C367     1.0000 0.86400  0.54590  0.77690  Biso   1.000  C
  H236     1.0000 0.89040  0.53280  0.78850  Biso   1.000  H
  C368     1.0000 0.85700  0.59240  0.78310  Biso   1.000  C
  H237     1.0000 0.87850  0.60950  0.79900  Biso   1.000  H
  C369     1.0000 0.80920  0.43780  0.75290  Biso   1.000  C
  H238     1.0000 0.78000  0.44920  0.75800  Biso   1.000  H
  C370     1.0000 0.84420  0.46970  0.74940  Biso   1.000  C
  C371     1.0000 0.88730  0.45220  0.74500  Biso   1.000  C
  H239     1.0000 0.91220  0.47180  0.74430  Biso   1.000  H
  C372     1.0000 0.89430  0.40610  0.74170  Biso   1.000  C
  C373     1.0000 0.85750  0.37720  0.74460  Biso   1.000  C
  H240     1.0000 0.86270  0.34600  0.74280  Biso   1.000  H
  C374     1.0000 0.07810  0.33360  0.72430  Biso   1.000  C
  C375     1.0000 0.02920  0.35130  0.72820  Biso   1.000  C
  C376     1.0000 0.99130  0.32800  0.71050  Biso   1.000  C
  H241     1.0000 0.99550  0.30010  0.69590  Biso   1.000  H
  C377     1.0000 0.94840  0.34560  0.71460  Biso   1.000  C
  H242     1.0000 0.92380  0.32960  0.70250  Biso   1.000  H
  C378     1.0000 0.94080  0.38640  0.73630  Biso   1.000  C
  C379     1.0000 0.97660  0.40950  0.75510  Biso   1.000  C
  H243     1.0000 0.97170  0.43590  0.77200  Biso   1.000  H
  C380     1.0000 0.02120  0.39240  0.74850  Biso   1.000  C
  H244     1.0000 0.04590  0.40980  0.75820  Biso   1.000  H
  Yb25     1.0000 0.75463  0.81707  0.85567  Biso   1.000  Yb
  N21      1.0000 0.75020  0.18680  0.89240  Biso   1.000  N
  O105     1.0000 0.74990  0.21980  0.18060  Biso   1.000  O
  O106     1.0000 0.70750  0.15740  0.18479  Biso   1.000  O
  O107     1.0000 0.75610  0.89195  0.85634  Biso   1.000  O
  O108     1.0000 0.79670  0.91789  0.79670  Biso   1.000  O
  O109     1.0000 0.75100  0.82474  0.77674  Biso   1.000  O
  H245     1.0000 0.72790  0.84000  0.76790  Biso   1.000  H
  C381     1.0000 0.73720  0.18380  0.15930  Biso   1.000  C
  C382     1.0000 0.73360  0.18050  0.11280  Biso   1.000  C
  C383     1.0000 0.75740  0.21200  0.08590  Biso   1.000  C
  H246     1.0000 0.76890  0.23840  0.09920  Biso   1.000  H
  C384     1.0000 0.76420  0.20420  0.03820  Biso   1.000  C
  H247     1.0000 0.78110  0.22470  0.02090  Biso   1.000  H
  C385     1.0000 0.74580  0.16670  0.01860  Biso   1.000  C
  C386     1.0000 0.72310  0.13600  0.04590  Biso   1.000  C
  H248     1.0000 0.71150  0.10960  0.03280  Biso   1.000  H
  C387     1.0000 0.71690  0.14300  0.09240  Biso   1.000  C
  H249     1.0000 0.70100  0.12150  0.10950  Biso   1.000  H
  C388     1.0000 0.74710  0.19080  0.93780  Biso   1.000  C
  H250     1.0000 0.74200  0.22000  0.94920  Biso   1.000  H
  C389     1.0000 0.75060  0.15580  0.96970  Biso   1.000  C
  C390     1.0000 0.75500  0.11270  0.95220  Biso   1.000  C
  H251     1.0000 0.75570  0.08780  0.97180  Biso   1.000  H
  C391     1.0000 0.75830  0.10570  0.90610  Biso   1.000  C
  C392     1.0000 0.75540  0.14250  0.87720  Biso   1.000  C
  H252     1.0000 0.75720  0.13730  0.84600  Biso   1.000  H
  C393     1.0000 0.77570  0.92190  0.83360  Biso   1.000  C
  C394     1.0000 0.77180  0.97080  0.85130  Biso   1.000  C
  C395     1.0000 0.78950  0.00870  0.82800  Biso   1.000  C
  H253     1.0000 0.80410  0.00450  0.80010  Biso   1.000  H
  C396     1.0000 0.78540  0.05160  0.84560  Biso   1.000  C
  H254     1.0000 0.79750  0.07620  0.82960  Biso   1.000  H
  C397     1.0000 0.76370  0.05920  0.88640  Biso   1.000  C
  C398     1.0000 0.74490  0.02340  0.90950  Biso   1.000  C
  H255     1.0000 0.72800  0.02830  0.93590  Biso   1.000  H
  C399     1.0000 0.75150  0.97880  0.89240  Biso   1.000  C
  H256     1.0000 0.74180  0.95410  0.90980  Biso   1.000  H
  Yb26     1.0000 0.24537  0.31707  0.64433  Biso   1.000  Yb
  N22      1.0000 0.24980  0.68680  0.60760  Biso   1.000  N
  O110     1.0000 0.25010  0.71980  0.31940  Biso   1.000  O
  O111     1.0000 0.29250  0.65740  0.31521  Biso   1.000  O
  O112     1.0000 0.24390  0.39195  0.64366  Biso   1.000  O
  O113     1.0000 0.20330  0.41789  0.70330  Biso   1.000  O
  O114     1.0000 0.24900  0.32474  0.72326  Biso   1.000  O
  H257     1.0000 0.27210  0.34000  0.73210  Biso   1.000  H
  C400     1.0000 0.26280  0.68380  0.34070  Biso   1.000  C
  C401     1.0000 0.26640  0.68050  0.38720  Biso   1.000  C
  C402     1.0000 0.24260  0.71200  0.41410  Biso   1.000  C
  H258     1.0000 0.23110  0.73840  0.40080  Biso   1.000  H
  C403     1.0000 0.23580  0.70420  0.46180  Biso   1.000  C
  H259     1.0000 0.21890  0.72470  0.47910  Biso   1.000  H
  C404     1.0000 0.25420  0.66670  0.48140  Biso   1.000  C
  C405     1.0000 0.27690  0.63600  0.45410  Biso   1.000  C
  H260     1.0000 0.28850  0.60960  0.46720  Biso   1.000  H
  C406     1.0000 0.28310  0.64300  0.40760  Biso   1.000  C
  H261     1.0000 0.29900  0.62150  0.39050  Biso   1.000  H
  C407     1.0000 0.25290  0.69080  0.56220  Biso   1.000  C
  H262     1.0000 0.25800  0.72000  0.55080  Biso   1.000  H
  C408     1.0000 0.24940  0.65580  0.53030  Biso   1.000  C
  C409     1.0000 0.24500  0.61270  0.54780  Biso   1.000  C
  H263     1.0000 0.24430  0.58780  0.52820  Biso   1.000  H
  C410     1.0000 0.24170  0.60570  0.59390  Biso   1.000  C
  C411     1.0000 0.24460  0.64250  0.62280  Biso   1.000  C
  H264     1.0000 0.24280  0.63730  0.65400  Biso   1.000  H
  C412     1.0000 0.22430  0.42190  0.66640  Biso   1.000  C
  C413     1.0000 0.22820  0.47080  0.64870  Biso   1.000  C
  C414     1.0000 0.21050  0.50870  0.67200  Biso   1.000  C
  H265     1.0000 0.19590  0.50450  0.69990  Biso   1.000  H
  C415     1.0000 0.21460  0.55160  0.65440  Biso   1.000  C
  H266     1.0000 0.20250  0.57620  0.67040  Biso   1.000  H
  C416     1.0000 0.23630  0.55920  0.61360  Biso   1.000  C
  C417     1.0000 0.25510  0.52340  0.59050  Biso   1.000  C
  H267     1.0000 0.27200  0.52830  0.56410  Biso   1.000  H
  C418     1.0000 0.24850  0.47880  0.60760  Biso   1.000  C
  H268     1.0000 0.25820  0.45410  0.59020  Biso   1.000  H
  Yb27     1.0000 0.25463  0.68293  0.14433  Biso   1.000  Yb
  N23      1.0000 0.25020  0.31320  0.10760  Biso   1.000  N
  O115     1.0000 0.24990  0.28020  0.81940  Biso   1.000  O
  O116     1.0000 0.20750  0.34260  0.81521  Biso   1.000  O
  O117     1.0000 0.25610  0.60805  0.14366  Biso   1.000  O
  O118     1.0000 0.29670  0.58211  0.20330  Biso   1.000  O
  O119     1.0000 0.25100  0.67526  0.22326  Biso   1.000  O
  H269     1.0000 0.22790  0.66000  0.23210  Biso   1.000  H
  C419     1.0000 0.23720  0.31620  0.84070  Biso   1.000  C
  C420     1.0000 0.23360  0.31950  0.88720  Biso   1.000  C
  C421     1.0000 0.25740  0.28800  0.91410  Biso   1.000  C
  H270     1.0000 0.26890  0.26160  0.90080  Biso   1.000  H
  C422     1.0000 0.26420  0.29580  0.96180  Biso   1.000  C
  H271     1.0000 0.28110  0.27530  0.97910  Biso   1.000  H
  C423     1.0000 0.24580  0.33330  0.98140  Biso   1.000  C
  C424     1.0000 0.22310  0.36400  0.95410  Biso   1.000  C
  H272     1.0000 0.21150  0.39040  0.96720  Biso   1.000  H
  C425     1.0000 0.21690  0.35700  0.90760  Biso   1.000  C
  H273     1.0000 0.20100  0.37850  0.89050  Biso   1.000  H
  C426     1.0000 0.24710  0.30920  0.06220  Biso   1.000  C
  H274     1.0000 0.24200  0.28000  0.05080  Biso   1.000  H
  C427     1.0000 0.25060  0.34420  0.03030  Biso   1.000  C
  C428     1.0000 0.25500  0.38730  0.04780  Biso   1.000  C
  H275     1.0000 0.25570  0.41220  0.02820  Biso   1.000  H
  C429     1.0000 0.25830  0.39430  0.09390  Biso   1.000  C
  C430     1.0000 0.25540  0.35750  0.12280  Biso   1.000  C
  H276     1.0000 0.25720  0.36270  0.15400  Biso   1.000  H
  C431     1.0000 0.27570  0.57810  0.16640  Biso   1.000  C
  C432     1.0000 0.27180  0.52920  0.14870  Biso   1.000  C
  C433     1.0000 0.28950  0.49130  0.17200  Biso   1.000  C
  H277     1.0000 0.30410  0.49550  0.19990  Biso   1.000  H
  C434     1.0000 0.28540  0.44840  0.15440  Biso   1.000  C
  H278     1.0000 0.29750  0.42380  0.17040  Biso   1.000  H
  C435     1.0000 0.26370  0.44080  0.11360  Biso   1.000  C
  C436     1.0000 0.24490  0.47660  0.09050  Biso   1.000  C
  H279     1.0000 0.22800  0.47170  0.06410  Biso   1.000  H
  C437     1.0000 0.25150  0.52120  0.10760  Biso   1.000  C
  H280     1.0000 0.24180  0.54590  0.09020  Biso   1.000  H
  Yb28     1.0000 0.74537  0.18293  0.35567  Biso   1.000  Yb
  N24      1.0000 0.74980  0.81320  0.39240  Biso   1.000  N
  O120     1.0000 0.75010  0.78020  0.68060  Biso   1.000  O
  O121     1.0000 0.79250  0.84260  0.68479  Biso   1.000  O
  O122     1.0000 0.74390  0.10805  0.35634  Biso   1.000  O
  O123     1.0000 0.70330  0.08211  0.29670  Biso   1.000  O
  O124     1.0000 0.74900  0.17526  0.27674  Biso   1.000  O
  H281     1.0000 0.77210  0.16000  0.26790  Biso   1.000  H
  C438     1.0000 0.76280  0.81620  0.65930  Biso   1.000  C
  C439     1.0000 0.76640  0.81950  0.61280  Biso   1.000  C
  C440     1.0000 0.74260  0.78800  0.58590  Biso   1.000  C
  H282     1.0000 0.73110  0.76160  0.59920  Biso   1.000  H
  C441     1.0000 0.73580  0.79580  0.53820  Biso   1.000  C
  H283     1.0000 0.71890  0.77530  0.52090  Biso   1.000  H
  C442     1.0000 0.75420  0.83330  0.51860  Biso   1.000  C
  C443     1.0000 0.77690  0.86400  0.54590  Biso   1.000  C
  H284     1.0000 0.78850  0.89040  0.53280  Biso   1.000  H
  C444     1.0000 0.78310  0.85700  0.59240  Biso   1.000  C
  H285     1.0000 0.79900  0.87850  0.60950  Biso   1.000  H
  C445     1.0000 0.75290  0.80920  0.43780  Biso   1.000  C
  H286     1.0000 0.75800  0.78000  0.44920  Biso   1.000  H
  C446     1.0000 0.74940  0.84420  0.46970  Biso   1.000  C
  C447     1.0000 0.74500  0.88730  0.45220  Biso   1.000  C
  H287     1.0000 0.74430  0.91220  0.47180  Biso   1.000  H
  C448     1.0000 0.74170  0.89430  0.40610  Biso   1.000  C
  C449     1.0000 0.74460  0.85750  0.37720  Biso   1.000  C
  H288     1.0000 0.74280  0.86270  0.34600  Biso   1.000  H
  C450     1.0000 0.72430  0.07810  0.33360  Biso   1.000  C
  C451     1.0000 0.72820  0.02920  0.35130  Biso   1.000  C
  C452     1.0000 0.71050  0.99130  0.32800  Biso   1.000  C
  H289     1.0000 0.69590  0.99550  0.30010  Biso   1.000  H
  C453     1.0000 0.71460  0.94840  0.34560  Biso   1.000  C
  H290     1.0000 0.70250  0.92380  0.32960  Biso   1.000  H
  C454     1.0000 0.73630  0.94080  0.38640  Biso   1.000  C
  C455     1.0000 0.75510  0.97660  0.40950  Biso   1.000  C
  H291     1.0000 0.77200  0.97170  0.43590  Biso   1.000  H
  C456     1.0000 0.74850  0.02120  0.39240  Biso   1.000  C
  H292     1.0000 0.75820  0.04590  0.40980  Biso   1.000  H
  Yb29     1.0000 0.25046  0.74954  0.24954  Biso   1.000  Yb
  Yb30     1.0000 0.24954  0.25046  0.74954  Biso   1.000  Yb
  Yb31     1.0000 0.74954  0.24954  0.25046  Biso   1.000  Yb
  Yb32     1.0000 0.75046  0.75046  0.75046  Biso   1.000  Yb
  O125     1.0000 0.82743  0.82743  0.82743  Biso   1.000  O
  H293     1.0000 0.84413  0.84413  0.84413  Biso   1.000  H
  O126     1.0000 0.67257  0.17257  0.32743  Biso   1.000  O
  H294     1.0000 0.65587  0.15587  0.34413  Biso   1.000  H
  O127     1.0000 0.17257  0.32743  0.67257  Biso   1.000  O
  H295     1.0000 0.15587  0.34413  0.65587  Biso   1.000  H
  O128     1.0000 0.32743  0.67257  0.17257  Biso   1.000  O
  H296     1.0000 0.34413  0.65587  0.15587  Biso   1.000  H
