data_ABAYOU_freeONLY_PM
_symmetry_space_group_name_H-M	'P1'
_cell_length_a	26.647000
_cell_length_b	26.647000
_cell_length_c	26.647000
_cell_angle_alpha	90.000000
_cell_angle_beta	90.000000
_cell_angle_gamma	90.000000
_symmetry_Int_Tables_number 1

loop_
_symmetry_equiv_pos_as_xyz
'x,y,z'

loop_
_atom_site_label
_atom_site_type_symbol
_atom_site_fract_x
_atom_site_fract_y
_atom_site_fract_z
O11	O1	0.242600	0.317000	0.053100
O21	O2	0.242600	0.817000	0.553100
O31	O3	0.742600	0.317000	0.553100
O41	O4	0.742600	0.817000	0.053100
O51	O5	0.757400	0.683000	0.053100
O61	O6	0.757400	0.183000	0.553100
O71	O7	0.257400	0.683000	0.553100
O81	O8	0.257400	0.183000	0.053100
O91	O9	0.757400	0.317000	0.946900
O101	O10	0.757400	0.817000	0.446900
O111	O11	0.257400	0.317000	0.446900
O121	O12	0.257400	0.817000	0.946900
O131	O13	0.242600	0.683000	0.946900
O141	O14	0.242600	0.183000	0.446900
O151	O15	0.742600	0.683000	0.446900
O161	O16	0.742600	0.183000	0.946900
O171	O17	0.053100	0.242600	0.317000
O181	O18	0.053100	0.742600	0.817000
O191	O19	0.553100	0.242600	0.817000
O201	O20	0.553100	0.742600	0.317000
O211	O21	0.053100	0.757400	0.683000
O221	O22	0.053100	0.257400	0.183000
O231	O23	0.553100	0.757400	0.183000
O241	O24	0.553100	0.257400	0.683000
O251	O25	0.946900	0.757400	0.317000
O261	O26	0.946900	0.257400	0.817000
O271	O27	0.446900	0.757400	0.817000
O281	O28	0.446900	0.257400	0.317000
O291	O29	0.946900	0.242600	0.683000
O301	O30	0.946900	0.742600	0.183000
O311	O31	0.446900	0.242600	0.183000
O321	O32	0.446900	0.742600	0.683000
O331	O33	0.317000	0.053100	0.242600
O341	O34	0.317000	0.553100	0.742600
O351	O35	0.817000	0.053100	0.742600
O361	O36	0.817000	0.553100	0.242600
O371	O37	0.683000	0.053100	0.757400
O381	O38	0.683000	0.553100	0.257400
O391	O39	0.183000	0.053100	0.257400
O401	O40	0.183000	0.553100	0.757400
O411	O41	0.317000	0.946900	0.757400
O421	O42	0.317000	0.446900	0.257400
O431	O43	0.817000	0.946900	0.257400
O441	O44	0.817000	0.446900	0.757400
O451	O45	0.683000	0.946900	0.242600
O461	O46	0.683000	0.446900	0.742600
O471	O47	0.183000	0.946900	0.742600
O481	O48	0.183000	0.446900	0.242600
O491	O49	0.317000	0.242600	0.946900
O501	O50	0.317000	0.742600	0.446900
O511	O51	0.817000	0.242600	0.446900
O521	O52	0.817000	0.742600	0.946900
O531	O53	0.683000	0.757400	0.946900
O541	O54	0.683000	0.257400	0.446900
O551	O55	0.183000	0.757400	0.446900
O561	O56	0.183000	0.257400	0.946900
O571	O57	0.317000	0.757400	0.053100
O581	O58	0.317000	0.257400	0.553100
O591	O59	0.817000	0.757400	0.553100
O601	O60	0.817000	0.257400	0.053100
O611	O61	0.683000	0.242600	0.053100
O621	O62	0.683000	0.742600	0.553100
O631	O63	0.183000	0.242600	0.553100
O641	O64	0.183000	0.742600	0.053100
O651	O65	0.242600	0.053100	0.683000
O661	O66	0.242600	0.553100	0.183000
O671	O67	0.742600	0.053100	0.183000
O681	O68	0.742600	0.553100	0.683000
O691	O69	0.757400	0.053100	0.317000
O701	O70	0.757400	0.553100	0.817000
O711	O71	0.257400	0.053100	0.817000
O721	O72	0.257400	0.553100	0.317000
O731	O73	0.757400	0.946900	0.683000
O741	O74	0.757400	0.446900	0.183000
O751	O75	0.257400	0.946900	0.183000
O761	O76	0.257400	0.446900	0.683000
O771	O77	0.242600	0.946900	0.317000
O781	O78	0.242600	0.446900	0.817000
O791	O79	0.742600	0.946900	0.817000
O801	O80	0.742600	0.446900	0.317000
O811	O81	0.053100	0.317000	0.757400
O821	O82	0.053100	0.817000	0.257400
O831	O83	0.553100	0.317000	0.257400
O841	O84	0.553100	0.817000	0.757400
O851	O85	0.053100	0.683000	0.242600
O861	O86	0.053100	0.183000	0.742600
O871	O87	0.553100	0.683000	0.742600
O881	O88	0.553100	0.183000	0.242600
O891	O89	0.946900	0.317000	0.242600
O901	O90	0.946900	0.817000	0.742600
O911	O91	0.446900	0.317000	0.742600
O921	O92	0.446900	0.817000	0.242600
O931	O93	0.946900	0.683000	0.757400
O941	O94	0.946900	0.183000	0.257400
O951	O95	0.446900	0.683000	0.257400
O961	O96	0.446900	0.183000	0.757400
O971	O97	0.757400	0.683000	0.946900
O981	O98	0.757400	0.183000	0.446900
O991	O99	0.257400	0.683000	0.446900
O1001	O100	0.257400	0.183000	0.946900
O1011	O101	0.242600	0.317000	0.946900
O1021	O102	0.242600	0.817000	0.446900
O1031	O103	0.742600	0.317000	0.446900
O1041	O104	0.742600	0.817000	0.946900
O1051	O105	0.242600	0.683000	0.053100
O1061	O106	0.242600	0.183000	0.553100
O1071	O107	0.742600	0.683000	0.553100
O1081	O108	0.742600	0.183000	0.053100
O1091	O109	0.757400	0.317000	0.053100
O1101	O110	0.757400	0.817000	0.553100
O1111	O111	0.257400	0.317000	0.553100
O1121	O112	0.257400	0.817000	0.053100
O1131	O113	0.946900	0.757400	0.683000
O1141	O114	0.946900	0.257400	0.183000
O1151	O115	0.446900	0.757400	0.183000
O1161	O116	0.446900	0.257400	0.683000
O1171	O117	0.946900	0.242600	0.317000
O1181	O118	0.946900	0.742600	0.817000
O1191	O119	0.446900	0.242600	0.817000
O1201	O120	0.446900	0.742600	0.317000
O1211	O121	0.053100	0.242600	0.683000
O1221	O122	0.053100	0.742600	0.183000
O1231	O123	0.553100	0.242600	0.183000
O1241	O124	0.553100	0.742600	0.683000
O1251	O125	0.053100	0.757400	0.317000
O1261	O126	0.053100	0.257400	0.817000
O1271	O127	0.553100	0.757400	0.817000
O1281	O128	0.553100	0.257400	0.317000
O1291	O129	0.683000	0.946900	0.757400
O1301	O130	0.683000	0.446900	0.257400
O1311	O131	0.183000	0.946900	0.257400
O1321	O132	0.183000	0.446900	0.757400
O1331	O133	0.317000	0.946900	0.242600
O1341	O134	0.317000	0.446900	0.742600
O1351	O135	0.817000	0.946900	0.742600
O1361	O136	0.817000	0.446900	0.242600
O1371	O137	0.683000	0.053100	0.242600
O1381	O138	0.683000	0.553100	0.742600
O1391	O139	0.183000	0.053100	0.742600
O1401	O140	0.183000	0.553100	0.242600
O1411	O141	0.317000	0.053100	0.757400
O1421	O142	0.317000	0.553100	0.257400
O1431	O143	0.817000	0.053100	0.257400
O1441	O144	0.817000	0.553100	0.757400
O1451	O145	0.683000	0.757400	0.053100
O1461	O146	0.683000	0.257400	0.553100
O1471	O147	0.183000	0.757400	0.553100
O1481	O148	0.183000	0.257400	0.053100
O1491	O149	0.317000	0.242600	0.053100
O1501	O150	0.317000	0.742600	0.553100
O1511	O151	0.817000	0.242600	0.553100
O1521	O152	0.817000	0.742600	0.053100
O1531	O153	0.683000	0.242600	0.946900
O1541	O154	0.683000	0.742600	0.446900
O1551	O155	0.183000	0.242600	0.446900
O1561	O156	0.183000	0.742600	0.946900
O1571	O157	0.317000	0.757400	0.946900
O1581	O158	0.317000	0.257400	0.446900
O1591	O159	0.817000	0.757400	0.446900
O1601	O160	0.817000	0.257400	0.946900
O1611	O161	0.757400	0.946900	0.317000
O1621	O162	0.757400	0.446900	0.817000
O1631	O163	0.257400	0.946900	0.817000
O1641	O164	0.257400	0.446900	0.317000
O1651	O165	0.242600	0.946900	0.683000
O1661	O166	0.242600	0.446900	0.183000
O1671	O167	0.742600	0.946900	0.183000
O1681	O168	0.742600	0.446900	0.683000
O1691	O169	0.242600	0.053100	0.317000
O1701	O170	0.242600	0.553100	0.817000
O1711	O171	0.742600	0.053100	0.817000
O1721	O172	0.742600	0.553100	0.317000
O1731	O173	0.757400	0.053100	0.683000
O1741	O174	0.757400	0.553100	0.183000
O1751	O175	0.257400	0.053100	0.183000
O1761	O176	0.257400	0.553100	0.683000
O1771	O177	0.946900	0.683000	0.242600
O1781	O178	0.946900	0.183000	0.742600
O1791	O179	0.446900	0.683000	0.742600
O1801	O180	0.446900	0.183000	0.242600
O1811	O181	0.946900	0.317000	0.757400
O1821	O182	0.946900	0.817000	0.257400
O1831	O183	0.446900	0.317000	0.257400
O1841	O184	0.446900	0.817000	0.757400
O1851	O185	0.053100	0.683000	0.757400
O1861	O186	0.053100	0.183000	0.257400
O1871	O187	0.553100	0.683000	0.257400
O1881	O188	0.553100	0.183000	0.757400
O1891	O189	0.053100	0.317000	0.242600
O1901	O190	0.053100	0.817000	0.742600
O1911	O191	0.553100	0.317000	0.742600
O1921	O192	0.553100	0.817000	0.242600
Co11	Co1	0.289760	0.289760	0.000000
Cl11	Cl1	0.350400	0.350400	0.000000
Co21	Co2	0.289760	0.789760	0.500000
Cl21	Cl2	0.350400	0.850400	0.500000
Co31	Co3	0.789760	0.289760	0.500000
Cl31	Cl3	0.850400	0.350400	0.500000
Co41	Co4	0.789760	0.789760	0.000000
Cl41	Cl4	0.850400	0.850400	0.000000
Co51	Co5	0.710240	0.710240	0.000000
Cl51	Cl5	0.649600	0.649600	0.000000
Co61	Co6	0.710240	0.210240	0.500000
Cl61	Cl6	0.649600	0.149600	0.500000
Co71	Co7	0.210240	0.710240	0.500000
Cl71	Cl7	0.149600	0.649600	0.500000
Co81	Co8	0.210240	0.210240	0.000000
Cl81	Cl8	0.149600	0.149600	0.000000
Co91	Co9	0.710240	0.289760	0.000000
Cl91	Cl9	0.649600	0.350400	0.000000
Co101	Co10	0.710240	0.789760	0.500000
Cl101	Cl10	0.649600	0.850400	0.500000
Co111	Co11	0.210240	0.289760	0.500000
Cl111	Cl11	0.149600	0.350400	0.500000
Co121	Co12	0.210240	0.789760	0.000000
Cl121	Cl12	0.149600	0.850400	0.000000
Co131	Co13	0.289760	0.710240	0.000000
Cl131	Cl13	0.350400	0.649600	0.000000
Co141	Co14	0.289760	0.210240	0.500000
Cl141	Cl14	0.350400	0.149600	0.500000
Co151	Co15	0.789760	0.710240	0.500000
Cl151	Cl15	0.850400	0.649600	0.500000
Co161	Co16	0.789760	0.210240	0.000000
Cl161	Cl16	0.850400	0.149600	0.000000
Co171	Co17	0.000000	0.289760	0.289760
Cl171	Cl17	0.000000	0.350400	0.350400
Co181	Co18	0.000000	0.789760	0.789760
Cl181	Cl18	0.000000	0.850400	0.850400
Co191	Co19	0.500000	0.289760	0.789760
Cl191	Cl19	0.500000	0.350400	0.850400
Co201	Co20	0.500000	0.789760	0.289760
Cl201	Cl20	0.500000	0.850400	0.350400
Co211	Co21	0.000000	0.710240	0.710240
Cl211	Cl21	0.000000	0.649600	0.649600
Co221	Co22	0.000000	0.210240	0.210240
Cl221	Cl22	0.000000	0.149600	0.149600
Co231	Co23	0.500000	0.710240	0.210240
Cl231	Cl23	0.500000	0.649600	0.149600
Co241	Co24	0.500000	0.210240	0.710240
Cl241	Cl24	0.500000	0.149600	0.649600
Co251	Co25	0.000000	0.710240	0.289760
Cl251	Cl25	0.000000	0.649600	0.350400
Co261	Co26	0.000000	0.210240	0.789760
Cl261	Cl26	0.000000	0.149600	0.850400
Co271	Co27	0.500000	0.710240	0.789760
Cl271	Cl27	0.500000	0.649600	0.850400
Co281	Co28	0.500000	0.210240	0.289760
Cl281	Cl28	0.500000	0.149600	0.350400
Co291	Co29	0.000000	0.289760	0.710240
Cl291	Cl29	0.000000	0.350400	0.649600
Co301	Co30	0.000000	0.789760	0.210240
Cl301	Cl30	0.000000	0.850400	0.149600
Co311	Co31	0.500000	0.289760	0.210240
Cl311	Cl31	0.500000	0.350400	0.149600
Co321	Co32	0.500000	0.789760	0.710240
Cl321	Cl32	0.500000	0.850400	0.649600
Co331	Co33	0.289760	0.000000	0.289760
Cl331	Cl33	0.350400	0.000000	0.350400
Co341	Co34	0.289760	0.500000	0.789760
Cl341	Cl34	0.350400	0.500000	0.850400
Co351	Co35	0.789760	0.000000	0.789760
Cl351	Cl35	0.850400	0.000000	0.850400
Co361	Co36	0.789760	0.500000	0.289760
Cl361	Cl36	0.850400	0.500000	0.350400
Co371	Co37	0.710240	0.000000	0.710240
Cl371	Cl37	0.649600	0.000000	0.649600
Co381	Co38	0.710240	0.500000	0.210240
Cl381	Cl38	0.649600	0.500000	0.149600
Co391	Co39	0.210240	0.000000	0.210240
Cl391	Cl39	0.149600	0.000000	0.149600
Co401	Co40	0.210240	0.500000	0.710240
Cl401	Cl40	0.149600	0.500000	0.649600
Co411	Co41	0.289760	0.000000	0.710240
Cl411	Cl41	0.350400	0.000000	0.649600
Co421	Co42	0.289760	0.500000	0.210240
Cl421	Cl42	0.350400	0.500000	0.149600
Co431	Co43	0.789760	0.000000	0.210240
Cl431	Cl43	0.850400	0.000000	0.149600
Co441	Co44	0.789760	0.500000	0.710240
Cl441	Cl44	0.850400	0.500000	0.649600
Co451	Co45	0.710240	0.000000	0.289760
Cl451	Cl45	0.649600	0.000000	0.350400
Co461	Co46	0.710240	0.500000	0.789760
Cl461	Cl46	0.649600	0.500000	0.850400
Co471	Co47	0.210240	0.000000	0.789760
Cl471	Cl47	0.149600	0.000000	0.850400
Co481	Co48	0.210240	0.500000	0.289760
Cl481	Cl48	0.149600	0.500000	0.350400
C11	C1	0.202400	0.297600	0.069000
C21	C2	0.177800	0.322200	0.114300
C31	C3	0.202400	0.797600	0.569000
C41	C4	0.177800	0.822200	0.614300
C51	C5	0.797600	0.702400	0.069000
C61	C6	0.822200	0.677800	0.114300
C71	C7	0.797600	0.202400	0.569000
C81	C8	0.822200	0.177800	0.614300
C91	C9	0.297600	0.202400	0.069000
C101	C10	0.322200	0.177800	0.114300
C111	C11	0.797600	0.297600	0.931000
C121	C12	0.822200	0.322200	0.885700
C131	C13	0.797600	0.797600	0.431000
C141	C14	0.822200	0.822200	0.385700
C151	C15	0.297600	0.297600	0.431000
C161	C16	0.322200	0.322200	0.385700
C171	C17	0.202400	0.702400	0.931000
C181	C18	0.177800	0.677800	0.885700
C191	C19	0.202400	0.202400	0.431000
C201	C20	0.177800	0.177800	0.385700
C211	C21	0.069000	0.202400	0.297600
C221	C22	0.114300	0.177800	0.322200
C231	C23	0.569000	0.202400	0.797600
C241	C24	0.614300	0.177800	0.822200
C251	C25	0.069000	0.797600	0.702400
C261	C26	0.114300	0.822200	0.677800
C271	C27	0.069000	0.297600	0.202400
C281	C28	0.114300	0.322200	0.177800
C291	C29	0.569000	0.797600	0.202400
C301	C30	0.614300	0.822200	0.177800
C311	C31	0.931000	0.797600	0.297600
C321	C32	0.885700	0.822200	0.322200
C331	C33	0.431000	0.797600	0.797600
C341	C34	0.385700	0.822200	0.822200
C351	C35	0.431000	0.297600	0.297600
C361	C36	0.385700	0.322200	0.322200
C371	C37	0.931000	0.202400	0.702400
C381	C38	0.885700	0.177800	0.677800
C391	C39	0.431000	0.202400	0.202400
C401	C40	0.385700	0.177800	0.177800
C411	C41	0.297600	0.069000	0.202400
C421	C42	0.322200	0.114300	0.177800
C431	C43	0.297600	0.569000	0.702400
C441	C44	0.322200	0.614300	0.677800
C451	C45	0.702400	0.069000	0.797600
C461	C46	0.677800	0.114300	0.822200
C471	C47	0.702400	0.569000	0.297600
C481	C48	0.677800	0.614300	0.322200
C491	C49	0.202400	0.069000	0.297600
C501	C50	0.177800	0.114300	0.322200
C511	C51	0.297600	0.931000	0.797600
C521	C52	0.322200	0.885700	0.822200
C531	C53	0.297600	0.431000	0.297600
C541	C54	0.322200	0.385700	0.322200
C551	C55	0.702400	0.931000	0.202400
C561	C56	0.677800	0.885700	0.177800
C571	C57	0.702400	0.431000	0.702400
C581	C58	0.677800	0.385700	0.677800
C591	C59	0.202400	0.431000	0.202400
C601	C60	0.177800	0.385700	0.177800
C611	C61	0.297600	0.202400	0.931000
C621	C62	0.322200	0.177800	0.885700
C631	C63	0.297600	0.702400	0.431000
C641	C64	0.322200	0.677800	0.385700
C651	C65	0.702400	0.797600	0.931000
C661	C66	0.677800	0.822200	0.885700
C671	C67	0.702400	0.297600	0.431000
C681	C68	0.677800	0.322200	0.385700
C691	C69	0.202400	0.297600	0.931000
C701	C70	0.177800	0.322200	0.885700
C711	C71	0.297600	0.797600	0.069000
C721	C72	0.322200	0.822200	0.114300
C731	C73	0.297600	0.297600	0.569000
C741	C74	0.322200	0.322200	0.614300
C751	C75	0.702400	0.202400	0.069000
C761	C76	0.677800	0.177800	0.114300
C771	C77	0.702400	0.702400	0.569000
C781	C78	0.677800	0.677800	0.614300
C791	C79	0.202400	0.202400	0.569000
C801	C80	0.177800	0.177800	0.614300
C811	C81	0.202400	0.069000	0.702400
C821	C82	0.177800	0.114300	0.677800
C831	C83	0.202400	0.569000	0.202400
C841	C84	0.177800	0.614300	0.177800
C851	C85	0.797600	0.069000	0.297600
C861	C86	0.822200	0.114300	0.322200
C871	C87	0.797600	0.569000	0.797600
C881	C88	0.822200	0.614300	0.822200
C891	C89	0.297600	0.569000	0.297600
C901	C90	0.322200	0.614300	0.322200
C911	C91	0.797600	0.931000	0.702400
C921	C92	0.822200	0.885700	0.677800
C931	C93	0.797600	0.431000	0.202400
C941	C94	0.822200	0.385700	0.177800
C951	C95	0.297600	0.931000	0.202400
C961	C96	0.322200	0.885700	0.177800
C971	C97	0.202400	0.931000	0.297600
C981	C98	0.177800	0.885700	0.322200
C991	C99	0.202400	0.431000	0.797600
C1001	C100	0.177800	0.385700	0.822200
C1011	C101	0.069000	0.297600	0.797600
C1021	C102	0.114300	0.322200	0.822200
C1031	C103	0.569000	0.297600	0.297600
C1041	C104	0.614300	0.322200	0.322200
C1051	C105	0.069000	0.702400	0.202400
C1061	C106	0.114300	0.677800	0.177800
C1071	C107	0.569000	0.702400	0.702400
C1081	C108	0.614300	0.677800	0.677800
C1091	C109	0.569000	0.202400	0.202400
C1101	C110	0.614300	0.177800	0.177800
C1111	C111	0.931000	0.297600	0.202400
C1121	C112	0.885700	0.322200	0.177800
C1131	C113	0.431000	0.297600	0.702400
C1141	C114	0.385700	0.322200	0.677800
C1151	C115	0.931000	0.702400	0.797600
C1161	C116	0.885700	0.677800	0.822200
C1171	C117	0.931000	0.202400	0.297600
C1181	C118	0.885700	0.177800	0.322200
C1191	C119	0.431000	0.702400	0.297600
C1201	C120	0.385700	0.677800	0.322200
C1211	C121	0.797600	0.702400	0.931000
C1221	C122	0.822200	0.677800	0.885700
C1231	C123	0.797600	0.202400	0.431000
C1241	C124	0.822200	0.177800	0.385700
C1251	C125	0.202400	0.797600	0.431000
C1261	C126	0.177800	0.822200	0.385700
C1271	C127	0.202400	0.702400	0.069000
C1281	C128	0.177800	0.677800	0.114300
C1291	C129	0.797600	0.297600	0.069000
C1301	C130	0.822200	0.322200	0.114300
C1311	C131	0.797600	0.797600	0.569000
C1321	C132	0.822200	0.822200	0.614300
C1331	C133	0.931000	0.797600	0.702400
C1341	C134	0.885700	0.822200	0.677800
C1351	C135	0.431000	0.797600	0.202400
C1361	C136	0.385700	0.822200	0.177800
C1371	C137	0.431000	0.202400	0.797600
C1381	C138	0.385700	0.177800	0.822200
C1391	C139	0.069000	0.202400	0.702400
C1401	C140	0.114300	0.177800	0.677800
C1411	C141	0.069000	0.797600	0.297600
C1421	C142	0.114300	0.822200	0.322200
C1431	C143	0.569000	0.797600	0.797600
C1441	C144	0.614300	0.822200	0.822200
C1451	C145	0.702400	0.931000	0.797600
C1461	C146	0.677800	0.885700	0.822200
C1471	C147	0.702400	0.431000	0.297600
C1481	C148	0.677800	0.385700	0.322200
C1491	C149	0.297600	0.431000	0.702400
C1501	C150	0.322200	0.385700	0.677800
C1511	C151	0.702400	0.069000	0.202400
C1521	C152	0.677800	0.114300	0.177800
C1531	C153	0.702400	0.569000	0.702400
C1541	C154	0.677800	0.614300	0.677800
C1551	C155	0.297600	0.069000	0.797600
C1561	C156	0.322200	0.114300	0.822200
C1571	C157	0.702400	0.797600	0.069000
C1581	C158	0.677800	0.822200	0.114300
C1591	C159	0.702400	0.297600	0.569000
C1601	C160	0.677800	0.322200	0.614300
C1611	C161	0.297600	0.702400	0.569000
C1621	C162	0.322200	0.677800	0.614300
C1631	C163	0.702400	0.202400	0.931000
C1641	C164	0.677800	0.177800	0.885700
C1651	C165	0.702400	0.702400	0.431000
C1661	C166	0.677800	0.677800	0.385700
C1671	C167	0.297600	0.797600	0.931000
C1681	C168	0.322200	0.822200	0.885700
C1691	C169	0.797600	0.931000	0.297600
C1701	C170	0.822200	0.885700	0.322200
C1711	C171	0.797600	0.431000	0.797600
C1721	C172	0.822200	0.385700	0.822200
C1731	C173	0.202400	0.931000	0.702400
C1741	C174	0.177800	0.885700	0.677800
C1751	C175	0.202400	0.569000	0.797600
C1761	C176	0.177800	0.614300	0.822200
C1771	C177	0.797600	0.069000	0.702400
C1781	C178	0.822200	0.114300	0.677800
C1791	C179	0.797600	0.569000	0.202400
C1801	C180	0.822200	0.614300	0.177800
C1811	C181	0.931000	0.702400	0.202400
C1821	C182	0.885700	0.677800	0.177800
C1831	C183	0.431000	0.702400	0.702400
C1841	C184	0.385700	0.677800	0.677800
C1851	C185	0.931000	0.297600	0.797600
C1861	C186	0.885700	0.322200	0.822200
C1871	C187	0.069000	0.702400	0.797600
C1881	C188	0.114300	0.677800	0.822200
C1891	C189	0.569000	0.702400	0.297600
C1901	C190	0.614300	0.677800	0.322200
C1911	C191	0.569000	0.297600	0.702400
C1921	C192	0.614300	0.322200	0.677800
C1931	C193	0.198400	0.365000	0.135000
H11	H1	0.226300	0.379800	0.120200
C1941	C194	0.698400	0.365000	0.635000
H21	H2	0.726300	0.379800	0.620200
C1951	C195	0.801600	0.635000	0.135000
H31	H3	0.773700	0.620200	0.120200
C1961	C196	0.301600	0.635000	0.635000
H41	H4	0.273700	0.620200	0.620200
C1971	C197	0.301600	0.135000	0.135000
H51	H5	0.273700	0.120200	0.120200
C1981	C198	0.801600	0.365000	0.865000
H61	H6	0.773700	0.379800	0.879800
C1991	C199	0.301600	0.365000	0.365000
H71	H7	0.273700	0.379800	0.379800
C2001	C200	0.198400	0.635000	0.865000
H81	H8	0.226300	0.620200	0.879800
C2011	C201	0.198400	0.135000	0.365000
H91	H9	0.226300	0.120200	0.379800
C2021	C202	0.698400	0.635000	0.365000
H101	H10	0.726300	0.620200	0.379800
C2031	C203	0.135000	0.198400	0.365000
H111	H11	0.120200	0.226300	0.379800
C2041	C204	0.135000	0.698400	0.865000
H121	H12	0.120200	0.726300	0.879800
C2051	C205	0.135000	0.801600	0.635000
H131	H13	0.120200	0.773700	0.620200
C2061	C206	0.135000	0.301600	0.135000
H141	H14	0.120200	0.273700	0.120200
C2071	C207	0.865000	0.801600	0.365000
H151	H15	0.879800	0.773700	0.379800
C2081	C208	0.865000	0.301600	0.865000
H161	H16	0.879800	0.273700	0.879800
C2091	C209	0.365000	0.301600	0.365000
H171	H17	0.379800	0.273700	0.379800
C2101	C210	0.865000	0.198400	0.635000
H181	H18	0.879800	0.226300	0.620200
C2111	C211	0.865000	0.698400	0.135000
H191	H19	0.879800	0.726300	0.120200
C2121	C212	0.365000	0.198400	0.135000
H201	H20	0.379800	0.226300	0.120200
C2131	C213	0.365000	0.135000	0.198400
H211	H21	0.379800	0.120200	0.226300
C2141	C214	0.365000	0.635000	0.698400
H221	H22	0.379800	0.620200	0.726300
C2151	C215	0.635000	0.135000	0.801600
H231	H23	0.620200	0.120200	0.773700
C2161	C216	0.635000	0.635000	0.301600
H241	H24	0.620200	0.620200	0.273700
C2171	C217	0.135000	0.135000	0.301600
H251	H25	0.120200	0.120200	0.273700
C2181	C218	0.365000	0.865000	0.801600
H261	H26	0.379800	0.879800	0.773700
C2191	C219	0.365000	0.365000	0.301600
H271	H27	0.379800	0.379800	0.273700
C2201	C220	0.635000	0.865000	0.198400
H281	H28	0.620200	0.879800	0.226300
C2211	C221	0.635000	0.365000	0.698400
H291	H29	0.620200	0.379800	0.726300
C2221	C222	0.135000	0.365000	0.198400
H301	H30	0.120200	0.379800	0.226300
C2231	C223	0.365000	0.198400	0.865000
H311	H31	0.379800	0.226300	0.879800
C2241	C224	0.365000	0.698400	0.365000
H321	H32	0.379800	0.726300	0.379800
C2251	C225	0.635000	0.801600	0.865000
H331	H33	0.620200	0.773700	0.879800
C2261	C226	0.635000	0.301600	0.365000
H341	H34	0.620200	0.273700	0.379800
C2271	C227	0.135000	0.801600	0.365000
H351	H35	0.120200	0.773700	0.379800
C2281	C228	0.365000	0.801600	0.135000
H361	H36	0.379800	0.773700	0.120200
C2291	C229	0.365000	0.301600	0.635000
H371	H37	0.379800	0.273700	0.620200
C2301	C230	0.635000	0.198400	0.135000
H381	H38	0.620200	0.226300	0.120200
C2311	C231	0.635000	0.698400	0.635000
H391	H39	0.620200	0.726300	0.620200
C2321	C232	0.135000	0.698400	0.135000
H401	H40	0.120200	0.726300	0.120200
C2331	C233	0.198400	0.135000	0.635000
H411	H41	0.226300	0.120200	0.620200
C2341	C234	0.698400	0.135000	0.135000
H421	H42	0.726300	0.120200	0.120200
C2351	C235	0.801600	0.135000	0.365000
H431	H43	0.773700	0.120200	0.379800
C2361	C236	0.301600	0.135000	0.865000
H441	H44	0.273700	0.120200	0.879800
C2371	C237	0.801600	0.865000	0.635000
H451	H45	0.773700	0.879800	0.620200
C2381	C238	0.801600	0.365000	0.135000
H461	H46	0.773700	0.379800	0.120200
C2391	C239	0.301600	0.865000	0.135000
H471	H47	0.273700	0.879800	0.120200
C2401	C240	0.198400	0.865000	0.365000
H481	H48	0.226300	0.879800	0.379800
C2411	C241	0.698400	0.865000	0.865000
H491	H49	0.726300	0.879800	0.879800
C2421	C242	0.698400	0.365000	0.365000
H501	H50	0.726300	0.379800	0.379800
C2431	C243	0.135000	0.365000	0.801600
H511	H51	0.120200	0.379800	0.773700
C2441	C244	0.135000	0.865000	0.301600
H521	H52	0.120200	0.879800	0.273700
C2451	C245	0.135000	0.635000	0.198400
H531	H53	0.120200	0.620200	0.226300
C2461	C246	0.135000	0.135000	0.698400
H541	H54	0.120200	0.120200	0.726300
C2471	C247	0.865000	0.365000	0.198400
H551	H55	0.879800	0.379800	0.226300
C2481	C248	0.865000	0.865000	0.698400
H561	H56	0.879800	0.879800	0.726300
C2491	C249	0.365000	0.365000	0.698400
H571	H57	0.379800	0.379800	0.726300
C2501	C250	0.865000	0.635000	0.801600
H581	H58	0.879800	0.620200	0.773700
C2511	C251	0.865000	0.135000	0.301600
H591	H59	0.879800	0.120200	0.273700
C2521	C252	0.365000	0.135000	0.801600
H601	H60	0.379800	0.120200	0.773700
C2531	C253	0.801600	0.635000	0.865000
H611	H61	0.773700	0.620200	0.879800
C2541	C254	0.301600	0.635000	0.365000
H621	H62	0.273700	0.620200	0.379800
C2551	C255	0.198400	0.365000	0.865000
H631	H63	0.226300	0.379800	0.879800
C2561	C256	0.198400	0.635000	0.135000
H641	H64	0.226300	0.620200	0.120200
C2571	C257	0.698400	0.635000	0.635000
H651	H65	0.726300	0.620200	0.620200
C2581	C258	0.301600	0.365000	0.635000
H661	H66	0.273700	0.379800	0.620200
C2591	C259	0.865000	0.801600	0.635000
H671	H67	0.879800	0.773700	0.620200
C2601	C260	0.865000	0.301600	0.135000
H681	H68	0.879800	0.273700	0.120200
C2611	C261	0.865000	0.198400	0.365000
H691	H69	0.879800	0.226300	0.379800
C2621	C262	0.865000	0.698400	0.865000
H701	H70	0.879800	0.726300	0.879800
C2631	C263	0.135000	0.198400	0.635000
H711	H71	0.120200	0.226300	0.620200
C2641	C264	0.135000	0.301600	0.865000
H721	H72	0.120200	0.273700	0.879800
C2651	C265	0.635000	0.865000	0.801600
H731	H73	0.620200	0.879800	0.773700
C2661	C266	0.635000	0.365000	0.301600
H741	H74	0.620200	0.379800	0.273700
C2671	C267	0.365000	0.865000	0.198400
H751	H75	0.379800	0.879800	0.226300
C2681	C268	0.635000	0.135000	0.198400
H761	H76	0.620200	0.120200	0.226300
C2691	C269	0.635000	0.635000	0.698400
H771	H77	0.620200	0.620200	0.726300
C2701	C270	0.365000	0.635000	0.301600
H781	H78	0.379800	0.620200	0.273700
C2711	C271	0.635000	0.801600	0.135000
H791	H79	0.620200	0.773700	0.120200
C2721	C272	0.635000	0.301600	0.635000
H801	H80	0.620200	0.273700	0.620200
C2731	C273	0.365000	0.698400	0.635000
H811	H81	0.379800	0.726300	0.620200
C2741	C274	0.635000	0.198400	0.865000
H821	H82	0.620200	0.226300	0.879800
C2751	C275	0.635000	0.698400	0.365000
H831	H83	0.620200	0.726300	0.379800
C2761	C276	0.365000	0.801600	0.865000
H841	H84	0.379800	0.773700	0.879800
C2771	C277	0.801600	0.865000	0.365000
H851	H85	0.773700	0.879800	0.379800
C2781	C278	0.301600	0.865000	0.865000
H861	H86	0.273700	0.879800	0.879800
C2791	C279	0.198400	0.865000	0.635000
H871	H87	0.226300	0.879800	0.620200
C2801	C280	0.698400	0.865000	0.135000
H881	H88	0.726300	0.879800	0.120200
C2811	C281	0.698400	0.135000	0.865000
H891	H89	0.726300	0.120200	0.879800
C2821	C282	0.801600	0.135000	0.635000
H901	H90	0.773700	0.120200	0.620200
C2831	C283	0.865000	0.635000	0.198400
H911	H91	0.879800	0.620200	0.226300
C2841	C284	0.865000	0.135000	0.698400
H921	H92	0.879800	0.120200	0.726300
C2851	C285	0.865000	0.365000	0.801600
H931	H93	0.879800	0.379800	0.773700
C2861	C286	0.865000	0.865000	0.301600
H941	H94	0.879800	0.879800	0.273700
C2871	C287	0.135000	0.635000	0.801600
H951	H95	0.120200	0.620200	0.773700
C2881	C288	0.135000	0.865000	0.698400
H961	H96	0.120200	0.879800	0.726300
