data_ABESUX_freeONLY_PM
_symmetry_space_group_name_H-M	'P1'
_cell_length_a	15.512000
_cell_length_b	13.795300
_cell_length_c	13.019900
_cell_angle_alpha	90.000000
_cell_angle_beta	90.000000
_cell_angle_gamma	90.000000
_symmetry_Int_Tables_number 1

loop_
_symmetry_equiv_pos_as_xyz
'x,y,z'

loop_
_atom_site_label
_atom_site_type_symbol
_atom_site_fract_x
_atom_site_fract_y
_atom_site_fract_z
U11	U1	0.244520	0.490130	0.437330
U21	U2	0.223090	0.238570	0.585770
P11	P1	0.222700	0.018200	0.175700
P21	P2	0.186700	0.242100	0.344500
O11	O1	0.350900	0.445100	0.424800
O21	O2	0.136600	0.530200	0.454900
O31	O3	0.335100	0.232600	0.559500
O41	O4	0.110900	0.240900	0.606600
O51	O5	0.197500	0.327800	0.420500
O61	O6	0.267300	0.093000	0.102700
O71	O7	0.210900	0.931800	0.101100
O81	O8	0.209000	0.153600	0.414100
O91	O9	0.281500	0.992200	0.264100
O101	O10	0.254100	0.251800	0.256800
O111	O11	0.095200	0.238700	0.306000
O121	O12	0.137400	0.053400	0.213500
U31	U3	0.744520	0.990130	0.437330
U41	U4	0.723090	0.738570	0.585770
P31	P3	0.722700	0.518200	0.175700
P41	P4	0.686700	0.742100	0.344500
O131	O13	0.850900	0.945100	0.424800
O141	O14	0.636600	0.030200	0.454900
O151	O15	0.835100	0.732600	0.559500
O161	O16	0.610900	0.740900	0.606600
O171	O17	0.697500	0.827800	0.420500
O181	O18	0.767300	0.593000	0.102700
O191	O19	0.710900	0.431800	0.101100
O201	O20	0.709000	0.653600	0.414100
O211	O21	0.781500	0.492200	0.264100
O221	O22	0.754100	0.751800	0.256800
O231	O23	0.595200	0.738700	0.306000
O241	O24	0.637400	0.553400	0.213500
U51	U5	0.755480	0.509870	0.937330
U61	U6	0.776910	0.761430	0.085770
P51	P5	0.777300	0.981800	0.675700
P61	P6	0.813300	0.757900	0.844500
O251	O25	0.649100	0.554900	0.924800
O261	O26	0.863400	0.469800	0.954900
O271	O27	0.664900	0.767400	0.059500
O281	O28	0.889100	0.759100	0.106600
O291	O29	0.802500	0.672200	0.920500
O301	O30	0.732700	0.907000	0.602700
O311	O31	0.789100	0.068200	0.601100
O321	O32	0.791000	0.846400	0.914100
O331	O33	0.718500	0.007800	0.764100
O341	O34	0.745900	0.748200	0.756800
O351	O35	0.904800	0.761300	0.806000
O361	O36	0.862600	0.946600	0.713500
U71	U7	0.255480	0.009870	0.937330
U81	U8	0.276910	0.261430	0.085770
P71	P7	0.277300	0.481800	0.675700
P81	P8	0.313300	0.257900	0.844500
O371	O37	0.149100	0.054900	0.924800
O381	O38	0.363400	0.969800	0.954900
O391	O39	0.164900	0.267400	0.059500
O401	O40	0.389100	0.259100	0.106600
O411	O41	0.302500	0.172200	0.920500
O421	O42	0.232700	0.407000	0.602700
O431	O43	0.289100	0.568200	0.601100
O441	O44	0.291000	0.346400	0.914100
O451	O45	0.218500	0.507800	0.764100
O461	O46	0.245900	0.248200	0.756800
O471	O47	0.404800	0.261300	0.806000
O481	O48	0.362600	0.446600	0.713500
U91	U9	0.244520	0.509870	0.937330
U101	U10	0.223090	0.761430	0.085770
P91	P9	0.222700	0.981800	0.675700
P101	P10	0.186700	0.757900	0.844500
O491	O49	0.350900	0.554900	0.924800
O501	O50	0.136600	0.469800	0.954900
O511	O51	0.335100	0.767400	0.059500
O521	O52	0.110900	0.759100	0.106600
O531	O53	0.197500	0.672200	0.920500
O541	O54	0.267300	0.907000	0.602700
O551	O55	0.210900	0.068200	0.601100
O561	O56	0.209000	0.846400	0.914100
O571	O57	0.281500	0.007800	0.764100
O581	O58	0.254100	0.748200	0.756800
O591	O59	0.095200	0.761300	0.806000
O601	O60	0.137400	0.946600	0.713500
U111	U11	0.744520	0.009870	0.937330
U121	U12	0.723090	0.261430	0.085770
P111	P11	0.722700	0.481800	0.675700
P121	P12	0.686700	0.257900	0.844500
O611	O61	0.850900	0.054900	0.924800
O621	O62	0.636600	0.969800	0.954900
O631	O63	0.835100	0.267400	0.059500
O641	O64	0.610900	0.259100	0.106600
O651	O65	0.697500	0.172200	0.920500
O661	O66	0.767300	0.407000	0.602700
O671	O67	0.710900	0.568200	0.601100
O681	O68	0.709000	0.346400	0.914100
O691	O69	0.781500	0.507800	0.764100
O701	O70	0.754100	0.248200	0.756800
O711	O71	0.595200	0.261300	0.806000
O721	O72	0.637400	0.446600	0.713500
U131	U13	0.755480	0.490130	0.437330
U141	U14	0.776910	0.238570	0.585770
P131	P13	0.777300	0.018200	0.175700
P141	P14	0.813300	0.242100	0.344500
O731	O73	0.649100	0.445100	0.424800
O741	O74	0.863400	0.530200	0.454900
O751	O75	0.664900	0.232600	0.559500
O761	O76	0.889100	0.240900	0.606600
O771	O77	0.802500	0.327800	0.420500
O781	O78	0.732700	0.093000	0.102700
O791	O79	0.789100	0.931800	0.101100
O801	O80	0.791000	0.153600	0.414100
O811	O81	0.718500	0.992200	0.264100
O821	O82	0.745900	0.251800	0.256800
O831	O83	0.904800	0.238700	0.306000
O841	O84	0.862600	0.053400	0.213500
U151	U15	0.255480	0.990130	0.437330
U161	U16	0.276910	0.738570	0.585770
P151	P15	0.277300	0.518200	0.175700
P161	P16	0.313300	0.742100	0.344500
O851	O85	0.149100	0.945100	0.424800
O861	O86	0.363400	0.030200	0.454900
O871	O87	0.164900	0.732600	0.559500
O881	O88	0.389100	0.740900	0.606600
O891	O89	0.302500	0.827800	0.420500
O901	O90	0.232700	0.593000	0.102700
O911	O91	0.289100	0.431800	0.101100
O921	O92	0.291000	0.653600	0.414100
O931	O93	0.218500	0.492200	0.264100
O941	O94	0.245900	0.751800	0.256800
O951	O95	0.404800	0.738700	0.306000
O961	O96	0.362600	0.553400	0.213500
U171	U17	0.000000	0.116120	0.243940
O971	O97	0.000000	0.176700	0.124600
O981	O98	0.000000	0.056300	0.364500
O991	O99	0.000000	0.952900	0.136600
U181	U18	0.500000	0.616120	0.243940
O1001	O100	0.500000	0.676700	0.124600
O1011	O101	0.500000	0.556300	0.364500
O1021	O102	0.500000	0.452900	0.136600
U191	U19	0.000000	0.883880	0.743940
O1031	O103	0.000000	0.823300	0.624600
O1041	O104	0.000000	0.943700	0.864500
O1051	O105	0.000000	0.047100	0.636600
U201	U20	0.500000	0.383880	0.743940
O1061	O106	0.500000	0.323300	0.624600
O1071	O107	0.500000	0.443700	0.864500
O1081	O108	0.500000	0.547100	0.636600
