data_ABETIN_freeONLY_PM
_symmetry_space_group_name_H-M	'P1'
_cell_length_a	26.962900
_cell_length_b	26.962900
_cell_length_c	27.536500
_cell_angle_alpha	90.000000
_cell_angle_beta	90.000000
_cell_angle_gamma	90.000000
_symmetry_Int_Tables_number 1

loop_
_symmetry_equiv_pos_as_xyz
'x,y,z'

loop_
_atom_site_label
_atom_site_type_symbol
_atom_site_fract_x
_atom_site_fract_y
_atom_site_fract_z
N11	N1	0.418500	0.487700	0.689700
N21	N2	0.691900	0.416600	0.485500
C11	C1	0.395700	0.467000	0.651000
H11	H1	0.366300	0.449700	0.656200
C21	C2	0.413900	0.470100	0.604400
H21	H2	0.396900	0.455600	0.578600
C31	C3	0.458500	0.495500	0.596500
C41	C4	0.483200	0.514300	0.636400
H31	H3	0.514000	0.529400	0.632800
C51	C5	0.461500	0.510400	0.682000
H41	H4	0.477900	0.524300	0.708400
C61	C6	0.479700	0.499400	0.547400
C71	C7	0.528600	0.485300	0.539000
H51	H5	0.548000	0.475800	0.565300
C81	C8	0.549400	0.484900	0.493200
C91	C9	0.599600	0.463500	0.488000
C101	C10	0.638300	0.479700	0.517100
H61	H6	0.634000	0.506600	0.537800
C111	C11	0.683600	0.455400	0.514800
H71	H7	0.709400	0.466600	0.534500
C121	C12	0.655000	0.402000	0.456800
H81	H8	0.660800	0.375900	0.435400
C131	C13	0.608300	0.423700	0.457100
H91	H9	0.583300	0.411800	0.437000
N31	N3	0.918500	0.987700	0.189700
N41	N4	0.191900	0.916600	0.985500
C141	C14	0.895700	0.967000	0.151000
H101	H10	0.866300	0.949700	0.156200
C151	C15	0.913900	0.970100	0.104400
H111	H11	0.896900	0.955600	0.078600
C161	C16	0.958500	0.995500	0.096500
C171	C17	0.983200	0.014300	0.136400
H121	H12	0.014000	0.029400	0.132800
C181	C18	0.961500	0.010400	0.182000
H131	H13	0.977900	0.024300	0.208400
C191	C19	0.979700	0.999400	0.047400
C201	C20	0.028600	0.985300	0.039000
H141	H14	0.048000	0.975800	0.065300
C211	C21	0.049400	0.984900	0.993200
C221	C22	0.099600	0.963500	0.988000
C231	C23	0.138300	0.979700	0.017100
H151	H15	0.134000	0.006600	0.037800
C241	C24	0.183600	0.955400	0.014800
H161	H16	0.209400	0.966600	0.034500
C251	C25	0.155000	0.902000	0.956800
H171	H17	0.160800	0.875900	0.935400
C261	C26	0.108300	0.923700	0.957100
H181	H18	0.083300	0.911800	0.937000
N51	N5	0.081500	0.512300	0.189700
N61	N6	0.808100	0.583400	0.985500
C271	C27	0.104300	0.533000	0.151000
H191	H19	0.133700	0.550300	0.156200
C281	C28	0.086100	0.529900	0.104400
H201	H20	0.103100	0.544400	0.078600
C291	C29	0.041500	0.504500	0.096500
C301	C30	0.016800	0.485700	0.136400
H211	H21	0.986000	0.470600	0.132800
C311	C31	0.038500	0.489600	0.182000
H221	H22	0.022100	0.475700	0.208400
C321	C32	0.020300	0.500600	0.047400
C331	C33	0.971400	0.514700	0.039000
H231	H23	0.952000	0.524200	0.065300
C341	C34	0.950600	0.515100	0.993200
C351	C35	0.900400	0.536500	0.988000
C361	C36	0.861700	0.520300	0.017100
H241	H24	0.866000	0.493400	0.037800
C371	C37	0.816400	0.544600	0.014800
H251	H25	0.790600	0.533400	0.034500
C381	C38	0.845000	0.598000	0.956800
H261	H26	0.839200	0.624100	0.935400
C391	C39	0.891700	0.576300	0.957100
H271	H27	0.916700	0.588200	0.937000
N71	N7	0.581500	0.012300	0.689700
N81	N8	0.308100	0.083400	0.485500
C401	C40	0.604300	0.033000	0.651000
H281	H28	0.633700	0.050300	0.656200
C411	C41	0.586100	0.029900	0.604400
H291	H29	0.603100	0.044400	0.578600
C421	C42	0.541500	0.004500	0.596500
C431	C43	0.516800	0.985700	0.636400
H301	H30	0.486000	0.970600	0.632800
C441	C44	0.538500	0.989600	0.682000
H311	H31	0.522100	0.975700	0.708400
C451	C45	0.520300	0.000600	0.547400
C461	C46	0.471400	0.014700	0.539000
H321	H32	0.452000	0.024200	0.565300
C471	C47	0.450600	0.015100	0.493200
C481	C48	0.400400	0.036500	0.488000
C491	C49	0.361700	0.020300	0.517100
H331	H33	0.366000	0.993400	0.537800
C501	C50	0.316400	0.044600	0.514800
H341	H34	0.290600	0.033400	0.534500
C511	C51	0.345000	0.098000	0.456800
H351	H35	0.339200	0.124100	0.435400
C521	C52	0.391700	0.076300	0.457100
H361	H36	0.416700	0.088200	0.437000
N91	N9	0.762300	0.168500	0.939700
N101	N10	0.833400	0.441900	0.735500
C531	C53	0.783000	0.145700	0.901000
H371	H37	0.800300	0.116300	0.906200
C541	C54	0.779900	0.163900	0.854400
H381	H38	0.794400	0.146900	0.828600
C551	C55	0.754500	0.208500	0.846500
C561	C56	0.735700	0.233200	0.886400
H391	H39	0.720600	0.264000	0.882800
C571	C57	0.739600	0.211500	0.932000
H401	H40	0.725700	0.227900	0.958400
C581	C58	0.750600	0.229700	0.797400
C591	C59	0.764700	0.278600	0.789000
H411	H41	0.774200	0.298000	0.815300
C601	C60	0.765100	0.299400	0.743200
C611	C61	0.786500	0.349600	0.738000
C621	C62	0.770300	0.388300	0.767100
H421	H42	0.743400	0.384000	0.787800
C631	C63	0.794600	0.433600	0.764800
H431	H43	0.783400	0.459400	0.784500
C641	C64	0.848000	0.405000	0.706800
H441	H44	0.874100	0.410800	0.685400
C651	C65	0.826300	0.358300	0.707100
H451	H45	0.838200	0.333300	0.687000
N111	N11	0.262300	0.668500	0.439700
N121	N12	0.333400	0.941900	0.235500
C661	C66	0.283000	0.645700	0.401000
H461	H46	0.300300	0.616300	0.406200
C671	C67	0.279900	0.663900	0.354400
H471	H47	0.294400	0.646900	0.328600
C681	C68	0.254500	0.708500	0.346500
C691	C69	0.235700	0.733200	0.386400
H481	H48	0.220600	0.764000	0.382800
C701	C70	0.239600	0.711500	0.432000
H491	H49	0.225700	0.727900	0.458400
C711	C71	0.250600	0.729700	0.297400
C721	C72	0.264700	0.778600	0.289000
H501	H50	0.274200	0.798000	0.315300
C731	C73	0.265100	0.799400	0.243200
C741	C74	0.286500	0.849600	0.238000
C751	C75	0.270300	0.888300	0.267100
H511	H51	0.243400	0.884000	0.287800
C761	C76	0.294600	0.933600	0.264800
H521	H52	0.283400	0.959400	0.284500
C771	C77	0.348000	0.905000	0.206800
H531	H53	0.374100	0.910800	0.185400
C781	C78	0.326300	0.858300	0.207100
H541	H54	0.338200	0.833300	0.187000
N131	N13	0.737700	0.831500	0.439700
N141	N14	0.666600	0.558100	0.235500
C791	C79	0.717000	0.854300	0.401000
H551	H55	0.699700	0.883700	0.406200
C801	C80	0.720100	0.836100	0.354400
H561	H56	0.705600	0.853100	0.328600
C811	C81	0.745500	0.791500	0.346500
C821	C82	0.764300	0.766800	0.386400
H571	H57	0.779400	0.736000	0.382800
C831	C83	0.760400	0.788500	0.432000
H581	H58	0.774300	0.772100	0.458400
C841	C84	0.749400	0.770300	0.297400
C851	C85	0.735300	0.721400	0.289000
H591	H59	0.725800	0.702000	0.315300
C861	C86	0.734900	0.700600	0.243200
C871	C87	0.713500	0.650400	0.238000
C881	C88	0.729700	0.611700	0.267100
H601	H60	0.756600	0.616000	0.287800
C891	C89	0.705400	0.566400	0.264800
H611	H61	0.716600	0.540600	0.284500
C901	C90	0.652000	0.595000	0.206800
H621	H62	0.625900	0.589200	0.185400
C911	C91	0.673700	0.641700	0.207100
H631	H63	0.661800	0.666700	0.187000
N151	N15	0.237700	0.331500	0.939700
N161	N16	0.166600	0.058100	0.735500
C921	C92	0.217000	0.354300	0.901000
H641	H64	0.199700	0.383700	0.906200
C931	C93	0.220100	0.336100	0.854400
H651	H65	0.205600	0.353100	0.828600
C941	C94	0.245500	0.291500	0.846500
C951	C95	0.264300	0.266800	0.886400
H661	H66	0.279400	0.236000	0.882800
C961	C96	0.260400	0.288500	0.932000
H671	H67	0.274300	0.272100	0.958400
C971	C97	0.249400	0.270300	0.797400
C981	C98	0.235300	0.221400	0.789000
H681	H68	0.225800	0.202000	0.815300
C991	C99	0.234900	0.200600	0.743200
C1001	C100	0.213500	0.150400	0.738000
C1011	C101	0.229700	0.111700	0.767100
H691	H69	0.256600	0.116000	0.787800
C1021	C102	0.205400	0.066400	0.764800
H701	H70	0.216600	0.040600	0.784500
C1031	C103	0.152000	0.095000	0.706800
H711	H71	0.125900	0.089200	0.685400
C1041	C104	0.173700	0.141700	0.707100
H721	H72	0.161800	0.166700	0.687000
N171	N17	0.081500	0.487700	0.310300
N181	N18	0.808100	0.416600	0.514500
C1051	C105	0.104300	0.467000	0.349000
H731	H73	0.133700	0.449700	0.343800
C1061	C106	0.086100	0.470100	0.395600
H741	H74	0.103100	0.455600	0.421400
C1071	C107	0.041500	0.495500	0.403500
C1081	C108	0.016800	0.514300	0.363600
H751	H75	0.986000	0.529400	0.367200
C1091	C109	0.038500	0.510400	0.318000
H761	H76	0.022100	0.524300	0.291600
C1101	C110	0.020300	0.499400	0.452600
C1111	C111	0.971400	0.485300	0.461000
H771	H77	0.952000	0.475800	0.434700
C1121	C112	0.950600	0.484900	0.506800
C1131	C113	0.900400	0.463500	0.512000
C1141	C114	0.861700	0.479700	0.482900
H781	H78	0.866000	0.506600	0.462200
C1151	C115	0.816400	0.455400	0.485200
H791	H79	0.790600	0.466600	0.465500
C1161	C116	0.845000	0.402000	0.543200
H801	H80	0.839200	0.375900	0.564600
C1171	C117	0.891700	0.423700	0.542900
H811	H81	0.916700	0.411800	0.563000
N191	N19	0.581500	0.987700	0.810300
N201	N20	0.308100	0.916600	0.014500
C1181	C118	0.604300	0.967000	0.849000
H821	H82	0.633700	0.949700	0.843800
C1191	C119	0.586100	0.970100	0.895600
H831	H83	0.603100	0.955600	0.921400
C1201	C120	0.541500	0.995500	0.903500
C1211	C121	0.516800	0.014300	0.863600
H841	H84	0.486000	0.029400	0.867200
C1221	C122	0.538500	0.010400	0.818000
H851	H85	0.522100	0.024300	0.791600
C1231	C123	0.520300	0.999400	0.952600
C1241	C124	0.471400	0.985300	0.961000
H861	H86	0.452000	0.975800	0.934700
C1251	C125	0.450600	0.984900	0.006800
C1261	C126	0.400400	0.963500	0.012000
C1271	C127	0.361700	0.979700	0.982900
H871	H87	0.366000	0.006600	0.962200
C1281	C128	0.316400	0.955400	0.985200
H881	H88	0.290600	0.966600	0.965500
C1291	C129	0.345000	0.902000	0.043200
H891	H89	0.339200	0.875900	0.064600
C1301	C130	0.391700	0.923700	0.042900
H901	H90	0.416700	0.911800	0.063000
N211	N21	0.418500	0.512300	0.810300
N221	N22	0.691900	0.583400	0.014500
C1311	C131	0.395700	0.533000	0.849000
H911	H91	0.366300	0.550300	0.843800
C1321	C132	0.413900	0.529900	0.895600
H921	H92	0.396900	0.544400	0.921400
C1331	C133	0.458500	0.504500	0.903500
C1341	C134	0.483200	0.485700	0.863600
H931	H93	0.514000	0.470600	0.867200
C1351	C135	0.461500	0.489600	0.818000
H941	H94	0.477900	0.475700	0.791600
C1361	C136	0.479700	0.500600	0.952600
C1371	C137	0.528600	0.514700	0.961000
H951	H95	0.548000	0.524200	0.934700
C1381	C138	0.549400	0.515100	0.006800
C1391	C139	0.599600	0.536500	0.012000
C1401	C140	0.638300	0.520300	0.982900
H961	H96	0.634000	0.493400	0.962200
C1411	C141	0.683600	0.544600	0.985200
H971	H97	0.709400	0.533400	0.965500
C1421	C142	0.655000	0.598000	0.043200
H981	H98	0.660800	0.624100	0.064600
C1431	C143	0.608300	0.576300	0.042900
H991	H99	0.583300	0.588200	0.063000
N231	N23	0.918500	0.012300	0.310300
N241	N24	0.191900	0.083400	0.514500
C1441	C144	0.895700	0.033000	0.349000
H1001	H100	0.866300	0.050300	0.343800
C1451	C145	0.913900	0.029900	0.395600
H1011	H101	0.896900	0.044400	0.421400
C1461	C146	0.958500	0.004500	0.403500
C1471	C147	0.983200	0.985700	0.363600
H1021	H102	0.014000	0.970600	0.367200
C1481	C148	0.961500	0.989600	0.318000
H1031	H103	0.977900	0.975700	0.291600
C1491	C149	0.979700	0.000600	0.452600
C1501	C150	0.028600	0.014700	0.461000
H1041	H104	0.048000	0.024200	0.434700
C1511	C151	0.049400	0.015100	0.506800
C1521	C152	0.099600	0.036500	0.512000
C1531	C153	0.138300	0.020300	0.482900
H1051	H105	0.134000	0.993400	0.462200
C1541	C154	0.183600	0.044600	0.485200
H1061	H106	0.209400	0.033400	0.465500
C1551	C155	0.155000	0.098000	0.543200
H1071	H107	0.160800	0.124100	0.564600
C1561	C156	0.108300	0.076300	0.542900
H1081	H108	0.083300	0.088200	0.563000
N251	N25	0.737700	0.168500	0.060300
N261	N26	0.666600	0.441900	0.264500
C1571	C157	0.717000	0.145700	0.099000
H1091	H109	0.699700	0.116300	0.093800
C1581	C158	0.720100	0.163900	0.145600
H1101	H110	0.705600	0.146900	0.171400
C1591	C159	0.745500	0.208500	0.153500
C1601	C160	0.764300	0.233200	0.113600
H1111	H111	0.779400	0.264000	0.117200
C1611	C161	0.760400	0.211500	0.068000
H1121	H112	0.774300	0.227900	0.041600
C1621	C162	0.749400	0.229700	0.202600
C1631	C163	0.735300	0.278600	0.211000
H1131	H113	0.725800	0.298000	0.184700
C1641	C164	0.734900	0.299400	0.256800
C1651	C165	0.713500	0.349600	0.262000
C1661	C166	0.729700	0.388300	0.232900
H1141	H114	0.756600	0.384000	0.212200
C1671	C167	0.705400	0.433600	0.235200
H1151	H115	0.716600	0.459400	0.215500
C1681	C168	0.652000	0.405000	0.293200
H1161	H116	0.625900	0.410800	0.314600
C1691	C169	0.673700	0.358300	0.292900
H1171	H117	0.661800	0.333300	0.313000
N271	N27	0.237700	0.668500	0.560300
N281	N28	0.166600	0.941900	0.764500
C1701	C170	0.217000	0.645700	0.599000
H1181	H118	0.199700	0.616300	0.593800
C1711	C171	0.220100	0.663900	0.645600
H1191	H119	0.205600	0.646900	0.671400
C1721	C172	0.245500	0.708500	0.653500
C1731	C173	0.264300	0.733200	0.613600
H1201	H120	0.279400	0.764000	0.617200
C1741	C174	0.260400	0.711500	0.568000
H1211	H121	0.274300	0.727900	0.541600
C1751	C175	0.249400	0.729700	0.702600
C1761	C176	0.235300	0.778600	0.711000
H1221	H122	0.225800	0.798000	0.684700
C1771	C177	0.234900	0.799400	0.756800
C1781	C178	0.213500	0.849600	0.762000
C1791	C179	0.229700	0.888300	0.732900
H1231	H123	0.256600	0.884000	0.712200
C1801	C180	0.205400	0.933600	0.735200
H1241	H124	0.216600	0.959400	0.715500
C1811	C181	0.152000	0.905000	0.793200
H1251	H125	0.125900	0.910800	0.814600
C1821	C182	0.173700	0.858300	0.792900
H1261	H126	0.161800	0.833300	0.813000
N291	N29	0.762300	0.831500	0.560300
N301	N30	0.833400	0.558100	0.764500
C1831	C183	0.783000	0.854300	0.599000
H1271	H127	0.800300	0.883700	0.593800
C1841	C184	0.779900	0.836100	0.645600
H1281	H128	0.794400	0.853100	0.671400
C1851	C185	0.754500	0.791500	0.653500
C1861	C186	0.735700	0.766800	0.613600
H1291	H129	0.720600	0.736000	0.617200
C1871	C187	0.739600	0.788500	0.568000
H1301	H130	0.725700	0.772100	0.541600
C1881	C188	0.750600	0.770300	0.702600
C1891	C189	0.764700	0.721400	0.711000
H1311	H131	0.774200	0.702000	0.684700
C1901	C190	0.765100	0.700600	0.756800
C1911	C191	0.786500	0.650400	0.762000
C1921	C192	0.770300	0.611700	0.732900
H1321	H132	0.743400	0.616000	0.712200
C1931	C193	0.794600	0.566400	0.735200
H1331	H133	0.783400	0.540600	0.715500
C1941	C194	0.848000	0.595000	0.793200
H1341	H134	0.874100	0.589200	0.814600
C1951	C195	0.826300	0.641700	0.792900
H1351	H135	0.838200	0.666700	0.813000
N311	N31	0.262300	0.331500	0.060300
N321	N32	0.333400	0.058100	0.264500
C1961	C196	0.283000	0.354300	0.099000
H1361	H136	0.300300	0.383700	0.093800
C1971	C197	0.279900	0.336100	0.145600
H1371	H137	0.294400	0.353100	0.171400
C1981	C198	0.254500	0.291500	0.153500
C1991	C199	0.235700	0.266800	0.113600
H1381	H138	0.220600	0.236000	0.117200
C2001	C200	0.239600	0.288500	0.068000
H1391	H139	0.225700	0.272100	0.041600
C2011	C201	0.250600	0.270300	0.202600
C2021	C202	0.264700	0.221400	0.211000
H1401	H140	0.274200	0.202000	0.184700
C2031	C203	0.265100	0.200600	0.256800
C2041	C204	0.286500	0.150400	0.262000
C2051	C205	0.270300	0.111700	0.232900
H1411	H141	0.243400	0.116000	0.212200
C2061	C206	0.294600	0.066400	0.235200
H1421	H142	0.283400	0.040600	0.215500
C2071	C207	0.348000	0.095000	0.293200
H1431	H143	0.374100	0.089200	0.314600
C2081	C208	0.326300	0.141700	0.292900
H1441	H144	0.338200	0.166700	0.313000
N331	N33	0.581500	0.512300	0.310300
N341	N34	0.308100	0.583400	0.514500
C2091	C209	0.604300	0.533000	0.349000
H1451	H145	0.633700	0.550300	0.343800
C2101	C210	0.586100	0.529900	0.395600
H1461	H146	0.603100	0.544400	0.421400
C2111	C211	0.541500	0.504500	0.403500
C2121	C212	0.516800	0.485700	0.363600
H1471	H147	0.486000	0.470600	0.367200
C2131	C213	0.538500	0.489600	0.318000
H1481	H148	0.522100	0.475700	0.291600
C2141	C214	0.520300	0.500600	0.452600
C2151	C215	0.471400	0.514700	0.461000
H1491	H149	0.452000	0.524200	0.434700
C2161	C216	0.450600	0.515100	0.506800
C2171	C217	0.400400	0.536500	0.512000
C2181	C218	0.361700	0.520300	0.482900
H1501	H150	0.366000	0.493400	0.462200
C2191	C219	0.316400	0.544600	0.485200
H1511	H151	0.290600	0.533400	0.465500
C2201	C220	0.345000	0.598000	0.543200
H1521	H152	0.339200	0.624100	0.564600
C2211	C221	0.391700	0.576300	0.542900
H1531	H153	0.416700	0.588200	0.563000
N351	N35	0.081500	0.012300	0.810300
N361	N36	0.808100	0.083400	0.014500
C2221	C222	0.104300	0.033000	0.849000
H1541	H154	0.133700	0.050300	0.843800
C2231	C223	0.086100	0.029900	0.895600
H1551	H155	0.103100	0.044400	0.921400
C2241	C224	0.041500	0.004500	0.903500
C2251	C225	0.016800	0.985700	0.863600
H1561	H156	0.986000	0.970600	0.867200
C2261	C226	0.038500	0.989600	0.818000
H1571	H157	0.022100	0.975700	0.791600
C2271	C227	0.020300	0.000600	0.952600
C2281	C228	0.971400	0.014700	0.961000
H1581	H158	0.952000	0.024200	0.934700
C2291	C229	0.950600	0.015100	0.006800
C2301	C230	0.900400	0.036500	0.012000
C2311	C231	0.861700	0.020300	0.982900
H1591	H159	0.866000	0.993400	0.962200
C2321	C232	0.816400	0.044600	0.985200
H1601	H160	0.790600	0.033400	0.965500
C2331	C233	0.845000	0.098000	0.043200
H1611	H161	0.839200	0.124100	0.064600
C2341	C234	0.891700	0.076300	0.042900
H1621	H162	0.916700	0.088200	0.063000
N371	N37	0.918500	0.487700	0.810300
N381	N38	0.191900	0.416600	0.014500
C2351	C235	0.895700	0.467000	0.849000
H1631	H163	0.866300	0.449700	0.843800
C2361	C236	0.913900	0.470100	0.895600
H1641	H164	0.896900	0.455600	0.921400
C2371	C237	0.958500	0.495500	0.903500
C2381	C238	0.983200	0.514300	0.863600
H1651	H165	0.014000	0.529400	0.867200
C2391	C239	0.961500	0.510400	0.818000
H1661	H166	0.977900	0.524300	0.791600
C2401	C240	0.979700	0.499400	0.952600
C2411	C241	0.028600	0.485300	0.961000
H1671	H167	0.048000	0.475800	0.934700
C2421	C242	0.049400	0.484900	0.006800
C2431	C243	0.099600	0.463500	0.012000
C2441	C244	0.138300	0.479700	0.982900
H1681	H168	0.134000	0.506600	0.962200
C2451	C245	0.183600	0.455400	0.985200
H1691	H169	0.209400	0.466600	0.965500
C2461	C246	0.155000	0.402000	0.043200
H1701	H170	0.160800	0.375900	0.064600
C2471	C247	0.108300	0.423700	0.042900
H1711	H171	0.083300	0.411800	0.063000
N391	N39	0.418500	0.987700	0.310300
N401	N40	0.691900	0.916600	0.514500
C2481	C248	0.395700	0.967000	0.349000
H1721	H172	0.366300	0.949700	0.343800
C2491	C249	0.413900	0.970100	0.395600
H1731	H173	0.396900	0.955600	0.421400
C2501	C250	0.458500	0.995500	0.403500
C2511	C251	0.483200	0.014300	0.363600
H1741	H174	0.514000	0.029400	0.367200
C2521	C252	0.461500	0.010400	0.318000
H1751	H175	0.477900	0.024300	0.291600
C2531	C253	0.479700	0.999400	0.452600
C2541	C254	0.528600	0.985300	0.461000
H1761	H176	0.548000	0.975800	0.434700
C2551	C255	0.549400	0.984900	0.506800
C2561	C256	0.599600	0.963500	0.512000
C2571	C257	0.638300	0.979700	0.482900
H1771	H177	0.634000	0.006600	0.462200
C2581	C258	0.683600	0.955400	0.485200
H1781	H178	0.709400	0.966600	0.465500
C2591	C259	0.655000	0.902000	0.543200
H1791	H179	0.660800	0.875900	0.564600
C2601	C260	0.608300	0.923700	0.542900
H1801	H180	0.583300	0.911800	0.563000
N411	N41	0.237700	0.831500	0.060300
N421	N42	0.166600	0.558100	0.264500
C2611	C261	0.217000	0.854300	0.099000
H1811	H181	0.199700	0.883700	0.093800
C2621	C262	0.220100	0.836100	0.145600
H1821	H182	0.205600	0.853100	0.171400
C2631	C263	0.245500	0.791500	0.153500
C2641	C264	0.264300	0.766800	0.113600
H1831	H183	0.279400	0.736000	0.117200
C2651	C265	0.260400	0.788500	0.068000
H1841	H184	0.274300	0.772100	0.041600
C2661	C266	0.249400	0.770300	0.202600
C2671	C267	0.235300	0.721400	0.211000
H1851	H185	0.225800	0.702000	0.184700
C2681	C268	0.234900	0.700600	0.256800
C2691	C269	0.213500	0.650400	0.262000
C2701	C270	0.229700	0.611700	0.232900
H1861	H186	0.256600	0.616000	0.212200
C2711	C271	0.205400	0.566400	0.235200
H1871	H187	0.216600	0.540600	0.215500
C2721	C272	0.152000	0.595000	0.293200
H1881	H188	0.125900	0.589200	0.314600
C2731	C273	0.173700	0.641700	0.292900
H1891	H189	0.161800	0.666700	0.313000
N431	N43	0.737700	0.331500	0.560300
N441	N44	0.666600	0.058100	0.764500
C2741	C274	0.717000	0.354300	0.599000
H1901	H190	0.699700	0.383700	0.593800
C2751	C275	0.720100	0.336100	0.645600
H1911	H191	0.705600	0.353100	0.671400
C2761	C276	0.745500	0.291500	0.653500
C2771	C277	0.764300	0.266800	0.613600
H1921	H192	0.779400	0.236000	0.617200
C2781	C278	0.760400	0.288500	0.568000
H1931	H193	0.774300	0.272100	0.541600
C2791	C279	0.749400	0.270300	0.702600
C2801	C280	0.735300	0.221400	0.711000
H1941	H194	0.725800	0.202000	0.684700
C2811	C281	0.734900	0.200600	0.756800
C2821	C282	0.713500	0.150400	0.762000
C2831	C283	0.729700	0.111700	0.732900
H1951	H195	0.756600	0.116000	0.712200
C2841	C284	0.705400	0.066400	0.735200
H1961	H196	0.716600	0.040600	0.715500
C2851	C285	0.652000	0.095000	0.793200
H1971	H197	0.625900	0.089200	0.814600
C2861	C286	0.673700	0.141700	0.792900
H1981	H198	0.661800	0.166700	0.813000
N451	N45	0.262300	0.168500	0.560300
N461	N46	0.333400	0.441900	0.764500
C2871	C287	0.283000	0.145700	0.599000
H1991	H199	0.300300	0.116300	0.593800
C2881	C288	0.279900	0.163900	0.645600
H2001	H200	0.294400	0.146900	0.671400
C2891	C289	0.254500	0.208500	0.653500
C2901	C290	0.235700	0.233200	0.613600
H2011	H201	0.220600	0.264000	0.617200
C2911	C291	0.239600	0.211500	0.568000
H2021	H202	0.225700	0.227900	0.541600
C2921	C292	0.250600	0.229700	0.702600
C2931	C293	0.264700	0.278600	0.711000
H2031	H203	0.274200	0.298000	0.684700
C2941	C294	0.265100	0.299400	0.756800
C2951	C295	0.286500	0.349600	0.762000
C2961	C296	0.270300	0.388300	0.732900
H2041	H204	0.243400	0.384000	0.712200
C2971	C297	0.294600	0.433600	0.735200
H2051	H205	0.283400	0.459400	0.715500
C2981	C298	0.348000	0.405000	0.793200
H2061	H206	0.374100	0.410800	0.814600
C2991	C299	0.326300	0.358300	0.792900
H2071	H207	0.338200	0.333300	0.813000
N471	N47	0.762300	0.668500	0.060300
N481	N48	0.833400	0.941900	0.264500
C3001	C300	0.783000	0.645700	0.099000
H2081	H208	0.800300	0.616300	0.093800
C3011	C301	0.779900	0.663900	0.145600
H2091	H209	0.794400	0.646900	0.171400
C3021	C302	0.754500	0.708500	0.153500
C3031	C303	0.735700	0.733200	0.113600
H2101	H210	0.720600	0.764000	0.117200
C3041	C304	0.739600	0.711500	0.068000
H2111	H211	0.725700	0.727900	0.041600
C3051	C305	0.750600	0.729700	0.202600
C3061	C306	0.764700	0.778600	0.211000
H2121	H212	0.774200	0.798000	0.184700
C3071	C307	0.765100	0.799400	0.256800
C3081	C308	0.786500	0.849600	0.262000
C3091	C309	0.770300	0.888300	0.232900
H2131	H213	0.743400	0.884000	0.212200
C3101	C310	0.794600	0.933600	0.235200
H2141	H214	0.783400	0.959400	0.215500
C3111	C311	0.848000	0.905000	0.293200
H2151	H215	0.874100	0.910800	0.314600
C3121	C312	0.826300	0.858300	0.292900
H2161	H216	0.838200	0.833300	0.313000
N491	N49	0.918500	0.512300	0.689700
N501	N50	0.191900	0.583400	0.485500
C3131	C313	0.895700	0.533000	0.651000
H2171	H217	0.866300	0.550300	0.656200
C3141	C314	0.913900	0.529900	0.604400
H2181	H218	0.896900	0.544400	0.578600
C3151	C315	0.958500	0.504500	0.596500
C3161	C316	0.983200	0.485700	0.636400
H2191	H219	0.014000	0.470600	0.632800
C3171	C317	0.961500	0.489600	0.682000
H2201	H220	0.977900	0.475700	0.708400
C3181	C318	0.979700	0.500600	0.547400
C3191	C319	0.028600	0.514700	0.539000
H2211	H221	0.048000	0.524200	0.565300
C3201	C320	0.049400	0.515100	0.493200
C3211	C321	0.099600	0.536500	0.488000
C3221	C322	0.138300	0.520300	0.517100
H2221	H222	0.134000	0.493400	0.537800
C3231	C323	0.183600	0.544600	0.514800
H2231	H223	0.209400	0.533400	0.534500
C3241	C324	0.155000	0.598000	0.456800
H2241	H224	0.160800	0.624100	0.435400
C3251	C325	0.108300	0.576300	0.457100
H2251	H225	0.083300	0.588200	0.437000
N511	N51	0.418500	0.012300	0.189700
N521	N52	0.691900	0.083400	0.985500
C3261	C326	0.395700	0.033000	0.151000
H2261	H226	0.366300	0.050300	0.156200
C3271	C327	0.413900	0.029900	0.104400
H2271	H227	0.396900	0.044400	0.078600
C3281	C328	0.458500	0.004500	0.096500
C3291	C329	0.483200	0.985700	0.136400
H2281	H228	0.514000	0.970600	0.132800
C3301	C330	0.461500	0.989600	0.182000
H2291	H229	0.477900	0.975700	0.208400
C3311	C331	0.479700	0.000600	0.047400
C3321	C332	0.528600	0.014700	0.039000
H2301	H230	0.548000	0.024200	0.065300
C3331	C333	0.549400	0.015100	0.993200
C3341	C334	0.599600	0.036500	0.988000
C3351	C335	0.638300	0.020300	0.017100
H2311	H231	0.634000	0.993400	0.037800
C3361	C336	0.683600	0.044600	0.014800
H2321	H232	0.709400	0.033400	0.034500
C3371	C337	0.655000	0.098000	0.956800
H2331	H233	0.660800	0.124100	0.935400
C3381	C338	0.608300	0.076300	0.957100
H2341	H234	0.583300	0.088200	0.937000
N531	N53	0.581500	0.487700	0.189700
N541	N54	0.308100	0.416600	0.985500
C3391	C339	0.604300	0.467000	0.151000
H2351	H235	0.633700	0.449700	0.156200
C3401	C340	0.586100	0.470100	0.104400
H2361	H236	0.603100	0.455600	0.078600
C3411	C341	0.541500	0.495500	0.096500
C3421	C342	0.516800	0.514300	0.136400
H2371	H237	0.486000	0.529400	0.132800
C3431	C343	0.538500	0.510400	0.182000
H2381	H238	0.522100	0.524300	0.208400
C3441	C344	0.520300	0.499400	0.047400
C3451	C345	0.471400	0.485300	0.039000
H2391	H239	0.452000	0.475800	0.065300
C3461	C346	0.450600	0.484900	0.993200
C3471	C347	0.400400	0.463500	0.988000
C3481	C348	0.361700	0.479700	0.017100
H2401	H240	0.366000	0.506600	0.037800
C3491	C349	0.316400	0.455400	0.014800
H2411	H241	0.290600	0.466600	0.034500
C3501	C350	0.345000	0.402000	0.956800
H2421	H242	0.339200	0.375900	0.935400
C3511	C351	0.391700	0.423700	0.957100
H2431	H243	0.416700	0.411800	0.937000
N551	N55	0.081500	0.987700	0.689700
N561	N56	0.808100	0.916600	0.485500
C3521	C352	0.104300	0.967000	0.651000
H2441	H244	0.133700	0.949700	0.656200
C3531	C353	0.086100	0.970100	0.604400
H2451	H245	0.103100	0.955600	0.578600
C3541	C354	0.041500	0.995500	0.596500
C3551	C355	0.016800	0.014300	0.636400
H2461	H246	0.986000	0.029400	0.632800
C3561	C356	0.038500	0.010400	0.682000
H2471	H247	0.022100	0.024300	0.708400
C3571	C357	0.020300	0.999400	0.547400
C3581	C358	0.971400	0.985300	0.539000
H2481	H248	0.952000	0.975800	0.565300
C3591	C359	0.950600	0.984900	0.493200
C3601	C360	0.900400	0.963500	0.488000
C3611	C361	0.861700	0.979700	0.517100
H2491	H249	0.866000	0.006600	0.537800
C3621	C362	0.816400	0.955400	0.514800
H2501	H250	0.790600	0.966600	0.534500
C3631	C363	0.845000	0.902000	0.456800
H2511	H251	0.839200	0.875900	0.435400
C3641	C364	0.891700	0.923700	0.457100
H2521	H252	0.916700	0.911800	0.437000
N571	N57	0.262300	0.831500	0.939700
N581	N58	0.333400	0.558100	0.735500
C3651	C365	0.283000	0.854300	0.901000
H2531	H253	0.300300	0.883700	0.906200
C3661	C366	0.279900	0.836100	0.854400
H2541	H254	0.294400	0.853100	0.828600
C3671	C367	0.254500	0.791500	0.846500
C3681	C368	0.235700	0.766800	0.886400
H2551	H255	0.220600	0.736000	0.882800
C3691	C369	0.239600	0.788500	0.932000
H2561	H256	0.225700	0.772100	0.958400
C3701	C370	0.250600	0.770300	0.797400
C3711	C371	0.264700	0.721400	0.789000
H2571	H257	0.274200	0.702000	0.815300
C3721	C372	0.265100	0.700600	0.743200
C3731	C373	0.286500	0.650400	0.738000
C3741	C374	0.270300	0.611700	0.767100
H2581	H258	0.243400	0.616000	0.787800
C3751	C375	0.294600	0.566400	0.764800
H2591	H259	0.283400	0.540600	0.784500
C3761	C376	0.348000	0.595000	0.706800
H2601	H260	0.374100	0.589200	0.685400
C3771	C377	0.326300	0.641700	0.707100
H2611	H261	0.338200	0.666700	0.687000
N591	N59	0.762300	0.331500	0.439700
N601	N60	0.833400	0.058100	0.235500
C3781	C378	0.783000	0.354300	0.401000
H2621	H262	0.800300	0.383700	0.406200
C3791	C379	0.779900	0.336100	0.354400
H2631	H263	0.794400	0.353100	0.328600
C3801	C380	0.754500	0.291500	0.346500
C3811	C381	0.735700	0.266800	0.386400
H2641	H264	0.720600	0.236000	0.382800
C3821	C382	0.739600	0.288500	0.432000
H2651	H265	0.725700	0.272100	0.458400
C3831	C383	0.750600	0.270300	0.297400
C3841	C384	0.764700	0.221400	0.289000
H2661	H266	0.774200	0.202000	0.315300
C3851	C385	0.765100	0.200600	0.243200
C3861	C386	0.786500	0.150400	0.238000
C3871	C387	0.770300	0.111700	0.267100
H2671	H267	0.743400	0.116000	0.287800
C3881	C388	0.794600	0.066400	0.264800
H2681	H268	0.783400	0.040600	0.284500
C3891	C389	0.848000	0.095000	0.206800
H2691	H269	0.874100	0.089200	0.185400
C3901	C390	0.826300	0.141700	0.207100
H2701	H270	0.838200	0.166700	0.187000
N611	N61	0.237700	0.168500	0.439700
N621	N62	0.166600	0.441900	0.235500
C3911	C391	0.217000	0.145700	0.401000
H2711	H271	0.199700	0.116300	0.406200
C3921	C392	0.220100	0.163900	0.354400
H2721	H272	0.205600	0.146900	0.328600
C3931	C393	0.245500	0.208500	0.346500
C3941	C394	0.264300	0.233200	0.386400
H2731	H273	0.279400	0.264000	0.382800
C3951	C395	0.260400	0.211500	0.432000
H2741	H274	0.274300	0.227900	0.458400
C3961	C396	0.249400	0.229700	0.297400
C3971	C397	0.235300	0.278600	0.289000
H2751	H275	0.225800	0.298000	0.315300
C3981	C398	0.234900	0.299400	0.243200
C3991	C399	0.213500	0.349600	0.238000
C4001	C400	0.229700	0.388300	0.267100
H2761	H276	0.256600	0.384000	0.287800
C4011	C401	0.205400	0.433600	0.264800
H2771	H277	0.216600	0.459400	0.284500
C4021	C402	0.152000	0.405000	0.206800
H2781	H278	0.125900	0.410800	0.185400
C4031	C403	0.173700	0.358300	0.207100
H2791	H279	0.161800	0.333300	0.187000
N631	N63	0.737700	0.668500	0.939700
N641	N64	0.666600	0.941900	0.735500
C4041	C404	0.717000	0.645700	0.901000
H2801	H280	0.699700	0.616300	0.906200
C4051	C405	0.720100	0.663900	0.854400
H2811	H281	0.705600	0.646900	0.828600
C4061	C406	0.745500	0.708500	0.846500
C4071	C407	0.764300	0.733200	0.886400
H2821	H282	0.779400	0.764000	0.882800
C4081	C408	0.760400	0.711500	0.932000
H2831	H283	0.774300	0.727900	0.958400
C4091	C409	0.749400	0.729700	0.797400
C4101	C410	0.735300	0.778600	0.789000
H2841	H284	0.725800	0.798000	0.815300
C4111	C411	0.734900	0.799400	0.743200
C4121	C412	0.713500	0.849600	0.738000
C4131	C413	0.729700	0.888300	0.767100
H2851	H285	0.756600	0.884000	0.787800
C4141	C414	0.705400	0.933600	0.764800
H2861	H286	0.716600	0.959400	0.784500
C4151	C415	0.652000	0.905000	0.706800
H2871	H287	0.625900	0.910800	0.685400
C4161	C416	0.673700	0.858300	0.707100
H2881	H288	0.661800	0.833300	0.687000
Cu11	Cu1	0.750000	0.370850	0.500000
Cu21	Cu2	0.250000	0.870850	0.000000
Cu31	Cu3	0.750000	0.629150	0.000000
Cu41	Cu4	0.250000	0.129150	0.500000
Cu51	Cu5	0.879150	0.500000	0.750000
Cu61	Cu6	0.379150	0.000000	0.250000
Cu71	Cu7	0.620850	0.500000	0.250000
Cu81	Cu8	0.120850	0.000000	0.750000
Cu91	Cu9	0.250000	0.629150	0.500000
Cu101	Cu10	0.750000	0.129150	0.000000
Cu111	Cu11	0.250000	0.370850	0.000000
Cu121	Cu12	0.750000	0.870850	0.500000
Cu131	Cu13	0.120850	0.500000	0.250000
Cu141	Cu14	0.620850	0.000000	0.750000
Cu151	Cu15	0.379150	0.500000	0.750000
Cu161	Cu16	0.879150	0.000000	0.250000
