data_ac403674p_si_001_freeONLY_PM
_symmetry_space_group_name_H-M	'P1'
_cell_length_a	14.784300
_cell_length_b	15.953900
_cell_length_c	15.953900
_cell_angle_alpha	120.000000
_cell_angle_beta	90.000000
_cell_angle_gamma	90.000000
_symmetry_Int_Tables_number 1

loop_
_symmetry_equiv_pos_as_xyz
'x,y,z'

loop_
_atom_site_label
_atom_site_type_symbol
_atom_site_fract_x
_atom_site_fract_y
_atom_site_fract_z
Zn11	Zn1	0.985100	0.385540	0.633480
Zn21	Zn2	0.651770	0.247940	0.614460
Zn31	Zn3	0.485100	0.614460	0.366520
Zn41	Zn4	0.151770	0.752060	0.385540
Zn51	Zn5	0.318430	0.366520	0.752060
Zn61	Zn6	0.818430	0.633480	0.247940
H11	H1	0.512800	0.714300	0.070100
H21	H2	0.129970	0.701900	0.171900
H31	H3	0.332670	0.557200	0.109700
H41	H4	0.064400	0.202700	0.473600
H51	H5	0.906600	0.242800	0.785800
H61	H6	0.999330	0.552500	0.442800
H71	H7	0.948800	0.002800	0.384900
H81	H8	0.629970	0.298100	0.828100
H91	H9	0.125870	0.541700	0.328100
H101	H10	0.231670	0.612000	0.244000
H111	H11	0.846130	0.929900	0.644200
H121	H12	0.763770	0.675600	0.897200
H131	H13	0.430430	0.221600	0.324400
H141	H14	0.775330	0.619300	0.477300
H151	H15	0.108670	0.522700	0.142000
H161	H16	0.731070	0.270900	0.797300
H171	H17	0.782130	0.384900	0.382100
H181	H18	0.346130	0.070100	0.355800
H191	H19	0.283670	0.358300	0.268800
H201	H20	0.450330	0.089500	0.358300
H211	H21	0.597100	0.897200	0.221600
H221	H22	0.275330	0.380700	0.522700
H231	H23	0.796630	0.470000	0.298100
H241	H24	0.792530	0.786400	0.458300
H251	H25	0.403030	0.091600	0.447300
H261	H26	0.761870	0.518100	0.763200
H271	H27	0.073270	0.457000	0.242800
H281	H28	0.617000	0.731200	0.089500
H291	H29	0.898330	0.632000	0.388000
H301	H30	0.731670	0.388000	0.756000
H311	H31	0.097100	0.102800	0.778400
H321	H32	0.708900	0.043100	0.495400
H331	H33	0.608670	0.477300	0.858000
H341	H34	0.166000	0.109700	0.552500
H351	H35	0.296630	0.530000	0.701900
H361	H36	0.398330	0.368000	0.612000
H371	H37	0.903030	0.908400	0.552700
H381	H38	0.658070	0.679900	0.892800
H391	H39	0.661970	0.492300	0.146900
H401	H40	0.783670	0.641700	0.731200
H411	H41	0.263770	0.324400	0.102800
H421	H42	0.625870	0.458300	0.671900
H431	H43	0.739930	0.785800	0.543000
H441	H44	0.491400	0.892800	0.212900
H451	H45	0.179470	0.355800	0.285700
H461	H46	0.832670	0.442800	0.890300
H471	H47	0.117000	0.268800	0.910500
H481	H48	0.208900	0.956900	0.504600
H491	H49	0.282130	0.615100	0.617900
H501	H50	0.324730	0.212900	0.320100
H511	H51	0.542230	0.495400	0.452300
H521	H52	0.499330	0.447500	0.557200
H531	H53	0.095200	0.236800	0.754900
H541	H54	0.065000	0.244000	0.632000
H551	H55	0.991400	0.107200	0.787100
H561	H56	0.236370	0.447300	0.355700
H571	H57	0.042230	0.504600	0.547700
H581	H58	0.442000	0.858000	0.380700
H591	H59	0.292530	0.213600	0.541700
H601	H60	0.704170	0.606600	0.917800
H611	H61	0.406600	0.757200	0.214200
H621	H62	0.459200	0.671900	0.213600
H631	H63	0.370830	0.311200	0.393400
H641	H64	0.666000	0.890300	0.447500
H651	H65	0.736370	0.552700	0.644300
H661	H66	0.679470	0.644200	0.714300
H671	H67	0.069700	0.355700	0.908400
H681	H68	0.995300	0.853100	0.345400
H691	H69	0.824730	0.787100	0.679900
H701	H70	0.595200	0.763200	0.245100
H711	H71	0.231070	0.729100	0.202700
H721	H72	0.615470	0.382100	0.997200
H731	H73	0.963300	0.171900	0.470000
H741	H74	0.115470	0.617900	0.002800
H751	H75	0.950330	0.910500	0.641700
H761	H76	0.428530	0.245100	0.481900
H771	H77	0.397730	0.526400	0.729100
H781	H78	0.537500	0.917800	0.311200
H791	H79	0.375570	0.452300	0.956900
H801	H80	0.261870	0.481900	0.236800
H811	H81	0.158070	0.320100	0.107200
H821	H82	0.942000	0.142000	0.619300
H831	H83	0.828630	0.345400	0.492300
H841	H84	0.448800	0.997200	0.615100
H851	H85	0.037500	0.082200	0.688800
H861	H86	0.569700	0.644300	0.091600
H871	H87	0.928530	0.754900	0.518100
H881	H88	0.565000	0.756000	0.368000
H891	H89	0.161970	0.507700	0.853100
H901	H90	0.870830	0.688800	0.606600
H911	H91	0.239930	0.214200	0.457000
H921	H92	0.897730	0.473600	0.270900
H931	H93	0.328630	0.654600	0.507700
H941	H94	0.875570	0.547700	0.043100
H951	H95	0.573270	0.543000	0.757200
H961	H96	0.204170	0.393400	0.082200
H971	H97	0.564400	0.797300	0.526400
H981	H98	0.959200	0.328100	0.786400
H991	H99	0.930430	0.778400	0.675600
H1001	H100	0.463300	0.828100	0.530000
H1011	H101	0.495300	0.146900	0.654600
H1021	H102	0.012800	0.285700	0.929900
C11	C1	0.669170	0.415500	0.004600
C21	C2	0.169170	0.584500	0.995400
C31	C3	0.155200	0.966500	0.480300
C41	C4	0.109470	0.562900	0.212700
C51	C5	0.685530	0.631900	0.383000
C61	C6	0.697770	0.481200	0.094400
C71	C7	0.609470	0.437100	0.787300
C81	C8	0.378130	0.210700	0.438300
C91	C9	0.797070	0.450700	0.941800
C101	C10	0.630400	0.941800	0.491100
C111	C11	0.624670	0.500000	0.741700
C121	C12	0.130400	0.058200	0.508900
C131	C13	0.197770	0.518800	0.905600
C141	C14	0.963730	0.508900	0.450700
C151	C15	0.895930	0.893600	0.603700
C161	C16	0.709170	0.638100	0.880100
C171	C17	0.018870	0.617000	0.248900
C181	C18	0.291330	0.241700	0.500000
C191	C19	0.711470	0.561700	0.772400
C201	C20	0.776130	0.649800	0.437100
C211	C21	0.335830	0.589100	0.584500
C221	C22	0.354830	0.500100	0.676000
C231	C23	0.502500	0.004600	0.589100
C241	C24	0.002500	0.995400	0.410900
C251	C25	0.544800	0.772400	0.210700
C261	C26	0.518870	0.383000	0.751100
C271	C27	0.864430	0.386800	0.481200
C281	C28	0.297070	0.549300	0.058200
C291	C29	0.942800	0.212700	0.649800
C301	C30	0.211470	0.438300	0.227600
C311	C31	0.384630	0.527400	0.602500
C321	C32	0.884630	0.472600	0.397500
C331	C33	0.458000	0.741700	0.241700
C341	C34	0.021500	0.175900	0.499900
C351	C35	0.375830	0.242000	0.361900
C361	C36	0.717970	0.397500	0.924900
C371	C37	0.729270	0.603700	0.710100
C381	C38	0.655200	0.033500	0.519700
C391	C39	0.364430	0.613200	0.518800
C401	C40	0.229270	0.396300	0.289900
C411	C41	0.031100	0.905600	0.386800
C421	C42	0.875830	0.758000	0.638100
C431	C43	0.531100	0.094400	0.613200
C441	C44	0.217970	0.602500	0.075100
C451	C45	0.542500	0.880100	0.242000
C461	C46	0.209170	0.361900	0.119900
C471	C47	0.124670	0.500000	0.258300
C481	C48	0.852200	0.248900	0.631900
C491	C49	0.185530	0.368100	0.617000
C501	C50	0.521500	0.824100	0.500100
C511	C51	0.321870	0.486200	0.966500
C521	C52	0.051300	0.075100	0.472600
C531	C53	0.878130	0.789300	0.561700
C541	C54	0.988530	0.480300	0.513800
C551	C55	0.958000	0.258300	0.758300
C561	C56	0.352200	0.751100	0.368100
C571	C57	0.188170	0.676000	0.175900
C581	C58	0.044800	0.227600	0.789300
C591	C59	0.062600	0.289900	0.893600
C601	C60	0.562600	0.710100	0.106400
C611	C61	0.835830	0.410900	0.415500
C621	C62	0.042500	0.119900	0.758000
C631	C63	0.488530	0.519700	0.486200
C641	C64	0.821870	0.513800	0.033500
C651	C65	0.395930	0.106400	0.396300
C661	C66	0.442800	0.787300	0.350200
C671	C67	0.551300	0.924900	0.527400
C681	C68	0.791330	0.758300	0.500000
C691	C69	0.463730	0.491100	0.549300
C701	C70	0.688170	0.324000	0.824100
C711	C71	0.854830	0.499900	0.324000
C721	C72	0.276130	0.350200	0.562900
Br11	Br1	0.479360	0.475230	0.208790
Br21	Br2	0.312690	0.208790	0.733560
Br31	Br3	0.146030	0.733560	0.524770
Br41	Br4	0.646030	0.266440	0.475230
Br51	Br5	0.979360	0.524770	0.791210
Br61	Br6	0.812690	0.791210	0.266440
N11	N1	0.013400	0.242900	0.605300
N21	N2	0.607500	0.111600	0.580700
N31	N3	0.180070	0.637600	0.242900
N41	N4	0.513400	0.757100	0.394700
N51	N5	0.107500	0.888400	0.419300
N61	N6	0.440830	0.580700	0.469100
N71	N7	0.940830	0.419300	0.530900
N81	N8	0.846730	0.605300	0.362400
N91	N9	0.346730	0.394700	0.637600
N101	N10	0.274170	0.469100	0.888400
N111	N11	0.680070	0.362400	0.757100
N121	N12	0.774170	0.530900	0.111600
O11	O1	0.449970	0.422800	0.801800
O21	O2	0.616630	0.621000	0.422800
O31	O3	0.283300	0.801800	0.379000
O41	O4	0.852500	0.328800	0.636100
O51	O5	0.116630	0.379000	0.577200
O61	O6	0.519170	0.307300	0.671200
O71	O7	0.685830	0.636100	0.307300
O81	O8	0.949970	0.577200	0.198200
O91	O9	0.783300	0.198200	0.621000
O101	O10	0.019170	0.692700	0.328800
O111	O11	0.352500	0.671200	0.363900
O121	O12	0.185830	0.363900	0.692700
