data_ACAJOF_freeONLY_PM
_symmetry_space_group_name_H-M	'P1'
_cell_length_a	8.677000
_cell_length_b	13.042000
_cell_length_c	28.201000
_cell_angle_alpha	90.000000
_cell_angle_beta	90.000000
_cell_angle_gamma	90.000000
_symmetry_Int_Tables_number 1

loop_
_symmetry_equiv_pos_as_xyz
'x,y,z'

loop_
_atom_site_label
_atom_site_type_symbol
_atom_site_fract_x
_atom_site_fract_y
_atom_site_fract_z
Cu11	Cu1	0.949260	0.953440	0.461230
Cu21	Cu2	0.949260	0.546560	0.038770
Cu31	Cu3	0.550740	0.046560	0.961230
Cu41	Cu4	0.550740	0.453440	0.538770
Cu51	Cu5	0.050740	0.046560	0.538770
Cu61	Cu6	0.050740	0.453440	0.961230
Cu71	Cu7	0.449260	0.953440	0.038770
Cu81	Cu8	0.449260	0.546560	0.461230
H11	H1	0.121600	0.733000	0.590300
H21	H2	0.216800	0.709400	0.544500
H31	H3	0.913800	0.642400	0.561800
H41	H4	0.994200	0.627900	0.512400
H51	H5	0.016400	0.475500	0.557400
H61	H6	0.099900	0.535800	0.598100
H71	H7	0.784900	0.753000	0.428300
H81	H8	0.618400	0.692500	0.371900
H91	H9	0.648100	0.964300	0.306800
H101	H10	0.813800	0.016200	0.364800
H111	H11	0.447500	0.728200	0.303700
H121	H12	0.442600	0.840100	0.283200
H131	H13	0.671500	0.693900	0.259800
H141	H14	0.121600	0.767000	0.909700
H151	H15	0.216800	0.790600	0.955500
H161	H16	0.913800	0.857600	0.938200
H171	H17	0.994200	0.872100	0.987600
H181	H18	0.016400	0.024500	0.942600
H191	H19	0.099900	0.964200	0.901900
H201	H20	0.784900	0.747000	0.071700
H211	H21	0.618400	0.807500	0.128100
H221	H22	0.648100	0.535700	0.193200
H231	H23	0.813800	0.483800	0.135200
H241	H24	0.447500	0.771800	0.196300
H251	H25	0.442600	0.659900	0.216800
H261	H26	0.671500	0.806100	0.240200
H271	H27	0.378400	0.267000	0.090300
H281	H28	0.283200	0.290600	0.044500
H291	H29	0.586200	0.357600	0.061800
H301	H30	0.505800	0.372100	0.012400
H311	H31	0.483600	0.524500	0.057400
H321	H32	0.400100	0.464200	0.098100
H331	H33	0.715100	0.247000	0.928300
H341	H34	0.881600	0.307500	0.871900
H351	H35	0.851900	0.035700	0.806800
H361	H36	0.686200	0.983800	0.864800
H371	H37	0.052500	0.271800	0.803700
H381	H38	0.057400	0.159900	0.783200
H391	H39	0.828500	0.306100	0.759800
H401	H40	0.378400	0.233000	0.409700
H411	H41	0.283200	0.209400	0.455500
H421	H42	0.586200	0.142400	0.438200
H431	H43	0.505800	0.127900	0.487600
H441	H44	0.483600	0.975500	0.442600
H451	H45	0.400100	0.035800	0.401900
H461	H46	0.715100	0.253000	0.571700
H471	H47	0.881600	0.192500	0.628100
H481	H48	0.851900	0.464300	0.693200
H491	H49	0.686200	0.516200	0.635200
H501	H50	0.052500	0.228200	0.696300
H511	H51	0.057400	0.340100	0.716800
H521	H52	0.828500	0.193900	0.740200
H531	H53	0.878400	0.267000	0.409700
H541	H54	0.783200	0.290600	0.455500
H551	H55	0.086200	0.357600	0.438200
H561	H56	0.005800	0.372100	0.487600
H571	H57	0.983600	0.524500	0.442600
H581	H58	0.900100	0.464200	0.401900
H591	H59	0.215100	0.247000	0.571700
H601	H60	0.381600	0.307500	0.628100
H611	H61	0.351900	0.035700	0.693200
H621	H62	0.186200	0.983800	0.635200
H631	H63	0.552500	0.271800	0.696300
H641	H64	0.557400	0.159900	0.716800
H651	H65	0.328500	0.306100	0.740200
H661	H66	0.878400	0.233000	0.090300
H671	H67	0.783200	0.209400	0.044500
H681	H68	0.086200	0.142400	0.061800
H691	H69	0.005800	0.127900	0.012400
H701	H70	0.983600	0.975500	0.057400
H711	H71	0.900100	0.035800	0.098100
H721	H72	0.215100	0.253000	0.928300
H731	H73	0.381600	0.192500	0.871900
H741	H74	0.351900	0.464300	0.806800
H751	H75	0.186200	0.516200	0.864800
H761	H76	0.552500	0.228200	0.803700
H771	H77	0.557400	0.340100	0.783200
H781	H78	0.328500	0.193900	0.759800
H791	H79	0.621600	0.733000	0.909700
H801	H80	0.716800	0.709400	0.955500
H811	H81	0.413800	0.642400	0.938200
H821	H82	0.494200	0.627900	0.987600
H831	H83	0.516400	0.475500	0.942600
H841	H84	0.599900	0.535800	0.901900
H851	H85	0.284900	0.753000	0.071700
H861	H86	0.118400	0.692500	0.128100
H871	H87	0.148100	0.964300	0.193200
H881	H88	0.313800	0.016200	0.135200
H891	H89	0.947500	0.728200	0.196300
H901	H90	0.942600	0.840100	0.216800
H911	H91	0.171500	0.693900	0.240200
H921	H92	0.621600	0.767000	0.590300
H931	H93	0.716800	0.790600	0.544500
H941	H94	0.413800	0.857600	0.561800
H951	H95	0.494200	0.872100	0.512400
H961	H96	0.516400	0.024500	0.557400
H971	H97	0.599900	0.964200	0.598100
H981	H98	0.284900	0.747000	0.428300
H991	H99	0.118400	0.807500	0.371900
H1001	H100	0.148100	0.535700	0.306800
H1011	H101	0.313800	0.483800	0.364800
H1021	H102	0.947500	0.771800	0.303700
H1031	H103	0.942600	0.659900	0.283200
H1041	H104	0.171500	0.806100	0.259800
C11	C1	0.062000	0.825200	0.534840
C21	C2	0.114100	0.724400	0.556220
C31	C3	0.012500	0.632800	0.546300
C41	C4	0.086100	0.531900	0.563970
C51	C5	0.239400	0.510400	0.541000
C61	C6	0.757500	0.796100	0.403400
C71	C7	0.656700	0.758900	0.369560
C81	C8	0.613900	0.820900	0.332500
C91	C9	0.674600	0.919600	0.331170
C101	C10	0.774200	0.950000	0.366300
C111	C11	0.510700	0.784700	0.292660
C121	C12	0.062000	0.674800	0.965160
C131	C13	0.114100	0.775600	0.943780
C141	C14	0.012500	0.867200	0.953700
C151	C15	0.086100	0.968100	0.936030
C161	C16	0.239400	0.989600	0.959000
C171	C17	0.757500	0.703900	0.096600
C181	C18	0.656700	0.741100	0.130440
C191	C19	0.613900	0.679100	0.167500
C201	C20	0.674600	0.580400	0.168830
C211	C21	0.774200	0.550000	0.133700
C221	C22	0.510700	0.715300	0.207340
C231	C23	0.438000	0.174800	0.034840
C241	C24	0.385900	0.275600	0.056220
C251	C25	0.487500	0.367200	0.046300
C261	C26	0.413900	0.468100	0.063970
C271	C27	0.260600	0.489600	0.041000
C281	C28	0.742500	0.203900	0.903400
C291	C29	0.843300	0.241100	0.869560
C301	C30	0.886100	0.179100	0.832500
C311	C31	0.825400	0.080400	0.831170
C321	C32	0.725800	0.050000	0.866300
C331	C33	0.989300	0.215300	0.792660
C341	C34	0.438000	0.325200	0.465160
C351	C35	0.385900	0.224400	0.443780
C361	C36	0.487500	0.132800	0.453700
C371	C37	0.413900	0.031900	0.436030
C381	C38	0.260600	0.010400	0.459000
C391	C39	0.742500	0.296100	0.596600
C401	C40	0.843300	0.258900	0.630440
C411	C41	0.886100	0.320900	0.667500
C421	C42	0.825400	0.419600	0.668830
C431	C43	0.725800	0.450000	0.633700
C441	C44	0.989300	0.284700	0.707340
C451	C45	0.938000	0.174800	0.465160
C461	C46	0.885900	0.275600	0.443780
C471	C47	0.987500	0.367200	0.453700
C481	C48	0.913900	0.468100	0.436030
C491	C49	0.760600	0.489600	0.459000
C501	C50	0.242500	0.203900	0.596600
C511	C51	0.343300	0.241100	0.630440
C521	C52	0.386100	0.179100	0.667500
C531	C53	0.325400	0.080400	0.668830
C541	C54	0.225800	0.050000	0.633700
C551	C55	0.489300	0.215300	0.707340
C561	C56	0.938000	0.325200	0.034840
C571	C57	0.885900	0.224400	0.056220
C581	C58	0.987500	0.132800	0.046300
C591	C59	0.913900	0.031900	0.063970
C601	C60	0.760600	0.010400	0.041000
C611	C61	0.242500	0.296100	0.903400
C621	C62	0.343300	0.258900	0.869560
C631	C63	0.386100	0.320900	0.832500
C641	C64	0.325400	0.419600	0.831170
C651	C65	0.225800	0.450000	0.866300
C661	C66	0.489300	0.284700	0.792660
C671	C67	0.562000	0.825200	0.965160
C681	C68	0.614100	0.724400	0.943780
C691	C69	0.512500	0.632800	0.953700
C701	C70	0.586100	0.531900	0.936030
C711	C71	0.739400	0.510400	0.959000
C721	C72	0.257500	0.796100	0.096600
C731	C73	0.156700	0.758900	0.130440
C741	C74	0.113900	0.820900	0.167500
C751	C75	0.174600	0.919600	0.168830
C761	C76	0.274200	0.950000	0.133700
C771	C77	0.010700	0.784700	0.207340
C781	C78	0.562000	0.674800	0.534840
C791	C79	0.614100	0.775600	0.556220
C801	C80	0.512500	0.867200	0.546300
C811	C81	0.586100	0.968100	0.563970
C821	C82	0.739400	0.989600	0.541000
C831	C83	0.257500	0.703900	0.403400
C841	C84	0.156700	0.741100	0.369560
C851	C85	0.113900	0.679100	0.332500
C861	C86	0.174600	0.580400	0.331170
C871	C87	0.274200	0.550000	0.366300
C881	C88	0.010700	0.715300	0.292660
C891	C89	0.605500	0.750000	0.250000
C901	C90	0.894500	0.250000	0.750000
C911	C91	0.394500	0.250000	0.750000
C921	C92	0.105500	0.750000	0.250000
N11	N1	0.817800	0.890300	0.402530
N21	N2	0.817800	0.609700	0.097470
N31	N3	0.682200	0.109700	0.902530
N41	N4	0.682200	0.390300	0.597470
N51	N5	0.182200	0.109700	0.597470
N61	N6	0.182200	0.390300	0.902530
N71	N7	0.317800	0.890300	0.097470
N81	N8	0.317800	0.609700	0.402530
O11	O1	0.005800	0.824690	0.494260
O21	O2	0.084900	0.904010	0.559740
O31	O3	0.257700	0.540320	0.499240
O41	O4	0.339900	0.464000	0.564870
O51	O5	0.005800	0.675310	0.005740
O61	O6	0.084900	0.595990	0.940260
O71	O7	0.257700	0.959680	0.000760
O81	O8	0.339900	0.036000	0.935130
O91	O9	0.494200	0.175310	0.994260
O101	O10	0.415100	0.095990	0.059740
O111	O11	0.242300	0.459680	0.999240
O121	O12	0.160100	0.536000	0.064870
O131	O13	0.494200	0.324690	0.505740
O141	O14	0.415100	0.404010	0.440260
O151	O15	0.242300	0.040320	0.500760
O161	O16	0.160100	0.964000	0.435130
O171	O17	0.994200	0.175310	0.505740
O181	O18	0.915100	0.095990	0.440260
O191	O19	0.742300	0.459680	0.500760
O201	O20	0.660100	0.536000	0.435130
O211	O21	0.994200	0.324690	0.994260
O221	O22	0.915100	0.404010	0.059740
O231	O23	0.742300	0.040320	0.999240
O241	O24	0.660100	0.964000	0.064870
O251	O25	0.505800	0.824690	0.005740
O261	O26	0.584900	0.904010	0.940260
O271	O27	0.757700	0.540320	0.000760
O281	O28	0.839900	0.464000	0.935130
O291	O29	0.505800	0.675310	0.494260
O301	O30	0.584900	0.595990	0.559740
O311	O31	0.757700	0.959680	0.499240
O321	O32	0.839900	0.036000	0.564870
