data_ACAJIZ_freeONLY_PM
_symmetry_space_group_name_H-M	'P1'
_cell_length_a	25.667000
_cell_length_b	13.076000
_cell_length_c	8.725000
_cell_angle_alpha	90.000000
_cell_angle_beta	95.070000
_cell_angle_gamma	90.000000
_symmetry_Int_Tables_number 1

loop_
_symmetry_equiv_pos_as_xyz
'x,y,z'

loop_
_atom_site_label
_atom_site_type_symbol
_atom_site_fract_x
_atom_site_fract_y
_atom_site_fract_z
Cu11	Cu1	0.292640	0.296740	0.061820
O11	O1	0.251790	0.292090	0.243200
O21	O2	0.178920	0.217200	0.140100
O31	O3	0.183810	0.655090	0.392100
O41	O4	0.255490	0.576230	0.493200
N11	N1	0.357460	0.366000	0.203500
C11	C1	0.205430	0.262500	0.248300
C21	C2	0.179140	0.284700	0.394300
H11	H1	0.185900	0.228500	0.465900
H21	H2	0.141600	0.288900	0.369200
C31	C3	0.198380	0.384300	0.471900
H31	H3	0.181200	0.393900	0.565500
H41	H4	0.235700	0.379500	0.499900
C41	C4	0.187300	0.476200	0.367000
H51	H5	0.200100	0.460900	0.268100
H61	H6	0.149700	0.484700	0.350100
C51	C5	0.210930	0.577200	0.423700
C61	C6	0.395220	0.308800	0.271200
H71	H7	0.396100	0.239900	0.245400
C71	C7	0.433190	0.345800	0.377800
H81	H8	0.459300	0.302300	0.420100
C81	C8	0.432770	0.446100	0.421900
C91	C9	0.392780	0.506600	0.350900
H91	H9	0.390800	0.575600	0.375700
C101	C10	0.356660	0.464700	0.245500
H101	H10	0.330200	0.506500	0.200500
C111	C11	0.474800	0.489700	0.535400
H111	H11	0.462300	0.553000	0.577000
H121	H12	0.481500	0.442100	0.620100
Cu21	Cu2	0.792640	0.796740	0.061820
O51	O5	0.751790	0.792090	0.243200
O61	O6	0.678920	0.717200	0.140100
O71	O7	0.683810	0.155090	0.392100
O81	O8	0.755490	0.076230	0.493200
N21	N2	0.857460	0.866000	0.203500
C121	C12	0.705430	0.762500	0.248300
C131	C13	0.679140	0.784700	0.394300
H131	H13	0.685900	0.728500	0.465900
H141	H14	0.641600	0.788900	0.369200
C141	C14	0.698380	0.884300	0.471900
H151	H15	0.681200	0.893900	0.565500
H161	H16	0.735700	0.879500	0.499900
C151	C15	0.687300	0.976200	0.367000
H171	H17	0.700100	0.960900	0.268100
H181	H18	0.649700	0.984700	0.350100
C161	C16	0.710930	0.077200	0.423700
C171	C17	0.895220	0.808800	0.271200
H191	H19	0.896100	0.739900	0.245400
C181	C18	0.933190	0.845800	0.377800
H201	H20	0.959300	0.802300	0.420100
C191	C19	0.932770	0.946100	0.421900
C201	C20	0.892780	0.006600	0.350900
H211	H21	0.890800	0.075600	0.375700
C211	C21	0.856660	0.964700	0.245500
H221	H22	0.830200	0.006500	0.200500
C221	C22	0.974800	0.989700	0.535400
H231	H23	0.962300	0.053000	0.577000
H241	H24	0.981500	0.942100	0.620100
Cu31	Cu3	0.707360	0.296740	0.438180
O91	O9	0.748210	0.292090	0.256800
O101	O10	0.821080	0.217200	0.359900
O111	O11	0.816190	0.655090	0.107900
O121	O12	0.744510	0.576230	0.006800
N31	N3	0.642540	0.366000	0.296500
C231	C23	0.794570	0.262500	0.251700
C241	C24	0.820860	0.284700	0.105700
H251	H25	0.814100	0.228500	0.034100
H261	H26	0.858400	0.288900	0.130800
C251	C25	0.801620	0.384300	0.028100
H271	H27	0.818800	0.393900	0.934500
H281	H28	0.764300	0.379500	0.000100
C261	C26	0.812700	0.476200	0.133000
H291	H29	0.799900	0.460900	0.231900
H301	H30	0.850300	0.484700	0.149900
C271	C27	0.789070	0.577200	0.076300
C281	C28	0.604780	0.308800	0.228800
H311	H31	0.603900	0.239900	0.254600
C291	C29	0.566810	0.345800	0.122200
H321	H32	0.540700	0.302300	0.079900
C301	C30	0.567230	0.446100	0.078100
C311	C31	0.607220	0.506600	0.149100
H331	H33	0.609200	0.575600	0.124300
C321	C32	0.643340	0.464700	0.254500
H341	H34	0.669800	0.506500	0.299500
C331	C33	0.525200	0.489700	0.964600
H351	H35	0.537700	0.553000	0.923000
H361	H36	0.518500	0.442100	0.879900
Cu41	Cu4	0.207360	0.796740	0.438180
O131	O13	0.248210	0.792090	0.256800
O141	O14	0.321080	0.717200	0.359900
O151	O15	0.316190	0.155090	0.107900
O161	O16	0.244510	0.076230	0.006800
N41	N4	0.142540	0.866000	0.296500
C341	C34	0.294570	0.762500	0.251700
C351	C35	0.320860	0.784700	0.105700
H371	H37	0.314100	0.728500	0.034100
H381	H38	0.358400	0.788900	0.130800
C361	C36	0.301620	0.884300	0.028100
H391	H39	0.318800	0.893900	0.934500
H401	H40	0.264300	0.879500	0.000100
C371	C37	0.312700	0.976200	0.133000
H411	H41	0.299900	0.960900	0.231900
H421	H42	0.350300	0.984700	0.149900
C381	C38	0.289070	0.077200	0.076300
C391	C39	0.104780	0.808800	0.228800
H431	H43	0.103900	0.739900	0.254600
C401	C40	0.066810	0.845800	0.122200
H441	H44	0.040700	0.802300	0.079900
C411	C41	0.067230	0.946100	0.078100
C421	C42	0.107220	0.006600	0.149100
H451	H45	0.109200	0.075600	0.124300
C431	C43	0.143340	0.964700	0.254500
H461	H46	0.169800	0.006500	0.299500
C441	C44	0.025200	0.989700	0.964600
H471	H47	0.037700	0.053000	0.923000
H481	H48	0.018500	0.942100	0.879900
Cu51	Cu5	0.707360	0.703260	0.938180
O171	O17	0.748210	0.707910	0.756800
O181	O18	0.821080	0.782800	0.859900
O191	O19	0.816190	0.344910	0.607900
O201	O20	0.744510	0.423770	0.506800
N51	N5	0.642540	0.634000	0.796500
C451	C45	0.794570	0.737500	0.751700
C461	C46	0.820860	0.715300	0.605700
H491	H49	0.814100	0.771500	0.534100
H501	H50	0.858400	0.711100	0.630800
C471	C47	0.801620	0.615700	0.528100
H511	H51	0.818800	0.606100	0.434500
H521	H52	0.764300	0.620500	0.500100
C481	C48	0.812700	0.523800	0.633000
H531	H53	0.799900	0.539100	0.731900
H541	H54	0.850300	0.515300	0.649900
C491	C49	0.789070	0.422800	0.576300
C501	C50	0.604780	0.691200	0.728800
H551	H55	0.603900	0.760100	0.754600
C511	C51	0.566810	0.654200	0.622200
H561	H56	0.540700	0.697700	0.579900
C521	C52	0.567230	0.553900	0.578100
C531	C53	0.607220	0.493400	0.649100
H571	H57	0.609200	0.424400	0.624300
C541	C54	0.643340	0.535300	0.754500
H581	H58	0.669800	0.493500	0.799500
C551	C55	0.525200	0.510300	0.464600
H591	H59	0.537700	0.447000	0.423000
H601	H60	0.518500	0.557900	0.379900
Cu61	Cu6	0.207360	0.203260	0.938180
O211	O21	0.248210	0.207910	0.756800
O221	O22	0.321080	0.282800	0.859900
O231	O23	0.316190	0.844910	0.607900
O241	O24	0.244510	0.923770	0.506800
N61	N6	0.142540	0.134000	0.796500
C561	C56	0.294570	0.237500	0.751700
C571	C57	0.320860	0.215300	0.605700
H611	H61	0.314100	0.271500	0.534100
H621	H62	0.358400	0.211100	0.630800
C581	C58	0.301620	0.115700	0.528100
H631	H63	0.318800	0.106100	0.434500
H641	H64	0.264300	0.120500	0.500100
C591	C59	0.312700	0.023800	0.633000
H651	H65	0.299900	0.039100	0.731900
H661	H66	0.350300	0.015300	0.649900
C601	C60	0.289070	0.922800	0.576300
C611	C61	0.104780	0.191200	0.728800
H671	H67	0.103900	0.260100	0.754600
C621	C62	0.066810	0.154200	0.622200
H681	H68	0.040700	0.197700	0.579900
C631	C63	0.067230	0.053900	0.578100
C641	C64	0.107220	0.993400	0.649100
H691	H69	0.109200	0.924400	0.624300
C651	C65	0.143340	0.035300	0.754500
H701	H70	0.169800	0.993500	0.799500
C661	C66	0.025200	0.010300	0.464600
H711	H71	0.037700	0.947000	0.423000
H721	H72	0.018500	0.057900	0.379900
Cu71	Cu7	0.292640	0.703260	0.561820
O251	O25	0.251790	0.707910	0.743200
O261	O26	0.178920	0.782800	0.640100
O271	O27	0.183810	0.344910	0.892100
O281	O28	0.255490	0.423770	0.993200
N71	N7	0.357460	0.634000	0.703500
C671	C67	0.205430	0.737500	0.748300
C681	C68	0.179140	0.715300	0.894300
H731	H73	0.185900	0.771500	0.965900
H741	H74	0.141600	0.711100	0.869200
C691	C69	0.198380	0.615700	0.971900
H751	H75	0.181200	0.606100	0.065500
H761	H76	0.235700	0.620500	0.999900
C701	C70	0.187300	0.523800	0.867000
H771	H77	0.200100	0.539100	0.768100
H781	H78	0.149700	0.515300	0.850100
C711	C71	0.210930	0.422800	0.923700
C721	C72	0.395220	0.691200	0.771200
H791	H79	0.396100	0.760100	0.745400
C731	C73	0.433190	0.654200	0.877800
H801	H80	0.459300	0.697700	0.920100
C741	C74	0.432770	0.553900	0.921900
C751	C75	0.392780	0.493400	0.850900
H811	H81	0.390800	0.424400	0.875700
C761	C76	0.356660	0.535300	0.745500
H821	H82	0.330200	0.493500	0.700500
C771	C77	0.474800	0.510300	0.035400
H831	H83	0.462300	0.447000	0.077000
H841	H84	0.481500	0.557900	0.120100
Cu81	Cu8	0.792640	0.203260	0.561820
O291	O29	0.751790	0.207910	0.743200
O301	O30	0.678920	0.282800	0.640100
O311	O31	0.683810	0.844910	0.892100
O321	O32	0.755490	0.923770	0.993200
N81	N8	0.857460	0.134000	0.703500
C781	C78	0.705430	0.237500	0.748300
C791	C79	0.679140	0.215300	0.894300
H851	H85	0.685900	0.271500	0.965900
H861	H86	0.641600	0.211100	0.869200
C801	C80	0.698380	0.115700	0.971900
H871	H87	0.681200	0.106100	0.065500
H881	H88	0.735700	0.120500	0.999900
C811	C81	0.687300	0.023800	0.867000
H891	H89	0.700100	0.039100	0.768100
H901	H90	0.649700	0.015300	0.850100
C821	C82	0.710930	0.922800	0.923700
C831	C83	0.895220	0.191200	0.771200
H911	H91	0.896100	0.260100	0.745400
C841	C84	0.933190	0.154200	0.877800
H921	H92	0.959300	0.197700	0.920100
C851	C85	0.932770	0.053900	0.921900
C861	C86	0.892780	0.993400	0.850900
H931	H93	0.890800	0.924400	0.875700
C871	C87	0.856660	0.035300	0.745500
H941	H94	0.830200	0.993500	0.700500
C881	C88	0.974800	0.010300	0.035400
H951	H95	0.962300	0.947000	0.077000
H961	H96	0.981500	0.057900	0.120100
