data_ACIBOE_freeONLY_PM
_symmetry_space_group_name_H-M	'P1'
_cell_length_a	17.071300
_cell_length_b	17.071300
_cell_length_c	17.071300
_cell_angle_alpha	105.830000
_cell_angle_beta	105.830000
_cell_angle_gamma	117.029000
_symmetry_Int_Tables_number 1

loop_
_symmetry_equiv_pos_as_xyz
'x,y,z'

loop_
_atom_site_label
_atom_site_type_symbol
_atom_site_fract_x
_atom_site_fract_y
_atom_site_fract_z
Zn11	Zn1	0.161400	0.298710	0.622950
Zn21	Zn2	0.675760	0.538450	0.377050
Zn31	Zn3	0.538450	0.161400	0.862690
Zn41	Zn4	0.298710	0.675760	0.137310
Zn51	Zn5	0.175760	0.798710	0.137310
Zn61	Zn6	0.661400	0.038450	0.862690
Zn71	Zn7	0.798710	0.661400	0.622950
Zn81	Zn8	0.038450	0.175760	0.377050
Zn91	Zn9	0.929660	0.115820	0.500000
Zn101	Zn10	0.615820	0.429660	0.500000
Zn111	Zn11	0.429660	0.929660	0.813840
Zn121	Zn12	0.115820	0.615820	0.186160
H11	H1	0.940600	0.332900	0.965100
H21	H2	0.857300	0.171500	0.699800
H31	H3	0.122900	0.435800	0.857100
H41	H4	0.367800	0.975500	0.034900
H51	H5	0.471700	0.157500	0.300200
H61	H6	0.578700	0.265800	0.142900
H71	H7	0.975500	0.940600	0.607700
H81	H8	0.157500	0.857300	0.685800
H91	H9	0.265800	0.122900	0.687100
H101	H10	0.332900	0.367800	0.392300
H111	H11	0.171500	0.471700	0.314200
H121	H12	0.435800	0.578700	0.312900
H131	H13	0.867800	0.832900	0.392300
H141	H14	0.971700	0.671500	0.314200
H151	H15	0.078700	0.935800	0.312900
H161	H16	0.440600	0.475500	0.607700
H171	H17	0.357300	0.657500	0.685800
H181	H18	0.622900	0.765800	0.687100
H191	H19	0.832900	0.440600	0.965100
H201	H20	0.671500	0.357300	0.699800
H211	H21	0.935800	0.622900	0.857100
H221	H22	0.475500	0.867800	0.034900
H231	H23	0.657500	0.971700	0.300200
H241	H24	0.765800	0.078700	0.142900
C11	C1	0.042100	0.399900	0.924200
C21	C2	0.953900	0.325500	0.915200
C31	C3	0.884700	0.239000	0.830700
C41	C4	0.903900	0.228000	0.756100
C51	C5	0.993500	0.302100	0.765600
C61	C6	0.062800	0.387300	0.850300
C71	C7	0.978800	0.993100	0.378100
C81	C8	0.790800	0.155100	0.820100
C91	C9	0.017500	0.284500	0.686000
C101	C10	0.475700	0.117900	0.075800
C111	C11	0.410300	0.038700	0.084800
C121	C12	0.408300	0.054000	0.169300
C131	C13	0.471900	0.147800	0.243900
C141	C14	0.536500	0.227900	0.234400
C151	C15	0.537000	0.212500	0.149700
C161	C16	0.615000	0.600700	0.621900
C171	C17	0.335000	0.970700	0.179900
C181	C18	0.598500	0.331500	0.314000
C191	C19	0.117900	0.042100	0.642200
C201	C20	0.038700	0.953900	0.628400
C211	C21	0.054000	0.884700	0.645700
C221	C22	0.147800	0.903900	0.675900
C231	C23	0.227900	0.993500	0.691400
C241	C24	0.212500	0.062800	0.675500
C251	C25	0.600700	0.978800	0.985700
C261	C26	0.970700	0.790800	0.635700
C271	C27	0.331500	0.017500	0.733000
C281	C28	0.399900	0.475700	0.357800
C291	C29	0.325500	0.410300	0.371600
C301	C30	0.239000	0.408300	0.354300
C311	C31	0.228000	0.471900	0.324100
C321	C32	0.302100	0.536500	0.308600
C331	C33	0.387300	0.537000	0.324500
C341	C34	0.993100	0.615000	0.014300
C351	C35	0.155100	0.335000	0.364300
C361	C36	0.284500	0.598500	0.267000
C371	C37	0.975700	0.899900	0.357800
C381	C38	0.910300	0.825500	0.371600
C391	C39	0.908300	0.739000	0.354300
C401	C40	0.971900	0.728000	0.324100
C411	C41	0.036500	0.802100	0.308600
C421	C42	0.037000	0.887300	0.324500
C431	C43	0.115000	0.493100	0.014300
C441	C44	0.835000	0.655100	0.364300
C451	C45	0.098500	0.784500	0.267000
C461	C46	0.542100	0.617900	0.642200
C471	C47	0.453900	0.538700	0.628400
C481	C48	0.384700	0.554000	0.645700
C491	C49	0.403900	0.647800	0.675900
C501	C50	0.493500	0.727900	0.691400
C511	C51	0.562800	0.712500	0.675500
C521	C52	0.478800	0.100700	0.985700
C531	C53	0.290800	0.470700	0.635700
C541	C54	0.517500	0.831500	0.733000
C551	C55	0.899900	0.542100	0.924200
C561	C56	0.825500	0.453900	0.915200
C571	C57	0.739000	0.384700	0.830700
C581	C58	0.728000	0.403900	0.756100
C591	C59	0.802100	0.493500	0.765600
C601	C60	0.887300	0.562800	0.850300
C611	C61	0.493100	0.478800	0.378100
C621	C62	0.655100	0.290800	0.820100
C631	C63	0.784500	0.517500	0.686000
C641	C64	0.617900	0.975700	0.075800
C651	C65	0.538700	0.910300	0.084800
C661	C66	0.554000	0.908300	0.169300
C671	C67	0.647800	0.971900	0.243900
C681	C68	0.727900	0.036500	0.234400
C691	C69	0.712500	0.037000	0.149700
C701	C70	0.100700	0.115000	0.621900
C711	C71	0.470700	0.835000	0.179900
C721	C72	0.831500	0.098500	0.314000
C731	C73	0.781900	0.945700	0.500000
C741	C74	0.671600	0.789600	0.500000
C751	C75	0.631300	0.910300	0.500000
C761	C76	0.445700	0.281900	0.500000
C771	C77	0.289600	0.171600	0.500000
C781	C78	0.410300	0.131300	0.500000
C791	C79	0.281900	0.781900	0.836200
C801	C80	0.171600	0.671600	0.882000
C811	C81	0.131300	0.631300	0.721000
C821	C82	0.945700	0.445700	0.163800
C831	C83	0.789600	0.289600	0.118000
C841	C84	0.910300	0.410300	0.279000
N11	N1	0.695100	0.879700	0.500000
N21	N2	0.379700	0.195100	0.500000
N31	N3	0.195100	0.695100	0.815400
N41	N4	0.879700	0.379700	0.184600
O11	O1	0.040400	0.058300	0.365700
O21	O2	0.918900	0.998600	0.403700
O31	O3	0.788100	0.153400	0.893900
O41	O4	0.723900	0.093300	0.743800
O51	O5	0.944300	0.225200	0.607900
O61	O6	0.109500	0.330400	0.706100
O71	O7	0.024500	0.287100	0.426200
O81	O8	0.692600	0.674700	0.634300
O91	O9	0.594900	0.515200	0.596300
O101	O10	0.259500	0.894200	0.106100
O111	O11	0.349500	0.980100	0.256200
O121	O12	0.617300	0.336400	0.392100
O131	O13	0.624300	0.403400	0.293900
O141	O14	0.860900	0.598300	0.573800
O151	O15	0.674700	0.040400	0.982100
O161	O16	0.515200	0.918900	0.920300
O171	O17	0.894200	0.788100	0.634700
O181	O18	0.980100	0.723900	0.630600
O191	O19	0.336400	0.944300	0.719100
O201	O20	0.403400	0.109500	0.779100
O211	O21	0.598300	0.024500	0.737400
O221	O22	0.058300	0.692600	0.017900
O231	O23	0.998600	0.594900	0.079700
O241	O24	0.153400	0.259500	0.365300
O251	O25	0.093300	0.349500	0.369400
O261	O26	0.225200	0.617300	0.280900
O271	O27	0.330400	0.624300	0.220900
O281	O28	0.287100	0.860900	0.262600
O291	O29	0.192600	0.558300	0.017900
O301	O30	0.094900	0.498600	0.079700
O311	O31	0.759500	0.653400	0.365300
O321	O32	0.849500	0.593300	0.369400
O331	O33	0.117300	0.725200	0.280900
O341	O34	0.124300	0.830400	0.220900
O351	O35	0.360900	0.787100	0.262600
O361	O36	0.540400	0.174700	0.982100
O371	O37	0.418900	0.015200	0.920300
O381	O38	0.288100	0.394200	0.634700
O391	O39	0.223900	0.480100	0.630600
O401	O40	0.444300	0.836400	0.719100
O411	O41	0.609500	0.903400	0.779100
O421	O42	0.524500	0.098300	0.737400
O431	O43	0.558300	0.540400	0.365700
O441	O44	0.498600	0.418900	0.403700
O451	O45	0.653400	0.288100	0.893900
O461	O46	0.593300	0.223900	0.743800
O471	O47	0.725200	0.444300	0.607900
O481	O48	0.830400	0.609500	0.706100
O491	O49	0.787100	0.524500	0.426200
O501	O50	0.174700	0.192600	0.634300
O511	O51	0.015200	0.094900	0.596300
O521	O52	0.394200	0.759500	0.106100
O531	O53	0.480100	0.849500	0.256200
O541	O54	0.836400	0.117300	0.392100
O551	O55	0.903400	0.124300	0.293900
O561	O56	0.098300	0.360900	0.573800
O571	O57	0.051090	0.231110	0.500000
O581	O58	0.803400	0.016600	0.500000
O591	O59	0.731110	0.551090	0.500000
O601	O60	0.516600	0.303400	0.500000
O611	O61	0.551090	0.051090	0.819980
O621	O62	0.303400	0.803400	0.786800
O631	O63	0.231110	0.731110	0.180020
O641	O64	0.016600	0.516600	0.213200
