data_ACOGAB_freeONLY_PM
_symmetry_space_group_name_H-M	'P1'
_cell_length_a	9.981700
_cell_length_b	16.638200
_cell_length_c	17.067500
_cell_angle_alpha	100.544000
_cell_angle_beta	107.003000
_cell_angle_gamma	90.000000
_symmetry_Int_Tables_number 1

loop_
_symmetry_equiv_pos_as_xyz
'x,y,z'

loop_
_atom_site_label
_atom_site_type_symbol
_atom_site_fract_x
_atom_site_fract_y
_atom_site_fract_z
Cd11	Cd1	0.000000	0.000000	0.000000
Cd21	Cd2	0.000000	0.500000	0.000000
H11	H1	0.151800	0.833000	0.973800
H21	H2	0.780800	0.865700	0.848000
H31	H3	0.775000	0.750600	0.751400
H41	H4	0.156100	0.714400	0.885800
H51	H5	0.052400	0.455800	0.627400
H61	H6	0.098300	0.516400	0.713600
H71	H7	0.094500	0.586300	0.576200
H81	H8	0.201000	0.607200	0.666000
H91	H9	0.894700	0.563900	0.491800
H101	H10	0.742500	0.588700	0.490200
H111	H11	0.719400	0.499900	0.570400
H121	H12	0.834300	0.444500	0.547200
H131	H13	0.672400	0.490400	0.701600
H141	H14	0.504100	0.609100	0.874400
H151	H15	0.708200	0.594800	0.973000
H161	H16	0.874500	0.486200	0.808200
H171	H17	0.052400	0.620100	0.768800
H181	H18	0.381000	0.591800	0.728800
H191	H19	0.178000	0.667000	0.026200
H201	H20	0.932800	0.634300	0.152000
H211	H21	0.023600	0.749400	0.248600
H221	H22	0.270300	0.785600	0.114200
H231	H23	0.425000	0.044200	0.372600
H241	H24	0.384700	0.983600	0.286400
H251	H25	0.518300	0.913700	0.423800
H261	H26	0.535000	0.892800	0.334000
H271	H27	0.402900	0.936100	0.508200
H281	H28	0.252300	0.911300	0.509800
H291	H29	0.149000	0.000100	0.429600
H301	H30	0.287100	0.055500	0.452800
H311	H31	0.970800	0.009600	0.298400
H321	H32	0.629700	0.890900	0.125600
H331	H33	0.735200	0.905200	0.027000
H341	H34	0.066300	0.013800	0.191800
H351	H35	0.283600	0.879900	0.231200
H361	H36	0.652200	0.908200	0.271200
H371	H37	0.848200	0.167000	0.026200
H381	H38	0.219200	0.134300	0.152000
H391	H39	0.225000	0.249400	0.248600
H401	H40	0.843900	0.285600	0.114200
H411	H41	0.947600	0.544200	0.372600
H421	H42	0.901700	0.483600	0.286400
H431	H43	0.905500	0.413700	0.423800
H441	H44	0.799000	0.392800	0.334000
H451	H45	0.105300	0.436100	0.508200
H461	H46	0.257500	0.411300	0.509800
H471	H47	0.280600	0.500100	0.429600
H481	H48	0.165700	0.555500	0.452800
H491	H49	0.327600	0.509600	0.298400
H501	H50	0.495900	0.390900	0.125600
H511	H51	0.291800	0.405200	0.027000
H521	H52	0.125500	0.513800	0.191800
H531	H53	0.947600	0.379900	0.231200
H541	H54	0.619000	0.408200	0.271200
H551	H55	0.822000	0.333000	0.973800
H561	H56	0.067200	0.365700	0.848000
H571	H57	0.976400	0.250600	0.751400
H581	H58	0.729700	0.214400	0.885800
H591	H59	0.575000	0.955800	0.627400
H601	H60	0.615300	0.016400	0.713600
H611	H61	0.481700	0.086300	0.576200
H621	H62	0.465000	0.107200	0.666000
H631	H63	0.597100	0.063900	0.491800
H641	H64	0.747700	0.088700	0.490200
H651	H65	0.851000	0.999900	0.570400
H661	H66	0.712900	0.944500	0.547200
H671	H67	0.029200	0.990400	0.701600
H681	H68	0.370300	0.109100	0.874400
H691	H69	0.264800	0.094800	0.973000
H701	H70	0.933700	0.986200	0.808200
H711	H71	0.716400	0.120100	0.768800
H721	H72	0.347800	0.091800	0.728800
C11	C1	0.073500	0.816900	0.927800
C21	C2	0.861000	0.836000	0.855000
C31	C3	0.854800	0.765500	0.797000
C41	C4	0.077000	0.745000	0.874800
C51	C5	0.967370	0.718200	0.807340
C61	C6	0.878830	0.611200	0.680460
C71	C7	0.056710	0.512900	0.654020
C81	C8	0.152040	0.562600	0.621680
C91	C9	0.801770	0.542700	0.487540
C101	C10	0.810840	0.500800	0.561280
C111	C11	0.391100	0.506700	0.637000
C121	C12	0.676750	0.512800	0.756500
C131	C13	0.563240	0.549300	0.775080
C141	C14	0.577000	0.582400	0.859000
C151	C15	0.701000	0.574300	0.917400
C161	C16	0.797890	0.510200	0.821580
C171	C17	0.145700	0.683100	0.072200
C181	C18	0.006000	0.664000	0.145000
C191	C19	0.057800	0.734500	0.203000
C201	C20	0.202200	0.755000	0.125200
C211	C21	0.160030	0.781800	0.192660
C221	C22	0.198370	0.888800	0.319540
C231	C23	0.402690	0.987100	0.345980
C241	C24	0.530360	0.937400	0.378320
C251	C25	0.314230	0.957300	0.512460
C261	C26	0.249560	0.999200	0.438720
C271	C27	0.754100	0.993300	0.363000
C281	C28	0.920250	0.987200	0.243500
C291	C29	0.788160	0.950700	0.224920
C301	C30	0.718000	0.917600	0.141000
C311	C31	0.783600	0.925700	0.082600
C321	C32	0.976310	0.989800	0.178420
C331	C33	0.926500	0.183100	0.072200
C341	C34	0.139000	0.164000	0.145000
C351	C35	0.145200	0.234500	0.203000
C361	C36	0.923000	0.255000	0.125200
C371	C37	0.032630	0.281800	0.192660
C381	C38	0.121170	0.388800	0.319540
C391	C39	0.943290	0.487100	0.345980
C401	C40	0.847960	0.437400	0.378320
C411	C41	0.198230	0.457300	0.512460
C421	C42	0.189160	0.499200	0.438720
C431	C43	0.608900	0.493300	0.363000
C441	C44	0.323250	0.487200	0.243500
C451	C45	0.436760	0.450700	0.224920
C461	C46	0.423000	0.417600	0.141000
C471	C47	0.299000	0.425700	0.082600
C481	C48	0.202110	0.489800	0.178420
C491	C49	0.854300	0.316900	0.927800
C501	C50	0.994000	0.336000	0.855000
C511	C51	0.942200	0.265500	0.797000
C521	C52	0.797800	0.245000	0.874800
C531	C53	0.839970	0.218200	0.807340
C541	C54	0.801630	0.111200	0.680460
C551	C55	0.597310	0.012900	0.654020
C561	C56	0.469640	0.062600	0.621680
C571	C57	0.685770	0.042700	0.487540
C581	C58	0.750440	0.000800	0.561280
C591	C59	0.245900	0.006700	0.637000
C601	C60	0.079750	0.012800	0.756500
C611	C61	0.211840	0.049300	0.775080
C621	C62	0.282000	0.082400	0.859000
C631	C63	0.216400	0.074300	0.917400
C641	C64	0.023690	0.010200	0.821580
Br11	Br1	0.280280	0.971590	0.096440
Br21	Br2	0.183840	0.528410	0.903560
Br31	Br3	0.719720	0.028410	0.903560
Br41	Br4	0.816160	0.471590	0.096440
N11	N1	0.968910	0.864800	0.918620
N21	N2	0.914350	0.540600	0.638700
N31	N3	0.977140	0.645800	0.754080
N41	N4	0.811670	0.539300	0.900740
N51	N5	0.254670	0.512800	0.592740
N61	N6	0.435710	0.555300	0.715620
N71	N7	0.050290	0.635200	0.081380
N81	N8	0.275650	0.959400	0.361300
N91	N9	0.223060	0.854200	0.245920
N101	N10	0.910930	0.960700	0.099260
N111	N11	0.661930	0.987200	0.407260
N121	N12	0.720090	0.944700	0.284380
N131	N13	0.031090	0.135200	0.081380
N141	N14	0.085650	0.459400	0.361300
N151	N15	0.022860	0.354200	0.245920
N161	N16	0.188330	0.460700	0.099260
N171	N17	0.745330	0.487200	0.407260
N181	N18	0.564290	0.444700	0.284380
N191	N19	0.949710	0.364800	0.918620
N201	N20	0.724350	0.040600	0.638700
N211	N21	0.776940	0.145800	0.754080
N221	N22	0.089070	0.039300	0.900740
N231	N23	0.338070	0.012800	0.592740
N241	N24	0.279910	0.055300	0.715620
O11	O1	0.767350	0.641500	0.654700
O21	O2	0.467340	0.460000	0.609480
O31	O3	0.112650	0.858500	0.345300
O41	O4	0.857860	0.040000	0.390520
O51	O5	0.232650	0.358500	0.345300
O61	O6	0.532660	0.540000	0.390520
O71	O7	0.887350	0.141500	0.654700
O81	O8	0.142140	0.960000	0.609480
