data_ACOLEL_freeONLY_PM
_symmetry_space_group_name_H-M	'P1'
_cell_length_a	17.656000
_cell_length_b	19.408400
_cell_length_c	20.504000
_cell_angle_alpha	106.261000
_cell_angle_beta	90.000000
_cell_angle_gamma	117.055000
_symmetry_Int_Tables_number 1

loop_
_symmetry_equiv_pos_as_xyz
'x,y,z'

loop_
_atom_site_label
_atom_site_type_symbol
_atom_site_fract_x
_atom_site_fract_y
_atom_site_fract_z
Mn11	Mn1	0.546670	0.885300	0.976260
Mn21	Mn2	0.338630	0.885300	0.476260
H11	H1	0.516400	0.002200	0.809600
H21	H2	0.369600	0.755800	0.749400
H31	H3	0.347000	0.758000	0.639600
H41	H4	0.464200	0.688000	0.882800
H51	H5	0.707200	0.867800	0.902300
H61	H6	0.711400	0.739400	0.854300
H71	H7	0.663900	0.601600	0.813400
H81	H8	0.609300	0.466400	0.746600
H91	H9	0.368600	0.436800	0.753000
H101	H10	0.423600	0.572600	0.817900
H111	H11	0.547100	0.326000	0.722200
H121	H12	0.481300	0.192200	0.647900
H131	H13	0.266300	0.207200	0.610200
H141	H14	0.339200	0.342000	0.667600
H151	H15	0.434300	0.086200	0.549200
H161	H16	0.200200	0.062800	0.572100
H171	H17	0.180400	0.930800	0.508900
H181	H18	0.534000	0.070400	0.735400
H191	H19	0.499400	0.032400	0.660700
H201	H20	0.485800	0.002200	0.309600
H211	H21	0.386200	0.755800	0.249400
H221	H22	0.411000	0.758000	0.139600
H231	H23	0.223800	0.688000	0.382800
H241	H24	0.160600	0.867800	0.402300
H251	H25	0.028000	0.739400	0.354300
H261	H26	0.937700	0.601600	0.313400
H271	H27	0.857100	0.466400	0.246600
H281	H28	0.068200	0.436800	0.253000
H291	H29	0.149000	0.572600	0.317900
H301	H30	0.778900	0.326000	0.222200
H311	H31	0.710900	0.192200	0.147900
H321	H32	0.940900	0.207200	0.110200
H331	H33	0.002800	0.342000	0.167600
H341	H34	0.651900	0.086200	0.049200
H351	H35	0.862600	0.062800	0.072100
H361	H36	0.750400	0.930800	0.008900
H371	H37	0.536400	0.070400	0.235400
H381	H38	0.533000	0.032400	0.160700
C11	C1	0.416700	0.877200	0.657680
C21	C2	0.468950	0.952100	0.708800
C31	C3	0.483120	0.952840	0.775400
C41	C4	0.447670	0.879540	0.792100
C51	C5	0.394670	0.804740	0.739600
C61	C6	0.381500	0.806800	0.674100
C71	C7	0.391080	0.876360	0.587000
C81	C8	0.471940	0.880280	0.861620
C91	C9	0.523050	0.716100	0.882500
C101	C10	0.660120	0.816240	0.893300
C111	C11	0.663230	0.745260	0.865600
C121	C12	0.549440	0.600480	0.823000
C131	C13	0.604740	0.568480	0.801200
C141	C14	0.572150	0.487500	0.761400
C151	C15	0.483560	0.437920	0.743800
C161	C16	0.427750	0.469900	0.765000
C171	C17	0.460650	0.551100	0.804200
C181	C18	0.449750	0.350700	0.705100
C191	C19	0.492390	0.303580	0.697900
C201	C20	0.452700	0.223200	0.654100
C211	C21	0.370110	0.190020	0.620000
C221	C22	0.323860	0.231920	0.629000
C231	C23	0.366700	0.310800	0.666700
C241	C24	0.374840	0.064680	0.545800
C251	C25	0.244360	0.050720	0.559300
C261	C26	0.233100	0.978000	0.523100
C271	C27	0.460500	0.877200	0.157680
C281	C28	0.483150	0.952100	0.208800
C291	C29	0.469720	0.952840	0.275400
C301	C30	0.431870	0.879540	0.292100
C311	C31	0.410070	0.804740	0.239600
C321	C32	0.425300	0.806800	0.174100
C331	C33	0.485280	0.876360	0.087000
C341	C34	0.408340	0.880280	0.361620
C351	C35	0.193050	0.716100	0.382500
C361	C36	0.156120	0.816240	0.393300
C371	C37	0.082030	0.745260	0.365600
C381	C38	0.051040	0.600480	0.323000
C391	C39	0.963740	0.568480	0.301200
C401	C40	0.915350	0.487500	0.261400
C411	C41	0.954360	0.437920	0.243800
C421	C42	0.042150	0.469900	0.265000
C431	C43	0.090450	0.551100	0.304200
C441	C44	0.900950	0.350700	0.205100
C451	C45	0.811190	0.303580	0.197900
C461	C46	0.770500	0.223200	0.154100
C471	C47	0.819910	0.190020	0.120000
C481	C48	0.908060	0.231920	0.129000
C491	C49	0.944100	0.310800	0.166700
C501	C50	0.689840	0.064680	0.045800
C511	C51	0.806360	0.050720	0.059300
C521	C52	0.744900	0.978000	0.023100
N11	N1	0.505340	0.027680	0.700600
N21	N2	0.574840	0.801680	0.906900
N31	N3	0.575970	0.680540	0.857500
N41	N4	0.333100	0.107800	0.575900
N51	N5	0.315010	0.983220	0.509200
N61	N6	0.522340	0.027680	0.200600
N71	N7	0.226840	0.801680	0.406900
N81	N8	0.104570	0.680540	0.357500
N91	N9	0.774700	0.107800	0.075900
N101	N10	0.668210	0.983220	0.009200
O11	O1	0.327400	0.816760	0.548650
O21	O2	0.439850	0.939680	0.573180
O31	O3	0.528940	0.942180	0.902230
O41	O4	0.436920	0.818440	0.881050
O51	O5	0.489360	0.816760	0.048650
O61	O6	0.499830	0.939680	0.073180
O71	O7	0.413240	0.942180	0.402230
O81	O8	0.381520	0.818440	0.381050
Mn31	Mn3	0.983300	0.168380	0.922950
Mn41	Mn4	0.185080	0.168380	0.422950
H391	H39	0.104100	0.279000	0.753900
H401	H40	0.009400	0.036000	0.688500
H411	H41	0.038600	0.039800	0.578600
H421	H42	0.872500	0.969600	0.829000
H431	H43	0.773100	0.118800	0.921700
H441	H44	0.651500	0.976800	0.865400
H451	H45	0.586400	0.839400	0.816800
H461	H46	0.521000	0.705600	0.776100
H471	H47	0.734300	0.704600	0.709900
H481	H48	0.804500	0.842000	0.758900
H491	H49	0.446900	0.614400	0.691900
H501	H50	0.362800	0.491800	0.607400
H511	H51	0.562800	0.447400	0.586000
H521	H52	0.648600	0.569400	0.671100
H531	H53	0.290500	0.363600	0.534300
H541	H54	0.506100	0.353800	0.482000
H551	H55	0.381000	0.234200	0.397200
H561	H56	0.167900	0.354000	0.682900
H571	H57	0.165700	0.317200	0.608200
H581	H58	0.174900	0.279000	0.253900
H591	H59	0.026600	0.036000	0.188500
H601	H60	0.001200	0.039800	0.078600
H611	H61	0.097100	0.969600	0.329000
H621	H62	0.345700	0.118800	0.421700
H631	H63	0.325300	0.976800	0.365400
H641	H64	0.253000	0.839400	0.316800
H651	H65	0.184600	0.705600	0.276100
H661	H66	0.970300	0.704600	0.209900
H671	H67	0.037500	0.842000	0.258900
H681	H68	0.167500	0.614400	0.191900
H691	H69	0.129000	0.491800	0.107400
H701	H70	0.884600	0.447400	0.086000
H711	H71	0.920800	0.569400	0.171100
H721	H72	0.073100	0.363600	0.034300
H731	H73	0.847700	0.353800	0.982000
H741	H74	0.853200	0.234200	0.897200
H751	H75	0.186100	0.354000	0.182900
H761	H76	0.151500	0.317200	0.108200
C531	C53	0.090370	0.161940	0.600200
C541	C54	0.108630	0.234460	0.654100
C551	C55	0.090910	0.231020	0.718800
C561	C56	0.053830	0.157660	0.733030
C571	C57	0.034460	0.085720	0.679740
C581	C58	0.052210	0.087820	0.613610
C591	C59	0.114770	0.162540	0.533500
C601	C60	0.036340	0.154080	0.803100
C611	C61	0.834000	0.989000	0.843800
C621	C62	0.778520	0.073840	0.896300
C631	C63	0.709680	0.992760	0.864780
C641	C64	0.703260	0.857920	0.792500
C651	C65	0.616800	0.813000	0.795700
C661	C66	0.577720	0.733640	0.769100
C671	C67	0.614480	0.686560	0.730400
C681	C68	0.704010	0.731420	0.730300
C691	C69	0.745870	0.813740	0.760000
C701	C70	0.556860	0.604320	0.689000
C711	C71	0.470330	0.581060	0.670500
C721	C72	0.420450	0.507900	0.619900
C731	C73	0.454570	0.458140	0.587600
C741	C74	0.539890	0.481180	0.607100
C751	C75	0.591390	0.554180	0.658000
C761	C76	0.327320	0.346640	0.511100
C771	C77	0.448860	0.341920	0.481770
C781	C78	0.378380	0.273360	0.434300
C791	C79	0.071570	0.161940	0.100200
C801	C80	0.125830	0.234460	0.154100
C811	C81	0.140110	0.231020	0.218800
C821	C82	0.103830	0.157660	0.233030
C831	C83	0.051260	0.085720	0.179740
C841	C84	0.035610	0.087820	0.113610
C851	C85	0.047770	0.162540	0.033500
C861	C86	0.117740	0.154080	0.303100
C871	C87	0.155000	0.989000	0.343800
C881	C88	0.295320	0.073840	0.396300
C891	C89	0.283080	0.992760	0.364780
C901	C90	0.154660	0.857920	0.292500
C911	C91	0.196200	0.813000	0.295700
C921	C92	0.155920	0.733640	0.269100
C931	C93	0.072080	0.686560	0.230400
C941	C94	0.027410	0.731420	0.230300
C951	C95	0.067870	0.813740	0.260000
C961	C96	0.047460	0.604320	0.189000
C971	C97	0.110730	0.581060	0.170500
C981	C98	0.087450	0.507900	0.119900
C991	C99	0.003570	0.458140	0.087600
C1001	C100	0.941290	0.481180	0.107100
C1011	C101	0.962790	0.554180	0.158000
C1021	C102	0.019320	0.346640	0.011100
C1031	C103	0.893060	0.341920	0.981770
C1041	C104	0.894980	0.273360	0.934300
N111	N11	0.152990	0.311640	0.647570
N121	N12	0.855990	0.072380	0.881350
N131	N13	0.743380	0.942560	0.833600
N141	N14	0.419050	0.388100	0.527550
N151	N15	0.302180	0.277160	0.455390
N161	N16	0.158650	0.311640	0.147570
N171	N17	0.216390	0.072380	0.381350
N181	N18	0.199180	0.942560	0.333600
N191	N19	0.969050	0.388100	0.027550
N201	N20	0.974980	0.277160	0.955390
O91	O9	0.104530	0.099140	0.489130
O101	O10	0.143670	0.224860	0.517110
O111	O11	0.040540	0.217340	0.842520
O121	O12	0.023520	0.098860	0.826020
O131	O13	0.994610	0.099140	0.989130
O141	O14	0.081190	0.224860	0.017110
O151	O15	0.176800	0.217340	0.342520
O161	O16	0.075340	0.098860	0.326020
Mn51	Mn5	0.718320	0.231580	0.750220
Mn61	Mn6	0.513260	0.231580	0.250220
H771	H77	0.697200	0.353800	0.587000
H781	H78	0.561300	0.110600	0.522700
H791	H79	0.529400	0.110200	0.412900
H801	H80	0.645700	0.046000	0.619100
H811	H81	0.848500	0.150800	0.770900
H821	H82	0.826500	0.013800	0.711200
H831	H83	0.576500	0.907000	0.561100
H841	H84	0.519300	0.774200	0.487900
H851	H85	0.726200	0.761200	0.551700
H861	H86	0.783400	0.894000	0.624900
H871	H87	0.471200	0.646600	0.482500
H881	H88	0.400600	0.516400	0.403600
H891	H89	0.631000	0.529400	0.374500
H901	H90	0.701100	0.663400	0.445300
H911	H91	0.562400	0.395400	0.331300
H921	H92	0.334100	0.389600	0.301900
H931	H93	0.316900	0.254400	0.237200
H941	H94	0.677600	0.391600	0.444400
H951	H95	0.717400	0.427800	0.520600
H961	H96	0.656600	0.353800	0.087000
H971	H97	0.549300	0.110600	0.022700
H981	H98	0.580800	0.110200	0.912900
H991	H99	0.400300	0.046000	0.119100
H1001	H100	0.302300	0.150800	0.270900
H1011	H101	0.187300	0.013800	0.211200
H1021	H102	0.330500	0.907000	0.061100
H1031	H103	0.254900	0.774200	0.987900
H1041	H104	0.035000	0.761200	0.051700
H1051	H105	0.110600	0.894000	0.124900
H1061	H106	0.175400	0.646600	0.982500
H1071	H107	0.115800	0.516400	0.903600
H1081	H108	0.898400	0.529400	0.874500
H1091	H109	0.962300	0.663400	0.945300
H1101	H110	0.833000	0.395400	0.831300
H1111	H111	0.055500	0.389600	0.801900
H1121	H112	0.937500	0.254400	0.737200
H1131	H113	0.714000	0.391600	0.944400
H1141	H114	0.710400	0.427800	0.020600
C1051	C105	0.598730	0.234260	0.434000
C1061	C106	0.648190	0.305180	0.484830
C1071	C107	0.663100	0.305200	0.552400
C1081	C108	0.626990	0.232980	0.566500
C1091	C109	0.580710	0.159620	0.513500
C1101	C110	0.563390	0.158980	0.447500
C1111	C111	0.573960	0.233920	0.363100
C1121	C112	0.646100	0.229400	0.636400
C1131	C113	0.691430	0.055060	0.648800
C1141	C114	0.805570	0.112940	0.734200
C1151	C115	0.794300	0.037200	0.700700
C1161	C116	0.685660	0.913720	0.600300
C1171	C117	0.606510	0.877820	0.559200
C1181	C118	0.572230	0.798260	0.515300
C1191	C119	0.617090	0.754580	0.512500
C1201	C120	0.696230	0.790460	0.553600
C1211	C121	0.730520	0.870040	0.597400
C1221	C122	0.589940	0.669480	0.469700
C1231	C123	0.503530	0.624060	0.458600
C1241	C124	0.460230	0.545060	0.413100
C1251	C125	0.511810	0.511220	0.382600
C1261	C126	0.599020	0.554240	0.395200
C1271	C127	0.641340	0.633880	0.437700
C1281	C128	0.504870	0.377740	0.316500
C1291	C129	0.377060	0.374320	0.300400
C1301	C130	0.367510	0.298420	0.263280
C1311	C131	0.635530	0.234260	0.934000
C1321	C132	0.656990	0.305180	0.984830
C1331	C133	0.642100	0.305200	0.052400
C1341	C134	0.605990	0.232980	0.066500
C1351	C135	0.578910	0.159620	0.013500
C1361	C136	0.595590	0.158980	0.947500
C1371	C137	0.659960	0.233920	0.863100
C1381	C138	0.583300	0.229400	0.136400
C1391	C139	0.363630	0.055060	0.148800
C1401	C140	0.307370	0.112940	0.234200
C1411	C141	0.242900	0.037200	0.200700
C1421	C142	0.228060	0.913720	0.100300
C1431	C143	0.271310	0.877820	0.059200
C1441	C144	0.226030	0.798260	0.015300
C1451	C145	0.137490	0.754580	0.012500
C1461	C146	0.094230	0.790460	0.053600
C1471	C147	0.139520	0.870040	0.097400
C1481	C148	0.079540	0.669480	0.969700
C1491	C149	0.120530	0.624060	0.958600
C1501	C150	0.084830	0.545060	0.913100
C1511	C151	0.999410	0.511220	0.882600
C1521	C152	0.955220	0.554240	0.895200
C1531	C153	0.992540	0.633880	0.937700
C1541	C154	0.872870	0.377740	0.816500
C1551	C155	0.997260	0.374320	0.800400
C1561	C156	0.930910	0.298420	0.763280
N211	N21	0.685330	0.383460	0.484380
N221	N22	0.739930	0.126260	0.704210
N231	N23	0.723600	0.999700	0.645760
N241	N24	0.461080	0.424560	0.335080
N251	N25	0.446220	0.299240	0.271550
N261	N26	0.698130	0.383460	0.984380
N271	N27	0.386330	0.126260	0.204210
N281	N28	0.276100	0.999700	0.145760
N291	N29	0.963480	0.424560	0.835080
N301	N30	0.853020	0.299240	0.771550
O171	O17	0.515120	0.170920	0.319420
O181	O18	0.615700	0.296260	0.349060
O191	O19	0.703370	0.294020	0.676420
O201	O20	0.615110	0.171200	0.660390
O211	O21	0.655800	0.170920	0.819420
O221	O22	0.680560	0.296260	0.849060
O231	O23	0.590650	0.294020	0.176420
O241	O24	0.556090	0.171200	0.160390
Mn71	Mn7	0.009660	0.814420	0.647890
Mn81	Mn8	0.804760	0.814420	0.147890
H1151	H115	0.986000	0.918600	0.479000
H1161	H116	0.844300	0.676800	0.411100
H1171	H117	0.817100	0.680000	0.301700
H1181	H118	0.914100	0.606200	0.578600
H1191	H119	0.154900	0.772800	0.568900
H1201	H120	0.131900	0.633400	0.500100
H1211	H121	0.085300	0.503000	0.465800
H1221	H122	0.028000	0.366400	0.406300
H1231	H123	0.790100	0.335600	0.430800
H1241	H124	0.847700	0.473400	0.490000
H1251	H125	0.973700	0.233000	0.384600
H1261	H126	0.910800	0.096800	0.319600
H1271	H127	0.688600	0.095800	0.281500
H1281	H128	0.749900	0.232200	0.343300
H1291	H129	0.856300	0.980800	0.236700
H1301	H130	0.615900	0.953400	0.255900
H1311	H131	0.603000	0.819000	0.182000
H1321	H132	0.963800	0.955400	0.329300
H1331	H133	0.006500	0.992000	0.402100
H1341	H134	0.932600	0.918600	0.979000
H1351	H135	0.832500	0.676800	0.911100
H1361	H136	0.862900	0.680000	0.801700
H1371	H137	0.692100	0.606200	0.078600
H1381	H138	0.617900	0.772800	0.068900
H1391	H139	0.501500	0.633400	0.000100
H1401	H140	0.417700	0.503000	0.965800
H1411	H141	0.338400	0.366400	0.906300
H1421	H142	0.545500	0.335600	0.930800
H1431	H143	0.625700	0.473400	0.990000
H1441	H144	0.259300	0.233000	0.884600
H1451	H145	0.186000	0.096800	0.819600
H1461	H146	0.407200	0.095800	0.781500
H1471	H147	0.482300	0.232200	0.843300
H1481	H148	0.124500	0.980800	0.736700
H1491	H149	0.337500	0.953400	0.755900
H1501	H150	0.216000	0.819000	0.682000
H1511	H151	0.991600	0.955400	0.829300
H1521	H152	0.985500	0.992000	0.902100
C1571	C157	0.887620	0.803040	0.322700
C1581	C158	0.939650	0.873300	0.375060
C1591	C159	0.953190	0.870580	0.443400
C1601	C160	0.917530	0.797260	0.455700
C1611	C161	0.867680	0.726560	0.402690
C1621	C162	0.851630	0.728260	0.336600
C1631	C163	0.870200	0.805800	0.256600
C1641	C164	0.932390	0.796380	0.526830
C1651	C165	0.969280	0.629360	0.567300
C1661	C166	0.105010	0.723820	0.562300
C1671	C167	0.091900	0.645000	0.523500
C1681	C168	0.972040	0.502280	0.483800
C1691	C169	0.026090	0.469580	0.458600
C1701	C170	0.991680	0.387760	0.423200
C1711	C171	0.903250	0.336700	0.412300
C1721	C172	0.849330	0.369260	0.437700
C1731	C173	0.883940	0.451880	0.473200
C1741	C174	0.867410	0.247820	0.372700
C1751	C175	0.916480	0.205960	0.364400
C1761	C176	0.878270	0.124140	0.325800
C1771	C177	0.794120	0.083040	0.296900
C1781	C178	0.745570	0.123540	0.302700
C1791	C179	0.782360	0.205120	0.339900
C1801	C180	0.796710	0.957820	0.232200
C1811	C181	0.660820	0.942440	0.243080
C1821	C182	0.654140	0.866680	0.201500
C1831	C183	0.915420	0.803040	0.822700
C1841	C184	0.933650	0.873300	0.875060
C1851	C185	0.917390	0.870580	0.943400
C1861	C186	0.879730	0.797260	0.955700
C1871	C187	0.858880	0.726560	0.902690
C1881	C188	0.876630	0.728260	0.836600
C1891	C189	0.935600	0.805800	0.756600
C1901	C190	0.863990	0.796380	0.026830
C1911	C191	0.660080	0.629360	0.067300
C1921	C192	0.618810	0.723820	0.062300
C1931	C193	0.553100	0.645000	0.023500
C1941	C194	0.530240	0.502280	0.983800
C1951	C195	0.443490	0.469580	0.958600
C1961	C196	0.396080	0.387760	0.923200
C1971	C197	0.433450	0.336700	0.912300
C1981	C198	0.519930	0.369260	0.937700
C1991	C199	0.567940	0.451880	0.973200
C2001	C200	0.380410	0.247820	0.872700
C2011	C201	0.289480	0.205960	0.864400
C2021	C202	0.245870	0.124140	0.825800
C2031	C203	0.288920	0.083040	0.796900
C2041	C204	0.377970	0.123540	0.802700
C2051	C205	0.422760	0.205120	0.839900
C2061	C206	0.161110	0.957820	0.732200
C2071	C207	0.281620	0.942440	0.743080
C2081	C208	0.212540	0.866680	0.701500
N311	N31	0.974330	0.949800	0.367930
N321	N32	0.028510	0.713620	0.588750
N331	N33	0.006770	0.586540	0.526630
N341	N34	0.749580	0.996960	0.260460
N351	N35	0.736220	0.875800	0.195130
N361	N36	0.975470	0.949800	0.867930
N371	N37	0.685110	0.713620	0.088750
N381	N38	0.579770	0.586540	0.026630
N391	N39	0.247380	0.996960	0.760460
N401	N40	0.139580	0.875800	0.695130
O251	O25	0.814980	0.741640	0.210650
O261	O26	0.903740	0.867420	0.238350
O271	O27	0.992880	0.860100	0.566470
O281	O28	0.891490	0.739660	0.549280
O291	O29	0.926660	0.741640	0.710650
O301	O30	0.963680	0.867420	0.738350
O311	O31	0.867220	0.860100	0.066470
O321	O32	0.848170	0.739660	0.049280
Mn91	Mn9	0.347290	0.510920	0.193960
Mn101	Mn10	0.163630	0.510920	0.693960
H1531	H153	0.338900	0.638400	0.032200
H1541	H154	0.195000	0.397000	0.973800
H1551	H155	0.178300	0.393800	0.860400
H1561	H156	0.271500	0.331200	0.072400
H1571	H157	0.495700	0.448800	0.202500
H1581	H158	0.485000	0.317600	0.121100
H1591	H159	0.444500	0.223000	0.005900
H1601	H160	0.388100	0.094200	0.933800
H1611	H161	0.148400	0.045000	0.975700
H1621	H162	0.205200	0.179400	0.044800
H1631	H163	0.344700	0.975200	0.886200
H1641	H164	0.292500	0.840400	0.817300
H1651	H165	0.051000	0.803400	0.828200
H1661	H166	0.101900	0.936400	0.897800
H1671	H167	0.236600	0.702200	0.784800
H1681	H168	0.009500	0.694400	0.734900
H1691	H169	0.003700	0.561800	0.660800
H1701	H170	0.368000	0.707000	0.956500
H1711	H171	0.332700	0.669400	0.882000
H1721	H172	0.299500	0.638400	0.532200
H1731	H173	0.202000	0.397000	0.473800
H1741	H174	0.215500	0.393800	0.360400
H1751	H175	0.059700	0.331200	0.572400
H1761	H176	0.953100	0.448800	0.702500
H1771	H177	0.832600	0.317600	0.621100
H1781	H178	0.778500	0.223000	0.505900
H1791	H179	0.706100	0.094200	0.433800
H1801	H180	0.896600	0.045000	0.475700
H1811	H181	0.974200	0.179400	0.544800
H1821	H182	0.630500	0.975200	0.386200
H1831	H183	0.547900	0.840400	0.317300
H1841	H184	0.752400	0.803400	0.328200
H1851	H185	0.834500	0.936400	0.397800
H1861	H186	0.465600	0.702200	0.284800
H1871	H187	0.684900	0.694400	0.234900
H1881	H188	0.558100	0.561800	0.160800
H1891	H189	0.339000	0.707000	0.456500
H1901	H190	0.336700	0.669400	0.382000
C2091	C209	0.245230	0.514660	0.879700
C2101	C210	0.294810	0.590620	0.931000
C2111	C211	0.305820	0.589640	0.997300
C2121	C212	0.268560	0.517520	0.012400
C2131	C213	0.220440	0.445080	0.962600
C2141	C214	0.209600	0.443200	0.895000
C2151	C215	0.230700	0.516200	0.807800
C2161	C216	0.283550	0.517700	0.083500
C2171	C217	0.323680	0.342960	0.095020
C2181	C218	0.450270	0.409940	0.167900
C2191	C219	0.443860	0.335120	0.122100
C2201	C220	0.329010	0.213020	0.035400
C2211	C221	0.385850	0.187700	0.999800
C2221	C222	0.351700	0.111400	0.957500
C2231	C223	0.262450	0.054900	0.946600
C2241	C224	0.206860	0.080520	0.981100
C2251	C225	0.241800	0.160600	0.023600
C2261	C226	0.228630	0.969660	0.899570
C2271	C227	0.285720	0.940640	0.874900
C2281	C228	0.254450	0.859900	0.833300
C2291	C229	0.166340	0.808680	0.815700
C2301	C230	0.109940	0.837680	0.840000
C2311	C231	0.140460	0.917520	0.881700
C2321	C232	0.181260	0.684120	0.764000
C2331	C233	0.052990	0.679980	0.735000
C2341	C234	0.048870	0.603940	0.694000
C2351	C235	0.269430	0.514660	0.379700
C2361	C236	0.295810	0.590620	0.431000
C2371	C237	0.283820	0.589640	0.497300
C2381	C238	0.248960	0.517520	0.512400
C2391	C239	0.224640	0.445080	0.462600
C2401	C240	0.233600	0.443200	0.395000
C2411	C241	0.285500	0.516200	0.307800
C2421	C242	0.234150	0.517700	0.583500
C2431	C243	0.019280	0.342960	0.595020
C2441	C244	0.959670	0.409940	0.667900
C2451	C245	0.891260	0.335120	0.622100
C2461	C246	0.884010	0.213020	0.535400
C2471	C247	0.801850	0.187700	0.499800
C2481	C248	0.759700	0.111400	0.457500
C2491	C249	0.792450	0.054900	0.446600
C2501	C250	0.873660	0.080520	0.481100
C2511	C251	0.918800	0.160600	0.523600
C2521	C252	0.741030	0.969660	0.399570
C2531	C253	0.654920	0.940640	0.374900
C2541	C254	0.605450	0.859900	0.333300
C2551	C255	0.642340	0.808680	0.315700
C2561	C256	0.727740	0.837680	0.340000
C2571	C257	0.777060	0.917520	0.381700
C2581	C258	0.502860	0.684120	0.264000
C2591	C259	0.626990	0.679980	0.235000
C2601	C260	0.555070	0.603940	0.194000
N411	N41	0.336930	0.664660	0.922100
N421	N42	0.375220	0.413040	0.150410
N431	N43	0.364130	0.293860	0.079530
N441	N44	0.135480	0.728160	0.775300
N451	N45	0.127870	0.606340	0.714600
N461	N46	0.327730	0.664660	0.422100
N471	N47	0.037820	0.413040	0.650410
N481	N48	0.929730	0.293860	0.579530
N491	N49	0.592680	0.728160	0.275300
N501	N50	0.478470	0.606340	0.214600
O331	O33	0.179870	0.452900	0.764860
O341	O34	0.272480	0.578840	0.790360
O351	O35	0.341070	0.584180	0.124190
O361	O36	0.248400	0.461200	0.107510
O371	O37	0.273030	0.452900	0.264860
O381	O38	0.306360	0.578840	0.290360
O391	O39	0.243110	0.584180	0.624190
O401	O40	0.212800	0.461200	0.607510
