data_acs_PM
_symmetry_space_group_name_H-M	'P1'
_cell_length_a	41.393000
_cell_length_b	41.393000
_cell_length_c	41.393000
_cell_angle_alpha	90.000000
_cell_angle_beta	90.000000
_cell_angle_gamma	90.000000
_symmetry_Int_Tables_number 1

loop_
_symmetry_equiv_pos_as_xyz
'x,y,z'

loop_
_atom_site_label
_atom_site_type_symbol
_atom_site_fract_x
_atom_site_fract_y
_atom_site_fract_z
Zn11	Zn1	0.703880	0.877580	0.033510
O11	O1	0.726740	0.908170	0.006060
N11	N1	0.681060	0.849180	0.001890
N21	N2	0.673170	0.902600	0.060700
N31	N3	0.653820	0.811640	0.976300
C11	C1	0.759000	0.954770	0.998730
O21	O2	0.756350	0.924340	0.047670
C21	C2	0.747590	0.926560	0.019500
C31	C3	0.653960	0.832750	0.000860
C41	C4	0.674000	0.927970	0.081000
N41	N4	0.699100	0.838000	0.977000
N51	N5	0.698700	0.948700	0.083100
H11	H1	0.696400	0.966400	0.093700
H21	H2	0.716800	0.944300	0.073900
N61	N6	0.630100	0.834500	0.023600
H31	H3	0.632300	0.847000	0.040000
H41	H4	0.612900	0.823000	0.021500
N71	N7	0.646160	0.933270	0.094300
N81	N8	0.626700	0.909200	0.082900
N91	N9	0.682600	0.817000	0.961500
C51	C5	0.786040	0.972210	0.008570
H51	H5	0.797700	0.966000	0.026800
O31	O3	0.602600	0.992200	0.096400
N101	N10	0.643000	0.890800	0.064900
C61	C6	0.589600	0.043500	0.056700
H61	H6	0.607600	0.030700	0.052500
O41	O4	0.560500	0.003100	0.127900
C71	C7	0.569900	0.037000	0.082200
C81	C8	0.577500	0.008500	0.103900
Zn21	Zn2	0.703880	0.377580	0.533510
O51	O5	0.726740	0.408170	0.506060
N111	N11	0.681060	0.349180	0.501890
N121	N12	0.673170	0.402600	0.560700
N131	N13	0.653820	0.311640	0.476300
C91	C9	0.759000	0.454770	0.498730
O61	O6	0.756350	0.424340	0.547670
C101	C10	0.747590	0.426560	0.519500
C111	C11	0.653960	0.332750	0.500860
C121	C12	0.674000	0.427970	0.581000
N141	N14	0.699100	0.338000	0.477000
N151	N15	0.698700	0.448700	0.583100
H71	H7	0.696400	0.466400	0.593700
H81	H8	0.716800	0.444300	0.573900
N161	N16	0.630100	0.334500	0.523600
H91	H9	0.632300	0.347000	0.540000
H101	H10	0.612900	0.323000	0.521500
N171	N17	0.646160	0.433270	0.594300
N181	N18	0.626700	0.409200	0.582900
N191	N19	0.682600	0.317000	0.461500
C131	C13	0.786040	0.472210	0.508570
H111	H11	0.797700	0.466000	0.526800
O71	O7	0.602600	0.492200	0.596400
N201	N20	0.643000	0.390800	0.564900
C141	C14	0.589600	0.543500	0.556700
H121	H12	0.607600	0.530700	0.552500
O81	O8	0.560500	0.503100	0.627900
C151	C15	0.569900	0.537000	0.582200
C161	C16	0.577500	0.508500	0.603900
Zn31	Zn3	0.203880	0.877580	0.533510
O91	O9	0.226740	0.908170	0.506060
N211	N21	0.181060	0.849180	0.501890
N221	N22	0.173170	0.902600	0.560700
N231	N23	0.153820	0.811640	0.476300
C171	C17	0.259000	0.954770	0.498730
O101	O10	0.256350	0.924340	0.547670
C181	C18	0.247590	0.926560	0.519500
C191	C19	0.153960	0.832750	0.500860
C201	C20	0.174000	0.927970	0.581000
N241	N24	0.199100	0.838000	0.477000
N251	N25	0.198700	0.948700	0.583100
H131	H13	0.196400	0.966400	0.593700
H141	H14	0.216800	0.944300	0.573900
N261	N26	0.130100	0.834500	0.523600
H151	H15	0.132300	0.847000	0.540000
H161	H16	0.112900	0.823000	0.521500
N271	N27	0.146160	0.933270	0.594300
N281	N28	0.126700	0.909200	0.582900
N291	N29	0.182600	0.817000	0.461500
C211	C21	0.286040	0.972210	0.508570
H171	H17	0.297700	0.966000	0.526800
O111	O11	0.102600	0.992200	0.596400
N301	N30	0.143000	0.890800	0.564900
C221	C22	0.089600	0.043500	0.556700
H181	H18	0.107600	0.030700	0.552500
O121	O12	0.060500	0.003100	0.627900
C231	C23	0.069900	0.037000	0.582200
C241	C24	0.077500	0.008500	0.603900
Zn41	Zn4	0.203880	0.377580	0.033510
O131	O13	0.226740	0.408170	0.006060
N311	N31	0.181060	0.349180	0.001890
N321	N32	0.173170	0.402600	0.060700
N331	N33	0.153820	0.311640	0.976300
C251	C25	0.259000	0.454770	0.998730
O141	O14	0.256350	0.424340	0.047670
C261	C26	0.247590	0.426560	0.019500
C271	C27	0.153960	0.332750	0.000860
C281	C28	0.174000	0.427970	0.081000
N341	N34	0.199100	0.338000	0.977000
N351	N35	0.198700	0.448700	0.083100
H191	H19	0.196400	0.466400	0.093700
H201	H20	0.216800	0.444300	0.073900
N361	N36	0.130100	0.334500	0.023600
H211	H21	0.132300	0.347000	0.040000
H221	H22	0.112900	0.323000	0.021500
N371	N37	0.146160	0.433270	0.094300
N381	N38	0.126700	0.409200	0.082900
N391	N39	0.182600	0.317000	0.961500
C291	C29	0.286040	0.472210	0.008570
H231	H23	0.297700	0.466000	0.026800
O151	O15	0.102600	0.492200	0.096400
N401	N40	0.143000	0.390800	0.064900
C301	C30	0.089600	0.543500	0.056700
H241	H24	0.107600	0.530700	0.052500
O161	O16	0.060500	0.503100	0.127900
C311	C31	0.069900	0.537000	0.082200
C321	C32	0.077500	0.508500	0.103900
Zn51	Zn5	0.546120	0.372420	0.033510
O171	O17	0.523260	0.341830	0.006060
N411	N41	0.568940	0.400820	0.001890
N421	N42	0.576830	0.347400	0.060700
N431	N43	0.596180	0.438360	0.976300
C331	C33	0.491000	0.295230	0.998730
O181	O18	0.493650	0.325660	0.047670
C341	C34	0.502410	0.323440	0.019500
C351	C35	0.596040	0.417250	0.000860
C361	C36	0.576000	0.322030	0.081000
N441	N44	0.550900	0.412000	0.977000
N451	N45	0.551300	0.301300	0.083100
H251	H25	0.553600	0.283600	0.093700
H261	H26	0.533200	0.305700	0.073900
N461	N46	0.619900	0.415500	0.023600
H271	H27	0.617700	0.403000	0.040000
H281	H28	0.637100	0.427000	0.021500
N471	N47	0.603840	0.316730	0.094300
N481	N48	0.623300	0.340800	0.082900
N491	N49	0.567400	0.433000	0.961500
C371	C37	0.463960	0.277790	0.008570
H291	H29	0.452300	0.284000	0.026800
O191	O19	0.647400	0.257800	0.096400
N501	N50	0.607000	0.359200	0.064900
C381	C38	0.660400	0.206500	0.056700
H301	H30	0.642400	0.219300	0.052500
O201	O20	0.689500	0.246900	0.127900
C391	C39	0.680100	0.213000	0.082200
C401	C40	0.672500	0.241500	0.103900
Zn61	Zn6	0.546120	0.872420	0.533510
O211	O21	0.523260	0.841830	0.506060
N511	N51	0.568940	0.900820	0.501890
N521	N52	0.576830	0.847400	0.560700
N531	N53	0.596180	0.938360	0.476300
C411	C41	0.491000	0.795230	0.498730
O221	O22	0.493650	0.825660	0.547670
C421	C42	0.502410	0.823440	0.519500
C431	C43	0.596040	0.917250	0.500860
C441	C44	0.576000	0.822030	0.581000
N541	N54	0.550900	0.912000	0.477000
N551	N55	0.551300	0.801300	0.583100
H311	H31	0.553600	0.783600	0.593700
H321	H32	0.533200	0.805700	0.573900
N561	N56	0.619900	0.915500	0.523600
H331	H33	0.617700	0.903000	0.540000
H341	H34	0.637100	0.927000	0.521500
N571	N57	0.603840	0.816730	0.594300
N581	N58	0.623300	0.840800	0.582900
N591	N59	0.567400	0.933000	0.461500
C451	C45	0.463960	0.777790	0.508570
H351	H35	0.452300	0.784000	0.526800
O231	O23	0.647400	0.757800	0.596400
N601	N60	0.607000	0.859200	0.564900
C461	C46	0.660400	0.706500	0.556700
H361	H36	0.642400	0.719300	0.552500
O241	O24	0.689500	0.746900	0.627900
C471	C47	0.680100	0.713000	0.582200
C481	C48	0.672500	0.741500	0.603900
Zn71	Zn7	0.046120	0.372420	0.533510
O251	O25	0.023260	0.341830	0.506060
N611	N61	0.068940	0.400820	0.501890
N621	N62	0.076830	0.347400	0.560700
N631	N63	0.096180	0.438360	0.476300
C491	C49	0.991000	0.295230	0.498730
O261	O26	0.993650	0.325660	0.547670
C501	C50	0.002410	0.323440	0.519500
C511	C51	0.096040	0.417250	0.500860
C521	C52	0.076000	0.322030	0.581000
N641	N64	0.050900	0.412000	0.477000
N651	N65	0.051300	0.301300	0.583100
H371	H37	0.053600	0.283600	0.593700
H381	H38	0.033200	0.305700	0.573900
N661	N66	0.119900	0.415500	0.523600
H391	H39	0.117700	0.403000	0.540000
H401	H40	0.137100	0.427000	0.521500
N671	N67	0.103840	0.316730	0.594300
N681	N68	0.123300	0.340800	0.582900
N691	N69	0.067400	0.433000	0.461500
C531	C53	0.963960	0.277790	0.508570
H411	H41	0.952300	0.284000	0.526800
O271	O27	0.147400	0.257800	0.596400
N701	N70	0.107000	0.359200	0.564900
C541	C54	0.160400	0.206500	0.556700
H421	H42	0.142400	0.219300	0.552500
O281	O28	0.189500	0.246900	0.627900
C551	C55	0.180100	0.213000	0.582200
C561	C56	0.172500	0.241500	0.603900
Zn81	Zn8	0.046120	0.872420	0.033510
O291	O29	0.023260	0.841830	0.006060
N711	N71	0.068940	0.900820	0.001890
N721	N72	0.076830	0.847400	0.060700
N731	N73	0.096180	0.938360	0.976300
C571	C57	0.991000	0.795230	0.998730
O301	O30	0.993650	0.825660	0.047670
C581	C58	0.002410	0.823440	0.019500
C591	C59	0.096040	0.917250	0.000860
C601	C60	0.076000	0.822030	0.081000
N741	N74	0.050900	0.912000	0.977000
N751	N75	0.051300	0.801300	0.083100
H431	H43	0.053600	0.783600	0.093700
H441	H44	0.033200	0.805700	0.073900
N761	N76	0.119900	0.915500	0.023600
H451	H45	0.117700	0.903000	0.040000
H461	H46	0.137100	0.927000	0.021500
N771	N77	0.103840	0.816730	0.094300
N781	N78	0.123300	0.840800	0.082900
N791	N79	0.067400	0.933000	0.961500
C611	C61	0.963960	0.777790	0.008570
H471	H47	0.952300	0.784000	0.026800
O311	O31	0.147400	0.757800	0.096400
N801	N80	0.107000	0.859200	0.064900
C621	C62	0.160400	0.706500	0.056700
H481	H48	0.142400	0.719300	0.052500
O321	O32	0.189500	0.746900	0.127900
C631	C63	0.180100	0.713000	0.082200
C641	C64	0.172500	0.741500	0.103900
Zn91	Zn9	0.546120	0.877580	0.216490
O331	O33	0.523260	0.908170	0.243940
N811	N81	0.568940	0.849180	0.248110
N821	N82	0.576830	0.902600	0.189300
N831	N83	0.596180	0.811640	0.273700
C651	C65	0.491000	0.954770	0.251270
O341	O34	0.493650	0.924340	0.202330
C661	C66	0.502410	0.926560	0.230500
C671	C67	0.596040	0.832750	0.249140
C681	C68	0.576000	0.927970	0.169000
N841	N84	0.550900	0.838000	0.273000
N851	N85	0.551300	0.948700	0.166900
H491	H49	0.553600	0.966400	0.156300
H501	H50	0.533200	0.944300	0.176100
N861	N86	0.619900	0.834500	0.226400
H511	H51	0.617700	0.847000	0.210000
H521	H52	0.637100	0.823000	0.228500
N871	N87	0.603840	0.933270	0.155700
N881	N88	0.623300	0.909200	0.167100
N891	N89	0.567400	0.817000	0.288500
C691	C69	0.463960	0.972210	0.241430
H531	H53	0.452300	0.966000	0.223200
O351	O35	0.647400	0.992200	0.153600
N901	N90	0.607000	0.890800	0.185100
C701	C70	0.660400	0.043500	0.193300
H541	H54	0.642400	0.030700	0.197500
O361	O36	0.689500	0.003100	0.122100
C711	C71	0.680100	0.037000	0.167800
C721	C72	0.672500	0.008500	0.146100
Zn101	Zn10	0.546120	0.377580	0.716490
O371	O37	0.523260	0.408170	0.743940
N911	N91	0.568940	0.349180	0.748110
N921	N92	0.576830	0.402600	0.689300
N931	N93	0.596180	0.311640	0.773700
C731	C73	0.491000	0.454770	0.751270
O381	O38	0.493650	0.424340	0.702330
C741	C74	0.502410	0.426560	0.730500
C751	C75	0.596040	0.332750	0.749140
C761	C76	0.576000	0.427970	0.669000
N941	N94	0.550900	0.338000	0.773000
N951	N95	0.551300	0.448700	0.666900
H551	H55	0.553600	0.466400	0.656300
H561	H56	0.533200	0.444300	0.676100
N961	N96	0.619900	0.334500	0.726400
H571	H57	0.617700	0.347000	0.710000
H581	H58	0.637100	0.323000	0.728500
N971	N97	0.603840	0.433270	0.655700
N981	N98	0.623300	0.409200	0.667100
N991	N99	0.567400	0.317000	0.788500
C771	C77	0.463960	0.472210	0.741430
H591	H59	0.452300	0.466000	0.723200
O391	O39	0.647400	0.492200	0.653600
N1001	N100	0.607000	0.390800	0.685100
C781	C78	0.660400	0.543500	0.693300
H601	H60	0.642400	0.530700	0.697500
O401	O40	0.689500	0.503100	0.622100
C791	C79	0.680100	0.537000	0.667800
C801	C80	0.672500	0.508500	0.646100
Zn111	Zn11	0.046120	0.877580	0.716490
O411	O41	0.023260	0.908170	0.743940
N1011	N101	0.068940	0.849180	0.748110
N1021	N102	0.076830	0.902600	0.689300
N1031	N103	0.096180	0.811640	0.773700
C811	C81	0.991000	0.954770	0.751270
O421	O42	0.993650	0.924340	0.702330
C821	C82	0.002410	0.926560	0.730500
C831	C83	0.096040	0.832750	0.749140
C841	C84	0.076000	0.927970	0.669000
N1041	N104	0.050900	0.838000	0.773000
N1051	N105	0.051300	0.948700	0.666900
H611	H61	0.053600	0.966400	0.656300
H621	H62	0.033200	0.944300	0.676100
N1061	N106	0.119900	0.834500	0.726400
H631	H63	0.117700	0.847000	0.710000
H641	H64	0.137100	0.823000	0.728500
N1071	N107	0.103840	0.933270	0.655700
N1081	N108	0.123300	0.909200	0.667100
N1091	N109	0.067400	0.817000	0.788500
C851	C85	0.963960	0.972210	0.741430
H651	H65	0.952300	0.966000	0.723200
O431	O43	0.147400	0.992200	0.653600
N1101	N110	0.107000	0.890800	0.685100
C861	C86	0.160400	0.043500	0.693300
H661	H66	0.142400	0.030700	0.697500
O441	O44	0.189500	0.003100	0.622100
C871	C87	0.180100	0.037000	0.667800
C881	C88	0.172500	0.008500	0.646100
Zn121	Zn12	0.046120	0.377580	0.216490
O451	O45	0.023260	0.408170	0.243940
N1111	N111	0.068940	0.349180	0.248110
N1121	N112	0.076830	0.402600	0.189300
N1131	N113	0.096180	0.311640	0.273700
C891	C89	0.991000	0.454770	0.251270
O461	O46	0.993650	0.424340	0.202330
C901	C90	0.002410	0.426560	0.230500
C911	C91	0.096040	0.332750	0.249140
C921	C92	0.076000	0.427970	0.169000
N1141	N114	0.050900	0.338000	0.273000
N1151	N115	0.051300	0.448700	0.166900
H671	H67	0.053600	0.466400	0.156300
H681	H68	0.033200	0.444300	0.176100
N1161	N116	0.119900	0.334500	0.226400
H691	H69	0.117700	0.347000	0.210000
H701	H70	0.137100	0.323000	0.228500
N1171	N117	0.103840	0.433270	0.155700
N1181	N118	0.123300	0.409200	0.167100
N1191	N119	0.067400	0.317000	0.288500
C931	C93	0.963960	0.472210	0.241430
H711	H71	0.952300	0.466000	0.223200
O471	O47	0.147400	0.492200	0.153600
N1201	N120	0.107000	0.390800	0.185100
C941	C94	0.160400	0.543500	0.193300
H721	H72	0.142400	0.530700	0.197500
O481	O48	0.189500	0.503100	0.122100
C951	C95	0.180100	0.537000	0.167800
C961	C96	0.172500	0.508500	0.146100
Zn131	Zn13	0.703880	0.372420	0.216490
O491	O49	0.726740	0.341830	0.243940
N1211	N121	0.681060	0.400820	0.248110
N1221	N122	0.673170	0.347400	0.189300
N1231	N123	0.653820	0.438360	0.273700
C971	C97	0.759000	0.295230	0.251270
O501	O50	0.756350	0.325660	0.202330
C981	C98	0.747590	0.323440	0.230500
C991	C99	0.653960	0.417250	0.249140
C1001	C100	0.674000	0.322030	0.169000
N1241	N124	0.699100	0.412000	0.273000
N1251	N125	0.698700	0.301300	0.166900
H731	H73	0.696400	0.283600	0.156300
H741	H74	0.716800	0.305700	0.176100
N1261	N126	0.630100	0.415500	0.226400
H751	H75	0.632300	0.403000	0.210000
H761	H76	0.612900	0.427000	0.228500
N1271	N127	0.646160	0.316730	0.155700
N1281	N128	0.626700	0.340800	0.167100
N1291	N129	0.682600	0.433000	0.288500
C1011	C101	0.786040	0.277790	0.241430
H771	H77	0.797700	0.284000	0.223200
O511	O51	0.602600	0.257800	0.153600
N1301	N130	0.643000	0.359200	0.185100
C1021	C102	0.589600	0.206500	0.193300
H781	H78	0.607600	0.219300	0.197500
O521	O52	0.560500	0.246900	0.122100
C1031	C103	0.569900	0.213000	0.167800
C1041	C104	0.577500	0.241500	0.146100
Zn141	Zn14	0.703880	0.872420	0.716490
O531	O53	0.726740	0.841830	0.743940
N1311	N131	0.681060	0.900820	0.748110
N1321	N132	0.673170	0.847400	0.689300
N1331	N133	0.653820	0.938360	0.773700
C1051	C105	0.759000	0.795230	0.751270
O541	O54	0.756350	0.825660	0.702330
C1061	C106	0.747590	0.823440	0.730500
C1071	C107	0.653960	0.917250	0.749140
C1081	C108	0.674000	0.822030	0.669000
N1341	N134	0.699100	0.912000	0.773000
N1351	N135	0.698700	0.801300	0.666900
H791	H79	0.696400	0.783600	0.656300
H801	H80	0.716800	0.805700	0.676100
N1361	N136	0.630100	0.915500	0.726400
H811	H81	0.632300	0.903000	0.710000
H821	H82	0.612900	0.927000	0.728500
N1371	N137	0.646160	0.816730	0.655700
N1381	N138	0.626700	0.840800	0.667100
N1391	N139	0.682600	0.933000	0.788500
C1091	C109	0.786040	0.777790	0.741430
H831	H83	0.797700	0.784000	0.723200
O551	O55	0.602600	0.757800	0.653600
N1401	N140	0.643000	0.859200	0.685100
C1101	C110	0.589600	0.706500	0.693300
H841	H84	0.607600	0.719300	0.697500
O561	O56	0.560500	0.746900	0.622100
C1111	C111	0.569900	0.713000	0.667800
C1121	C112	0.577500	0.741500	0.646100
Zn151	Zn15	0.203880	0.372420	0.716490
O571	O57	0.226740	0.341830	0.743940
N1411	N141	0.181060	0.400820	0.748110
N1421	N142	0.173170	0.347400	0.689300
N1431	N143	0.153820	0.438360	0.773700
C1131	C113	0.259000	0.295230	0.751270
O581	O58	0.256350	0.325660	0.702330
C1141	C114	0.247590	0.323440	0.730500
C1151	C115	0.153960	0.417250	0.749140
C1161	C116	0.174000	0.322030	0.669000
N1441	N144	0.199100	0.412000	0.773000
N1451	N145	0.198700	0.301300	0.666900
H851	H85	0.196400	0.283600	0.656300
H861	H86	0.216800	0.305700	0.676100
N1461	N146	0.130100	0.415500	0.726400
H871	H87	0.132300	0.403000	0.710000
H881	H88	0.112900	0.427000	0.728500
N1471	N147	0.146160	0.316730	0.655700
N1481	N148	0.126700	0.340800	0.667100
N1491	N149	0.182600	0.433000	0.788500
C1171	C117	0.286040	0.277790	0.741430
H891	H89	0.297700	0.284000	0.723200
O591	O59	0.102600	0.257800	0.653600
N1501	N150	0.143000	0.359200	0.685100
C1181	C118	0.089600	0.206500	0.693300
H901	H90	0.107600	0.219300	0.697500
O601	O60	0.060500	0.246900	0.622100
C1191	C119	0.069900	0.213000	0.667800
C1201	C120	0.077500	0.241500	0.646100
Zn161	Zn16	0.203880	0.872420	0.216490
O611	O61	0.226740	0.841830	0.243940
N1511	N151	0.181060	0.900820	0.248110
N1521	N152	0.173170	0.847400	0.189300
N1531	N153	0.153820	0.938360	0.273700
C1211	C121	0.259000	0.795230	0.251270
O621	O62	0.256350	0.825660	0.202330
C1221	C122	0.247590	0.823440	0.230500
C1231	C123	0.153960	0.917250	0.249140
C1241	C124	0.174000	0.822030	0.169000
N1541	N154	0.199100	0.912000	0.273000
N1551	N155	0.198700	0.801300	0.166900
H911	H91	0.196400	0.783600	0.156300
H921	H92	0.216800	0.805700	0.176100
N1561	N156	0.130100	0.915500	0.226400
H931	H93	0.132300	0.903000	0.210000
H941	H94	0.112900	0.927000	0.228500
N1571	N157	0.146160	0.816730	0.155700
N1581	N158	0.126700	0.840800	0.167100
N1591	N159	0.182600	0.933000	0.288500
C1251	C125	0.286040	0.777790	0.241430
H951	H95	0.297700	0.784000	0.223200
O631	O63	0.102600	0.757800	0.153600
N1601	N160	0.143000	0.859200	0.185100
C1261	C126	0.089600	0.706500	0.193300
H961	H96	0.107600	0.719300	0.197500
O641	O64	0.060500	0.746900	0.122100
C1271	C127	0.069900	0.713000	0.167800
C1281	C128	0.077500	0.741500	0.146100
Zn171	Zn17	0.033510	0.703880	0.877580
O651	O65	0.006060	0.726740	0.908170
N1611	N161	0.001890	0.681060	0.849180
N1621	N162	0.060700	0.673170	0.902600
N1631	N163	0.976300	0.653820	0.811640
C1291	C129	0.998730	0.759000	0.954770
O661	O66	0.047670	0.756350	0.924340
C1301	C130	0.019500	0.747590	0.926560
C1311	C131	0.000860	0.653960	0.832750
C1321	C132	0.081000	0.674000	0.927970
N1641	N164	0.977000	0.699100	0.838000
N1651	N165	0.083100	0.698700	0.948700
H971	H97	0.093700	0.696400	0.966400
H981	H98	0.073900	0.716800	0.944300
N1661	N166	0.023600	0.630100	0.834500
H991	H99	0.040000	0.632300	0.847000
H1001	H100	0.021500	0.612900	0.823000
N1671	N167	0.094300	0.646160	0.933270
N1681	N168	0.082900	0.626700	0.909200
N1691	N169	0.961500	0.682600	0.817000
C1331	C133	0.008570	0.786040	0.972210
H1011	H101	0.026800	0.797700	0.966000
O671	O67	0.096400	0.602600	0.992200
N1701	N170	0.064900	0.643000	0.890800
C1341	C134	0.056700	0.589600	0.043500
H1021	H102	0.052500	0.607600	0.030700
O681	O68	0.127900	0.560500	0.003100
C1351	C135	0.082200	0.569900	0.037000
C1361	C136	0.103900	0.577500	0.008500
Zn181	Zn18	0.033510	0.203880	0.377580
O691	O69	0.006060	0.226740	0.408170
N1711	N171	0.001890	0.181060	0.349180
N1721	N172	0.060700	0.173170	0.402600
N1731	N173	0.976300	0.153820	0.311640
C1371	C137	0.998730	0.259000	0.454770
O701	O70	0.047670	0.256350	0.424340
C1381	C138	0.019500	0.247590	0.426560
C1391	C139	0.000860	0.153960	0.332750
C1401	C140	0.081000	0.174000	0.427970
N1741	N174	0.977000	0.199100	0.338000
N1751	N175	0.083100	0.198700	0.448700
H1031	H103	0.093700	0.196400	0.466400
H1041	H104	0.073900	0.216800	0.444300
N1761	N176	0.023600	0.130100	0.334500
H1051	H105	0.040000	0.132300	0.347000
H1061	H106	0.021500	0.112900	0.323000
N1771	N177	0.094300	0.146160	0.433270
N1781	N178	0.082900	0.126700	0.409200
N1791	N179	0.961500	0.182600	0.317000
C1411	C141	0.008570	0.286040	0.472210
H1071	H107	0.026800	0.297700	0.466000
O711	O71	0.096400	0.102600	0.492200
N1801	N180	0.064900	0.143000	0.390800
C1421	C142	0.056700	0.089600	0.543500
H1081	H108	0.052500	0.107600	0.530700
O721	O72	0.127900	0.060500	0.503100
C1431	C143	0.082200	0.069900	0.537000
C1441	C144	0.103900	0.077500	0.508500
Zn191	Zn19	0.533510	0.703880	0.377580
O731	O73	0.506060	0.726740	0.408170
N1811	N181	0.501890	0.681060	0.349180
N1821	N182	0.560700	0.673170	0.402600
N1831	N183	0.476300	0.653820	0.311640
C1451	C145	0.498730	0.759000	0.454770
O741	O74	0.547670	0.756350	0.424340
C1461	C146	0.519500	0.747590	0.426560
C1471	C147	0.500860	0.653960	0.332750
C1481	C148	0.581000	0.674000	0.427970
N1841	N184	0.477000	0.699100	0.338000
N1851	N185	0.583100	0.698700	0.448700
H1091	H109	0.593700	0.696400	0.466400
H1101	H110	0.573900	0.716800	0.444300
N1861	N186	0.523600	0.630100	0.334500
H1111	H111	0.540000	0.632300	0.347000
H1121	H112	0.521500	0.612900	0.323000
N1871	N187	0.594300	0.646160	0.433270
N1881	N188	0.582900	0.626700	0.409200
N1891	N189	0.461500	0.682600	0.317000
C1491	C149	0.508570	0.786040	0.472210
H1131	H113	0.526800	0.797700	0.466000
O751	O75	0.596400	0.602600	0.492200
N1901	N190	0.564900	0.643000	0.390800
C1501	C150	0.556700	0.589600	0.543500
H1141	H114	0.552500	0.607600	0.530700
O761	O76	0.627900	0.560500	0.503100
C1511	C151	0.582200	0.569900	0.537000
C1521	C152	0.603900	0.577500	0.508500
Zn201	Zn20	0.533510	0.203880	0.877580
O771	O77	0.506060	0.226740	0.908170
N1911	N191	0.501890	0.181060	0.849180
N1921	N192	0.560700	0.173170	0.902600
N1931	N193	0.476300	0.153820	0.811640
C1531	C153	0.498730	0.259000	0.954770
O781	O78	0.547670	0.256350	0.924340
C1541	C154	0.519500	0.247590	0.926560
C1551	C155	0.500860	0.153960	0.832750
C1561	C156	0.581000	0.174000	0.927970
N1941	N194	0.477000	0.199100	0.838000
N1951	N195	0.583100	0.198700	0.948700
H1151	H115	0.593700	0.196400	0.966400
H1161	H116	0.573900	0.216800	0.944300
N1961	N196	0.523600	0.130100	0.834500
H1171	H117	0.540000	0.132300	0.847000
H1181	H118	0.521500	0.112900	0.823000
N1971	N197	0.594300	0.146160	0.933270
N1981	N198	0.582900	0.126700	0.909200
N1991	N199	0.461500	0.182600	0.817000
C1571	C157	0.508570	0.286040	0.972210
H1191	H119	0.526800	0.297700	0.966000
O791	O79	0.596400	0.102600	0.992200
N2001	N200	0.564900	0.143000	0.890800
C1581	C158	0.556700	0.089600	0.043500
H1201	H120	0.552500	0.107600	0.030700
O801	O80	0.627900	0.060500	0.003100
C1591	C159	0.582200	0.069900	0.037000
C1601	C160	0.603900	0.077500	0.008500
Zn211	Zn21	0.033510	0.546120	0.372420
O811	O81	0.006060	0.523260	0.341830
N2011	N201	0.001890	0.568940	0.400820
N2021	N202	0.060700	0.576830	0.347400
N2031	N203	0.976300	0.596180	0.438360
C1611	C161	0.998730	0.491000	0.295230
O821	O82	0.047670	0.493650	0.325660
C1621	C162	0.019500	0.502410	0.323440
C1631	C163	0.000860	0.596040	0.417250
C1641	C164	0.081000	0.576000	0.322030
N2041	N204	0.977000	0.550900	0.412000
N2051	N205	0.083100	0.551300	0.301300
H1211	H121	0.093700	0.553600	0.283600
H1221	H122	0.073900	0.533200	0.305700
N2061	N206	0.023600	0.619900	0.415500
H1231	H123	0.040000	0.617700	0.403000
H1241	H124	0.021500	0.637100	0.427000
N2071	N207	0.094300	0.603840	0.316730
N2081	N208	0.082900	0.623300	0.340800
N2091	N209	0.961500	0.567400	0.433000
C1651	C165	0.008570	0.463960	0.277790
H1251	H125	0.026800	0.452300	0.284000
O831	O83	0.096400	0.647400	0.257800
N2101	N210	0.064900	0.607000	0.359200
C1661	C166	0.056700	0.660400	0.206500
H1261	H126	0.052500	0.642400	0.219300
O841	O84	0.127900	0.689500	0.246900
C1671	C167	0.082200	0.680100	0.213000
C1681	C168	0.103900	0.672500	0.241500
Zn221	Zn22	0.033510	0.046120	0.872420
O851	O85	0.006060	0.023260	0.841830
N2111	N211	0.001890	0.068940	0.900820
N2121	N212	0.060700	0.076830	0.847400
N2131	N213	0.976300	0.096180	0.938360
C1691	C169	0.998730	0.991000	0.795230
O861	O86	0.047670	0.993650	0.825660
C1701	C170	0.019500	0.002410	0.823440
C1711	C171	0.000860	0.096040	0.917250
C1721	C172	0.081000	0.076000	0.822030
N2141	N214	0.977000	0.050900	0.912000
N2151	N215	0.083100	0.051300	0.801300
H1271	H127	0.093700	0.053600	0.783600
H1281	H128	0.073900	0.033200	0.805700
N2161	N216	0.023600	0.119900	0.915500
H1291	H129	0.040000	0.117700	0.903000
H1301	H130	0.021500	0.137100	0.927000
N2171	N217	0.094300	0.103840	0.816730
N2181	N218	0.082900	0.123300	0.840800
N2191	N219	0.961500	0.067400	0.933000
C1731	C173	0.008570	0.963960	0.777790
H1311	H131	0.026800	0.952300	0.784000
O871	O87	0.096400	0.147400	0.757800
N2201	N220	0.064900	0.107000	0.859200
C1741	C174	0.056700	0.160400	0.706500
H1321	H132	0.052500	0.142400	0.719300
O881	O88	0.127900	0.189500	0.746900
C1751	C175	0.082200	0.180100	0.713000
C1761	C176	0.103900	0.172500	0.741500
Zn231	Zn23	0.533510	0.546120	0.872420
O891	O89	0.506060	0.523260	0.841830
N2211	N221	0.501890	0.568940	0.900820
N2221	N222	0.560700	0.576830	0.847400
N2231	N223	0.476300	0.596180	0.938360
C1771	C177	0.498730	0.491000	0.795230
O901	O90	0.547670	0.493650	0.825660
C1781	C178	0.519500	0.502410	0.823440
C1791	C179	0.500860	0.596040	0.917250
C1801	C180	0.581000	0.576000	0.822030
N2241	N224	0.477000	0.550900	0.912000
N2251	N225	0.583100	0.551300	0.801300
H1331	H133	0.593700	0.553600	0.783600
H1341	H134	0.573900	0.533200	0.805700
N2261	N226	0.523600	0.619900	0.915500
H1351	H135	0.540000	0.617700	0.903000
H1361	H136	0.521500	0.637100	0.927000
N2271	N227	0.594300	0.603840	0.816730
N2281	N228	0.582900	0.623300	0.840800
N2291	N229	0.461500	0.567400	0.933000
C1811	C181	0.508570	0.463960	0.777790
H1371	H137	0.526800	0.452300	0.784000
O911	O91	0.596400	0.647400	0.757800
N2301	N230	0.564900	0.607000	0.859200
C1821	C182	0.556700	0.660400	0.706500
H1381	H138	0.552500	0.642400	0.719300
O921	O92	0.627900	0.689500	0.746900
C1831	C183	0.582200	0.680100	0.713000
C1841	C184	0.603900	0.672500	0.741500
Zn241	Zn24	0.533510	0.046120	0.372420
O931	O93	0.506060	0.023260	0.341830
N2311	N231	0.501890	0.068940	0.400820
N2321	N232	0.560700	0.076830	0.347400
N2331	N233	0.476300	0.096180	0.438360
C1851	C185	0.498730	0.991000	0.295230
O941	O94	0.547670	0.993650	0.325660
C1861	C186	0.519500	0.002410	0.323440
C1871	C187	0.500860	0.096040	0.417250
C1881	C188	0.581000	0.076000	0.322030
N2341	N234	0.477000	0.050900	0.412000
N2351	N235	0.583100	0.051300	0.301300
H1391	H139	0.593700	0.053600	0.283600
H1401	H140	0.573900	0.033200	0.305700
N2361	N236	0.523600	0.119900	0.415500
H1411	H141	0.540000	0.117700	0.403000
H1421	H142	0.521500	0.137100	0.427000
N2371	N237	0.594300	0.103840	0.316730
N2381	N238	0.582900	0.123300	0.340800
N2391	N239	0.461500	0.067400	0.433000
C1891	C189	0.508570	0.963960	0.277790
H1431	H143	0.526800	0.952300	0.284000
O951	O95	0.596400	0.147400	0.257800
N2401	N240	0.564900	0.107000	0.359200
C1901	C190	0.556700	0.160400	0.206500
H1441	H144	0.552500	0.142400	0.219300
O961	O96	0.627900	0.189500	0.246900
C1911	C191	0.582200	0.180100	0.213000
C1921	C192	0.603900	0.172500	0.241500
Zn251	Zn25	0.216490	0.546120	0.877580
O971	O97	0.243940	0.523260	0.908170
N2411	N241	0.248110	0.568940	0.849180
N2421	N242	0.189300	0.576830	0.902600
N2431	N243	0.273700	0.596180	0.811640
C1931	C193	0.251270	0.491000	0.954770
O981	O98	0.202330	0.493650	0.924340
C1941	C194	0.230500	0.502410	0.926560
C1951	C195	0.249140	0.596040	0.832750
C1961	C196	0.169000	0.576000	0.927970
N2441	N244	0.273000	0.550900	0.838000
N2451	N245	0.166900	0.551300	0.948700
H1451	H145	0.156300	0.553600	0.966400
H1461	H146	0.176100	0.533200	0.944300
N2461	N246	0.226400	0.619900	0.834500
H1471	H147	0.210000	0.617700	0.847000
H1481	H148	0.228500	0.637100	0.823000
N2471	N247	0.155700	0.603840	0.933270
N2481	N248	0.167100	0.623300	0.909200
N2491	N249	0.288500	0.567400	0.817000
C1971	C197	0.241430	0.463960	0.972210
H1491	H149	0.223200	0.452300	0.966000
O991	O99	0.153600	0.647400	0.992200
N2501	N250	0.185100	0.607000	0.890800
C1981	C198	0.193300	0.660400	0.043500
H1501	H150	0.197500	0.642400	0.030700
O1001	O100	0.122100	0.689500	0.003100
C1991	C199	0.167800	0.680100	0.037000
C2001	C200	0.146100	0.672500	0.008500
Zn261	Zn26	0.216490	0.046120	0.377580
O1011	O101	0.243940	0.023260	0.408170
N2511	N251	0.248110	0.068940	0.349180
N2521	N252	0.189300	0.076830	0.402600
N2531	N253	0.273700	0.096180	0.311640
C2011	C201	0.251270	0.991000	0.454770
O1021	O102	0.202330	0.993650	0.424340
C2021	C202	0.230500	0.002410	0.426560
C2031	C203	0.249140	0.096040	0.332750
C2041	C204	0.169000	0.076000	0.427970
N2541	N254	0.273000	0.050900	0.338000
N2551	N255	0.166900	0.051300	0.448700
H1511	H151	0.156300	0.053600	0.466400
H1521	H152	0.176100	0.033200	0.444300
N2561	N256	0.226400	0.119900	0.334500
H1531	H153	0.210000	0.117700	0.347000
H1541	H154	0.228500	0.137100	0.323000
N2571	N257	0.155700	0.103840	0.433270
N2581	N258	0.167100	0.123300	0.409200
N2591	N259	0.288500	0.067400	0.317000
C2051	C205	0.241430	0.963960	0.472210
H1551	H155	0.223200	0.952300	0.466000
O1031	O103	0.153600	0.147400	0.492200
N2601	N260	0.185100	0.107000	0.390800
C2061	C206	0.193300	0.160400	0.543500
H1561	H156	0.197500	0.142400	0.530700
O1041	O104	0.122100	0.189500	0.503100
C2071	C207	0.167800	0.180100	0.537000
C2081	C208	0.146100	0.172500	0.508500
Zn271	Zn27	0.716490	0.546120	0.377580
O1051	O105	0.743940	0.523260	0.408170
N2611	N261	0.748110	0.568940	0.349180
N2621	N262	0.689300	0.576830	0.402600
N2631	N263	0.773700	0.596180	0.311640
C2091	C209	0.751270	0.491000	0.454770
O1061	O106	0.702330	0.493650	0.424340
C2101	C210	0.730500	0.502410	0.426560
C2111	C211	0.749140	0.596040	0.332750
C2121	C212	0.669000	0.576000	0.427970
N2641	N264	0.773000	0.550900	0.338000
N2651	N265	0.666900	0.551300	0.448700
H1571	H157	0.656300	0.553600	0.466400
H1581	H158	0.676100	0.533200	0.444300
N2661	N266	0.726400	0.619900	0.334500
H1591	H159	0.710000	0.617700	0.347000
H1601	H160	0.728500	0.637100	0.323000
N2671	N267	0.655700	0.603840	0.433270
N2681	N268	0.667100	0.623300	0.409200
N2691	N269	0.788500	0.567400	0.317000
C2131	C213	0.741430	0.463960	0.472210
H1611	H161	0.723200	0.452300	0.466000
O1071	O107	0.653600	0.647400	0.492200
N2701	N270	0.685100	0.607000	0.390800
C2141	C214	0.693300	0.660400	0.543500
H1621	H162	0.697500	0.642400	0.530700
O1081	O108	0.622100	0.689500	0.503100
C2151	C215	0.667800	0.680100	0.537000
C2161	C216	0.646100	0.672500	0.508500
Zn281	Zn28	0.716490	0.046120	0.877580
O1091	O109	0.743940	0.023260	0.908170
N2711	N271	0.748110	0.068940	0.849180
N2721	N272	0.689300	0.076830	0.902600
N2731	N273	0.773700	0.096180	0.811640
C2171	C217	0.751270	0.991000	0.954770
O1101	O110	0.702330	0.993650	0.924340
C2181	C218	0.730500	0.002410	0.926560
C2191	C219	0.749140	0.096040	0.832750
C2201	C220	0.669000	0.076000	0.927970
N2741	N274	0.773000	0.050900	0.838000
N2751	N275	0.666900	0.051300	0.948700
H1631	H163	0.656300	0.053600	0.966400
H1641	H164	0.676100	0.033200	0.944300
N2761	N276	0.726400	0.119900	0.834500
H1651	H165	0.710000	0.117700	0.847000
H1661	H166	0.728500	0.137100	0.823000
N2771	N277	0.655700	0.103840	0.933270
N2781	N278	0.667100	0.123300	0.909200
N2791	N279	0.788500	0.067400	0.817000
C2211	C221	0.741430	0.963960	0.972210
H1671	H167	0.723200	0.952300	0.966000
O1111	O111	0.653600	0.147400	0.992200
N2801	N280	0.685100	0.107000	0.890800
C2221	C222	0.693300	0.160400	0.043500
H1681	H168	0.697500	0.142400	0.030700
O1121	O112	0.622100	0.189500	0.003100
C2231	C223	0.667800	0.180100	0.037000
C2241	C224	0.646100	0.172500	0.008500
Zn291	Zn29	0.216490	0.703880	0.372420
O1131	O113	0.243940	0.726740	0.341830
N2811	N281	0.248110	0.681060	0.400820
N2821	N282	0.189300	0.673170	0.347400
N2831	N283	0.273700	0.653820	0.438360
C2251	C225	0.251270	0.759000	0.295230
O1141	O114	0.202330	0.756350	0.325660
C2261	C226	0.230500	0.747590	0.323440
C2271	C227	0.249140	0.653960	0.417250
C2281	C228	0.169000	0.674000	0.322030
N2841	N284	0.273000	0.699100	0.412000
N2851	N285	0.166900	0.698700	0.301300
H1691	H169	0.156300	0.696400	0.283600
H1701	H170	0.176100	0.716800	0.305700
N2861	N286	0.226400	0.630100	0.415500
H1711	H171	0.210000	0.632300	0.403000
H1721	H172	0.228500	0.612900	0.427000
N2871	N287	0.155700	0.646160	0.316730
N2881	N288	0.167100	0.626700	0.340800
N2891	N289	0.288500	0.682600	0.433000
C2291	C229	0.241430	0.786040	0.277790
H1731	H173	0.223200	0.797700	0.284000
O1151	O115	0.153600	0.602600	0.257800
N2901	N290	0.185100	0.643000	0.359200
C2301	C230	0.193300	0.589600	0.206500
H1741	H174	0.197500	0.607600	0.219300
O1161	O116	0.122100	0.560500	0.246900
C2311	C231	0.167800	0.569900	0.213000
C2321	C232	0.146100	0.577500	0.241500
Zn301	Zn30	0.216490	0.203880	0.872420
O1171	O117	0.243940	0.226740	0.841830
N2911	N291	0.248110	0.181060	0.900820
N2921	N292	0.189300	0.173170	0.847400
N2931	N293	0.273700	0.153820	0.938360
C2331	C233	0.251270	0.259000	0.795230
O1181	O118	0.202330	0.256350	0.825660
C2341	C234	0.230500	0.247590	0.823440
C2351	C235	0.249140	0.153960	0.917250
C2361	C236	0.169000	0.174000	0.822030
N2941	N294	0.273000	0.199100	0.912000
N2951	N295	0.166900	0.198700	0.801300
H1751	H175	0.156300	0.196400	0.783600
H1761	H176	0.176100	0.216800	0.805700
N2961	N296	0.226400	0.130100	0.915500
H1771	H177	0.210000	0.132300	0.903000
H1781	H178	0.228500	0.112900	0.927000
N2971	N297	0.155700	0.146160	0.816730
N2981	N298	0.167100	0.126700	0.840800
N2991	N299	0.288500	0.182600	0.933000
C2371	C237	0.241430	0.286040	0.777790
H1791	H179	0.223200	0.297700	0.784000
O1191	O119	0.153600	0.102600	0.757800
N3001	N300	0.185100	0.143000	0.859200
C2381	C238	0.193300	0.089600	0.706500
H1801	H180	0.197500	0.107600	0.719300
O1201	O120	0.122100	0.060500	0.746900
C2391	C239	0.167800	0.069900	0.713000
C2401	C240	0.146100	0.077500	0.741500
Zn311	Zn31	0.716490	0.703880	0.872420
O1211	O121	0.743940	0.726740	0.841830
N3011	N301	0.748110	0.681060	0.900820
N3021	N302	0.689300	0.673170	0.847400
N3031	N303	0.773700	0.653820	0.938360
C2411	C241	0.751270	0.759000	0.795230
O1221	O122	0.702330	0.756350	0.825660
C2421	C242	0.730500	0.747590	0.823440
C2431	C243	0.749140	0.653960	0.917250
C2441	C244	0.669000	0.674000	0.822030
N3041	N304	0.773000	0.699100	0.912000
N3051	N305	0.666900	0.698700	0.801300
H1811	H181	0.656300	0.696400	0.783600
H1821	H182	0.676100	0.716800	0.805700
N3061	N306	0.726400	0.630100	0.915500
H1831	H183	0.710000	0.632300	0.903000
H1841	H184	0.728500	0.612900	0.927000
N3071	N307	0.655700	0.646160	0.816730
N3081	N308	0.667100	0.626700	0.840800
N3091	N309	0.788500	0.682600	0.933000
C2451	C245	0.741430	0.786040	0.777790
H1851	H185	0.723200	0.797700	0.784000
O1231	O123	0.653600	0.602600	0.757800
N3101	N310	0.685100	0.643000	0.859200
C2461	C246	0.693300	0.589600	0.706500
H1861	H186	0.697500	0.607600	0.719300
O1241	O124	0.622100	0.560500	0.746900
C2471	C247	0.667800	0.569900	0.713000
C2481	C248	0.646100	0.577500	0.741500
Zn321	Zn32	0.716490	0.203880	0.372420
O1251	O125	0.743940	0.226740	0.341830
N3111	N311	0.748110	0.181060	0.400820
N3121	N312	0.689300	0.173170	0.347400
N3131	N313	0.773700	0.153820	0.438360
C2491	C249	0.751270	0.259000	0.295230
O1261	O126	0.702330	0.256350	0.325660
C2501	C250	0.730500	0.247590	0.323440
C2511	C251	0.749140	0.153960	0.417250
C2521	C252	0.669000	0.174000	0.322030
N3141	N314	0.773000	0.199100	0.412000
N3151	N315	0.666900	0.198700	0.301300
H1871	H187	0.656300	0.196400	0.283600
H1881	H188	0.676100	0.216800	0.305700
N3161	N316	0.726400	0.130100	0.415500
H1891	H189	0.710000	0.132300	0.403000
H1901	H190	0.728500	0.112900	0.427000
N3171	N317	0.655700	0.146160	0.316730
N3181	N318	0.667100	0.126700	0.340800
N3191	N319	0.788500	0.182600	0.433000
C2531	C253	0.741430	0.286040	0.277790
H1911	H191	0.723200	0.297700	0.284000
O1271	O127	0.653600	0.102600	0.257800
N3201	N320	0.685100	0.143000	0.359200
C2541	C254	0.693300	0.089600	0.206500
H1921	H192	0.697500	0.107600	0.219300
O1281	O128	0.622100	0.060500	0.246900
C2551	C255	0.667800	0.069900	0.213000
C2561	C256	0.646100	0.077500	0.241500
Zn331	Zn33	0.877580	0.033510	0.703880
O1291	O129	0.908170	0.006060	0.726740
N3211	N321	0.849180	0.001890	0.681060
N3221	N322	0.902600	0.060700	0.673170
N3231	N323	0.811640	0.976300	0.653820
C2571	C257	0.954770	0.998730	0.759000
O1301	O130	0.924340	0.047670	0.756350
C2581	C258	0.926560	0.019500	0.747590
C2591	C259	0.832750	0.000860	0.653960
C2601	C260	0.927970	0.081000	0.674000
N3241	N324	0.838000	0.977000	0.699100
N3251	N325	0.948700	0.083100	0.698700
H1931	H193	0.966400	0.093700	0.696400
H1941	H194	0.944300	0.073900	0.716800
N3261	N326	0.834500	0.023600	0.630100
H1951	H195	0.847000	0.040000	0.632300
H1961	H196	0.823000	0.021500	0.612900
N3271	N327	0.933270	0.094300	0.646160
N3281	N328	0.909200	0.082900	0.626700
N3291	N329	0.817000	0.961500	0.682600
C2611	C261	0.972210	0.008570	0.786040
H1971	H197	0.966000	0.026800	0.797700
O1311	O131	0.992200	0.096400	0.602600
N3301	N330	0.890800	0.064900	0.643000
C2621	C262	0.043500	0.056700	0.589600
H1981	H198	0.030700	0.052500	0.607600
O1321	O132	0.003100	0.127900	0.560500
C2631	C263	0.037000	0.082200	0.569900
C2641	C264	0.008500	0.103900	0.577500
Zn341	Zn34	0.877580	0.533510	0.203880
O1331	O133	0.908170	0.506060	0.226740
N3311	N331	0.849180	0.501890	0.181060
N3321	N332	0.902600	0.560700	0.173170
N3331	N333	0.811640	0.476300	0.153820
C2651	C265	0.954770	0.498730	0.259000
O1341	O134	0.924340	0.547670	0.256350
C2661	C266	0.926560	0.519500	0.247590
C2671	C267	0.832750	0.500860	0.153960
C2681	C268	0.927970	0.581000	0.174000
N3341	N334	0.838000	0.477000	0.199100
N3351	N335	0.948700	0.583100	0.198700
H1991	H199	0.966400	0.593700	0.196400
H2001	H200	0.944300	0.573900	0.216800
N3361	N336	0.834500	0.523600	0.130100
H2011	H201	0.847000	0.540000	0.132300
H2021	H202	0.823000	0.521500	0.112900
N3371	N337	0.933270	0.594300	0.146160
N3381	N338	0.909200	0.582900	0.126700
N3391	N339	0.817000	0.461500	0.182600
C2691	C269	0.972210	0.508570	0.286040
H2031	H203	0.966000	0.526800	0.297700
O1351	O135	0.992200	0.596400	0.102600
N3401	N340	0.890800	0.564900	0.143000
C2701	C270	0.043500	0.556700	0.089600
H2041	H204	0.030700	0.552500	0.107600
O1361	O136	0.003100	0.627900	0.060500
C2711	C271	0.037000	0.582200	0.069900
C2721	C272	0.008500	0.603900	0.077500
Zn351	Zn35	0.377580	0.033510	0.203880
O1371	O137	0.408170	0.006060	0.226740
N3411	N341	0.349180	0.001890	0.181060
N3421	N342	0.402600	0.060700	0.173170
N3431	N343	0.311640	0.976300	0.153820
C2731	C273	0.454770	0.998730	0.259000
O1381	O138	0.424340	0.047670	0.256350
C2741	C274	0.426560	0.019500	0.247590
C2751	C275	0.332750	0.000860	0.153960
C2761	C276	0.427970	0.081000	0.174000
N3441	N344	0.338000	0.977000	0.199100
N3451	N345	0.448700	0.083100	0.198700
H2051	H205	0.466400	0.093700	0.196400
H2061	H206	0.444300	0.073900	0.216800
N3461	N346	0.334500	0.023600	0.130100
H2071	H207	0.347000	0.040000	0.132300
H2081	H208	0.323000	0.021500	0.112900
N3471	N347	0.433270	0.094300	0.146160
N3481	N348	0.409200	0.082900	0.126700
N3491	N349	0.317000	0.961500	0.182600
C2771	C277	0.472210	0.008570	0.286040
H2091	H209	0.466000	0.026800	0.297700
O1391	O139	0.492200	0.096400	0.102600
N3501	N350	0.390800	0.064900	0.143000
C2781	C278	0.543500	0.056700	0.089600
H2101	H210	0.530700	0.052500	0.107600
O1401	O140	0.503100	0.127900	0.060500
C2791	C279	0.537000	0.082200	0.069900
C2801	C280	0.508500	0.103900	0.077500
Zn361	Zn36	0.377580	0.533510	0.703880
O1411	O141	0.408170	0.506060	0.726740
N3511	N351	0.349180	0.501890	0.681060
N3521	N352	0.402600	0.560700	0.673170
N3531	N353	0.311640	0.476300	0.653820
C2811	C281	0.454770	0.498730	0.759000
O1421	O142	0.424340	0.547670	0.756350
C2821	C282	0.426560	0.519500	0.747590
C2831	C283	0.332750	0.500860	0.653960
C2841	C284	0.427970	0.581000	0.674000
N3541	N354	0.338000	0.477000	0.699100
N3551	N355	0.448700	0.583100	0.698700
H2111	H211	0.466400	0.593700	0.696400
H2121	H212	0.444300	0.573900	0.716800
N3561	N356	0.334500	0.523600	0.630100
H2131	H213	0.347000	0.540000	0.632300
H2141	H214	0.323000	0.521500	0.612900
N3571	N357	0.433270	0.594300	0.646160
N3581	N358	0.409200	0.582900	0.626700
N3591	N359	0.317000	0.461500	0.682600
C2851	C285	0.472210	0.508570	0.786040
H2151	H215	0.466000	0.526800	0.797700
O1431	O143	0.492200	0.596400	0.602600
N3601	N360	0.390800	0.564900	0.643000
C2861	C286	0.543500	0.556700	0.589600
H2161	H216	0.530700	0.552500	0.607600
O1441	O144	0.503100	0.627900	0.560500
C2871	C287	0.537000	0.582200	0.569900
C2881	C288	0.508500	0.603900	0.577500
Zn371	Zn37	0.372420	0.033510	0.546120
O1451	O145	0.341830	0.006060	0.523260
N3611	N361	0.400820	0.001890	0.568940
N3621	N362	0.347400	0.060700	0.576830
N3631	N363	0.438360	0.976300	0.596180
C2891	C289	0.295230	0.998730	0.491000
O1461	O146	0.325660	0.047670	0.493650
C2901	C290	0.323440	0.019500	0.502410
C2911	C291	0.417250	0.000860	0.596040
C2921	C292	0.322030	0.081000	0.576000
N3641	N364	0.412000	0.977000	0.550900
N3651	N365	0.301300	0.083100	0.551300
H2171	H217	0.283600	0.093700	0.553600
H2181	H218	0.305700	0.073900	0.533200
N3661	N366	0.415500	0.023600	0.619900
H2191	H219	0.403000	0.040000	0.617700
H2201	H220	0.427000	0.021500	0.637100
N3671	N367	0.316730	0.094300	0.603840
N3681	N368	0.340800	0.082900	0.623300
N3691	N369	0.433000	0.961500	0.567400
C2931	C293	0.277790	0.008570	0.463960
H2211	H221	0.284000	0.026800	0.452300
O1471	O147	0.257800	0.096400	0.647400
N3701	N370	0.359200	0.064900	0.607000
C2941	C294	0.206500	0.056700	0.660400
H2221	H222	0.219300	0.052500	0.642400
O1481	O148	0.246900	0.127900	0.689500
C2951	C295	0.213000	0.082200	0.680100
C2961	C296	0.241500	0.103900	0.672500
Zn381	Zn38	0.372420	0.533510	0.046120
O1491	O149	0.341830	0.506060	0.023260
N3711	N371	0.400820	0.501890	0.068940
N3721	N372	0.347400	0.560700	0.076830
N3731	N373	0.438360	0.476300	0.096180
C2971	C297	0.295230	0.498730	0.991000
O1501	O150	0.325660	0.547670	0.993650
C2981	C298	0.323440	0.519500	0.002410
C2991	C299	0.417250	0.500860	0.096040
C3001	C300	0.322030	0.581000	0.076000
N3741	N374	0.412000	0.477000	0.050900
N3751	N375	0.301300	0.583100	0.051300
H2231	H223	0.283600	0.593700	0.053600
H2241	H224	0.305700	0.573900	0.033200
N3761	N376	0.415500	0.523600	0.119900
H2251	H225	0.403000	0.540000	0.117700
H2261	H226	0.427000	0.521500	0.137100
N3771	N377	0.316730	0.594300	0.103840
N3781	N378	0.340800	0.582900	0.123300
N3791	N379	0.433000	0.461500	0.067400
C3011	C301	0.277790	0.508570	0.963960
H2271	H227	0.284000	0.526800	0.952300
O1511	O151	0.257800	0.596400	0.147400
N3801	N380	0.359200	0.564900	0.107000
C3021	C302	0.206500	0.556700	0.160400
H2281	H228	0.219300	0.552500	0.142400
O1521	O152	0.246900	0.627900	0.189500
C3031	C303	0.213000	0.582200	0.180100
C3041	C304	0.241500	0.603900	0.172500
Zn391	Zn39	0.872420	0.033510	0.046120
O1531	O153	0.841830	0.006060	0.023260
N3811	N381	0.900820	0.001890	0.068940
N3821	N382	0.847400	0.060700	0.076830
N3831	N383	0.938360	0.976300	0.096180
C3051	C305	0.795230	0.998730	0.991000
O1541	O154	0.825660	0.047670	0.993650
C3061	C306	0.823440	0.019500	0.002410
C3071	C307	0.917250	0.000860	0.096040
C3081	C308	0.822030	0.081000	0.076000
N3841	N384	0.912000	0.977000	0.050900
N3851	N385	0.801300	0.083100	0.051300
H2291	H229	0.783600	0.093700	0.053600
H2301	H230	0.805700	0.073900	0.033200
N3861	N386	0.915500	0.023600	0.119900
H2311	H231	0.903000	0.040000	0.117700
H2321	H232	0.927000	0.021500	0.137100
N3871	N387	0.816730	0.094300	0.103840
N3881	N388	0.840800	0.082900	0.123300
N3891	N389	0.933000	0.961500	0.067400
C3091	C309	0.777790	0.008570	0.963960
H2331	H233	0.784000	0.026800	0.952300
O1551	O155	0.757800	0.096400	0.147400
N3901	N390	0.859200	0.064900	0.107000
C3101	C310	0.706500	0.056700	0.160400
H2341	H234	0.719300	0.052500	0.142400
O1561	O156	0.746900	0.127900	0.189500
C3111	C311	0.713000	0.082200	0.180100
C3121	C312	0.741500	0.103900	0.172500
Zn401	Zn40	0.872420	0.533510	0.546120
O1571	O157	0.841830	0.506060	0.523260
N3911	N391	0.900820	0.501890	0.568940
N3921	N392	0.847400	0.560700	0.576830
N3931	N393	0.938360	0.476300	0.596180
C3131	C313	0.795230	0.498730	0.491000
O1581	O158	0.825660	0.547670	0.493650
C3141	C314	0.823440	0.519500	0.502410
C3151	C315	0.917250	0.500860	0.596040
C3161	C316	0.822030	0.581000	0.576000
N3941	N394	0.912000	0.477000	0.550900
N3951	N395	0.801300	0.583100	0.551300
H2351	H235	0.783600	0.593700	0.553600
H2361	H236	0.805700	0.573900	0.533200
N3961	N396	0.915500	0.523600	0.619900
H2371	H237	0.903000	0.540000	0.617700
H2381	H238	0.927000	0.521500	0.637100
N3971	N397	0.816730	0.594300	0.603840
N3981	N398	0.840800	0.582900	0.623300
N3991	N399	0.933000	0.461500	0.567400
C3171	C317	0.777790	0.508570	0.463960
H2391	H239	0.784000	0.526800	0.452300
O1591	O159	0.757800	0.596400	0.647400
N4001	N400	0.859200	0.564900	0.607000
C3181	C318	0.706500	0.556700	0.660400
H2401	H240	0.719300	0.552500	0.642400
O1601	O160	0.746900	0.627900	0.689500
C3191	C319	0.713000	0.582200	0.680100
C3201	C320	0.741500	0.603900	0.672500
Zn411	Zn41	0.877580	0.216490	0.546120
O1611	O161	0.908170	0.243940	0.523260
N4011	N401	0.849180	0.248110	0.568940
N4021	N402	0.902600	0.189300	0.576830
N4031	N403	0.811640	0.273700	0.596180
C3211	C321	0.954770	0.251270	0.491000
O1621	O162	0.924340	0.202330	0.493650
C3221	C322	0.926560	0.230500	0.502410
C3231	C323	0.832750	0.249140	0.596040
C3241	C324	0.927970	0.169000	0.576000
N4041	N404	0.838000	0.273000	0.550900
N4051	N405	0.948700	0.166900	0.551300
H2411	H241	0.966400	0.156300	0.553600
H2421	H242	0.944300	0.176100	0.533200
N4061	N406	0.834500	0.226400	0.619900
H2431	H243	0.847000	0.210000	0.617700
H2441	H244	0.823000	0.228500	0.637100
N4071	N407	0.933270	0.155700	0.603840
N4081	N408	0.909200	0.167100	0.623300
N4091	N409	0.817000	0.288500	0.567400
C3251	C325	0.972210	0.241430	0.463960
H2451	H245	0.966000	0.223200	0.452300
O1631	O163	0.992200	0.153600	0.647400
N4101	N410	0.890800	0.185100	0.607000
C3261	C326	0.043500	0.193300	0.660400
H2461	H246	0.030700	0.197500	0.642400
O1641	O164	0.003100	0.122100	0.689500
C3271	C327	0.037000	0.167800	0.680100
C3281	C328	0.008500	0.146100	0.672500
Zn421	Zn42	0.877580	0.716490	0.046120
O1651	O165	0.908170	0.743940	0.023260
N4111	N411	0.849180	0.748110	0.068940
N4121	N412	0.902600	0.689300	0.076830
N4131	N413	0.811640	0.773700	0.096180
C3291	C329	0.954770	0.751270	0.991000
O1661	O166	0.924340	0.702330	0.993650
C3301	C330	0.926560	0.730500	0.002410
C3311	C331	0.832750	0.749140	0.096040
C3321	C332	0.927970	0.669000	0.076000
N4141	N414	0.838000	0.773000	0.050900
N4151	N415	0.948700	0.666900	0.051300
H2471	H247	0.966400	0.656300	0.053600
H2481	H248	0.944300	0.676100	0.033200
N4161	N416	0.834500	0.726400	0.119900
H2491	H249	0.847000	0.710000	0.117700
H2501	H250	0.823000	0.728500	0.137100
N4171	N417	0.933270	0.655700	0.103840
N4181	N418	0.909200	0.667100	0.123300
N4191	N419	0.817000	0.788500	0.067400
C3331	C333	0.972210	0.741430	0.963960
H2511	H251	0.966000	0.723200	0.952300
O1671	O167	0.992200	0.653600	0.147400
N4201	N420	0.890800	0.685100	0.107000
C3341	C334	0.043500	0.693300	0.160400
H2521	H252	0.030700	0.697500	0.142400
O1681	O168	0.003100	0.622100	0.189500
C3351	C335	0.037000	0.667800	0.180100
C3361	C336	0.008500	0.646100	0.172500
Zn431	Zn43	0.377580	0.216490	0.046120
O1691	O169	0.408170	0.243940	0.023260
N4211	N421	0.349180	0.248110	0.068940
N4221	N422	0.402600	0.189300	0.076830
N4231	N423	0.311640	0.273700	0.096180
C3371	C337	0.454770	0.251270	0.991000
O1701	O170	0.424340	0.202330	0.993650
C3381	C338	0.426560	0.230500	0.002410
C3391	C339	0.332750	0.249140	0.096040
C3401	C340	0.427970	0.169000	0.076000
N4241	N424	0.338000	0.273000	0.050900
N4251	N425	0.448700	0.166900	0.051300
H2531	H253	0.466400	0.156300	0.053600
H2541	H254	0.444300	0.176100	0.033200
N4261	N426	0.334500	0.226400	0.119900
H2551	H255	0.347000	0.210000	0.117700
H2561	H256	0.323000	0.228500	0.137100
N4271	N427	0.433270	0.155700	0.103840
N4281	N428	0.409200	0.167100	0.123300
N4291	N429	0.317000	0.288500	0.067400
C3411	C341	0.472210	0.241430	0.963960
H2571	H257	0.466000	0.223200	0.952300
O1711	O171	0.492200	0.153600	0.147400
N4301	N430	0.390800	0.185100	0.107000
C3421	C342	0.543500	0.193300	0.160400
H2581	H258	0.530700	0.197500	0.142400
O1721	O172	0.503100	0.122100	0.189500
C3431	C343	0.537000	0.167800	0.180100
C3441	C344	0.508500	0.146100	0.172500
Zn441	Zn44	0.377580	0.716490	0.546120
O1731	O173	0.408170	0.743940	0.523260
N4311	N431	0.349180	0.748110	0.568940
N4321	N432	0.402600	0.689300	0.576830
N4331	N433	0.311640	0.773700	0.596180
C3451	C345	0.454770	0.751270	0.491000
O1741	O174	0.424340	0.702330	0.493650
C3461	C346	0.426560	0.730500	0.502410
C3471	C347	0.332750	0.749140	0.596040
C3481	C348	0.427970	0.669000	0.576000
N4341	N434	0.338000	0.773000	0.550900
N4351	N435	0.448700	0.666900	0.551300
H2591	H259	0.466400	0.656300	0.553600
H2601	H260	0.444300	0.676100	0.533200
N4361	N436	0.334500	0.726400	0.619900
H2611	H261	0.347000	0.710000	0.617700
H2621	H262	0.323000	0.728500	0.637100
N4371	N437	0.433270	0.655700	0.603840
N4381	N438	0.409200	0.667100	0.623300
N4391	N439	0.317000	0.788500	0.567400
C3491	C349	0.472210	0.741430	0.463960
H2631	H263	0.466000	0.723200	0.452300
O1751	O175	0.492200	0.653600	0.647400
N4401	N440	0.390800	0.685100	0.607000
C3501	C350	0.543500	0.693300	0.660400
H2641	H264	0.530700	0.697500	0.642400
O1761	O176	0.503100	0.622100	0.689500
C3511	C351	0.537000	0.667800	0.680100
C3521	C352	0.508500	0.646100	0.672500
Zn451	Zn45	0.372420	0.216490	0.703880
O1771	O177	0.341830	0.243940	0.726740
N4411	N441	0.400820	0.248110	0.681060
N4421	N442	0.347400	0.189300	0.673170
N4431	N443	0.438360	0.273700	0.653820
C3531	C353	0.295230	0.251270	0.759000
O1781	O178	0.325660	0.202330	0.756350
C3541	C354	0.323440	0.230500	0.747590
C3551	C355	0.417250	0.249140	0.653960
C3561	C356	0.322030	0.169000	0.674000
N4441	N444	0.412000	0.273000	0.699100
N4451	N445	0.301300	0.166900	0.698700
H2651	H265	0.283600	0.156300	0.696400
H2661	H266	0.305700	0.176100	0.716800
N4461	N446	0.415500	0.226400	0.630100
H2671	H267	0.403000	0.210000	0.632300
H2681	H268	0.427000	0.228500	0.612900
N4471	N447	0.316730	0.155700	0.646160
N4481	N448	0.340800	0.167100	0.626700
N4491	N449	0.433000	0.288500	0.682600
C3571	C357	0.277790	0.241430	0.786040
H2691	H269	0.284000	0.223200	0.797700
O1791	O179	0.257800	0.153600	0.602600
N4501	N450	0.359200	0.185100	0.643000
C3581	C358	0.206500	0.193300	0.589600
H2701	H270	0.219300	0.197500	0.607600
O1801	O180	0.246900	0.122100	0.560500
C3591	C359	0.213000	0.167800	0.569900
C3601	C360	0.241500	0.146100	0.577500
Zn461	Zn46	0.372420	0.716490	0.203880
O1811	O181	0.341830	0.743940	0.226740
N4511	N451	0.400820	0.748110	0.181060
N4521	N452	0.347400	0.689300	0.173170
N4531	N453	0.438360	0.773700	0.153820
C3611	C361	0.295230	0.751270	0.259000
O1821	O182	0.325660	0.702330	0.256350
C3621	C362	0.323440	0.730500	0.247590
C3631	C363	0.417250	0.749140	0.153960
C3641	C364	0.322030	0.669000	0.174000
N4541	N454	0.412000	0.773000	0.199100
N4551	N455	0.301300	0.666900	0.198700
H2711	H271	0.283600	0.656300	0.196400
H2721	H272	0.305700	0.676100	0.216800
N4561	N456	0.415500	0.726400	0.130100
H2731	H273	0.403000	0.710000	0.132300
H2741	H274	0.427000	0.728500	0.112900
N4571	N457	0.316730	0.655700	0.146160
N4581	N458	0.340800	0.667100	0.126700
N4591	N459	0.433000	0.788500	0.182600
C3651	C365	0.277790	0.741430	0.286040
H2751	H275	0.284000	0.723200	0.297700
O1831	O183	0.257800	0.653600	0.102600
N4601	N460	0.359200	0.685100	0.143000
C3661	C366	0.206500	0.693300	0.089600
H2761	H276	0.219300	0.697500	0.107600
O1841	O184	0.246900	0.622100	0.060500
C3671	C367	0.213000	0.667800	0.069900
C3681	C368	0.241500	0.646100	0.077500
Zn471	Zn47	0.872420	0.216490	0.203880
O1851	O185	0.841830	0.243940	0.226740
N4611	N461	0.900820	0.248110	0.181060
N4621	N462	0.847400	0.189300	0.173170
N4631	N463	0.938360	0.273700	0.153820
C3691	C369	0.795230	0.251270	0.259000
O1861	O186	0.825660	0.202330	0.256350
C3701	C370	0.823440	0.230500	0.247590
C3711	C371	0.917250	0.249140	0.153960
C3721	C372	0.822030	0.169000	0.174000
N4641	N464	0.912000	0.273000	0.199100
N4651	N465	0.801300	0.166900	0.198700
H2771	H277	0.783600	0.156300	0.196400
H2781	H278	0.805700	0.176100	0.216800
N4661	N466	0.915500	0.226400	0.130100
H2791	H279	0.903000	0.210000	0.132300
H2801	H280	0.927000	0.228500	0.112900
N4671	N467	0.816730	0.155700	0.146160
N4681	N468	0.840800	0.167100	0.126700
N4691	N469	0.933000	0.288500	0.182600
C3731	C373	0.777790	0.241430	0.286040
H2811	H281	0.784000	0.223200	0.297700
O1871	O187	0.757800	0.153600	0.102600
N4701	N470	0.859200	0.185100	0.143000
C3741	C374	0.706500	0.193300	0.089600
H2821	H282	0.719300	0.197500	0.107600
O1881	O188	0.746900	0.122100	0.060500
C3751	C375	0.713000	0.167800	0.069900
C3761	C376	0.741500	0.146100	0.077500
Zn481	Zn48	0.872420	0.716490	0.703880
O1891	O189	0.841830	0.743940	0.726740
N4711	N471	0.900820	0.748110	0.681060
N4721	N472	0.847400	0.689300	0.673170
N4731	N473	0.938360	0.773700	0.653820
C3771	C377	0.795230	0.751270	0.759000
O1901	O190	0.825660	0.702330	0.756350
C3781	C378	0.823440	0.730500	0.747590
C3791	C379	0.917250	0.749140	0.653960
C3801	C380	0.822030	0.669000	0.674000
N4741	N474	0.912000	0.773000	0.699100
N4751	N475	0.801300	0.666900	0.698700
H2831	H283	0.783600	0.656300	0.696400
H2841	H284	0.805700	0.676100	0.716800
N4761	N476	0.915500	0.726400	0.630100
H2851	H285	0.903000	0.710000	0.632300
H2861	H286	0.927000	0.728500	0.612900
N4771	N477	0.816730	0.655700	0.646160
N4781	N478	0.840800	0.667100	0.626700
N4791	N479	0.933000	0.788500	0.682600
C3811	C381	0.777790	0.741430	0.786040
H2871	H287	0.784000	0.723200	0.797700
O1911	O191	0.757800	0.653600	0.602600
N4801	N480	0.859200	0.685100	0.643000
C3821	C382	0.706500	0.693300	0.589600
H2881	H288	0.719300	0.697500	0.607600
O1921	O192	0.746900	0.622100	0.560500
C3831	C383	0.713000	0.667800	0.569900
C3841	C384	0.741500	0.646100	0.577500
Zn491	Zn49	0.296120	0.122420	0.966490
O1931	O193	0.273260	0.091830	0.993940
N4811	N481	0.318940	0.150820	0.998110
N4821	N482	0.326830	0.097400	0.939300
N4831	N483	0.346180	0.188360	0.023700
C3851	C385	0.241000	0.045230	0.001270
O1941	O194	0.243650	0.075660	0.952330
C3861	C386	0.252410	0.073440	0.980500
C3871	C387	0.346040	0.167250	0.999140
C3881	C388	0.326000	0.072030	0.919000
N4841	N484	0.300900	0.162000	0.023000
N4851	N485	0.301300	0.051300	0.916900
H2891	H289	0.303600	0.033600	0.906300
H2901	H290	0.283200	0.055700	0.926100
N4861	N486	0.369900	0.165500	0.976400
H2911	H291	0.367700	0.153000	0.960000
H2921	H292	0.387100	0.177000	0.978500
N4871	N487	0.353840	0.066730	0.905700
N4881	N488	0.373300	0.090800	0.917100
N4891	N489	0.317400	0.183000	0.038500
C3891	C389	0.213960	0.027790	0.991430
H2931	H293	0.202300	0.034000	0.973200
O1951	O195	0.397400	0.007800	0.903600
N4901	N490	0.357000	0.109200	0.935100
C3901	C390	0.410400	0.956500	0.943300
H2941	H294	0.392400	0.969300	0.947500
O1961	O196	0.439500	0.996900	0.872100
C3911	C391	0.430100	0.963000	0.917800
C3921	C392	0.422500	0.991500	0.896100
Zn501	Zn50	0.296120	0.622420	0.466490
O1971	O197	0.273260	0.591830	0.493940
N4911	N491	0.318940	0.650820	0.498110
N4921	N492	0.326830	0.597400	0.439300
N4931	N493	0.346180	0.688360	0.523700
C3931	C393	0.241000	0.545230	0.501270
O1981	O198	0.243650	0.575660	0.452330
C3941	C394	0.252410	0.573440	0.480500
C3951	C395	0.346040	0.667250	0.499140
C3961	C396	0.326000	0.572030	0.419000
N4941	N494	0.300900	0.662000	0.523000
N4951	N495	0.301300	0.551300	0.416900
H2951	H295	0.303600	0.533600	0.406300
H2961	H296	0.283200	0.555700	0.426100
N4961	N496	0.369900	0.665500	0.476400
H2971	H297	0.367700	0.653000	0.460000
H2981	H298	0.387100	0.677000	0.478500
N4971	N497	0.353840	0.566730	0.405700
N4981	N498	0.373300	0.590800	0.417100
N4991	N499	0.317400	0.683000	0.538500
C3971	C397	0.213960	0.527790	0.491430
H2991	H299	0.202300	0.534000	0.473200
O1991	O199	0.397400	0.507800	0.403600
N5001	N500	0.357000	0.609200	0.435100
C3981	C398	0.410400	0.456500	0.443300
H3001	H300	0.392400	0.469300	0.447500
O2001	O200	0.439500	0.496900	0.372100
C3991	C399	0.430100	0.463000	0.417800
C4001	C400	0.422500	0.491500	0.396100
Zn511	Zn51	0.796120	0.122420	0.466490
O2011	O201	0.773260	0.091830	0.493940
N5011	N501	0.818940	0.150820	0.498110
N5021	N502	0.826830	0.097400	0.439300
N5031	N503	0.846180	0.188360	0.523700
C4011	C401	0.741000	0.045230	0.501270
O2021	O202	0.743650	0.075660	0.452330
C4021	C402	0.752410	0.073440	0.480500
C4031	C403	0.846040	0.167250	0.499140
C4041	C404	0.826000	0.072030	0.419000
N5041	N504	0.800900	0.162000	0.523000
N5051	N505	0.801300	0.051300	0.416900
H3011	H301	0.803600	0.033600	0.406300
H3021	H302	0.783200	0.055700	0.426100
N5061	N506	0.869900	0.165500	0.476400
H3031	H303	0.867700	0.153000	0.460000
H3041	H304	0.887100	0.177000	0.478500
N5071	N507	0.853840	0.066730	0.405700
N5081	N508	0.873300	0.090800	0.417100
N5091	N509	0.817400	0.183000	0.538500
C4051	C405	0.713960	0.027790	0.491430
H3051	H305	0.702300	0.034000	0.473200
O2031	O203	0.897400	0.007800	0.403600
N5101	N510	0.857000	0.109200	0.435100
C4061	C406	0.910400	0.956500	0.443300
H3061	H306	0.892400	0.969300	0.447500
O2041	O204	0.939500	0.996900	0.372100
C4071	C407	0.930100	0.963000	0.417800
C4081	C408	0.922500	0.991500	0.396100
Zn521	Zn52	0.796120	0.622420	0.966490
O2051	O205	0.773260	0.591830	0.993940
N5111	N511	0.818940	0.650820	0.998110
N5121	N512	0.826830	0.597400	0.939300
N5131	N513	0.846180	0.688360	0.023700
C4091	C409	0.741000	0.545230	0.001270
O2061	O206	0.743650	0.575660	0.952330
C4101	C410	0.752410	0.573440	0.980500
C4111	C411	0.846040	0.667250	0.999140
C4121	C412	0.826000	0.572030	0.919000
N5141	N514	0.800900	0.662000	0.023000
N5151	N515	0.801300	0.551300	0.916900
H3071	H307	0.803600	0.533600	0.906300
H3081	H308	0.783200	0.555700	0.926100
N5161	N516	0.869900	0.665500	0.976400
H3091	H309	0.867700	0.653000	0.960000
H3101	H310	0.887100	0.677000	0.978500
N5171	N517	0.853840	0.566730	0.905700
N5181	N518	0.873300	0.590800	0.917100
N5191	N519	0.817400	0.683000	0.038500
C4131	C413	0.713960	0.527790	0.991430
H3111	H311	0.702300	0.534000	0.973200
O2071	O207	0.897400	0.507800	0.903600
N5201	N520	0.857000	0.609200	0.935100
C4141	C414	0.910400	0.456500	0.943300
H3121	H312	0.892400	0.469300	0.947500
O2081	O208	0.939500	0.496900	0.872100
C4151	C415	0.930100	0.463000	0.917800
C4161	C416	0.922500	0.491500	0.896100
Zn531	Zn53	0.453880	0.627580	0.966490
O2091	O209	0.476740	0.658170	0.993940
N5211	N521	0.431060	0.599180	0.998110
N5221	N522	0.423170	0.652600	0.939300
N5231	N523	0.403820	0.561640	0.023700
C4171	C417	0.509000	0.704770	0.001270
O2101	O210	0.506350	0.674340	0.952330
C4181	C418	0.497590	0.676560	0.980500
C4191	C419	0.403960	0.582750	0.999140
C4201	C420	0.424000	0.677970	0.919000
N5241	N524	0.449100	0.588000	0.023000
N5251	N525	0.448700	0.698700	0.916900
H3131	H313	0.446400	0.716400	0.906300
H3141	H314	0.466800	0.694300	0.926100
N5261	N526	0.380100	0.584500	0.976400
H3151	H315	0.382300	0.597000	0.960000
H3161	H316	0.362900	0.573000	0.978500
N5271	N527	0.396160	0.683270	0.905700
N5281	N528	0.376700	0.659200	0.917100
N5291	N529	0.432600	0.567000	0.038500
C4211	C421	0.536040	0.722210	0.991430
H3171	H317	0.547700	0.716000	0.973200
O2111	O211	0.352600	0.742200	0.903600
N5301	N530	0.393000	0.640800	0.935100
C4221	C422	0.339600	0.793500	0.943300
H3181	H318	0.357600	0.780700	0.947500
O2121	O212	0.310500	0.753100	0.872100
C4231	C423	0.319900	0.787000	0.917800
C4241	C424	0.327500	0.758500	0.896100
Zn541	Zn54	0.453880	0.127580	0.466490
O2131	O213	0.476740	0.158170	0.493940
N5311	N531	0.431060	0.099180	0.498110
N5321	N532	0.423170	0.152600	0.439300
N5331	N533	0.403820	0.061640	0.523700
C4251	C425	0.509000	0.204770	0.501270
O2141	O214	0.506350	0.174340	0.452330
C4261	C426	0.497590	0.176560	0.480500
C4271	C427	0.403960	0.082750	0.499140
C4281	C428	0.424000	0.177970	0.419000
N5341	N534	0.449100	0.088000	0.523000
N5351	N535	0.448700	0.198700	0.416900
H3191	H319	0.446400	0.216400	0.406300
H3201	H320	0.466800	0.194300	0.426100
N5361	N536	0.380100	0.084500	0.476400
H3211	H321	0.382300	0.097000	0.460000
H3221	H322	0.362900	0.073000	0.478500
N5371	N537	0.396160	0.183270	0.405700
N5381	N538	0.376700	0.159200	0.417100
N5391	N539	0.432600	0.067000	0.538500
C4291	C429	0.536040	0.222210	0.491430
H3231	H323	0.547700	0.216000	0.473200
O2151	O215	0.352600	0.242200	0.403600
N5401	N540	0.393000	0.140800	0.435100
C4301	C430	0.339600	0.293500	0.443300
H3241	H324	0.357600	0.280700	0.447500
O2161	O216	0.310500	0.253100	0.372100
C4311	C431	0.319900	0.287000	0.417800
C4321	C432	0.327500	0.258500	0.396100
Zn551	Zn55	0.953880	0.627580	0.466490
O2171	O217	0.976740	0.658170	0.493940
N5411	N541	0.931060	0.599180	0.498110
N5421	N542	0.923170	0.652600	0.439300
N5431	N543	0.903820	0.561640	0.523700
C4331	C433	0.009000	0.704770	0.501270
O2181	O218	0.006350	0.674340	0.452330
C4341	C434	0.997590	0.676560	0.480500
C4351	C435	0.903960	0.582750	0.499140
C4361	C436	0.924000	0.677970	0.419000
N5441	N544	0.949100	0.588000	0.523000
N5451	N545	0.948700	0.698700	0.416900
H3251	H325	0.946400	0.716400	0.406300
H3261	H326	0.966800	0.694300	0.426100
N5461	N546	0.880100	0.584500	0.476400
H3271	H327	0.882300	0.597000	0.460000
H3281	H328	0.862900	0.573000	0.478500
N5471	N547	0.896160	0.683270	0.405700
N5481	N548	0.876700	0.659200	0.417100
N5491	N549	0.932600	0.567000	0.538500
C4371	C437	0.036040	0.722210	0.491430
H3291	H329	0.047700	0.716000	0.473200
O2191	O219	0.852600	0.742200	0.403600
N5501	N550	0.893000	0.640800	0.435100
C4381	C438	0.839600	0.793500	0.443300
H3301	H330	0.857600	0.780700	0.447500
O2201	O220	0.810500	0.753100	0.372100
C4391	C439	0.819900	0.787000	0.417800
C4401	C440	0.827500	0.758500	0.396100
Zn561	Zn56	0.953880	0.127580	0.966490
O2211	O221	0.976740	0.158170	0.993940
N5511	N551	0.931060	0.099180	0.998110
N5521	N552	0.923170	0.152600	0.939300
N5531	N553	0.903820	0.061640	0.023700
C4411	C441	0.009000	0.204770	0.001270
O2221	O222	0.006350	0.174340	0.952330
C4421	C442	0.997590	0.176560	0.980500
C4431	C443	0.903960	0.082750	0.999140
C4441	C444	0.924000	0.177970	0.919000
N5541	N554	0.949100	0.088000	0.023000
N5551	N555	0.948700	0.198700	0.916900
H3311	H331	0.946400	0.216400	0.906300
H3321	H332	0.966800	0.194300	0.926100
N5561	N556	0.880100	0.084500	0.976400
H3331	H333	0.882300	0.097000	0.960000
H3341	H334	0.862900	0.073000	0.978500
N5571	N557	0.896160	0.183270	0.905700
N5581	N558	0.876700	0.159200	0.917100
N5591	N559	0.932600	0.067000	0.038500
C4451	C445	0.036040	0.222210	0.991430
H3351	H335	0.047700	0.216000	0.973200
O2231	O223	0.852600	0.242200	0.903600
N5601	N560	0.893000	0.140800	0.935100
C4461	C446	0.839600	0.293500	0.943300
H3361	H336	0.857600	0.280700	0.947500
O2241	O224	0.810500	0.253100	0.872100
C4471	C447	0.819900	0.287000	0.917800
C4481	C448	0.827500	0.258500	0.896100
Zn571	Zn57	0.453880	0.122420	0.783510
O2251	O225	0.476740	0.091830	0.756060
N5611	N561	0.431060	0.150820	0.751890
N5621	N562	0.423170	0.097400	0.810700
N5631	N563	0.403820	0.188360	0.726300
C4491	C449	0.509000	0.045230	0.748730
O2261	O226	0.506350	0.075660	0.797670
C4501	C450	0.497590	0.073440	0.769500
C4511	C451	0.403960	0.167250	0.750860
C4521	C452	0.424000	0.072030	0.831000
N5641	N564	0.449100	0.162000	0.727000
N5651	N565	0.448700	0.051300	0.833100
H3371	H337	0.446400	0.033600	0.843700
H3381	H338	0.466800	0.055700	0.823900
N5661	N566	0.380100	0.165500	0.773600
H3391	H339	0.382300	0.153000	0.790000
H3401	H340	0.362900	0.177000	0.771500
N5671	N567	0.396160	0.066730	0.844300
N5681	N568	0.376700	0.090800	0.832900
N5691	N569	0.432600	0.183000	0.711500
C4531	C453	0.536040	0.027790	0.758570
H3411	H341	0.547700	0.034000	0.776800
O2271	O227	0.352600	0.007800	0.846400
N5701	N570	0.393000	0.109200	0.814900
C4541	C454	0.339600	0.956500	0.806700
H3421	H342	0.357600	0.969300	0.802500
O2281	O228	0.310500	0.996900	0.877900
C4551	C455	0.319900	0.963000	0.832200
C4561	C456	0.327500	0.991500	0.853900
Zn581	Zn58	0.453880	0.622420	0.283510
O2291	O229	0.476740	0.591830	0.256060
N5711	N571	0.431060	0.650820	0.251890
N5721	N572	0.423170	0.597400	0.310700
N5731	N573	0.403820	0.688360	0.226300
C4571	C457	0.509000	0.545230	0.248730
O2301	O230	0.506350	0.575660	0.297670
C4581	C458	0.497590	0.573440	0.269500
C4591	C459	0.403960	0.667250	0.250860
C4601	C460	0.424000	0.572030	0.331000
N5741	N574	0.449100	0.662000	0.227000
N5751	N575	0.448700	0.551300	0.333100
H3431	H343	0.446400	0.533600	0.343700
H3441	H344	0.466800	0.555700	0.323900
N5761	N576	0.380100	0.665500	0.273600
H3451	H345	0.382300	0.653000	0.290000
H3461	H346	0.362900	0.677000	0.271500
N5771	N577	0.396160	0.566730	0.344300
N5781	N578	0.376700	0.590800	0.332900
N5791	N579	0.432600	0.683000	0.211500
C4611	C461	0.536040	0.527790	0.258570
H3471	H347	0.547700	0.534000	0.276800
O2311	O231	0.352600	0.507800	0.346400
N5801	N580	0.393000	0.609200	0.314900
C4621	C462	0.339600	0.456500	0.306700
H3481	H348	0.357600	0.469300	0.302500
O2321	O232	0.310500	0.496900	0.377900
C4631	C463	0.319900	0.463000	0.332200
C4641	C464	0.327500	0.491500	0.353900
Zn591	Zn59	0.953880	0.122420	0.283510
O2331	O233	0.976740	0.091830	0.256060
N5811	N581	0.931060	0.150820	0.251890
N5821	N582	0.923170	0.097400	0.310700
N5831	N583	0.903820	0.188360	0.226300
C4651	C465	0.009000	0.045230	0.248730
O2341	O234	0.006350	0.075660	0.297670
C4661	C466	0.997590	0.073440	0.269500
C4671	C467	0.903960	0.167250	0.250860
C4681	C468	0.924000	0.072030	0.331000
N5841	N584	0.949100	0.162000	0.227000
N5851	N585	0.948700	0.051300	0.333100
H3491	H349	0.946400	0.033600	0.343700
H3501	H350	0.966800	0.055700	0.323900
N5861	N586	0.880100	0.165500	0.273600
H3511	H351	0.882300	0.153000	0.290000
H3521	H352	0.862900	0.177000	0.271500
N5871	N587	0.896160	0.066730	0.344300
N5881	N588	0.876700	0.090800	0.332900
N5891	N589	0.932600	0.183000	0.211500
C4691	C469	0.036040	0.027790	0.258570
H3531	H353	0.047700	0.034000	0.276800
O2351	O235	0.852600	0.007800	0.346400
N5901	N590	0.893000	0.109200	0.314900
C4701	C470	0.839600	0.956500	0.306700
H3541	H354	0.857600	0.969300	0.302500
O2361	O236	0.810500	0.996900	0.377900
C4711	C471	0.819900	0.963000	0.332200
C4721	C472	0.827500	0.991500	0.353900
Zn601	Zn60	0.953880	0.622420	0.783510
O2371	O237	0.976740	0.591830	0.756060
N5911	N591	0.931060	0.650820	0.751890
N5921	N592	0.923170	0.597400	0.810700
N5931	N593	0.903820	0.688360	0.726300
C4731	C473	0.009000	0.545230	0.748730
O2381	O238	0.006350	0.575660	0.797670
C4741	C474	0.997590	0.573440	0.769500
C4751	C475	0.903960	0.667250	0.750860
C4761	C476	0.924000	0.572030	0.831000
N5941	N594	0.949100	0.662000	0.727000
N5951	N595	0.948700	0.551300	0.833100
H3551	H355	0.946400	0.533600	0.843700
H3561	H356	0.966800	0.555700	0.823900
N5961	N596	0.880100	0.665500	0.773600
H3571	H357	0.882300	0.653000	0.790000
H3581	H358	0.862900	0.677000	0.771500
N5971	N597	0.896160	0.566730	0.844300
N5981	N598	0.876700	0.590800	0.832900
N5991	N599	0.932600	0.683000	0.711500
C4771	C477	0.036040	0.527790	0.758570
H3591	H359	0.047700	0.534000	0.776800
O2391	O239	0.852600	0.507800	0.846400
N6001	N600	0.893000	0.609200	0.814900
C4781	C478	0.839600	0.456500	0.806700
H3601	H360	0.857600	0.469300	0.802500
O2401	O240	0.810500	0.496900	0.877900
C4791	C479	0.819900	0.463000	0.832200
C4801	C480	0.827500	0.491500	0.853900
Zn611	Zn61	0.296120	0.627580	0.783510
O2411	O241	0.273260	0.658170	0.756060
N6011	N601	0.318940	0.599180	0.751890
N6021	N602	0.326830	0.652600	0.810700
N6031	N603	0.346180	0.561640	0.726300
C4811	C481	0.241000	0.704770	0.748730
O2421	O242	0.243650	0.674340	0.797670
C4821	C482	0.252410	0.676560	0.769500
C4831	C483	0.346040	0.582750	0.750860
C4841	C484	0.326000	0.677970	0.831000
N6041	N604	0.300900	0.588000	0.727000
N6051	N605	0.301300	0.698700	0.833100
H3611	H361	0.303600	0.716400	0.843700
H3621	H362	0.283200	0.694300	0.823900
N6061	N606	0.369900	0.584500	0.773600
H3631	H363	0.367700	0.597000	0.790000
H3641	H364	0.387100	0.573000	0.771500
N6071	N607	0.353840	0.683270	0.844300
N6081	N608	0.373300	0.659200	0.832900
N6091	N609	0.317400	0.567000	0.711500
C4851	C485	0.213960	0.722210	0.758570
H3651	H365	0.202300	0.716000	0.776800
O2431	O243	0.397400	0.742200	0.846400
N6101	N610	0.357000	0.640800	0.814900
C4861	C486	0.410400	0.793500	0.806700
H3661	H366	0.392400	0.780700	0.802500
O2441	O244	0.439500	0.753100	0.877900
C4871	C487	0.430100	0.787000	0.832200
C4881	C488	0.422500	0.758500	0.853900
Zn621	Zn62	0.296120	0.127580	0.283510
O2451	O245	0.273260	0.158170	0.256060
N6111	N611	0.318940	0.099180	0.251890
N6121	N612	0.326830	0.152600	0.310700
N6131	N613	0.346180	0.061640	0.226300
C4891	C489	0.241000	0.204770	0.248730
O2461	O246	0.243650	0.174340	0.297670
C4901	C490	0.252410	0.176560	0.269500
C4911	C491	0.346040	0.082750	0.250860
C4921	C492	0.326000	0.177970	0.331000
N6141	N614	0.300900	0.088000	0.227000
N6151	N615	0.301300	0.198700	0.333100
H3671	H367	0.303600	0.216400	0.343700
H3681	H368	0.283200	0.194300	0.323900
N6161	N616	0.369900	0.084500	0.273600
H3691	H369	0.367700	0.097000	0.290000
H3701	H370	0.387100	0.073000	0.271500
N6171	N617	0.353840	0.183270	0.344300
N6181	N618	0.373300	0.159200	0.332900
N6191	N619	0.317400	0.067000	0.211500
C4931	C493	0.213960	0.222210	0.258570
H3711	H371	0.202300	0.216000	0.276800
O2471	O247	0.397400	0.242200	0.346400
N6201	N620	0.357000	0.140800	0.314900
C4941	C494	0.410400	0.293500	0.306700
H3721	H372	0.392400	0.280700	0.302500
O2481	O248	0.439500	0.253100	0.377900
C4951	C495	0.430100	0.287000	0.332200
C4961	C496	0.422500	0.258500	0.353900
Zn631	Zn63	0.796120	0.627580	0.283510
O2491	O249	0.773260	0.658170	0.256060
N6211	N621	0.818940	0.599180	0.251890
N6221	N622	0.826830	0.652600	0.310700
N6231	N623	0.846180	0.561640	0.226300
C4971	C497	0.741000	0.704770	0.248730
O2501	O250	0.743650	0.674340	0.297670
C4981	C498	0.752410	0.676560	0.269500
C4991	C499	0.846040	0.582750	0.250860
C5001	C500	0.826000	0.677970	0.331000
N6241	N624	0.800900	0.588000	0.227000
N6251	N625	0.801300	0.698700	0.333100
H3731	H373	0.803600	0.716400	0.343700
H3741	H374	0.783200	0.694300	0.323900
N6261	N626	0.869900	0.584500	0.273600
H3751	H375	0.867700	0.597000	0.290000
H3761	H376	0.887100	0.573000	0.271500
N6271	N627	0.853840	0.683270	0.344300
N6281	N628	0.873300	0.659200	0.332900
N6291	N629	0.817400	0.567000	0.211500
C5011	C501	0.713960	0.722210	0.258570
H3771	H377	0.702300	0.716000	0.276800
O2511	O251	0.897400	0.742200	0.346400
N6301	N630	0.857000	0.640800	0.314900
C5021	C502	0.910400	0.793500	0.306700
H3781	H378	0.892400	0.780700	0.302500
O2521	O252	0.939500	0.753100	0.377900
C5031	C503	0.930100	0.787000	0.332200
C5041	C504	0.922500	0.758500	0.353900
Zn641	Zn64	0.796120	0.127580	0.783510
O2531	O253	0.773260	0.158170	0.756060
N6311	N631	0.818940	0.099180	0.751890
N6321	N632	0.826830	0.152600	0.810700
N6331	N633	0.846180	0.061640	0.726300
C5051	C505	0.741000	0.204770	0.748730
O2541	O254	0.743650	0.174340	0.797670
C5061	C506	0.752410	0.176560	0.769500
C5071	C507	0.846040	0.082750	0.750860
C5081	C508	0.826000	0.177970	0.831000
N6341	N634	0.800900	0.088000	0.727000
N6351	N635	0.801300	0.198700	0.833100
H3791	H379	0.803600	0.216400	0.843700
H3801	H380	0.783200	0.194300	0.823900
N6361	N636	0.869900	0.084500	0.773600
H3811	H381	0.867700	0.097000	0.790000
H3821	H382	0.887100	0.073000	0.771500
N6371	N637	0.853840	0.183270	0.844300
N6381	N638	0.873300	0.159200	0.832900
N6391	N639	0.817400	0.067000	0.711500
C5091	C509	0.713960	0.222210	0.758570
H3831	H383	0.702300	0.216000	0.776800
O2551	O255	0.897400	0.242200	0.846400
N6401	N640	0.857000	0.140800	0.814900
C5101	C510	0.910400	0.293500	0.806700
H3841	H384	0.892400	0.280700	0.802500
O2561	O256	0.939500	0.253100	0.877900
C5111	C511	0.930100	0.287000	0.832200
C5121	C512	0.922500	0.258500	0.853900
Zn651	Zn65	0.966490	0.296120	0.122420
O2571	O257	0.993940	0.273260	0.091830
N6411	N641	0.998110	0.318940	0.150820
N6421	N642	0.939300	0.326830	0.097400
N6431	N643	0.023700	0.346180	0.188360
C5131	C513	0.001270	0.241000	0.045230
O2581	O258	0.952330	0.243650	0.075660
C5141	C514	0.980500	0.252410	0.073440
C5151	C515	0.999140	0.346040	0.167250
C5161	C516	0.919000	0.326000	0.072030
N6441	N644	0.023000	0.300900	0.162000
N6451	N645	0.916900	0.301300	0.051300
H3851	H385	0.906300	0.303600	0.033600
H3861	H386	0.926100	0.283200	0.055700
N6461	N646	0.976400	0.369900	0.165500
H3871	H387	0.960000	0.367700	0.153000
H3881	H388	0.978500	0.387100	0.177000
N6471	N647	0.905700	0.353840	0.066730
N6481	N648	0.917100	0.373300	0.090800
N6491	N649	0.038500	0.317400	0.183000
C5171	C517	0.991430	0.213960	0.027790
H3891	H389	0.973200	0.202300	0.034000
O2591	O259	0.903600	0.397400	0.007800
N6501	N650	0.935100	0.357000	0.109200
C5181	C518	0.943300	0.410400	0.956500
H3901	H390	0.947500	0.392400	0.969300
O2601	O260	0.872100	0.439500	0.996900
C5191	C519	0.917800	0.430100	0.963000
C5201	C520	0.896100	0.422500	0.991500
Zn661	Zn66	0.966490	0.796120	0.622420
O2611	O261	0.993940	0.773260	0.591830
N6511	N651	0.998110	0.818940	0.650820
N6521	N652	0.939300	0.826830	0.597400
N6531	N653	0.023700	0.846180	0.688360
C5211	C521	0.001270	0.741000	0.545230
O2621	O262	0.952330	0.743650	0.575660
C5221	C522	0.980500	0.752410	0.573440
C5231	C523	0.999140	0.846040	0.667250
C5241	C524	0.919000	0.826000	0.572030
N6541	N654	0.023000	0.800900	0.662000
N6551	N655	0.916900	0.801300	0.551300
H3911	H391	0.906300	0.803600	0.533600
H3921	H392	0.926100	0.783200	0.555700
N6561	N656	0.976400	0.869900	0.665500
H3931	H393	0.960000	0.867700	0.653000
H3941	H394	0.978500	0.887100	0.677000
N6571	N657	0.905700	0.853840	0.566730
N6581	N658	0.917100	0.873300	0.590800
N6591	N659	0.038500	0.817400	0.683000
C5251	C525	0.991430	0.713960	0.527790
H3951	H395	0.973200	0.702300	0.534000
O2631	O263	0.903600	0.897400	0.507800
N6601	N660	0.935100	0.857000	0.609200
C5261	C526	0.943300	0.910400	0.456500
H3961	H396	0.947500	0.892400	0.469300
O2641	O264	0.872100	0.939500	0.496900
C5271	C527	0.917800	0.930100	0.463000
C5281	C528	0.896100	0.922500	0.491500
Zn671	Zn67	0.466490	0.296120	0.622420
O2651	O265	0.493940	0.273260	0.591830
N6611	N661	0.498110	0.318940	0.650820
N6621	N662	0.439300	0.326830	0.597400
N6631	N663	0.523700	0.346180	0.688360
C5291	C529	0.501270	0.241000	0.545230
O2661	O266	0.452330	0.243650	0.575660
C5301	C530	0.480500	0.252410	0.573440
C5311	C531	0.499140	0.346040	0.667250
C5321	C532	0.419000	0.326000	0.572030
N6641	N664	0.523000	0.300900	0.662000
N6651	N665	0.416900	0.301300	0.551300
H3971	H397	0.406300	0.303600	0.533600
H3981	H398	0.426100	0.283200	0.555700
N6661	N666	0.476400	0.369900	0.665500
H3991	H399	0.460000	0.367700	0.653000
H4001	H400	0.478500	0.387100	0.677000
N6671	N667	0.405700	0.353840	0.566730
N6681	N668	0.417100	0.373300	0.590800
N6691	N669	0.538500	0.317400	0.683000
C5331	C533	0.491430	0.213960	0.527790
H4011	H401	0.473200	0.202300	0.534000
O2671	O267	0.403600	0.397400	0.507800
N6701	N670	0.435100	0.357000	0.609200
C5341	C534	0.443300	0.410400	0.456500
H4021	H402	0.447500	0.392400	0.469300
O2681	O268	0.372100	0.439500	0.496900
C5351	C535	0.417800	0.430100	0.463000
C5361	C536	0.396100	0.422500	0.491500
Zn681	Zn68	0.466490	0.796120	0.122420
O2691	O269	0.493940	0.773260	0.091830
N6711	N671	0.498110	0.818940	0.150820
N6721	N672	0.439300	0.826830	0.097400
N6731	N673	0.523700	0.846180	0.188360
C5371	C537	0.501270	0.741000	0.045230
O2701	O270	0.452330	0.743650	0.075660
C5381	C538	0.480500	0.752410	0.073440
C5391	C539	0.499140	0.846040	0.167250
C5401	C540	0.419000	0.826000	0.072030
N6741	N674	0.523000	0.800900	0.162000
N6751	N675	0.416900	0.801300	0.051300
H4031	H403	0.406300	0.803600	0.033600
H4041	H404	0.426100	0.783200	0.055700
N6761	N676	0.476400	0.869900	0.165500
H4051	H405	0.460000	0.867700	0.153000
H4061	H406	0.478500	0.887100	0.177000
N6771	N677	0.405700	0.853840	0.066730
N6781	N678	0.417100	0.873300	0.090800
N6791	N679	0.538500	0.817400	0.183000
C5411	C541	0.491430	0.713960	0.027790
H4071	H407	0.473200	0.702300	0.034000
O2711	O271	0.403600	0.897400	0.007800
N6801	N680	0.435100	0.857000	0.109200
C5421	C542	0.443300	0.910400	0.956500
H4081	H408	0.447500	0.892400	0.969300
O2721	O272	0.372100	0.939500	0.996900
C5431	C543	0.417800	0.930100	0.963000
C5441	C544	0.396100	0.922500	0.991500
Zn691	Zn69	0.966490	0.453880	0.627580
O2731	O273	0.993940	0.476740	0.658170
N6811	N681	0.998110	0.431060	0.599180
N6821	N682	0.939300	0.423170	0.652600
N6831	N683	0.023700	0.403820	0.561640
C5451	C545	0.001270	0.509000	0.704770
O2741	O274	0.952330	0.506350	0.674340
C5461	C546	0.980500	0.497590	0.676560
C5471	C547	0.999140	0.403960	0.582750
C5481	C548	0.919000	0.424000	0.677970
N6841	N684	0.023000	0.449100	0.588000
N6851	N685	0.916900	0.448700	0.698700
H4091	H409	0.906300	0.446400	0.716400
H4101	H410	0.926100	0.466800	0.694300
N6861	N686	0.976400	0.380100	0.584500
H4111	H411	0.960000	0.382300	0.597000
H4121	H412	0.978500	0.362900	0.573000
N6871	N687	0.905700	0.396160	0.683270
N6881	N688	0.917100	0.376700	0.659200
N6891	N689	0.038500	0.432600	0.567000
C5491	C549	0.991430	0.536040	0.722210
H4131	H413	0.973200	0.547700	0.716000
O2751	O275	0.903600	0.352600	0.742200
N6901	N690	0.935100	0.393000	0.640800
C5501	C550	0.943300	0.339600	0.793500
H4141	H414	0.947500	0.357600	0.780700
O2761	O276	0.872100	0.310500	0.753100
C5511	C551	0.917800	0.319900	0.787000
C5521	C552	0.896100	0.327500	0.758500
Zn701	Zn70	0.966490	0.953880	0.127580
O2771	O277	0.993940	0.976740	0.158170
N6911	N691	0.998110	0.931060	0.099180
N6921	N692	0.939300	0.923170	0.152600
N6931	N693	0.023700	0.903820	0.061640
C5531	C553	0.001270	0.009000	0.204770
O2781	O278	0.952330	0.006350	0.174340
C5541	C554	0.980500	0.997590	0.176560
C5551	C555	0.999140	0.903960	0.082750
C5561	C556	0.919000	0.924000	0.177970
N6941	N694	0.023000	0.949100	0.088000
N6951	N695	0.916900	0.948700	0.198700
H4151	H415	0.906300	0.946400	0.216400
H4161	H416	0.926100	0.966800	0.194300
N6961	N696	0.976400	0.880100	0.084500
H4171	H417	0.960000	0.882300	0.097000
H4181	H418	0.978500	0.862900	0.073000
N6971	N697	0.905700	0.896160	0.183270
N6981	N698	0.917100	0.876700	0.159200
N6991	N699	0.038500	0.932600	0.067000
C5571	C557	0.991430	0.036040	0.222210
H4191	H419	0.973200	0.047700	0.216000
O2791	O279	0.903600	0.852600	0.242200
N7001	N700	0.935100	0.893000	0.140800
C5581	C558	0.943300	0.839600	0.293500
H4201	H420	0.947500	0.857600	0.280700
O2801	O280	0.872100	0.810500	0.253100
C5591	C559	0.917800	0.819900	0.287000
C5601	C560	0.896100	0.827500	0.258500
Zn711	Zn71	0.466490	0.453880	0.127580
O2811	O281	0.493940	0.476740	0.158170
N7011	N701	0.498110	0.431060	0.099180
N7021	N702	0.439300	0.423170	0.152600
N7031	N703	0.523700	0.403820	0.061640
C5611	C561	0.501270	0.509000	0.204770
O2821	O282	0.452330	0.506350	0.174340
C5621	C562	0.480500	0.497590	0.176560
C5631	C563	0.499140	0.403960	0.082750
C5641	C564	0.419000	0.424000	0.177970
N7041	N704	0.523000	0.449100	0.088000
N7051	N705	0.416900	0.448700	0.198700
H4211	H421	0.406300	0.446400	0.216400
H4221	H422	0.426100	0.466800	0.194300
N7061	N706	0.476400	0.380100	0.084500
H4231	H423	0.460000	0.382300	0.097000
H4241	H424	0.478500	0.362900	0.073000
N7071	N707	0.405700	0.396160	0.183270
N7081	N708	0.417100	0.376700	0.159200
N7091	N709	0.538500	0.432600	0.067000
C5651	C565	0.491430	0.536040	0.222210
H4251	H425	0.473200	0.547700	0.216000
O2831	O283	0.403600	0.352600	0.242200
N7101	N710	0.435100	0.393000	0.140800
C5661	C566	0.443300	0.339600	0.293500
H4261	H426	0.447500	0.357600	0.280700
O2841	O284	0.372100	0.310500	0.253100
C5671	C567	0.417800	0.319900	0.287000
C5681	C568	0.396100	0.327500	0.258500
Zn721	Zn72	0.466490	0.953880	0.627580
O2851	O285	0.493940	0.976740	0.658170
N7111	N711	0.498110	0.931060	0.599180
N7121	N712	0.439300	0.923170	0.652600
N7131	N713	0.523700	0.903820	0.561640
C5691	C569	0.501270	0.009000	0.704770
O2861	O286	0.452330	0.006350	0.674340
C5701	C570	0.480500	0.997590	0.676560
C5711	C571	0.499140	0.903960	0.582750
C5721	C572	0.419000	0.924000	0.677970
N7141	N714	0.523000	0.949100	0.588000
N7151	N715	0.416900	0.948700	0.698700
H4271	H427	0.406300	0.946400	0.716400
H4281	H428	0.426100	0.966800	0.694300
N7161	N716	0.476400	0.880100	0.584500
H4291	H429	0.460000	0.882300	0.597000
H4301	H430	0.478500	0.862900	0.573000
N7171	N717	0.405700	0.896160	0.683270
N7181	N718	0.417100	0.876700	0.659200
N7191	N719	0.538500	0.932600	0.567000
C5731	C573	0.491430	0.036040	0.722210
H4311	H431	0.473200	0.047700	0.716000
O2871	O287	0.403600	0.852600	0.742200
N7201	N720	0.435100	0.893000	0.640800
C5741	C574	0.443300	0.839600	0.793500
H4321	H432	0.447500	0.857600	0.780700
O2881	O288	0.372100	0.810500	0.753100
C5751	C575	0.417800	0.819900	0.787000
C5761	C576	0.396100	0.827500	0.758500
Zn731	Zn73	0.783510	0.453880	0.122420
O2891	O289	0.756060	0.476740	0.091830
N7211	N721	0.751890	0.431060	0.150820
N7221	N722	0.810700	0.423170	0.097400
N7231	N723	0.726300	0.403820	0.188360
C5771	C577	0.748730	0.509000	0.045230
O2901	O290	0.797670	0.506350	0.075660
C5781	C578	0.769500	0.497590	0.073440
C5791	C579	0.750860	0.403960	0.167250
C5801	C580	0.831000	0.424000	0.072030
N7241	N724	0.727000	0.449100	0.162000
N7251	N725	0.833100	0.448700	0.051300
H4331	H433	0.843700	0.446400	0.033600
H4341	H434	0.823900	0.466800	0.055700
N7261	N726	0.773600	0.380100	0.165500
H4351	H435	0.790000	0.382300	0.153000
H4361	H436	0.771500	0.362900	0.177000
N7271	N727	0.844300	0.396160	0.066730
N7281	N728	0.832900	0.376700	0.090800
N7291	N729	0.711500	0.432600	0.183000
C5811	C581	0.758570	0.536040	0.027790
H4371	H437	0.776800	0.547700	0.034000
O2911	O291	0.846400	0.352600	0.007800
N7301	N730	0.814900	0.393000	0.109200
C5821	C582	0.806700	0.339600	0.956500
H4381	H438	0.802500	0.357600	0.969300
O2921	O292	0.877900	0.310500	0.996900
C5831	C583	0.832200	0.319900	0.963000
C5841	C584	0.853900	0.327500	0.991500
Zn741	Zn74	0.783510	0.953880	0.622420
O2931	O293	0.756060	0.976740	0.591830
N7311	N731	0.751890	0.931060	0.650820
N7321	N732	0.810700	0.923170	0.597400
N7331	N733	0.726300	0.903820	0.688360
C5851	C585	0.748730	0.009000	0.545230
O2941	O294	0.797670	0.006350	0.575660
C5861	C586	0.769500	0.997590	0.573440
C5871	C587	0.750860	0.903960	0.667250
C5881	C588	0.831000	0.924000	0.572030
N7341	N734	0.727000	0.949100	0.662000
N7351	N735	0.833100	0.948700	0.551300
H4391	H439	0.843700	0.946400	0.533600
H4401	H440	0.823900	0.966800	0.555700
N7361	N736	0.773600	0.880100	0.665500
H4411	H441	0.790000	0.882300	0.653000
H4421	H442	0.771500	0.862900	0.677000
N7371	N737	0.844300	0.896160	0.566730
N7381	N738	0.832900	0.876700	0.590800
N7391	N739	0.711500	0.932600	0.683000
C5891	C589	0.758570	0.036040	0.527790
H4431	H443	0.776800	0.047700	0.534000
O2951	O295	0.846400	0.852600	0.507800
N7401	N740	0.814900	0.893000	0.609200
C5901	C590	0.806700	0.839600	0.456500
H4441	H444	0.802500	0.857600	0.469300
O2961	O296	0.877900	0.810500	0.496900
C5911	C591	0.832200	0.819900	0.463000
C5921	C592	0.853900	0.827500	0.491500
Zn751	Zn75	0.283510	0.453880	0.622420
O2971	O297	0.256060	0.476740	0.591830
N7411	N741	0.251890	0.431060	0.650820
N7421	N742	0.310700	0.423170	0.597400
N7431	N743	0.226300	0.403820	0.688360
C5931	C593	0.248730	0.509000	0.545230
O2981	O298	0.297670	0.506350	0.575660
C5941	C594	0.269500	0.497590	0.573440
C5951	C595	0.250860	0.403960	0.667250
C5961	C596	0.331000	0.424000	0.572030
N7441	N744	0.227000	0.449100	0.662000
N7451	N745	0.333100	0.448700	0.551300
H4451	H445	0.343700	0.446400	0.533600
H4461	H446	0.323900	0.466800	0.555700
N7461	N746	0.273600	0.380100	0.665500
H4471	H447	0.290000	0.382300	0.653000
H4481	H448	0.271500	0.362900	0.677000
N7471	N747	0.344300	0.396160	0.566730
N7481	N748	0.332900	0.376700	0.590800
N7491	N749	0.211500	0.432600	0.683000
C5971	C597	0.258570	0.536040	0.527790
H4491	H449	0.276800	0.547700	0.534000
O2991	O299	0.346400	0.352600	0.507800
N7501	N750	0.314900	0.393000	0.609200
C5981	C598	0.306700	0.339600	0.456500
H4501	H450	0.302500	0.357600	0.469300
O3001	O300	0.377900	0.310500	0.496900
C5991	C599	0.332200	0.319900	0.463000
C6001	C600	0.353900	0.327500	0.491500
Zn761	Zn76	0.283510	0.953880	0.122420
O3011	O301	0.256060	0.976740	0.091830
N7511	N751	0.251890	0.931060	0.150820
N7521	N752	0.310700	0.923170	0.097400
N7531	N753	0.226300	0.903820	0.188360
C6011	C601	0.248730	0.009000	0.045230
O3021	O302	0.297670	0.006350	0.075660
C6021	C602	0.269500	0.997590	0.073440
C6031	C603	0.250860	0.903960	0.167250
C6041	C604	0.331000	0.924000	0.072030
N7541	N754	0.227000	0.949100	0.162000
N7551	N755	0.333100	0.948700	0.051300
H4511	H451	0.343700	0.946400	0.033600
H4521	H452	0.323900	0.966800	0.055700
N7561	N756	0.273600	0.880100	0.165500
H4531	H453	0.290000	0.882300	0.153000
H4541	H454	0.271500	0.862900	0.177000
N7571	N757	0.344300	0.896160	0.066730
N7581	N758	0.332900	0.876700	0.090800
N7591	N759	0.211500	0.932600	0.183000
C6051	C605	0.258570	0.036040	0.027790
H4551	H455	0.276800	0.047700	0.034000
O3031	O303	0.346400	0.852600	0.007800
N7601	N760	0.314900	0.893000	0.109200
C6061	C606	0.306700	0.839600	0.956500
H4561	H456	0.302500	0.857600	0.969300
O3041	O304	0.377900	0.810500	0.996900
C6071	C607	0.332200	0.819900	0.963000
C6081	C608	0.353900	0.827500	0.991500
Zn771	Zn77	0.783510	0.296120	0.627580
O3051	O305	0.756060	0.273260	0.658170
N7611	N761	0.751890	0.318940	0.599180
N7621	N762	0.810700	0.326830	0.652600
N7631	N763	0.726300	0.346180	0.561640
C6091	C609	0.748730	0.241000	0.704770
O3061	O306	0.797670	0.243650	0.674340
C6101	C610	0.769500	0.252410	0.676560
C6111	C611	0.750860	0.346040	0.582750
C6121	C612	0.831000	0.326000	0.677970
N7641	N764	0.727000	0.300900	0.588000
N7651	N765	0.833100	0.301300	0.698700
H4571	H457	0.843700	0.303600	0.716400
H4581	H458	0.823900	0.283200	0.694300
N7661	N766	0.773600	0.369900	0.584500
H4591	H459	0.790000	0.367700	0.597000
H4601	H460	0.771500	0.387100	0.573000
N7671	N767	0.844300	0.353840	0.683270
N7681	N768	0.832900	0.373300	0.659200
N7691	N769	0.711500	0.317400	0.567000
C6131	C613	0.758570	0.213960	0.722210
H4611	H461	0.776800	0.202300	0.716000
O3071	O307	0.846400	0.397400	0.742200
N7701	N770	0.814900	0.357000	0.640800
C6141	C614	0.806700	0.410400	0.793500
H4621	H462	0.802500	0.392400	0.780700
O3081	O308	0.877900	0.439500	0.753100
C6151	C615	0.832200	0.430100	0.787000
C6161	C616	0.853900	0.422500	0.758500
Zn781	Zn78	0.783510	0.796120	0.127580
O3091	O309	0.756060	0.773260	0.158170
N7711	N771	0.751890	0.818940	0.099180
N7721	N772	0.810700	0.826830	0.152600
N7731	N773	0.726300	0.846180	0.061640
C6171	C617	0.748730	0.741000	0.204770
O3101	O310	0.797670	0.743650	0.174340
C6181	C618	0.769500	0.752410	0.176560
C6191	C619	0.750860	0.846040	0.082750
C6201	C620	0.831000	0.826000	0.177970
N7741	N774	0.727000	0.800900	0.088000
N7751	N775	0.833100	0.801300	0.198700
H4631	H463	0.843700	0.803600	0.216400
H4641	H464	0.823900	0.783200	0.194300
N7761	N776	0.773600	0.869900	0.084500
H4651	H465	0.790000	0.867700	0.097000
H4661	H466	0.771500	0.887100	0.073000
N7771	N777	0.844300	0.853840	0.183270
N7781	N778	0.832900	0.873300	0.159200
N7791	N779	0.711500	0.817400	0.067000
C6211	C621	0.758570	0.713960	0.222210
H4671	H467	0.776800	0.702300	0.216000
O3111	O311	0.846400	0.897400	0.242200
N7801	N780	0.814900	0.857000	0.140800
C6221	C622	0.806700	0.910400	0.293500
H4681	H468	0.802500	0.892400	0.280700
O3121	O312	0.877900	0.939500	0.253100
C6231	C623	0.832200	0.930100	0.287000
C6241	C624	0.853900	0.922500	0.258500
Zn791	Zn79	0.283510	0.296120	0.127580
O3131	O313	0.256060	0.273260	0.158170
N7811	N781	0.251890	0.318940	0.099180
N7821	N782	0.310700	0.326830	0.152600
N7831	N783	0.226300	0.346180	0.061640
C6251	C625	0.248730	0.241000	0.204770
O3141	O314	0.297670	0.243650	0.174340
C6261	C626	0.269500	0.252410	0.176560
C6271	C627	0.250860	0.346040	0.082750
C6281	C628	0.331000	0.326000	0.177970
N7841	N784	0.227000	0.300900	0.088000
N7851	N785	0.333100	0.301300	0.198700
H4691	H469	0.343700	0.303600	0.216400
H4701	H470	0.323900	0.283200	0.194300
N7861	N786	0.273600	0.369900	0.084500
H4711	H471	0.290000	0.367700	0.097000
H4721	H472	0.271500	0.387100	0.073000
N7871	N787	0.344300	0.353840	0.183270
N7881	N788	0.332900	0.373300	0.159200
N7891	N789	0.211500	0.317400	0.067000
C6291	C629	0.258570	0.213960	0.222210
H4731	H473	0.276800	0.202300	0.216000
O3151	O315	0.346400	0.397400	0.242200
N7901	N790	0.314900	0.357000	0.140800
C6301	C630	0.306700	0.410400	0.293500
H4741	H474	0.302500	0.392400	0.280700
O3161	O316	0.377900	0.439500	0.253100
C6311	C631	0.332200	0.430100	0.287000
C6321	C632	0.353900	0.422500	0.258500
Zn801	Zn80	0.283510	0.796120	0.627580
O3171	O317	0.256060	0.773260	0.658170
N7911	N791	0.251890	0.818940	0.599180
N7921	N792	0.310700	0.826830	0.652600
N7931	N793	0.226300	0.846180	0.561640
C6331	C633	0.248730	0.741000	0.704770
O3181	O318	0.297670	0.743650	0.674340
C6341	C634	0.269500	0.752410	0.676560
C6351	C635	0.250860	0.846040	0.582750
C6361	C636	0.331000	0.826000	0.677970
N7941	N794	0.227000	0.800900	0.588000
N7951	N795	0.333100	0.801300	0.698700
H4751	H475	0.343700	0.803600	0.716400
H4761	H476	0.323900	0.783200	0.694300
N7961	N796	0.273600	0.869900	0.584500
H4771	H477	0.290000	0.867700	0.597000
H4781	H478	0.271500	0.887100	0.573000
N7971	N797	0.344300	0.853840	0.683270
N7981	N798	0.332900	0.873300	0.659200
N7991	N799	0.211500	0.817400	0.567000
C6371	C637	0.258570	0.713960	0.722210
H4791	H479	0.276800	0.702300	0.716000
O3191	O319	0.346400	0.897400	0.742200
N8001	N800	0.314900	0.857000	0.640800
C6381	C638	0.306700	0.910400	0.793500
H4801	H480	0.302500	0.892400	0.780700
O3201	O320	0.377900	0.939500	0.753100
C6391	C639	0.332200	0.930100	0.787000
C6401	C640	0.353900	0.922500	0.758500
Zn811	Zn81	0.122420	0.966490	0.296120
O3211	O321	0.091830	0.993940	0.273260
N8011	N801	0.150820	0.998110	0.318940
N8021	N802	0.097400	0.939300	0.326830
N8031	N803	0.188360	0.023700	0.346180
C6411	C641	0.045230	0.001270	0.241000
O3221	O322	0.075660	0.952330	0.243650
C6421	C642	0.073440	0.980500	0.252410
C6431	C643	0.167250	0.999140	0.346040
C6441	C644	0.072030	0.919000	0.326000
N8041	N804	0.162000	0.023000	0.300900
N8051	N805	0.051300	0.916900	0.301300
H4811	H481	0.033600	0.906300	0.303600
H4821	H482	0.055700	0.926100	0.283200
N8061	N806	0.165500	0.976400	0.369900
H4831	H483	0.153000	0.960000	0.367700
H4841	H484	0.177000	0.978500	0.387100
N8071	N807	0.066730	0.905700	0.353840
N8081	N808	0.090800	0.917100	0.373300
N8091	N809	0.183000	0.038500	0.317400
C6451	C645	0.027790	0.991430	0.213960
H4851	H485	0.034000	0.973200	0.202300
O3231	O323	0.007800	0.903600	0.397400
N8101	N810	0.109200	0.935100	0.357000
C6461	C646	0.956500	0.943300	0.410400
H4861	H486	0.969300	0.947500	0.392400
O3241	O324	0.996900	0.872100	0.439500
C6471	C647	0.963000	0.917800	0.430100
C6481	C648	0.991500	0.896100	0.422500
Zn821	Zn82	0.122420	0.466490	0.796120
O3251	O325	0.091830	0.493940	0.773260
N8111	N811	0.150820	0.498110	0.818940
N8121	N812	0.097400	0.439300	0.826830
N8131	N813	0.188360	0.523700	0.846180
C6491	C649	0.045230	0.501270	0.741000
O3261	O326	0.075660	0.452330	0.743650
C6501	C650	0.073440	0.480500	0.752410
C6511	C651	0.167250	0.499140	0.846040
C6521	C652	0.072030	0.419000	0.826000
N8141	N814	0.162000	0.523000	0.800900
N8151	N815	0.051300	0.416900	0.801300
H4871	H487	0.033600	0.406300	0.803600
H4881	H488	0.055700	0.426100	0.783200
N8161	N816	0.165500	0.476400	0.869900
H4891	H489	0.153000	0.460000	0.867700
H4901	H490	0.177000	0.478500	0.887100
N8171	N817	0.066730	0.405700	0.853840
N8181	N818	0.090800	0.417100	0.873300
N8191	N819	0.183000	0.538500	0.817400
C6531	C653	0.027790	0.491430	0.713960
H4911	H491	0.034000	0.473200	0.702300
O3271	O327	0.007800	0.403600	0.897400
N8201	N820	0.109200	0.435100	0.857000
C6541	C654	0.956500	0.443300	0.910400
H4921	H492	0.969300	0.447500	0.892400
O3281	O328	0.996900	0.372100	0.939500
C6551	C655	0.963000	0.417800	0.930100
C6561	C656	0.991500	0.396100	0.922500
Zn831	Zn83	0.622420	0.966490	0.796120
O3291	O329	0.591830	0.993940	0.773260
N8211	N821	0.650820	0.998110	0.818940
N8221	N822	0.597400	0.939300	0.826830
N8231	N823	0.688360	0.023700	0.846180
C6571	C657	0.545230	0.001270	0.741000
O3301	O330	0.575660	0.952330	0.743650
C6581	C658	0.573440	0.980500	0.752410
C6591	C659	0.667250	0.999140	0.846040
C6601	C660	0.572030	0.919000	0.826000
N8241	N824	0.662000	0.023000	0.800900
N8251	N825	0.551300	0.916900	0.801300
H4931	H493	0.533600	0.906300	0.803600
H4941	H494	0.555700	0.926100	0.783200
N8261	N826	0.665500	0.976400	0.869900
H4951	H495	0.653000	0.960000	0.867700
H4961	H496	0.677000	0.978500	0.887100
N8271	N827	0.566730	0.905700	0.853840
N8281	N828	0.590800	0.917100	0.873300
N8291	N829	0.683000	0.038500	0.817400
C6611	C661	0.527790	0.991430	0.713960
H4971	H497	0.534000	0.973200	0.702300
O3311	O331	0.507800	0.903600	0.897400
N8301	N830	0.609200	0.935100	0.857000
C6621	C662	0.456500	0.943300	0.910400
H4981	H498	0.469300	0.947500	0.892400
O3321	O332	0.496900	0.872100	0.939500
C6631	C663	0.463000	0.917800	0.930100
C6641	C664	0.491500	0.896100	0.922500
Zn841	Zn84	0.622420	0.466490	0.296120
O3331	O333	0.591830	0.493940	0.273260
N8311	N831	0.650820	0.498110	0.318940
N8321	N832	0.597400	0.439300	0.326830
N8331	N833	0.688360	0.523700	0.346180
C6651	C665	0.545230	0.501270	0.241000
O3341	O334	0.575660	0.452330	0.243650
C6661	C666	0.573440	0.480500	0.252410
C6671	C667	0.667250	0.499140	0.346040
C6681	C668	0.572030	0.419000	0.326000
N8341	N834	0.662000	0.523000	0.300900
N8351	N835	0.551300	0.416900	0.301300
H4991	H499	0.533600	0.406300	0.303600
H5001	H500	0.555700	0.426100	0.283200
N8361	N836	0.665500	0.476400	0.369900
H5011	H501	0.653000	0.460000	0.367700
H5021	H502	0.677000	0.478500	0.387100
N8371	N837	0.566730	0.405700	0.353840
N8381	N838	0.590800	0.417100	0.373300
N8391	N839	0.683000	0.538500	0.317400
C6691	C669	0.527790	0.491430	0.213960
H5031	H503	0.534000	0.473200	0.202300
O3351	O335	0.507800	0.403600	0.397400
N8401	N840	0.609200	0.435100	0.357000
C6701	C670	0.456500	0.443300	0.410400
H5041	H504	0.469300	0.447500	0.392400
O3361	O336	0.496900	0.372100	0.439500
C6711	C671	0.463000	0.417800	0.430100
C6721	C672	0.491500	0.396100	0.422500
Zn851	Zn85	0.627580	0.966490	0.453880
O3371	O337	0.658170	0.993940	0.476740
N8411	N841	0.599180	0.998110	0.431060
N8421	N842	0.652600	0.939300	0.423170
N8431	N843	0.561640	0.023700	0.403820
C6731	C673	0.704770	0.001270	0.509000
O3381	O338	0.674340	0.952330	0.506350
C6741	C674	0.676560	0.980500	0.497590
C6751	C675	0.582750	0.999140	0.403960
C6761	C676	0.677970	0.919000	0.424000
N8441	N844	0.588000	0.023000	0.449100
N8451	N845	0.698700	0.916900	0.448700
H5051	H505	0.716400	0.906300	0.446400
H5061	H506	0.694300	0.926100	0.466800
N8461	N846	0.584500	0.976400	0.380100
H5071	H507	0.597000	0.960000	0.382300
H5081	H508	0.573000	0.978500	0.362900
N8471	N847	0.683270	0.905700	0.396160
N8481	N848	0.659200	0.917100	0.376700
N8491	N849	0.567000	0.038500	0.432600
C6771	C677	0.722210	0.991430	0.536040
H5091	H509	0.716000	0.973200	0.547700
O3391	O339	0.742200	0.903600	0.352600
N8501	N850	0.640800	0.935100	0.393000
C6781	C678	0.793500	0.943300	0.339600
H5101	H510	0.780700	0.947500	0.357600
O3401	O340	0.753100	0.872100	0.310500
C6791	C679	0.787000	0.917800	0.319900
C6801	C680	0.758500	0.896100	0.327500
Zn861	Zn86	0.627580	0.466490	0.953880
O3411	O341	0.658170	0.493940	0.976740
N8511	N851	0.599180	0.498110	0.931060
N8521	N852	0.652600	0.439300	0.923170
N8531	N853	0.561640	0.523700	0.903820
C6811	C681	0.704770	0.501270	0.009000
O3421	O342	0.674340	0.452330	0.006350
C6821	C682	0.676560	0.480500	0.997590
C6831	C683	0.582750	0.499140	0.903960
C6841	C684	0.677970	0.419000	0.924000
N8541	N854	0.588000	0.523000	0.949100
N8551	N855	0.698700	0.416900	0.948700
H5111	H511	0.716400	0.406300	0.946400
H5121	H512	0.694300	0.426100	0.966800
N8561	N856	0.584500	0.476400	0.880100
H5131	H513	0.597000	0.460000	0.882300
H5141	H514	0.573000	0.478500	0.862900
N8571	N857	0.683270	0.405700	0.896160
N8581	N858	0.659200	0.417100	0.876700
N8591	N859	0.567000	0.538500	0.932600
C6851	C685	0.722210	0.491430	0.036040
H5151	H515	0.716000	0.473200	0.047700
O3431	O343	0.742200	0.403600	0.852600
N8601	N860	0.640800	0.435100	0.893000
C6861	C686	0.793500	0.443300	0.839600
H5161	H516	0.780700	0.447500	0.857600
O3441	O344	0.753100	0.372100	0.810500
C6871	C687	0.787000	0.417800	0.819900
C6881	C688	0.758500	0.396100	0.827500
Zn871	Zn87	0.127580	0.966490	0.953880
O3451	O345	0.158170	0.993940	0.976740
N8611	N861	0.099180	0.998110	0.931060
N8621	N862	0.152600	0.939300	0.923170
N8631	N863	0.061640	0.023700	0.903820
C6891	C689	0.204770	0.001270	0.009000
O3461	O346	0.174340	0.952330	0.006350
C6901	C690	0.176560	0.980500	0.997590
C6911	C691	0.082750	0.999140	0.903960
C6921	C692	0.177970	0.919000	0.924000
N8641	N864	0.088000	0.023000	0.949100
N8651	N865	0.198700	0.916900	0.948700
H5171	H517	0.216400	0.906300	0.946400
H5181	H518	0.194300	0.926100	0.966800
N8661	N866	0.084500	0.976400	0.880100
H5191	H519	0.097000	0.960000	0.882300
H5201	H520	0.073000	0.978500	0.862900
N8671	N867	0.183270	0.905700	0.896160
N8681	N868	0.159200	0.917100	0.876700
N8691	N869	0.067000	0.038500	0.932600
C6931	C693	0.222210	0.991430	0.036040
H5211	H521	0.216000	0.973200	0.047700
O3471	O347	0.242200	0.903600	0.852600
N8701	N870	0.140800	0.935100	0.893000
C6941	C694	0.293500	0.943300	0.839600
H5221	H522	0.280700	0.947500	0.857600
O3481	O348	0.253100	0.872100	0.810500
C6951	C695	0.287000	0.917800	0.819900
C6961	C696	0.258500	0.896100	0.827500
Zn881	Zn88	0.127580	0.466490	0.453880
O3491	O349	0.158170	0.493940	0.476740
N8711	N871	0.099180	0.498110	0.431060
N8721	N872	0.152600	0.439300	0.423170
N8731	N873	0.061640	0.523700	0.403820
C6971	C697	0.204770	0.501270	0.509000
O3501	O350	0.174340	0.452330	0.506350
C6981	C698	0.176560	0.480500	0.497590
C6991	C699	0.082750	0.499140	0.403960
C7001	C700	0.177970	0.419000	0.424000
N8741	N874	0.088000	0.523000	0.449100
N8751	N875	0.198700	0.416900	0.448700
H5231	H523	0.216400	0.406300	0.446400
H5241	H524	0.194300	0.426100	0.466800
N8761	N876	0.084500	0.476400	0.380100
H5251	H525	0.097000	0.460000	0.382300
H5261	H526	0.073000	0.478500	0.362900
N8771	N877	0.183270	0.405700	0.396160
N8781	N878	0.159200	0.417100	0.376700
N8791	N879	0.067000	0.538500	0.432600
C7011	C701	0.222210	0.491430	0.536040
H5271	H527	0.216000	0.473200	0.547700
O3511	O351	0.242200	0.403600	0.352600
N8801	N880	0.140800	0.435100	0.393000
C7021	C702	0.293500	0.443300	0.339600
H5281	H528	0.280700	0.447500	0.357600
O3521	O352	0.253100	0.372100	0.310500
C7031	C703	0.287000	0.417800	0.319900
C7041	C704	0.258500	0.396100	0.327500
Zn891	Zn89	0.122420	0.783510	0.453880
O3531	O353	0.091830	0.756060	0.476740
N8811	N881	0.150820	0.751890	0.431060
N8821	N882	0.097400	0.810700	0.423170
N8831	N883	0.188360	0.726300	0.403820
C7051	C705	0.045230	0.748730	0.509000
O3541	O354	0.075660	0.797670	0.506350
C7061	C706	0.073440	0.769500	0.497590
C7071	C707	0.167250	0.750860	0.403960
C7081	C708	0.072030	0.831000	0.424000
N8841	N884	0.162000	0.727000	0.449100
N8851	N885	0.051300	0.833100	0.448700
H5291	H529	0.033600	0.843700	0.446400
H5301	H530	0.055700	0.823900	0.466800
N8861	N886	0.165500	0.773600	0.380100
H5311	H531	0.153000	0.790000	0.382300
H5321	H532	0.177000	0.771500	0.362900
N8871	N887	0.066730	0.844300	0.396160
N8881	N888	0.090800	0.832900	0.376700
N8891	N889	0.183000	0.711500	0.432600
C7091	C709	0.027790	0.758570	0.536040
H5331	H533	0.034000	0.776800	0.547700
O3551	O355	0.007800	0.846400	0.352600
N8901	N890	0.109200	0.814900	0.393000
C7101	C710	0.956500	0.806700	0.339600
H5341	H534	0.969300	0.802500	0.357600
O3561	O356	0.996900	0.877900	0.310500
C7111	C711	0.963000	0.832200	0.319900
C7121	C712	0.991500	0.853900	0.327500
Zn901	Zn90	0.122420	0.283510	0.953880
O3571	O357	0.091830	0.256060	0.976740
N8911	N891	0.150820	0.251890	0.931060
N8921	N892	0.097400	0.310700	0.923170
N8931	N893	0.188360	0.226300	0.903820
C7131	C713	0.045230	0.248730	0.009000
O3581	O358	0.075660	0.297670	0.006350
C7141	C714	0.073440	0.269500	0.997590
C7151	C715	0.167250	0.250860	0.903960
C7161	C716	0.072030	0.331000	0.924000
N8941	N894	0.162000	0.227000	0.949100
N8951	N895	0.051300	0.333100	0.948700
H5351	H535	0.033600	0.343700	0.946400
H5361	H536	0.055700	0.323900	0.966800
N8961	N896	0.165500	0.273600	0.880100
H5371	H537	0.153000	0.290000	0.882300
H5381	H538	0.177000	0.271500	0.862900
N8971	N897	0.066730	0.344300	0.896160
N8981	N898	0.090800	0.332900	0.876700
N8991	N899	0.183000	0.211500	0.932600
C7171	C717	0.027790	0.258570	0.036040
H5391	H539	0.034000	0.276800	0.047700
O3591	O359	0.007800	0.346400	0.852600
N9001	N900	0.109200	0.314900	0.893000
C7181	C718	0.956500	0.306700	0.839600
H5401	H540	0.969300	0.302500	0.857600
O3601	O360	0.996900	0.377900	0.810500
C7191	C719	0.963000	0.332200	0.819900
C7201	C720	0.991500	0.353900	0.827500
Zn911	Zn91	0.622420	0.783510	0.953880
O3611	O361	0.591830	0.756060	0.976740
N9011	N901	0.650820	0.751890	0.931060
N9021	N902	0.597400	0.810700	0.923170
N9031	N903	0.688360	0.726300	0.903820
C7211	C721	0.545230	0.748730	0.009000
O3621	O362	0.575660	0.797670	0.006350
C7221	C722	0.573440	0.769500	0.997590
C7231	C723	0.667250	0.750860	0.903960
C7241	C724	0.572030	0.831000	0.924000
N9041	N904	0.662000	0.727000	0.949100
N9051	N905	0.551300	0.833100	0.948700
H5411	H541	0.533600	0.843700	0.946400
H5421	H542	0.555700	0.823900	0.966800
N9061	N906	0.665500	0.773600	0.880100
H5431	H543	0.653000	0.790000	0.882300
H5441	H544	0.677000	0.771500	0.862900
N9071	N907	0.566730	0.844300	0.896160
N9081	N908	0.590800	0.832900	0.876700
N9091	N909	0.683000	0.711500	0.932600
C7251	C725	0.527790	0.758570	0.036040
H5451	H545	0.534000	0.776800	0.047700
O3631	O363	0.507800	0.846400	0.852600
N9101	N910	0.609200	0.814900	0.893000
C7261	C726	0.456500	0.806700	0.839600
H5461	H546	0.469300	0.802500	0.857600
O3641	O364	0.496900	0.877900	0.810500
C7271	C727	0.463000	0.832200	0.819900
C7281	C728	0.491500	0.853900	0.827500
Zn921	Zn92	0.622420	0.283510	0.453880
O3651	O365	0.591830	0.256060	0.476740
N9111	N911	0.650820	0.251890	0.431060
N9121	N912	0.597400	0.310700	0.423170
N9131	N913	0.688360	0.226300	0.403820
C7291	C729	0.545230	0.248730	0.509000
O3661	O366	0.575660	0.297670	0.506350
C7301	C730	0.573440	0.269500	0.497590
C7311	C731	0.667250	0.250860	0.403960
C7321	C732	0.572030	0.331000	0.424000
N9141	N914	0.662000	0.227000	0.449100
N9151	N915	0.551300	0.333100	0.448700
H5471	H547	0.533600	0.343700	0.446400
H5481	H548	0.555700	0.323900	0.466800
N9161	N916	0.665500	0.273600	0.380100
H5491	H549	0.653000	0.290000	0.382300
H5501	H550	0.677000	0.271500	0.362900
N9171	N917	0.566730	0.344300	0.396160
N9181	N918	0.590800	0.332900	0.376700
N9191	N919	0.683000	0.211500	0.432600
C7331	C733	0.527790	0.258570	0.536040
H5511	H551	0.534000	0.276800	0.547700
O3671	O367	0.507800	0.346400	0.352600
N9201	N920	0.609200	0.314900	0.393000
C7341	C734	0.456500	0.306700	0.339600
H5521	H552	0.469300	0.302500	0.357600
O3681	O368	0.496900	0.377900	0.310500
C7351	C735	0.463000	0.332200	0.319900
C7361	C736	0.491500	0.353900	0.327500
Zn931	Zn93	0.627580	0.783510	0.296120
O3691	O369	0.658170	0.756060	0.273260
N9211	N921	0.599180	0.751890	0.318940
N9221	N922	0.652600	0.810700	0.326830
N9231	N923	0.561640	0.726300	0.346180
C7371	C737	0.704770	0.748730	0.241000
O3701	O370	0.674340	0.797670	0.243650
C7381	C738	0.676560	0.769500	0.252410
C7391	C739	0.582750	0.750860	0.346040
C7401	C740	0.677970	0.831000	0.326000
N9241	N924	0.588000	0.727000	0.300900
N9251	N925	0.698700	0.833100	0.301300
H5531	H553	0.716400	0.843700	0.303600
H5541	H554	0.694300	0.823900	0.283200
N9261	N926	0.584500	0.773600	0.369900
H5551	H555	0.597000	0.790000	0.367700
H5561	H556	0.573000	0.771500	0.387100
N9271	N927	0.683270	0.844300	0.353840
N9281	N928	0.659200	0.832900	0.373300
N9291	N929	0.567000	0.711500	0.317400
C7411	C741	0.722210	0.758570	0.213960
H5571	H557	0.716000	0.776800	0.202300
O3711	O371	0.742200	0.846400	0.397400
N9301	N930	0.640800	0.814900	0.357000
C7421	C742	0.793500	0.806700	0.410400
H5581	H558	0.780700	0.802500	0.392400
O3721	O372	0.753100	0.877900	0.439500
C7431	C743	0.787000	0.832200	0.430100
C7441	C744	0.758500	0.853900	0.422500
Zn941	Zn94	0.627580	0.283510	0.796120
O3731	O373	0.658170	0.256060	0.773260
N9311	N931	0.599180	0.251890	0.818940
N9321	N932	0.652600	0.310700	0.826830
N9331	N933	0.561640	0.226300	0.846180
C7451	C745	0.704770	0.248730	0.741000
O3741	O374	0.674340	0.297670	0.743650
C7461	C746	0.676560	0.269500	0.752410
C7471	C747	0.582750	0.250860	0.846040
C7481	C748	0.677970	0.331000	0.826000
N9341	N934	0.588000	0.227000	0.800900
N9351	N935	0.698700	0.333100	0.801300
H5591	H559	0.716400	0.343700	0.803600
H5601	H560	0.694300	0.323900	0.783200
N9361	N936	0.584500	0.273600	0.869900
H5611	H561	0.597000	0.290000	0.867700
H5621	H562	0.573000	0.271500	0.887100
N9371	N937	0.683270	0.344300	0.853840
N9381	N938	0.659200	0.332900	0.873300
N9391	N939	0.567000	0.211500	0.817400
C7491	C749	0.722210	0.258570	0.713960
H5631	H563	0.716000	0.276800	0.702300
O3751	O375	0.742200	0.346400	0.897400
N9401	N940	0.640800	0.314900	0.857000
C7501	C750	0.793500	0.306700	0.910400
H5641	H564	0.780700	0.302500	0.892400
O3761	O376	0.753100	0.377900	0.939500
C7511	C751	0.787000	0.332200	0.930100
C7521	C752	0.758500	0.353900	0.922500
Zn951	Zn95	0.127580	0.783510	0.796120
O3771	O377	0.158170	0.756060	0.773260
N9411	N941	0.099180	0.751890	0.818940
N9421	N942	0.152600	0.810700	0.826830
N9431	N943	0.061640	0.726300	0.846180
C7531	C753	0.204770	0.748730	0.741000
O3781	O378	0.174340	0.797670	0.743650
C7541	C754	0.176560	0.769500	0.752410
C7551	C755	0.082750	0.750860	0.846040
C7561	C756	0.177970	0.831000	0.826000
N9441	N944	0.088000	0.727000	0.800900
N9451	N945	0.198700	0.833100	0.801300
H5651	H565	0.216400	0.843700	0.803600
H5661	H566	0.194300	0.823900	0.783200
N9461	N946	0.084500	0.773600	0.869900
H5671	H567	0.097000	0.790000	0.867700
H5681	H568	0.073000	0.771500	0.887100
N9471	N947	0.183270	0.844300	0.853840
N9481	N948	0.159200	0.832900	0.873300
N9491	N949	0.067000	0.711500	0.817400
C7571	C757	0.222210	0.758570	0.713960
H5691	H569	0.216000	0.776800	0.702300
O3791	O379	0.242200	0.846400	0.897400
N9501	N950	0.140800	0.814900	0.857000
C7581	C758	0.293500	0.806700	0.910400
H5701	H570	0.280700	0.802500	0.892400
O3801	O380	0.253100	0.877900	0.939500
C7591	C759	0.287000	0.832200	0.930100
C7601	C760	0.258500	0.853900	0.922500
Zn961	Zn96	0.127580	0.283510	0.296120
O3811	O381	0.158170	0.256060	0.273260
N9511	N951	0.099180	0.251890	0.318940
N9521	N952	0.152600	0.310700	0.326830
N9531	N953	0.061640	0.226300	0.346180
C7611	C761	0.204770	0.248730	0.241000
O3821	O382	0.174340	0.297670	0.243650
C7621	C762	0.176560	0.269500	0.252410
C7631	C763	0.082750	0.250860	0.346040
C7641	C764	0.177970	0.331000	0.326000
N9541	N954	0.088000	0.227000	0.300900
N9551	N955	0.198700	0.333100	0.301300
H5711	H571	0.216400	0.343700	0.303600
H5721	H572	0.194300	0.323900	0.283200
N9561	N956	0.084500	0.273600	0.369900
H5731	H573	0.097000	0.290000	0.367700
H5741	H574	0.073000	0.271500	0.387100
N9571	N957	0.183270	0.344300	0.353840
N9581	N958	0.159200	0.332900	0.373300
N9591	N959	0.067000	0.211500	0.317400
C7651	C765	0.222210	0.258570	0.213960
H5751	H575	0.216000	0.276800	0.202300
O3831	O383	0.242200	0.346400	0.397400
N9601	N960	0.140800	0.314900	0.357000
C7661	C766	0.293500	0.306700	0.410400
H5761	H576	0.280700	0.302500	0.392400
O3841	O384	0.253100	0.377900	0.439500
C7671	C767	0.287000	0.332200	0.430100
C7681	C768	0.258500	0.353900	0.422500
Zn971	Zn97	0.625000	0.963840	0.125000
Zn981	Zn98	0.625000	0.463840	0.625000
Zn991	Zn99	0.125000	0.963840	0.625000
Zn1001	Zn100	0.125000	0.463840	0.125000
Zn1011	Zn101	0.625000	0.286160	0.125000
Zn1021	Zn102	0.625000	0.786160	0.625000
Zn1031	Zn103	0.125000	0.286160	0.625000
Zn1041	Zn104	0.125000	0.786160	0.125000
Zn1051	Zn105	0.125000	0.625000	0.963840
Zn1061	Zn106	0.125000	0.125000	0.463840
Zn1071	Zn107	0.625000	0.625000	0.463840
Zn1081	Zn108	0.625000	0.125000	0.963840
Zn1091	Zn109	0.125000	0.625000	0.286160
Zn1101	Zn110	0.125000	0.125000	0.786160
Zn1111	Zn111	0.625000	0.625000	0.786160
Zn1121	Zn112	0.625000	0.125000	0.286160
Zn1131	Zn113	0.963840	0.125000	0.625000
Zn1141	Zn114	0.963840	0.625000	0.125000
Zn1151	Zn115	0.463840	0.125000	0.125000
Zn1161	Zn116	0.463840	0.625000	0.625000
Zn1171	Zn117	0.286160	0.125000	0.625000
Zn1181	Zn118	0.286160	0.625000	0.125000
Zn1191	Zn119	0.786160	0.125000	0.125000
Zn1201	Zn120	0.786160	0.625000	0.625000
Zn1211	Zn121	0.375000	0.036160	0.875000
Zn1221	Zn122	0.375000	0.536160	0.375000
Zn1231	Zn123	0.875000	0.036160	0.375000
Zn1241	Zn124	0.875000	0.536160	0.875000
Zn1251	Zn125	0.375000	0.713840	0.875000
Zn1261	Zn126	0.375000	0.213840	0.375000
Zn1271	Zn127	0.875000	0.713840	0.375000
Zn1281	Zn128	0.875000	0.213840	0.875000
Zn1291	Zn129	0.875000	0.375000	0.036160
Zn1301	Zn130	0.875000	0.875000	0.536160
Zn1311	Zn131	0.375000	0.375000	0.536160
Zn1321	Zn132	0.375000	0.875000	0.036160
Zn1331	Zn133	0.875000	0.375000	0.713840
Zn1341	Zn134	0.875000	0.875000	0.213840
Zn1351	Zn135	0.375000	0.375000	0.213840
Zn1361	Zn136	0.375000	0.875000	0.713840
Zn1371	Zn137	0.036160	0.875000	0.375000
Zn1381	Zn138	0.036160	0.375000	0.875000
Zn1391	Zn139	0.536160	0.875000	0.875000
Zn1401	Zn140	0.536160	0.375000	0.375000
Zn1411	Zn141	0.713840	0.875000	0.375000
Zn1421	Zn142	0.713840	0.375000	0.875000
Zn1431	Zn143	0.213840	0.875000	0.875000
Zn1441	Zn144	0.213840	0.375000	0.375000
