data_acs_PM
_symmetry_space_group_name_H-M	'P1'
_cell_length_a	15.167500
_cell_length_b	15.167500
_cell_length_c	11.919700
_cell_angle_alpha	90.000000
_cell_angle_beta	90.000000
_cell_angle_gamma	90.000000
_symmetry_Int_Tables_number 1

loop_
_symmetry_equiv_pos_as_xyz
'x,y,z'

loop_
_atom_site_label
_atom_site_type_symbol
_atom_site_fract_x
_atom_site_fract_y
_atom_site_fract_z
O11	O1	0.099900	0.286700	0.998500
O21	O2	0.125200	0.119900	0.106800
C11	C1	0.092100	0.360000	0.048800
C21	C2	0.040800	0.431000	0.990100
C31	C3	0.039000	0.431000	0.871500
H11	H1	0.064200	0.384400	0.832200
O31	O3	0.599900	0.786700	0.498500
O41	O4	0.625200	0.619900	0.606800
C41	C4	0.592100	0.860000	0.548800
C51	C5	0.540800	0.931000	0.490100
C61	C6	0.539000	0.931000	0.371500
H21	H2	0.564200	0.884400	0.332200
O51	O5	0.400100	0.213300	0.498500
O61	O6	0.374800	0.380100	0.606800
C71	C7	0.407900	0.140000	0.548800
C81	C8	0.459200	0.069000	0.490100
C91	C9	0.461000	0.069000	0.371500
H31	H3	0.435800	0.115600	0.332200
O71	O7	0.900100	0.713300	0.998500
O81	O8	0.874800	0.880100	0.106800
C101	C10	0.907900	0.640000	0.048800
C111	C11	0.959200	0.569000	0.990100
C121	C12	0.961000	0.569000	0.871500
H41	H4	0.935800	0.615600	0.832200
O91	O9	0.713300	0.599900	0.248500
O101	O10	0.880100	0.625200	0.356800
C131	C13	0.640000	0.592100	0.298800
C141	C14	0.569000	0.540800	0.240100
C151	C15	0.569000	0.539000	0.121500
H51	H5	0.615600	0.564200	0.082200
O111	O11	0.213300	0.099900	0.748500
O121	O12	0.380100	0.125200	0.856800
C161	C16	0.140000	0.092100	0.798800
C171	C17	0.069000	0.040800	0.740100
C181	C18	0.069000	0.039000	0.621500
H61	H6	0.115600	0.064200	0.582200
O131	O13	0.786700	0.900100	0.748500
O141	O14	0.619900	0.874800	0.856800
C191	C19	0.860000	0.907900	0.798800
C201	C20	0.931000	0.959200	0.740100
C211	C21	0.931000	0.961000	0.621500
H71	H7	0.884400	0.935800	0.582200
O151	O15	0.286700	0.400100	0.248500
O161	O16	0.119900	0.374800	0.356800
C221	C22	0.360000	0.407900	0.298800
C231	C23	0.431000	0.459200	0.240100
C241	C24	0.431000	0.461000	0.121500
H81	H8	0.384400	0.435800	0.082200
O171	O17	0.400100	0.286700	0.751500
O181	O18	0.374800	0.119900	0.643200
C251	C25	0.407900	0.360000	0.701200
C261	C26	0.459200	0.431000	0.759900
C271	C27	0.461000	0.431000	0.878500
H91	H9	0.435800	0.384400	0.917800
O191	O19	0.900100	0.786700	0.251500
O201	O20	0.874800	0.619900	0.143200
C281	C28	0.907900	0.860000	0.201200
C291	C29	0.959200	0.931000	0.259900
C301	C30	0.961000	0.931000	0.378500
H101	H10	0.935800	0.884400	0.417800
O211	O21	0.099900	0.213300	0.251500
O221	O22	0.125200	0.380100	0.143200
C311	C31	0.092100	0.140000	0.201200
C321	C32	0.040800	0.069000	0.259900
C331	C33	0.039000	0.069000	0.378500
H111	H11	0.064200	0.115600	0.417800
O231	O23	0.599900	0.713300	0.751500
O241	O24	0.625200	0.880100	0.643200
C341	C34	0.592100	0.640000	0.701200
C351	C35	0.540800	0.569000	0.759900
C361	C36	0.539000	0.569000	0.878500
H121	H12	0.564200	0.615600	0.917800
O251	O25	0.786700	0.599900	0.501500
O261	O26	0.619900	0.625200	0.393200
C371	C37	0.860000	0.592100	0.451200
C381	C38	0.931000	0.540800	0.509900
C391	C39	0.931000	0.539000	0.628500
H131	H13	0.884400	0.564200	0.667800
O271	O27	0.286700	0.099900	0.001500
O281	O28	0.119900	0.125200	0.893200
C401	C40	0.360000	0.092100	0.951200
C411	C41	0.431000	0.040800	0.009900
C421	C42	0.431000	0.039000	0.128500
H141	H14	0.384400	0.064200	0.167800
O291	O29	0.713300	0.900100	0.001500
O301	O30	0.880100	0.874800	0.893200
C431	C43	0.640000	0.907900	0.951200
C441	C44	0.569000	0.959200	0.009900
C451	C45	0.569000	0.961000	0.128500
H151	H15	0.615600	0.935800	0.167800
O311	O31	0.213300	0.400100	0.501500
O321	O32	0.380100	0.374800	0.393200
C461	C46	0.140000	0.407900	0.451200
C471	C47	0.069000	0.459200	0.509900
C481	C48	0.069000	0.461000	0.628500
H161	H16	0.115600	0.435800	0.667800
Ga11	Ga1	0.194300	0.194300	0.000000
Ga21	Ga2	0.694300	0.694300	0.500000
Ga31	Ga3	0.305700	0.305700	0.500000
Ga41	Ga4	0.805700	0.694300	0.250000
Ga51	Ga5	0.694300	0.805700	0.750000
Ga61	Ga6	0.305700	0.194300	0.750000
Ga71	Ga7	0.194300	0.305700	0.250000
Ga81	Ga8	0.805700	0.805700	0.000000
O331	O33	0.252700	0.250000	0.125000
H171	H17	0.308300	0.250000	0.125000
O341	O34	0.752700	0.750000	0.625000
H181	H18	0.808300	0.750000	0.625000
O351	O35	0.247300	0.250000	0.625000
H191	H19	0.191700	0.250000	0.625000
O361	O36	0.747300	0.750000	0.125000
H201	H20	0.691700	0.750000	0.125000
O371	O37	0.750000	0.752700	0.375000
H211	H21	0.750000	0.808300	0.375000
O381	O38	0.250000	0.252700	0.875000
H221	H22	0.250000	0.308300	0.875000
O391	O39	0.750000	0.747300	0.875000
H231	H23	0.750000	0.691700	0.875000
O401	O40	0.250000	0.247300	0.375000
H241	H24	0.250000	0.191700	0.375000
C491	C49	0.000000	0.500000	0.048000
H251	H25	0.000000	0.500000	0.126000
C501	C50	0.000000	0.500000	0.813200
C511	C51	0.500000	0.000000	0.548000
H261	H26	0.500000	0.000000	0.626000
C521	C52	0.500000	0.000000	0.313200
C531	C53	0.500000	0.500000	0.298000
H271	H27	0.500000	0.500000	0.376000
C541	C54	0.500000	0.500000	0.063200
C551	C55	0.000000	0.000000	0.798000
H281	H28	0.000000	0.000000	0.876000
C561	C56	0.000000	0.000000	0.563200
C571	C57	0.500000	0.500000	0.702000
H291	H29	0.500000	0.500000	0.624000
C581	C58	0.500000	0.500000	0.936800
C591	C59	0.000000	0.000000	0.202000
H301	H30	0.000000	0.000000	0.124000
C601	C60	0.000000	0.000000	0.436800
C611	C61	0.000000	0.500000	0.452000
H311	H31	0.000000	0.500000	0.374000
C621	C62	0.000000	0.500000	0.686800
C631	C63	0.500000	0.000000	0.952000
H321	H32	0.500000	0.000000	0.874000
C641	C64	0.500000	0.000000	0.186800
