data_acs_PM
_symmetry_space_group_name_H-M	'P1'
_cell_length_a	18.547400
_cell_length_b	18.547400
_cell_length_c	18.547400
_cell_angle_alpha	90.000000
_cell_angle_beta	90.000000
_cell_angle_gamma	90.000000
_symmetry_Int_Tables_number 1

loop_
_symmetry_equiv_pos_as_xyz
'x,y,z'

loop_
_atom_site_label
_atom_site_type_symbol
_atom_site_fract_x
_atom_site_fract_y
_atom_site_fract_z
C11	C1	0.320300	0.349400	0.247100
C21	C2	0.294000	0.264700	0.367500
C31	C3	0.390700	0.181600	0.331000
C41	C4	0.402300	0.148000	0.395200
C51	C5	0.357200	0.075500	0.778800
N11	N1	0.382600	0.443300	0.088600
N21	N2	0.042900	0.189400	0.585400
C61	C6	0.679700	0.650600	0.247100
C71	C7	0.706000	0.735300	0.367500
C81	C8	0.609300	0.818400	0.331000
C91	C9	0.597700	0.852000	0.395200
C101	C10	0.642800	0.924500	0.778800
N31	N3	0.617400	0.556700	0.088600
N41	N4	0.957100	0.810600	0.585400
C111	C11	0.679700	0.349400	0.752900
C121	C12	0.706000	0.264700	0.632500
C131	C13	0.609300	0.181600	0.669000
C141	C14	0.597700	0.148000	0.604800
C151	C15	0.642800	0.075500	0.221200
N51	N5	0.617400	0.443300	0.911400
N61	N6	0.957100	0.189400	0.414600
C161	C16	0.320300	0.650600	0.752900
C171	C17	0.294000	0.735300	0.632500
C181	C18	0.390700	0.818400	0.669000
C191	C19	0.402300	0.852000	0.604800
C201	C20	0.357200	0.924500	0.221200
N71	N7	0.382600	0.556700	0.911400
N81	N8	0.042900	0.810600	0.414600
C211	C21	0.247100	0.320300	0.349400
C221	C22	0.367500	0.294000	0.264700
C231	C23	0.331000	0.390700	0.181600
C241	C24	0.395200	0.402300	0.148000
C251	C25	0.778800	0.357200	0.075500
N91	N9	0.088600	0.382600	0.443300
N101	N10	0.585400	0.042900	0.189400
C261	C26	0.247100	0.679700	0.650600
C271	C27	0.367500	0.706000	0.735300
C281	C28	0.331000	0.609300	0.818400
C291	C29	0.395200	0.597700	0.852000
C301	C30	0.778800	0.642800	0.924500
N111	N11	0.088600	0.617400	0.556700
N121	N12	0.585400	0.957100	0.810600
C311	C31	0.752900	0.679700	0.349400
C321	C32	0.632500	0.706000	0.264700
C331	C33	0.669000	0.609300	0.181600
C341	C34	0.604800	0.597700	0.148000
C351	C35	0.221200	0.642800	0.075500
N131	N13	0.911400	0.617400	0.443300
N141	N14	0.414600	0.957100	0.189400
C361	C36	0.752900	0.320300	0.650600
C371	C37	0.632500	0.294000	0.735300
C381	C38	0.669000	0.390700	0.818400
C391	C39	0.604800	0.402300	0.852000
C401	C40	0.221200	0.357200	0.924500
N151	N15	0.911400	0.382600	0.556700
N161	N16	0.414600	0.042900	0.810600
C411	C41	0.349400	0.247100	0.320300
C421	C42	0.264700	0.367500	0.294000
C431	C43	0.181600	0.331000	0.390700
C441	C44	0.148000	0.395200	0.402300
C451	C45	0.075500	0.778800	0.357200
N171	N17	0.443300	0.088600	0.382600
N181	N18	0.189400	0.585400	0.042900
C461	C46	0.650600	0.247100	0.679700
C471	C47	0.735300	0.367500	0.706000
C481	C48	0.818400	0.331000	0.609300
C491	C49	0.852000	0.395200	0.597700
C501	C50	0.924500	0.778800	0.642800
N191	N19	0.556700	0.088600	0.617400
N201	N20	0.810600	0.585400	0.957100
C511	C51	0.349400	0.752900	0.679700
C521	C52	0.264700	0.632500	0.706000
C531	C53	0.181600	0.669000	0.609300
C541	C54	0.148000	0.604800	0.597700
C551	C55	0.075500	0.221200	0.642800
N211	N21	0.443300	0.911400	0.617400
N221	N22	0.189400	0.414600	0.957100
C561	C56	0.650600	0.752900	0.320300
C571	C57	0.735300	0.632500	0.294000
C581	C58	0.818400	0.669000	0.390700
C591	C59	0.852000	0.604800	0.402300
C601	C60	0.924500	0.221200	0.357200
N231	N23	0.556700	0.911400	0.382600
N241	N24	0.810600	0.414600	0.042900
C611	C61	0.849400	0.820300	0.747100
C621	C62	0.764700	0.794000	0.867500
C631	C63	0.681600	0.890700	0.831000
C641	C64	0.648000	0.902300	0.895200
C651	C65	0.575500	0.857200	0.278800
N251	N25	0.943300	0.882600	0.588600
N261	N26	0.689400	0.542900	0.085400
C661	C66	0.150600	0.179700	0.747100
C671	C67	0.235300	0.206000	0.867500
C681	C68	0.318400	0.109300	0.831000
C691	C69	0.352000	0.097700	0.895200
C701	C70	0.424500	0.142800	0.278800
N271	N27	0.056700	0.117400	0.588600
N281	N28	0.310600	0.457100	0.085400
C711	C71	0.849400	0.179700	0.252900
C721	C72	0.764700	0.206000	0.132500
C731	C73	0.681600	0.109300	0.169000
C741	C74	0.648000	0.097700	0.104800
C751	C75	0.575500	0.142800	0.721200
N291	N29	0.943300	0.117400	0.411400
N301	N30	0.689400	0.457100	0.914600
C761	C76	0.150600	0.820300	0.252900
C771	C77	0.235300	0.794000	0.132500
C781	C78	0.318400	0.890700	0.169000
C791	C79	0.352000	0.902300	0.104800
C801	C80	0.424500	0.857200	0.721200
N311	N31	0.056700	0.882600	0.411400
N321	N32	0.310600	0.542900	0.914600
C811	C81	0.820300	0.747100	0.849400
C821	C82	0.794000	0.867500	0.764700
C831	C83	0.890700	0.831000	0.681600
C841	C84	0.902300	0.895200	0.648000
C851	C85	0.857200	0.278800	0.575500
N331	N33	0.882600	0.588600	0.943300
N341	N34	0.542900	0.085400	0.689400
C861	C86	0.179700	0.747100	0.150600
C871	C87	0.206000	0.867500	0.235300
C881	C88	0.109300	0.831000	0.318400
C891	C89	0.097700	0.895200	0.352000
C901	C90	0.142800	0.278800	0.424500
N351	N35	0.117400	0.588600	0.056700
N361	N36	0.457100	0.085400	0.310600
C911	C91	0.179700	0.252900	0.849400
C921	C92	0.206000	0.132500	0.764700
C931	C93	0.109300	0.169000	0.681600
C941	C94	0.097700	0.104800	0.648000
C951	C95	0.142800	0.721200	0.575500
N371	N37	0.117400	0.411400	0.943300
N381	N38	0.457100	0.914600	0.689400
C961	C96	0.820300	0.252900	0.150600
C971	C97	0.794000	0.132500	0.235300
C981	C98	0.890700	0.169000	0.318400
C991	C99	0.902300	0.104800	0.352000
C1001	C100	0.857200	0.721200	0.424500
N391	N39	0.882600	0.411400	0.056700
N401	N40	0.542900	0.914600	0.310600
C1011	C101	0.747100	0.849400	0.820300
C1021	C102	0.867500	0.764700	0.794000
C1031	C103	0.831000	0.681600	0.890700
C1041	C104	0.895200	0.648000	0.902300
C1051	C105	0.278800	0.575500	0.857200
N411	N41	0.588600	0.943300	0.882600
N421	N42	0.085400	0.689400	0.542900
C1061	C106	0.747100	0.150600	0.179700
C1071	C107	0.867500	0.235300	0.206000
C1081	C108	0.831000	0.318400	0.109300
C1091	C109	0.895200	0.352000	0.097700
C1101	C110	0.278800	0.424500	0.142800
N431	N43	0.588600	0.056700	0.117400
N441	N44	0.085400	0.310600	0.457100
C1111	C111	0.252900	0.849400	0.179700
C1121	C112	0.132500	0.764700	0.206000
C1131	C113	0.169000	0.681600	0.109300
C1141	C114	0.104800	0.648000	0.097700
C1151	C115	0.721200	0.575500	0.142800
N451	N45	0.411400	0.943300	0.117400
N461	N46	0.914600	0.689400	0.457100
C1161	C116	0.252900	0.150600	0.820300
C1171	C117	0.132500	0.235300	0.794000
C1181	C118	0.169000	0.318400	0.890700
C1191	C119	0.104800	0.352000	0.902300
C1201	C120	0.721200	0.424500	0.857200
N471	N47	0.411400	0.056700	0.882600
N481	N48	0.914600	0.310600	0.542900
O11	O1	0.570000	0.000000	0.500000
O21	O2	0.430000	0.000000	0.500000
O31	O3	0.500000	0.570000	0.000000
O41	O4	0.500000	0.430000	0.000000
O51	O5	0.000000	0.500000	0.570000
O61	O6	0.000000	0.500000	0.430000
O71	O7	0.500000	0.070000	0.000000
O81	O8	0.500000	0.930000	0.000000
O91	O9	0.070000	0.000000	0.500000
O101	O10	0.930000	0.000000	0.500000
O111	O11	0.000000	0.500000	0.070000
O121	O12	0.000000	0.500000	0.930000
Zn11	Zn1	0.500000	0.000000	0.420000
Zn21	Zn2	0.500000	0.000000	0.580000
Zn31	Zn3	0.420000	0.500000	0.000000
Zn41	Zn4	0.580000	0.500000	0.000000
Zn51	Zn5	0.000000	0.420000	0.500000
Zn61	Zn6	0.000000	0.580000	0.500000
Zn71	Zn7	0.500000	0.000000	0.920000
Zn81	Zn8	0.500000	0.000000	0.080000
Zn91	Zn9	0.000000	0.920000	0.500000
Zn101	Zn10	0.000000	0.080000	0.500000
Zn111	Zn11	0.920000	0.500000	0.000000
Zn121	Zn12	0.080000	0.500000	0.000000
Zn131	Zn13	0.000000	0.250000	0.500000
Zn141	Zn14	0.000000	0.750000	0.500000
Zn151	Zn15	0.500000	0.000000	0.250000
Zn161	Zn16	0.500000	0.000000	0.750000
Zn171	Zn17	0.250000	0.500000	0.000000
Zn181	Zn18	0.750000	0.500000	0.000000
