data_acs_PM
_symmetry_space_group_name_H-M	'P1'
_cell_length_a	28.612000
_cell_length_b	9.389900
_cell_length_c	9.274100
_cell_angle_alpha	90.000000
_cell_angle_beta	92.657000
_cell_angle_gamma	90.000000
_symmetry_Int_Tables_number 1

loop_
_symmetry_equiv_pos_as_xyz
'x,y,z'

loop_
_atom_site_label
_atom_site_type_symbol
_atom_site_fract_x
_atom_site_fract_y
_atom_site_fract_z
Cu11	Cu1	0.307540	0.669330	0.120040
C11	C1	0.380600	0.988300	0.897800
H11	H1	0.373000	0.077400	0.856900
C21	C2	0.347300	0.911100	0.963200
H21	H2	0.316800	0.948500	0.964400
C31	C3	0.434900	0.804000	0.957400
H31	H3	0.464900	0.763500	0.956600
N11	N1	0.355730	0.784500	0.026000
C41	C4	0.426100	0.935100	0.891600
C51	C5	0.399300	0.733500	0.023800
H41	H4	0.406000	0.646000	0.069300
C61	C6	0.463200	0.019700	0.819600
H51	H5	0.478700	0.082100	0.891700
H61	H6	0.448000	0.080700	0.745600
H71	H7	0.484800	0.870000	0.677600
N21	N2	0.278420	0.606100	0.927700
N31	N3	0.243770	0.655100	0.840800
N41	N4	0.241450	0.579500	0.720300
C71	C7	0.296800	0.498100	0.859600
N51	N5	0.275030	0.479900	0.731000
C81	C8	0.337800	0.405400	0.900800
O11	O1	0.347300	0.318400	0.801700
O21	O2	0.357480	0.420300	0.020400
Cu21	Cu2	0.807540	0.169330	0.120040
C91	C9	0.880600	0.488300	0.897800
H81	H8	0.873000	0.577400	0.856900
C101	C10	0.847300	0.411100	0.963200
H91	H9	0.816800	0.448500	0.964400
C111	C11	0.934900	0.304000	0.957400
H101	H10	0.964900	0.263500	0.956600
N61	N6	0.855730	0.284500	0.026000
C121	C12	0.926100	0.435100	0.891600
C131	C13	0.899300	0.233500	0.023800
H111	H11	0.906000	0.146000	0.069300
C141	C14	0.963200	0.519700	0.819600
H121	H12	0.978700	0.582100	0.891700
H131	H13	0.948000	0.580700	0.745600
H141	H14	0.984800	0.370000	0.677600
N71	N7	0.778420	0.106100	0.927700
N81	N8	0.743770	0.155100	0.840800
N91	N9	0.741450	0.079500	0.720300
C151	C15	0.796800	0.998100	0.859600
N101	N10	0.775030	0.979900	0.731000
C161	C16	0.837800	0.905400	0.900800
O31	O3	0.847300	0.818400	0.801700
O41	O4	0.857480	0.920300	0.020400
Cu31	Cu3	0.692460	0.669330	0.379960
C171	C17	0.619400	0.988300	0.602200
H151	H15	0.627000	0.077400	0.643100
C181	C18	0.652700	0.911100	0.536800
H161	H16	0.683200	0.948500	0.535600
C191	C19	0.565100	0.804000	0.542600
H171	H17	0.535100	0.763500	0.543400
N111	N11	0.644270	0.784500	0.474000
C201	C20	0.573900	0.935100	0.608400
C211	C21	0.600700	0.733500	0.476200
H181	H18	0.594000	0.646000	0.430700
C221	C22	0.536800	0.019700	0.680400
H191	H19	0.521300	0.082100	0.608300
H201	H20	0.552000	0.080700	0.754400
H211	H21	0.515200	0.870000	0.822400
N121	N12	0.721580	0.606100	0.572300
N131	N13	0.756230	0.655100	0.659200
N141	N14	0.758550	0.579500	0.779700
C231	C23	0.703200	0.498100	0.640400
N151	N15	0.724970	0.479900	0.769000
C241	C24	0.662200	0.405400	0.599200
O51	O5	0.652700	0.318400	0.698300
O61	O6	0.642520	0.420300	0.479600
Cu41	Cu4	0.192460	0.169330	0.379960
C251	C25	0.119400	0.488300	0.602200
H221	H22	0.127000	0.577400	0.643100
C261	C26	0.152700	0.411100	0.536800
H231	H23	0.183200	0.448500	0.535600
C271	C27	0.065100	0.304000	0.542600
H241	H24	0.035100	0.263500	0.543400
N161	N16	0.144270	0.284500	0.474000
C281	C28	0.073900	0.435100	0.608400
C291	C29	0.100700	0.233500	0.476200
H251	H25	0.094000	0.146000	0.430700
C301	C30	0.036800	0.519700	0.680400
H261	H26	0.021300	0.582100	0.608300
H271	H27	0.052000	0.580700	0.754400
H281	H28	0.015200	0.370000	0.822400
N171	N17	0.221580	0.106100	0.572300
N181	N18	0.256230	0.155100	0.659200
N191	N19	0.258550	0.079500	0.779700
C311	C31	0.203200	0.998100	0.640400
N201	N20	0.224970	0.979900	0.769000
C321	C32	0.162200	0.905400	0.599200
O71	O7	0.152700	0.818400	0.698300
O81	O8	0.142520	0.920300	0.479600
Cu51	Cu5	0.692460	0.330670	0.879960
C331	C33	0.619400	0.011700	0.102200
H291	H29	0.627000	0.922600	0.143100
C341	C34	0.652700	0.088900	0.036800
H301	H30	0.683200	0.051500	0.035600
C351	C35	0.565100	0.196000	0.042600
H311	H31	0.535100	0.236500	0.043400
N211	N21	0.644270	0.215500	0.974000
C361	C36	0.573900	0.064900	0.108400
C371	C37	0.600700	0.266500	0.976200
H321	H32	0.594000	0.354000	0.930700
C381	C38	0.536800	0.980300	0.180400
H331	H33	0.521300	0.917900	0.108300
H341	H34	0.552000	0.919300	0.254400
H351	H35	0.515200	0.130000	0.322400
N221	N22	0.721580	0.393900	0.072300
N231	N23	0.756230	0.344900	0.159200
N241	N24	0.758550	0.420500	0.279700
C391	C39	0.703200	0.501900	0.140400
N251	N25	0.724970	0.520100	0.269000
C401	C40	0.662200	0.594600	0.099200
O91	O9	0.652700	0.681600	0.198300
O101	O10	0.642520	0.579700	0.979600
Cu61	Cu6	0.192460	0.830670	0.879960
C411	C41	0.119400	0.511700	0.102200
H361	H36	0.127000	0.422600	0.143100
C421	C42	0.152700	0.588900	0.036800
H371	H37	0.183200	0.551500	0.035600
C431	C43	0.065100	0.696000	0.042600
H381	H38	0.035100	0.736500	0.043400
N261	N26	0.144270	0.715500	0.974000
C441	C44	0.073900	0.564900	0.108400
C451	C45	0.100700	0.766500	0.976200
H391	H39	0.094000	0.854000	0.930700
C461	C46	0.036800	0.480300	0.180400
H401	H40	0.021300	0.417900	0.108300
H411	H41	0.052000	0.419300	0.254400
H421	H42	0.015200	0.630000	0.322400
N271	N27	0.221580	0.893900	0.072300
N281	N28	0.256230	0.844900	0.159200
N291	N29	0.258550	0.920500	0.279700
C471	C47	0.203200	0.001900	0.140400
N301	N30	0.224970	0.020100	0.269000
C481	C48	0.162200	0.094600	0.099200
O111	O11	0.152700	0.181600	0.198300
O121	O12	0.142520	0.079700	0.979600
Cu71	Cu7	0.307540	0.330670	0.620040
C491	C49	0.380600	0.011700	0.397800
H431	H43	0.373000	0.922600	0.356900
C501	C50	0.347300	0.088900	0.463200
H441	H44	0.316800	0.051500	0.464400
C511	C51	0.434900	0.196000	0.457400
H451	H45	0.464900	0.236500	0.456600
N311	N31	0.355730	0.215500	0.526000
C521	C52	0.426100	0.064900	0.391600
C531	C53	0.399300	0.266500	0.523800
H461	H46	0.406000	0.354000	0.569300
C541	C54	0.463200	0.980300	0.319600
H471	H47	0.478700	0.917900	0.391700
H481	H48	0.448000	0.919300	0.245600
H491	H49	0.484800	0.130000	0.177600
N321	N32	0.278420	0.393900	0.427700
N331	N33	0.243770	0.344900	0.340800
N341	N34	0.241450	0.420500	0.220300
C551	C55	0.296800	0.501900	0.359600
N351	N35	0.275030	0.520100	0.231000
C561	C56	0.337800	0.594600	0.400800
O131	O13	0.347300	0.681600	0.301700
O141	O14	0.357480	0.579700	0.520400
Cu81	Cu8	0.807540	0.830670	0.620040
C571	C57	0.880600	0.511700	0.397800
H501	H50	0.873000	0.422600	0.356900
C581	C58	0.847300	0.588900	0.463200
H511	H51	0.816800	0.551500	0.464400
C591	C59	0.934900	0.696000	0.457400
H521	H52	0.964900	0.736500	0.456600
N361	N36	0.855730	0.715500	0.526000
C601	C60	0.926100	0.564900	0.391600
C611	C61	0.899300	0.766500	0.523800
H531	H53	0.906000	0.854000	0.569300
C621	C62	0.963200	0.480300	0.319600
H541	H54	0.978700	0.417900	0.391700
H551	H55	0.948000	0.419300	0.245600
H561	H56	0.984800	0.630000	0.177600
N371	N37	0.778420	0.893900	0.427700
N381	N38	0.743770	0.844900	0.340800
N391	N39	0.741450	0.920500	0.220300
C631	C63	0.796800	0.001900	0.359600
N401	N40	0.775030	0.020100	0.231000
C641	C64	0.837800	0.094600	0.400800
O151	O15	0.847300	0.181600	0.301700
O161	O16	0.857480	0.079700	0.520400
C651	C65	0.500000	0.930900	0.750000
C661	C66	0.000000	0.430900	0.750000
C671	C67	0.500000	0.069100	0.250000
C681	C68	0.000000	0.569100	0.250000
