data_acscombsci_PM
_symmetry_space_group_name_H-M	'P1'
_cell_length_a	8.497400
_cell_length_b	8.497400
_cell_length_c	19.805400
_cell_angle_alpha	89.998900
_cell_angle_beta	90.004900
_cell_angle_gamma	90.004400
_symmetry_Int_Tables_number 1

loop_
_symmetry_equiv_pos_as_xyz
'x,y,z'

loop_
_atom_site_label
_atom_site_type_symbol
_atom_site_fract_x
_atom_site_fract_y
_atom_site_fract_z
Zn11	Zn1	0.892220	0.628320	0.034760
Zn21	Zn2	0.628490	0.892070	0.034750
Zn31	Zn3	0.628440	0.628290	0.921600
Zn41	Zn4	0.892210	0.892050	0.921580
O11	O1	0.760340	0.760180	0.978170
O21	O2	0.857270	0.663320	0.129470
O31	O3	0.407720	0.857070	0.019740
O41	O4	0.663420	0.407530	0.936620
O51	O5	0.663500	0.857100	0.129470
O61	O6	0.857220	0.407550	0.019750
O71	O7	0.407680	0.663280	0.936610
O81	O8	0.663400	0.663260	0.826880
O91	O9	0.112970	0.857070	0.936590
O101	O10	0.857190	0.857040	0.826870
O111	O11	0.112980	0.663300	0.019740
O121	O12	0.663490	0.112830	0.019730
O131	O13	0.857240	0.112810	0.936590
C11	C1	0.760290	0.760150	0.802320
C21	C2	0.760300	0.760180	0.727090
C31	C3	0.861050	0.861230	0.691750
C41	C4	0.861070	0.861230	0.621060
C51	C5	0.760340	0.760190	0.585710
C61	C6	0.659590	0.659120	0.621050
C71	C7	0.659580	0.659120	0.691730
C81	C8	0.659640	0.659160	0.335970
C91	C9	0.659660	0.659180	0.265280
C101	C10	0.861140	0.861280	0.265300
C111	C11	0.861120	0.861270	0.335990
C121	C12	0.760380	0.760200	0.371320
C131	C13	0.760360	0.760190	0.447970
C141	C14	0.760350	0.760200	0.509060
C151	C15	0.350460	0.760210	0.978180
C161	C16	0.171820	0.760200	0.978170
C171	C17	0.760360	0.170060	0.978170
C181	C18	0.760340	0.348710	0.978180
C191	C19	0.760390	0.760210	0.154720
C201	C20	0.760410	0.760230	0.229950
H11	H1	0.577550	0.576820	0.720500
F11	F1	0.968250	0.968780	0.729370
F21	F2	0.968360	0.968840	0.227700
F31	F3	0.552430	0.551590	0.373570
F41	F4	0.552400	0.551580	0.583420
F51	F5	0.968300	0.968790	0.583460
H21	H2	0.577630	0.576890	0.236500
F61	F6	0.968330	0.968820	0.373620
