data_ADABIS_freeONLY_PM
_symmetry_space_group_name_H-M	'P1'
_cell_length_a	9.255300
_cell_length_b	9.353670
_cell_length_c	13.873500
_cell_angle_alpha	109.701000
_cell_angle_beta	101.758000
_cell_angle_gamma	90.000000
_symmetry_Int_Tables_number 1

loop_
_symmetry_equiv_pos_as_xyz
'x,y,z'

loop_
_atom_site_label
_atom_site_type_symbol
_atom_site_fract_x
_atom_site_fract_y
_atom_site_fract_z
Cu11	Cu1	0.038600	0.020300	0.384600
Cu21	Cu2	0.461400	0.635700	0.615400
Cu31	Cu3	0.961400	0.979700	0.615400
Cu41	Cu4	0.538600	0.364300	0.384600
H11	H1	0.823340	0.930810	0.180720
H21	H2	0.681840	0.723100	0.048640
H31	H3	0.817920	0.467460	0.233760
H41	H4	0.955050	0.683820	0.359800
H51	H5	0.589070	0.465180	0.992580
H61	H6	0.584650	0.393260	0.076480
H71	H7	0.809010	0.264850	0.046740
H81	H8	0.676660	0.750090	0.819280
H91	H9	0.818160	0.674460	0.951360
H101	H10	0.682080	0.233700	0.766240
H111	H11	0.544950	0.324020	0.640200
H121	H12	0.910930	0.472600	0.007420
H131	H13	0.915350	0.316780	0.923520
H141	H14	0.690990	0.218110	0.953260
H151	H15	0.176660	0.069190	0.819280
H161	H16	0.318160	0.276900	0.951360
H171	H17	0.182080	0.532540	0.766240
H181	H18	0.044950	0.316180	0.640200
H191	H19	0.410930	0.534820	0.007420
H201	H20	0.415350	0.606740	0.923520
H211	H21	0.190990	0.735150	0.953260
H221	H22	0.323340	0.249910	0.180720
H231	H23	0.181840	0.325540	0.048640
H241	H24	0.317920	0.766300	0.233760
H251	H25	0.455050	0.675980	0.359800
H261	H26	0.089070	0.527400	0.992580
H271	H27	0.084650	0.683220	0.076480
H281	H28	0.309010	0.781890	0.046740
C11	C1	0.769600	0.256800	0.301600
C21	C2	0.775000	0.202500	0.392000
C31	C3	0.821900	0.834600	0.191400
C41	C4	0.737200	0.712400	0.112000
C51	C5	0.736300	0.573900	0.128600
C61	C6	0.817400	0.562500	0.221400
C71	C7	0.898800	0.691700	0.295800
C81	C8	0.646870	0.436000	0.046000
C91	C9	0.730400	0.955200	0.698400
C101	C10	0.725000	0.810500	0.608000
C111	C11	0.678100	0.643200	0.808600
C121	C12	0.762800	0.600400	0.888000
C131	C13	0.763700	0.445300	0.871400
C141	C14	0.682600	0.341100	0.778600
C151	C15	0.601200	0.395900	0.704200
C161	C16	0.853130	0.390000	0.954000
C171	C17	0.230400	0.743200	0.698400
C181	C18	0.225000	0.797500	0.608000
C191	C19	0.178100	0.165400	0.808600
C201	C20	0.262800	0.287600	0.888000
C211	C21	0.263700	0.426100	0.871400
C221	C22	0.182600	0.437500	0.778600
C231	C23	0.101200	0.308300	0.704200
C241	C24	0.353130	0.564000	0.954000
C251	C25	0.269600	0.044800	0.301600
C261	C26	0.275000	0.189500	0.392000
C271	C27	0.321900	0.356800	0.191400
C281	C28	0.237200	0.399600	0.112000
C291	C29	0.236300	0.554700	0.128600
C301	C30	0.317400	0.658900	0.221400
C311	C31	0.398800	0.604100	0.295800
C321	C32	0.146870	0.610000	0.046000
C331	C33	0.750000	0.320000	0.000000
C341	C34	0.250000	0.680000	0.000000
N11	N1	0.675800	0.246400	0.450800
N21	N2	0.706400	0.182700	0.525400
N31	N3	0.822800	0.101900	0.509800
N41	N4	0.866000	0.113500	0.427000
N51	N5	0.902000	0.827400	0.282000
N61	N6	0.824200	0.795600	0.549200
N71	N7	0.793600	0.657300	0.474600
N81	N8	0.677200	0.592100	0.490200
N91	N9	0.634000	0.686500	0.573000
N101	N10	0.598000	0.545400	0.718000
N111	N11	0.324200	0.753600	0.549200
N121	N12	0.293600	0.817300	0.474600
N131	N13	0.177200	0.898100	0.490200
N141	N14	0.134000	0.886500	0.573000
N151	N15	0.098000	0.172600	0.718000
N161	N16	0.175800	0.204400	0.450800
N171	N17	0.206400	0.342700	0.525400
N181	N18	0.322800	0.407900	0.509800
N191	N19	0.366000	0.313500	0.427000
N201	N20	0.402000	0.454600	0.282000
O11	O1	0.866400	0.228200	0.250400
O21	O2	0.655000	0.329500	0.289000
O31	O3	0.633600	0.977800	0.749600
O41	O4	0.845000	0.040500	0.711000
O51	O5	0.133600	0.771800	0.749600
O61	O6	0.345000	0.670500	0.711000
O71	O7	0.366400	0.022200	0.250400
O81	O8	0.155000	0.959500	0.289000
