data_ADATOQ_freeONLY_PM
_symmetry_space_group_name_H-M	'P1'
_cell_length_a	25.688600
_cell_length_b	25.688600
_cell_length_c	25.688600
_cell_angle_alpha	90.000000
_cell_angle_beta	90.000000
_cell_angle_gamma	90.000000
_symmetry_Int_Tables_number 1

loop_
_symmetry_equiv_pos_as_xyz
'x,y,z'

loop_
_atom_site_label
_atom_site_type_symbol
_atom_site_fract_x
_atom_site_fract_y
_atom_site_fract_z
N11	N1	0.366100	0.063200	0.300100
N21	N2	0.441060	0.107800	0.280760
H11	H1	0.463200	0.131700	0.288400
N31	N3	0.454200	0.070970	0.246000
C11	C1	0.319200	0.061800	0.324500
H21	H2	0.298500	0.032300	0.320900
C21	C2	0.301200	0.102700	0.354700
H31	H3	0.270400	0.099400	0.373500
C31	C3	0.328900	0.147500	0.356400
H41	H4	0.315400	0.176600	0.373100
C41	C4	0.377100	0.149600	0.333300
H51	H5	0.397700	0.179100	0.337700
C51	C5	0.395600	0.108200	0.303200
C61	C6	0.500900	0.071700	0.228100
C71	C7	0.543100	0.110700	0.248500
H61	H6	0.528400	0.131900	0.275500
H71	H7	0.554500	0.132500	0.220400
H81	H8	0.572200	0.091600	0.262100
C81	C8	0.515900	0.035400	0.185600
C91	C9	0.569300	0.022200	0.178500
H91	H9	0.594800	0.034600	0.200900
C101	C10	0.582000	0.990400	0.137400
H101	H10	0.616700	0.981900	0.131900
C111	C11	0.546300	0.971500	0.105500
C121	C12	0.492500	0.985000	0.114100
H111	H11	0.466800	0.972100	0.092000
C131	C13	0.479800	0.015200	0.152500
H121	H12	0.444900	0.023200	0.157700
N41	N4	0.866100	0.563200	0.800100
N51	N5	0.941060	0.607800	0.780760
H131	H13	0.963200	0.631700	0.788400
N61	N6	0.954200	0.570970	0.746000
C141	C14	0.819200	0.561800	0.824500
H141	H14	0.798500	0.532300	0.820900
C151	C15	0.801200	0.602700	0.854700
H151	H15	0.770400	0.599400	0.873500
C161	C16	0.828900	0.647500	0.856400
H161	H16	0.815400	0.676600	0.873100
C171	C17	0.877100	0.649600	0.833300
H171	H17	0.897700	0.679100	0.837700
C181	C18	0.895600	0.608200	0.803200
C191	C19	0.000900	0.571700	0.728100
C201	C20	0.043100	0.610700	0.748500
H181	H18	0.028400	0.631900	0.775500
H191	H19	0.054500	0.632500	0.720400
H201	H20	0.072200	0.591600	0.762100
C211	C21	0.015900	0.535400	0.685600
C221	C22	0.069300	0.522200	0.678500
H211	H21	0.094800	0.534600	0.700900
C231	C23	0.082000	0.490400	0.637400
H221	H22	0.116700	0.481900	0.631900
C241	C24	0.046300	0.471500	0.605500
C251	C25	0.992500	0.485000	0.614100
H231	H23	0.966800	0.472100	0.592000
C261	C26	0.979800	0.515200	0.652500
H241	H24	0.944900	0.523200	0.657700
N71	N7	0.133900	0.936800	0.800100
N81	N8	0.058940	0.892200	0.780760
H251	H25	0.036800	0.868300	0.788400
N91	N9	0.045800	0.929030	0.746000
C271	C27	0.180800	0.938200	0.824500
H261	H26	0.201500	0.967700	0.820900
C281	C28	0.198800	0.897300	0.854700
H271	H27	0.229600	0.900600	0.873500
C291	C29	0.171100	0.852500	0.856400
H281	H28	0.184600	0.823400	0.873100
C301	C30	0.122900	0.850400	0.833300
H291	H29	0.102300	0.820900	0.837700
C311	C31	0.104400	0.891800	0.803200
C321	C32	0.999100	0.928300	0.728100
C331	C33	0.956900	0.889300	0.748500
H301	H30	0.971600	0.868100	0.775500
H311	H31	0.945500	0.867500	0.720400
H321	H32	0.927800	0.908400	0.762100
C341	C34	0.984100	0.964600	0.685600
C351	C35	0.930700	0.977800	0.678500
H331	H33	0.905200	0.965400	0.700900
C361	C36	0.918000	0.009600	0.637400
H341	H34	0.883300	0.018100	0.631900
C371	C37	0.953700	0.028500	0.605500
C381	C38	0.007500	0.015000	0.614100
H351	H35	0.033200	0.027900	0.592000
C391	C39	0.020200	0.984800	0.652500
H361	H36	0.055100	0.976800	0.657700
N101	N10	0.633900	0.436800	0.300100
N111	N11	0.558940	0.392200	0.280760
H371	H37	0.536800	0.368300	0.288400
N121	N12	0.545800	0.429030	0.246000
C401	C40	0.680800	0.438200	0.324500
H381	H38	0.701500	0.467700	0.320900
C411	C41	0.698800	0.397300	0.354700
H391	H39	0.729600	0.400600	0.373500
C421	C42	0.671100	0.352500	0.356400
H401	H40	0.684600	0.323400	0.373100
C431	C43	0.622900	0.350400	0.333300
H411	H41	0.602300	0.320900	0.337700
C441	C44	0.604400	0.391800	0.303200
C451	C45	0.499100	0.428300	0.228100
C461	C46	0.456900	0.389300	0.248500
H421	H42	0.471600	0.368100	0.275500
H431	H43	0.445500	0.367500	0.220400
H441	H44	0.427800	0.408400	0.262100
C471	C47	0.484100	0.464600	0.185600
C481	C48	0.430700	0.477800	0.178500
H451	H45	0.405200	0.465400	0.200900
C491	C49	0.418000	0.509600	0.137400
H461	H46	0.383300	0.518100	0.131900
C501	C50	0.453700	0.528500	0.105500
C511	C51	0.507500	0.515000	0.114100
H471	H47	0.533200	0.527900	0.092000
C521	C52	0.520200	0.484800	0.152500
H481	H48	0.555100	0.476800	0.157700
N131	N13	0.633900	0.563200	0.199900
N141	N14	0.558940	0.607800	0.219240
H491	H49	0.536800	0.631700	0.211600
N151	N15	0.545800	0.570970	0.254000
C531	C53	0.680800	0.561800	0.175500
H501	H50	0.701500	0.532300	0.179100
C541	C54	0.698800	0.602700	0.145300
H511	H51	0.729600	0.599400	0.126500
C551	C55	0.671100	0.647500	0.143600
H521	H52	0.684600	0.676600	0.126900
C561	C56	0.622900	0.649600	0.166700
H531	H53	0.602300	0.679100	0.162300
C571	C57	0.604400	0.608200	0.196800
C581	C58	0.499100	0.571700	0.271900
C591	C59	0.456900	0.610700	0.251500
H541	H54	0.471600	0.631900	0.224500
H551	H55	0.445500	0.632500	0.279600
H561	H56	0.427800	0.591600	0.237900
C601	C60	0.484100	0.535400	0.314400
C611	C61	0.430700	0.522200	0.321500
H571	H57	0.405200	0.534600	0.299100
C621	C62	0.418000	0.490400	0.362600
H581	H58	0.383300	0.481900	0.368100
C631	C63	0.453700	0.471500	0.394500
C641	C64	0.507500	0.485000	0.385900
H591	H59	0.533200	0.472100	0.408000
C651	C65	0.520200	0.515200	0.347500
H601	H60	0.555100	0.523200	0.342300
N161	N16	0.133900	0.063200	0.699900
N171	N17	0.058940	0.107800	0.719240
H611	H61	0.036800	0.131700	0.711600
N181	N18	0.045800	0.070970	0.754000
C661	C66	0.180800	0.061800	0.675500
H621	H62	0.201500	0.032300	0.679100
C671	C67	0.198800	0.102700	0.645300
H631	H63	0.229600	0.099400	0.626500
C681	C68	0.171100	0.147500	0.643600
H641	H64	0.184600	0.176600	0.626900
C691	C69	0.122900	0.149600	0.666700
H651	H65	0.102300	0.179100	0.662300
C701	C70	0.104400	0.108200	0.696800
C711	C71	0.999100	0.071700	0.771900
C721	C72	0.956900	0.110700	0.751500
H661	H66	0.971600	0.131900	0.724500
H671	H67	0.945500	0.132500	0.779600
H681	H68	0.927800	0.091600	0.737900
C731	C73	0.984100	0.035400	0.814400
C741	C74	0.930700	0.022200	0.821500
H691	H69	0.905200	0.034600	0.799100
C751	C75	0.918000	0.990400	0.862600
H701	H70	0.883300	0.981900	0.868100
C761	C76	0.953700	0.971500	0.894500
C771	C77	0.007500	0.985000	0.885900
H711	H71	0.033200	0.972100	0.908000
C781	C78	0.020200	0.015200	0.847500
H721	H72	0.055100	0.023200	0.842300
N191	N19	0.866100	0.436800	0.699900
N201	N20	0.941060	0.392200	0.719240
H731	H73	0.963200	0.368300	0.711600
N211	N21	0.954200	0.429030	0.754000
C791	C79	0.819200	0.438200	0.675500
H741	H74	0.798500	0.467700	0.679100
C801	C80	0.801200	0.397300	0.645300
H751	H75	0.770400	0.400600	0.626500
C811	C81	0.828900	0.352500	0.643600
H761	H76	0.815400	0.323400	0.626900
C821	C82	0.877100	0.350400	0.666700
H771	H77	0.897700	0.320900	0.662300
C831	C83	0.895600	0.391800	0.696800
C841	C84	0.000900	0.428300	0.771900
C851	C85	0.043100	0.389300	0.751500
H781	H78	0.028400	0.368100	0.724500
H791	H79	0.054500	0.367500	0.779600
H801	H80	0.072200	0.408400	0.737900
C861	C86	0.015900	0.464600	0.814400
C871	C87	0.069300	0.477800	0.821500
H811	H81	0.094800	0.465400	0.799100
C881	C88	0.082000	0.509600	0.862600
H821	H82	0.116700	0.518100	0.868100
C891	C89	0.046300	0.528500	0.894500
C901	C90	0.992500	0.515000	0.885900
H831	H83	0.966800	0.527900	0.908000
C911	C91	0.979800	0.484800	0.847500
H841	H84	0.944900	0.476800	0.842300
N221	N22	0.366100	0.936800	0.199900
N231	N23	0.441060	0.892200	0.219240
H851	H85	0.463200	0.868300	0.211600
N241	N24	0.454200	0.929030	0.254000
C921	C92	0.319200	0.938200	0.175500
H861	H86	0.298500	0.967700	0.179100
C931	C93	0.301200	0.897300	0.145300
H871	H87	0.270400	0.900600	0.126500
C941	C94	0.328900	0.852500	0.143600
H881	H88	0.315400	0.823400	0.126900
C951	C95	0.377100	0.850400	0.166700
H891	H89	0.397700	0.820900	0.162300
C961	C96	0.395600	0.891800	0.196800
C971	C97	0.500900	0.928300	0.271900
C981	C98	0.543100	0.889300	0.251500
H901	H90	0.528400	0.868100	0.224500
H911	H91	0.554500	0.867500	0.279600
H921	H92	0.572200	0.908400	0.237900
C991	C99	0.515900	0.964600	0.314400
C1001	C100	0.569300	0.977800	0.321500
H931	H93	0.594800	0.965400	0.299100
C1011	C101	0.582000	0.009600	0.362600
H941	H94	0.616700	0.018100	0.368100
C1021	C102	0.546300	0.028500	0.394500
C1031	C103	0.492500	0.015000	0.385900
H951	H95	0.466800	0.027900	0.408000
C1041	C104	0.479800	0.984800	0.347500
H961	H96	0.444900	0.976800	0.342300
N251	N25	0.300100	0.366100	0.063200
N261	N26	0.280760	0.441060	0.107800
H971	H97	0.288400	0.463200	0.131700
N271	N27	0.246000	0.454200	0.070970
C1051	C105	0.324500	0.319200	0.061800
H981	H98	0.320900	0.298500	0.032300
C1061	C106	0.354700	0.301200	0.102700
H991	H99	0.373500	0.270400	0.099400
C1071	C107	0.356400	0.328900	0.147500
H1001	H100	0.373100	0.315400	0.176600
C1081	C108	0.333300	0.377100	0.149600
H1011	H101	0.337700	0.397700	0.179100
C1091	C109	0.303200	0.395600	0.108200
C1101	C110	0.228100	0.500900	0.071700
C1111	C111	0.248500	0.543100	0.110700
H1021	H102	0.275500	0.528400	0.131900
H1031	H103	0.220400	0.554500	0.132500
H1041	H104	0.262100	0.572200	0.091600
C1121	C112	0.185600	0.515900	0.035400
C1131	C113	0.178500	0.569300	0.022200
H1051	H105	0.200900	0.594800	0.034600
C1141	C114	0.137400	0.582000	0.990400
H1061	H106	0.131900	0.616700	0.981900
C1151	C115	0.105500	0.546300	0.971500
C1161	C116	0.114100	0.492500	0.985000
H1071	H107	0.092000	0.466800	0.972100
C1171	C117	0.152500	0.479800	0.015200
H1081	H108	0.157700	0.444900	0.023200
N281	N28	0.800100	0.866100	0.563200
N291	N29	0.780760	0.941060	0.607800
H1091	H109	0.788400	0.963200	0.631700
N301	N30	0.746000	0.954200	0.570970
C1181	C118	0.824500	0.819200	0.561800
H1101	H110	0.820900	0.798500	0.532300
C1191	C119	0.854700	0.801200	0.602700
H1111	H111	0.873500	0.770400	0.599400
C1201	C120	0.856400	0.828900	0.647500
H1121	H112	0.873100	0.815400	0.676600
C1211	C121	0.833300	0.877100	0.649600
H1131	H113	0.837700	0.897700	0.679100
C1221	C122	0.803200	0.895600	0.608200
C1231	C123	0.728100	0.000900	0.571700
C1241	C124	0.748500	0.043100	0.610700
H1141	H114	0.775500	0.028400	0.631900
H1151	H115	0.720400	0.054500	0.632500
H1161	H116	0.762100	0.072200	0.591600
C1251	C125	0.685600	0.015900	0.535400
C1261	C126	0.678500	0.069300	0.522200
H1171	H117	0.700900	0.094800	0.534600
C1271	C127	0.637400	0.082000	0.490400
H1181	H118	0.631900	0.116700	0.481900
C1281	C128	0.605500	0.046300	0.471500
C1291	C129	0.614100	0.992500	0.485000
H1191	H119	0.592000	0.966800	0.472100
C1301	C130	0.652500	0.979800	0.515200
H1201	H120	0.657700	0.944900	0.523200
N311	N31	0.800100	0.133900	0.936800
N321	N32	0.780760	0.058940	0.892200
H1211	H121	0.788400	0.036800	0.868300
N331	N33	0.746000	0.045800	0.929030
C1311	C131	0.824500	0.180800	0.938200
H1221	H122	0.820900	0.201500	0.967700
C1321	C132	0.854700	0.198800	0.897300
H1231	H123	0.873500	0.229600	0.900600
C1331	C133	0.856400	0.171100	0.852500
H1241	H124	0.873100	0.184600	0.823400
C1341	C134	0.833300	0.122900	0.850400
H1251	H125	0.837700	0.102300	0.820900
C1351	C135	0.803200	0.104400	0.891800
C1361	C136	0.728100	0.999100	0.928300
C1371	C137	0.748500	0.956900	0.889300
H1261	H126	0.775500	0.971600	0.868100
H1271	H127	0.720400	0.945500	0.867500
H1281	H128	0.762100	0.927800	0.908400
C1381	C138	0.685600	0.984100	0.964600
C1391	C139	0.678500	0.930700	0.977800
H1291	H129	0.700900	0.905200	0.965400
C1401	C140	0.637400	0.918000	0.009600
H1301	H130	0.631900	0.883300	0.018100
C1411	C141	0.605500	0.953700	0.028500
C1421	C142	0.614100	0.007500	0.015000
H1311	H131	0.592000	0.033200	0.027900
C1431	C143	0.652500	0.020200	0.984800
H1321	H132	0.657700	0.055100	0.976800
N341	N34	0.300100	0.633900	0.436800
N351	N35	0.280760	0.558940	0.392200
H1331	H133	0.288400	0.536800	0.368300
N361	N36	0.246000	0.545800	0.429030
C1441	C144	0.324500	0.680800	0.438200
H1341	H134	0.320900	0.701500	0.467700
C1451	C145	0.354700	0.698800	0.397300
H1351	H135	0.373500	0.729600	0.400600
C1461	C146	0.356400	0.671100	0.352500
H1361	H136	0.373100	0.684600	0.323400
C1471	C147	0.333300	0.622900	0.350400
H1371	H137	0.337700	0.602300	0.320900
C1481	C148	0.303200	0.604400	0.391800
C1491	C149	0.228100	0.499100	0.428300
C1501	C150	0.248500	0.456900	0.389300
H1381	H138	0.275500	0.471600	0.368100
H1391	H139	0.220400	0.445500	0.367500
H1401	H140	0.262100	0.427800	0.408400
C1511	C151	0.185600	0.484100	0.464600
C1521	C152	0.178500	0.430700	0.477800
H1411	H141	0.200900	0.405200	0.465400
C1531	C153	0.137400	0.418000	0.509600
H1421	H142	0.131900	0.383300	0.518100
C1541	C154	0.105500	0.453700	0.528500
C1551	C155	0.114100	0.507500	0.515000
H1431	H143	0.092000	0.533200	0.527900
C1561	C156	0.152500	0.520200	0.484800
H1441	H144	0.157700	0.555100	0.476800
N371	N37	0.199900	0.633900	0.563200
N381	N38	0.219240	0.558940	0.607800
H1451	H145	0.211600	0.536800	0.631700
N391	N39	0.254000	0.545800	0.570970
C1571	C157	0.175500	0.680800	0.561800
H1461	H146	0.179100	0.701500	0.532300
C1581	C158	0.145300	0.698800	0.602700
H1471	H147	0.126500	0.729600	0.599400
C1591	C159	0.143600	0.671100	0.647500
H1481	H148	0.126900	0.684600	0.676600
C1601	C160	0.166700	0.622900	0.649600
H1491	H149	0.162300	0.602300	0.679100
C1611	C161	0.196800	0.604400	0.608200
C1621	C162	0.271900	0.499100	0.571700
C1631	C163	0.251500	0.456900	0.610700
H1501	H150	0.224500	0.471600	0.631900
H1511	H151	0.279600	0.445500	0.632500
H1521	H152	0.237900	0.427800	0.591600
C1641	C164	0.314400	0.484100	0.535400
C1651	C165	0.321500	0.430700	0.522200
H1531	H153	0.299100	0.405200	0.534600
C1661	C166	0.362600	0.418000	0.490400
H1541	H154	0.368100	0.383300	0.481900
C1671	C167	0.394500	0.453700	0.471500
C1681	C168	0.385900	0.507500	0.485000
H1551	H155	0.408000	0.533200	0.472100
C1691	C169	0.347500	0.520200	0.515200
H1561	H156	0.342300	0.555100	0.523200
N401	N40	0.699900	0.133900	0.063200
N411	N41	0.719240	0.058940	0.107800
H1571	H157	0.711600	0.036800	0.131700
N421	N42	0.754000	0.045800	0.070970
C1701	C170	0.675500	0.180800	0.061800
H1581	H158	0.679100	0.201500	0.032300
C1711	C171	0.645300	0.198800	0.102700
H1591	H159	0.626500	0.229600	0.099400
C1721	C172	0.643600	0.171100	0.147500
H1601	H160	0.626900	0.184600	0.176600
C1731	C173	0.666700	0.122900	0.149600
H1611	H161	0.662300	0.102300	0.179100
C1741	C174	0.696800	0.104400	0.108200
C1751	C175	0.771900	0.999100	0.071700
C1761	C176	0.751500	0.956900	0.110700
H1621	H162	0.724500	0.971600	0.131900
H1631	H163	0.779600	0.945500	0.132500
H1641	H164	0.737900	0.927800	0.091600
C1771	C177	0.814400	0.984100	0.035400
C1781	C178	0.821500	0.930700	0.022200
H1651	H165	0.799100	0.905200	0.034600
C1791	C179	0.862600	0.918000	0.990400
H1661	H166	0.868100	0.883300	0.981900
C1801	C180	0.894500	0.953700	0.971500
C1811	C181	0.885900	0.007500	0.985000
H1671	H167	0.908000	0.033200	0.972100
C1821	C182	0.847500	0.020200	0.015200
H1681	H168	0.842300	0.055100	0.023200
N431	N43	0.699900	0.866100	0.436800
N441	N44	0.719240	0.941060	0.392200
H1691	H169	0.711600	0.963200	0.368300
N451	N45	0.754000	0.954200	0.429030
C1831	C183	0.675500	0.819200	0.438200
H1701	H170	0.679100	0.798500	0.467700
C1841	C184	0.645300	0.801200	0.397300
H1711	H171	0.626500	0.770400	0.400600
C1851	C185	0.643600	0.828900	0.352500
H1721	H172	0.626900	0.815400	0.323400
C1861	C186	0.666700	0.877100	0.350400
H1731	H173	0.662300	0.897700	0.320900
C1871	C187	0.696800	0.895600	0.391800
C1881	C188	0.771900	0.000900	0.428300
C1891	C189	0.751500	0.043100	0.389300
H1741	H174	0.724500	0.028400	0.368100
H1751	H175	0.779600	0.054500	0.367500
H1761	H176	0.737900	0.072200	0.408400
C1901	C190	0.814400	0.015900	0.464600
C1911	C191	0.821500	0.069300	0.477800
H1771	H177	0.799100	0.094800	0.465400
C1921	C192	0.862600	0.082000	0.509600
H1781	H178	0.868100	0.116700	0.518100
C1931	C193	0.894500	0.046300	0.528500
C1941	C194	0.885900	0.992500	0.515000
H1791	H179	0.908000	0.966800	0.527900
C1951	C195	0.847500	0.979800	0.484800
H1801	H180	0.842300	0.944900	0.476800
N461	N46	0.199900	0.366100	0.936800
N471	N47	0.219240	0.441060	0.892200
H1811	H181	0.211600	0.463200	0.868300
N481	N48	0.254000	0.454200	0.929030
C1961	C196	0.175500	0.319200	0.938200
H1821	H182	0.179100	0.298500	0.967700
C1971	C197	0.145300	0.301200	0.897300
H1831	H183	0.126500	0.270400	0.900600
C1981	C198	0.143600	0.328900	0.852500
H1841	H184	0.126900	0.315400	0.823400
C1991	C199	0.166700	0.377100	0.850400
H1851	H185	0.162300	0.397700	0.820900
C2001	C200	0.196800	0.395600	0.891800
C2011	C201	0.271900	0.500900	0.928300
C2021	C202	0.251500	0.543100	0.889300
H1861	H186	0.224500	0.528400	0.868100
H1871	H187	0.279600	0.554500	0.867500
H1881	H188	0.237900	0.572200	0.908400
C2031	C203	0.314400	0.515900	0.964600
C2041	C204	0.321500	0.569300	0.977800
H1891	H189	0.299100	0.594800	0.965400
C2051	C205	0.362600	0.582000	0.009600
H1901	H190	0.368100	0.616700	0.018100
C2061	C206	0.394500	0.546300	0.028500
C2071	C207	0.385900	0.492500	0.015000
H1911	H191	0.408000	0.466800	0.027900
C2081	C208	0.347500	0.479800	0.984800
H1921	H192	0.342300	0.444900	0.976800
N491	N49	0.063200	0.300100	0.366100
N501	N50	0.107800	0.280760	0.441060
H1931	H193	0.131700	0.288400	0.463200
N511	N51	0.070970	0.246000	0.454200
C2091	C209	0.061800	0.324500	0.319200
H1941	H194	0.032300	0.320900	0.298500
C2101	C210	0.102700	0.354700	0.301200
H1951	H195	0.099400	0.373500	0.270400
C2111	C211	0.147500	0.356400	0.328900
H1961	H196	0.176600	0.373100	0.315400
C2121	C212	0.149600	0.333300	0.377100
H1971	H197	0.179100	0.337700	0.397700
C2131	C213	0.108200	0.303200	0.395600
C2141	C214	0.071700	0.228100	0.500900
C2151	C215	0.110700	0.248500	0.543100
H1981	H198	0.131900	0.275500	0.528400
H1991	H199	0.132500	0.220400	0.554500
H2001	H200	0.091600	0.262100	0.572200
C2161	C216	0.035400	0.185600	0.515900
C2171	C217	0.022200	0.178500	0.569300
H2011	H201	0.034600	0.200900	0.594800
C2181	C218	0.990400	0.137400	0.582000
H2021	H202	0.981900	0.131900	0.616700
C2191	C219	0.971500	0.105500	0.546300
C2201	C220	0.985000	0.114100	0.492500
H2031	H203	0.972100	0.092000	0.466800
C2211	C221	0.015200	0.152500	0.479800
H2041	H204	0.023200	0.157700	0.444900
N521	N52	0.563200	0.800100	0.866100
N531	N53	0.607800	0.780760	0.941060
H2051	H205	0.631700	0.788400	0.963200
N541	N54	0.570970	0.746000	0.954200
C2221	C222	0.561800	0.824500	0.819200
H2061	H206	0.532300	0.820900	0.798500
C2231	C223	0.602700	0.854700	0.801200
H2071	H207	0.599400	0.873500	0.770400
C2241	C224	0.647500	0.856400	0.828900
H2081	H208	0.676600	0.873100	0.815400
C2251	C225	0.649600	0.833300	0.877100
H2091	H209	0.679100	0.837700	0.897700
C2261	C226	0.608200	0.803200	0.895600
C2271	C227	0.571700	0.728100	0.000900
C2281	C228	0.610700	0.748500	0.043100
H2101	H210	0.631900	0.775500	0.028400
H2111	H211	0.632500	0.720400	0.054500
H2121	H212	0.591600	0.762100	0.072200
C2291	C229	0.535400	0.685600	0.015900
C2301	C230	0.522200	0.678500	0.069300
H2131	H213	0.534600	0.700900	0.094800
C2311	C231	0.490400	0.637400	0.082000
H2141	H214	0.481900	0.631900	0.116700
C2321	C232	0.471500	0.605500	0.046300
C2331	C233	0.485000	0.614100	0.992500
H2151	H215	0.472100	0.592000	0.966800
C2341	C234	0.515200	0.652500	0.979800
H2161	H216	0.523200	0.657700	0.944900
N551	N55	0.936800	0.800100	0.133900
N561	N56	0.892200	0.780760	0.058940
H2171	H217	0.868300	0.788400	0.036800
N571	N57	0.929030	0.746000	0.045800
C2351	C235	0.938200	0.824500	0.180800
H2181	H218	0.967700	0.820900	0.201500
C2361	C236	0.897300	0.854700	0.198800
H2191	H219	0.900600	0.873500	0.229600
C2371	C237	0.852500	0.856400	0.171100
H2201	H220	0.823400	0.873100	0.184600
C2381	C238	0.850400	0.833300	0.122900
H2211	H221	0.820900	0.837700	0.102300
C2391	C239	0.891800	0.803200	0.104400
C2401	C240	0.928300	0.728100	0.999100
C2411	C241	0.889300	0.748500	0.956900
H2221	H222	0.868100	0.775500	0.971600
H2231	H223	0.867500	0.720400	0.945500
H2241	H224	0.908400	0.762100	0.927800
C2421	C242	0.964600	0.685600	0.984100
C2431	C243	0.977800	0.678500	0.930700
H2251	H225	0.965400	0.700900	0.905200
C2441	C244	0.009600	0.637400	0.918000
H2261	H226	0.018100	0.631900	0.883300
C2451	C245	0.028500	0.605500	0.953700
C2461	C246	0.015000	0.614100	0.007500
H2271	H227	0.027900	0.592000	0.033200
C2471	C247	0.984800	0.652500	0.020200
H2281	H228	0.976800	0.657700	0.055100
N581	N58	0.436800	0.300100	0.633900
N591	N59	0.392200	0.280760	0.558940
H2291	H229	0.368300	0.288400	0.536800
N601	N60	0.429030	0.246000	0.545800
C2481	C248	0.438200	0.324500	0.680800
H2301	H230	0.467700	0.320900	0.701500
C2491	C249	0.397300	0.354700	0.698800
H2311	H231	0.400600	0.373500	0.729600
C2501	C250	0.352500	0.356400	0.671100
H2321	H232	0.323400	0.373100	0.684600
C2511	C251	0.350400	0.333300	0.622900
H2331	H233	0.320900	0.337700	0.602300
C2521	C252	0.391800	0.303200	0.604400
C2531	C253	0.428300	0.228100	0.499100
C2541	C254	0.389300	0.248500	0.456900
H2341	H234	0.368100	0.275500	0.471600
H2351	H235	0.367500	0.220400	0.445500
H2361	H236	0.408400	0.262100	0.427800
C2551	C255	0.464600	0.185600	0.484100
C2561	C256	0.477800	0.178500	0.430700
H2371	H237	0.465400	0.200900	0.405200
C2571	C257	0.509600	0.137400	0.418000
H2381	H238	0.518100	0.131900	0.383300
C2581	C258	0.528500	0.105500	0.453700
C2591	C259	0.515000	0.114100	0.507500
H2391	H239	0.527900	0.092000	0.533200
C2601	C260	0.484800	0.152500	0.520200
H2401	H240	0.476800	0.157700	0.555100
N611	N61	0.563200	0.199900	0.633900
N621	N62	0.607800	0.219240	0.558940
H2411	H241	0.631700	0.211600	0.536800
N631	N63	0.570970	0.254000	0.545800
C2611	C261	0.561800	0.175500	0.680800
H2421	H242	0.532300	0.179100	0.701500
C2621	C262	0.602700	0.145300	0.698800
H2431	H243	0.599400	0.126500	0.729600
C2631	C263	0.647500	0.143600	0.671100
H2441	H244	0.676600	0.126900	0.684600
C2641	C264	0.649600	0.166700	0.622900
H2451	H245	0.679100	0.162300	0.602300
C2651	C265	0.608200	0.196800	0.604400
C2661	C266	0.571700	0.271900	0.499100
C2671	C267	0.610700	0.251500	0.456900
H2461	H246	0.631900	0.224500	0.471600
H2471	H247	0.632500	0.279600	0.445500
H2481	H248	0.591600	0.237900	0.427800
C2681	C268	0.535400	0.314400	0.484100
C2691	C269	0.522200	0.321500	0.430700
H2491	H249	0.534600	0.299100	0.405200
C2701	C270	0.490400	0.362600	0.418000
H2501	H250	0.481900	0.368100	0.383300
C2711	C271	0.471500	0.394500	0.453700
C2721	C272	0.485000	0.385900	0.507500
H2511	H251	0.472100	0.408000	0.533200
C2731	C273	0.515200	0.347500	0.520200
H2521	H252	0.523200	0.342300	0.555100
N641	N64	0.063200	0.699900	0.133900
N651	N65	0.107800	0.719240	0.058940
H2531	H253	0.131700	0.711600	0.036800
N661	N66	0.070970	0.754000	0.045800
C2741	C274	0.061800	0.675500	0.180800
H2541	H254	0.032300	0.679100	0.201500
C2751	C275	0.102700	0.645300	0.198800
H2551	H255	0.099400	0.626500	0.229600
C2761	C276	0.147500	0.643600	0.171100
H2561	H256	0.176600	0.626900	0.184600
C2771	C277	0.149600	0.666700	0.122900
H2571	H257	0.179100	0.662300	0.102300
C2781	C278	0.108200	0.696800	0.104400
C2791	C279	0.071700	0.771900	0.999100
C2801	C280	0.110700	0.751500	0.956900
H2581	H258	0.131900	0.724500	0.971600
H2591	H259	0.132500	0.779600	0.945500
H2601	H260	0.091600	0.737900	0.927800
C2811	C281	0.035400	0.814400	0.984100
C2821	C282	0.022200	0.821500	0.930700
H2611	H261	0.034600	0.799100	0.905200
C2831	C283	0.990400	0.862600	0.918000
H2621	H262	0.981900	0.868100	0.883300
C2841	C284	0.971500	0.894500	0.953700
C2851	C285	0.985000	0.885900	0.007500
H2631	H263	0.972100	0.908000	0.033200
C2861	C286	0.015200	0.847500	0.020200
H2641	H264	0.023200	0.842300	0.055100
N671	N67	0.436800	0.699900	0.866100
N681	N68	0.392200	0.719240	0.941060
H2651	H265	0.368300	0.711600	0.963200
N691	N69	0.429030	0.754000	0.954200
C2871	C287	0.438200	0.675500	0.819200
H2661	H266	0.467700	0.679100	0.798500
C2881	C288	0.397300	0.645300	0.801200
H2671	H267	0.400600	0.626500	0.770400
C2891	C289	0.352500	0.643600	0.828900
H2681	H268	0.323400	0.626900	0.815400
C2901	C290	0.350400	0.666700	0.877100
H2691	H269	0.320900	0.662300	0.897700
C2911	C291	0.391800	0.696800	0.895600
C2921	C292	0.428300	0.771900	0.000900
C2931	C293	0.389300	0.751500	0.043100
H2701	H270	0.368100	0.724500	0.028400
H2711	H271	0.367500	0.779600	0.054500
H2721	H272	0.408400	0.737900	0.072200
C2941	C294	0.464600	0.814400	0.015900
C2951	C295	0.477800	0.821500	0.069300
H2731	H273	0.465400	0.799100	0.094800
C2961	C296	0.509600	0.862600	0.082000
H2741	H274	0.518100	0.868100	0.116700
C2971	C297	0.528500	0.894500	0.046300
C2981	C298	0.515000	0.885900	0.992500
H2751	H275	0.527900	0.908000	0.966800
C2991	C299	0.484800	0.847500	0.979800
H2761	H276	0.476800	0.842300	0.944900
N701	N70	0.936800	0.199900	0.366100
N711	N71	0.892200	0.219240	0.441060
H2771	H277	0.868300	0.211600	0.463200
N721	N72	0.929030	0.254000	0.454200
C3001	C300	0.938200	0.175500	0.319200
H2781	H278	0.967700	0.179100	0.298500
C3011	C301	0.897300	0.145300	0.301200
H2791	H279	0.900600	0.126500	0.270400
C3021	C302	0.852500	0.143600	0.328900
H2801	H280	0.823400	0.126900	0.315400
C3031	C303	0.850400	0.166700	0.377100
H2811	H281	0.820900	0.162300	0.397700
C3041	C304	0.891800	0.196800	0.395600
C3051	C305	0.928300	0.271900	0.500900
C3061	C306	0.889300	0.251500	0.543100
H2821	H282	0.868100	0.224500	0.528400
H2831	H283	0.867500	0.279600	0.554500
H2841	H284	0.908400	0.237900	0.572200
C3071	C307	0.964600	0.314400	0.515900
C3081	C308	0.977800	0.321500	0.569300
H2851	H285	0.965400	0.299100	0.594800
C3091	C309	0.009600	0.362600	0.582000
H2861	H286	0.018100	0.368100	0.616700
C3101	C310	0.028500	0.394500	0.546300
C3111	C311	0.015000	0.385900	0.492500
H2871	H287	0.027900	0.408000	0.466800
C3121	C312	0.984800	0.347500	0.479800
H2881	H288	0.976800	0.342300	0.444900
Ag11	Ag1	0.394100	0.000000	0.250000
Ag21	Ag2	0.105900	0.000000	0.750000
Ag31	Ag3	0.605900	0.500000	0.250000
Ag41	Ag4	0.894100	0.500000	0.750000
Ag51	Ag5	0.250000	0.394100	0.000000
Ag61	Ag6	0.750000	0.105900	0.000000
Ag71	Ag7	0.250000	0.605900	0.500000
Ag81	Ag8	0.750000	0.894100	0.500000
Ag91	Ag9	0.000000	0.250000	0.394100
Ag101	Ag10	0.000000	0.750000	0.105900
Ag111	Ag11	0.500000	0.250000	0.605900
Ag121	Ag12	0.500000	0.750000	0.894100
N731	N73	0.562200	0.937800	0.062200
N741	N74	0.062200	0.437800	0.562200
N751	N75	0.937800	0.062200	0.562200
N761	N76	0.437800	0.562200	0.062200
N771	N77	0.437800	0.437800	0.437800
N781	N78	0.937800	0.937800	0.937800
N791	N79	0.062200	0.562200	0.937800
N801	N80	0.562200	0.062200	0.437800
