data_ADATEG_manual_PM
_symmetry_space_group_name_H-M	'P1'
_cell_length_a	48.510400
_cell_length_b	48.510400
_cell_length_c	48.510400
_cell_angle_alpha	60.000000
_cell_angle_beta	60.000000
_cell_angle_gamma	60.000000
_symmetry_Int_Tables_number 1

loop_
_symmetry_equiv_pos_as_xyz
'x,y,z'

loop_
_atom_site_label
_atom_site_type_symbol
_atom_site_fract_x
_atom_site_fract_y
_atom_site_fract_z
H11	H1	0.426990	0.014940	0.897260
H21	H2	0.449020	0.029530	0.835990
H31	H3	0.353840	0.040880	0.837930
H41	H4	0.332690	0.024610	0.898950
H51	H5	0.444180	0.074690	0.785990
H61	H6	0.611460	0.058000	0.655710
H71	H7	0.554970	0.053940	0.683000
H81	H8	0.512290	0.156480	0.681820
C11	C1	0.364300	0.010890	0.939620
C21	C2	0.378190	0.018600	0.902820
C31	C3	0.411020	0.020230	0.884510
C41	C4	0.423470	0.028910	0.849420
C51	C5	0.403170	0.036450	0.832060
C61	C6	0.370380	0.034650	0.850530
C71	C7	0.358150	0.025570	0.885530
C81	C8	0.415630	0.046520	0.794810
C91	C9	0.436200	0.066850	0.774570
C101	C10	0.529780	0.105050	0.683810
C111	C11	0.589920	0.080290	0.659360
C121	C12	0.557860	0.077630	0.675880
C131	C13	0.533730	0.135560	0.674500
O11	O1	0.334890	0.008190	0.955910
O21	O2	0.381180	0.007640	0.955160
H91	H9	0.015630	0.427600	0.659970
H101	H10	0.029660	0.449970	0.684690
H111	H11	0.042150	0.354490	0.766210
H121	H12	0.025900	0.333270	0.742720
H131	H13	0.070840	0.449400	0.695530
H141	H14	0.069760	0.613450	0.688980
H151	H15	0.060800	0.558630	0.721910
H161	H16	0.140560	0.519380	0.642270
C141	C14	0.011280	0.364990	0.684590
C151	C15	0.019480	0.378790	0.699500
C161	C16	0.021040	0.411630	0.683360
C171	C17	0.029470	0.424280	0.697360
C181	C18	0.036990	0.404130	0.727550
C191	C19	0.035760	0.371100	0.743370
C201	C20	0.026740	0.358750	0.729720
C211	C21	0.045810	0.417280	0.742880
C221	C22	0.063550	0.440350	0.722790
C231	C23	0.100130	0.535360	0.684270
C241	C24	0.085660	0.592940	0.678780
C251	C25	0.080510	0.561830	0.697480
C261	C26	0.125300	0.539800	0.652630
O31	O3	0.007920	0.335870	0.700780
O41	O4	0.008120	0.381660	0.655370
H171	H17	0.895360	0.660590	0.427510
H181	H18	0.834290	0.685650	0.449870
H191	H19	0.836100	0.767270	0.354420
H201	H20	0.897000	0.743420	0.333150
H211	H21	0.783210	0.696740	0.447960
H221	H22	0.606460	0.670110	0.573180
C271	C27	0.937720	0.685220	0.364910
C281	C28	0.900920	0.700230	0.378720
C291	C29	0.882630	0.684130	0.411560
C301	C30	0.847610	0.698310	0.424220
C311	C31	0.830210	0.728640	0.404050
C321	C32	0.848670	0.744380	0.371030
C331	C33	0.883620	0.730540	0.358660
C341	C34	0.793030	0.744060	0.417000
C351	C35	0.772320	0.724000	0.439280
C361	C36	0.632200	0.666230	0.568550
O51	O5	0.954070	0.701190	0.335710
O61	O6	0.953240	0.656010	0.381820
H231	H23	0.661170	0.896640	0.015650
H241	H24	0.685290	0.835560	0.029510
H251	H25	0.767240	0.835610	0.042590
H261	H26	0.744360	0.896560	0.026500
H271	H27	0.695440	0.784370	0.071540
H281	H28	0.666330	0.609450	0.150190
C371	C37	0.686580	0.937990	0.011800
C381	C38	0.701110	0.901250	0.019860
C391	C39	0.684550	0.883520	0.021170
C401	C40	0.698190	0.848490	0.029450
C411	C41	0.728260	0.830590	0.037150
C421	C42	0.744460	0.848540	0.036100
C431	C43	0.731210	0.883490	0.027200
C441	C44	0.743110	0.793460	0.045960
C451	C45	0.722680	0.773150	0.064030
C461	C46	0.664380	0.633820	0.130610
O71	O7	0.703150	0.954250	0.007980
O81	O8	0.656990	0.953530	0.009390
H291	H29	0.896290	0.427070	0.014980
H301	H30	0.835010	0.448980	0.029750
H311	H31	0.837020	0.353760	0.041160
H321	H32	0.898070	0.332700	0.024660
H331	H33	0.785160	0.443950	0.074990
H341	H34	0.655560	0.611530	0.058050
H351	H35	0.682840	0.555060	0.053940
H361	H36	0.681580	0.512290	0.156520
C471	C47	0.938680	0.364430	0.010700
C481	C48	0.901890	0.378260	0.018570
C491	C49	0.883560	0.411040	0.020300
C501	C50	0.848460	0.423440	0.029100
C511	C51	0.831110	0.403090	0.036690
C521	C52	0.849610	0.370330	0.034860
C531	C53	0.884610	0.358160	0.025640
C541	C54	0.793880	0.415500	0.046790
C551	C55	0.773710	0.436030	0.067130
C561	C56	0.683520	0.529810	0.105090
C571	C57	0.659190	0.589970	0.080340
C581	C58	0.675700	0.557920	0.077650
C591	C59	0.674260	0.533740	0.135600
O91	O9	0.955090	0.335200	0.007590
O101	O10	0.954130	0.381340	0.007660
H371	H37	0.659440	0.017470	0.429230
H381	H38	0.684220	0.032530	0.450910
H391	H39	0.766300	0.042740	0.355830
H401	H40	0.742730	0.026100	0.335160
H411	H41	0.696110	0.076930	0.446280
H421	H42	0.664500	0.153080	0.575480
C601	C60	0.684250	0.012500	0.366650
C611	C61	0.699230	0.020510	0.380520
C621	C62	0.682960	0.022670	0.413170
C631	C63	0.696960	0.031570	0.425460
C641	C64	0.727310	0.038700	0.405160
C651	C65	0.743310	0.036700	0.372450
C661	C66	0.729640	0.027410	0.360440
C671	C67	0.742960	0.047930	0.417520
C681	C68	0.723440	0.068470	0.437900
C691	C69	0.663250	0.135440	0.569020
O111	O11	0.700390	0.009370	0.337410
O121	O12	0.654950	0.009340	0.383330
H431	H43	0.428040	0.895710	0.660170
H441	H44	0.450070	0.834540	0.684980
H451	H45	0.354580	0.836630	0.766560
H461	H46	0.333670	0.897560	0.743020
H471	H47	0.448060	0.783280	0.696280
H481	H48	0.573280	0.606620	0.669820
C701	C70	0.365700	0.938210	0.685040
C711	C71	0.379320	0.901370	0.699870
C721	C72	0.412030	0.883000	0.683640
C731	C73	0.424480	0.847930	0.697660
C741	C74	0.404220	0.830610	0.727920
C751	C75	0.371260	0.849140	0.743710
C761	C76	0.359120	0.884120	0.730060
C771	C77	0.417130	0.793450	0.743420
C781	C78	0.439360	0.772540	0.723560
C791	C79	0.568600	0.632370	0.665970
O131	O13	0.336600	0.954550	0.701120
O141	O14	0.382540	0.953840	0.655870
H491	H49	0.014840	0.660840	0.896550
H501	H50	0.029860	0.684940	0.835230
H511	H51	0.041480	0.767070	0.836430
H521	H52	0.024780	0.744080	0.897460
H531	H53	0.076040	0.693960	0.785680
H541	H54	0.075000	0.695350	0.628150
H551	H55	0.070430	0.721800	0.661320
H561	H56	0.148660	0.635130	0.697840
C801	C80	0.010600	0.685930	0.938350
C811	C81	0.018560	0.700690	0.901640
C821	C82	0.020270	0.684230	0.883600
C831	C83	0.029200	0.697810	0.848550
C841	C84	0.036950	0.727810	0.831030
C851	C85	0.035110	0.744210	0.849230
C861	C86	0.025750	0.730930	0.884190
C871	C87	0.047240	0.742110	0.793870
C881	C88	0.068020	0.721170	0.773970
C891	C89	0.109600	0.680670	0.681260
C901	C90	0.091950	0.681510	0.642320
C911	C91	0.089270	0.697090	0.661360
C921	C92	0.133000	0.648250	0.682130
O151	O15	0.007370	0.702210	0.954440
O161	O16	0.007660	0.656640	0.954090
H571	H57	0.016650	0.894410	0.429330
H581	H58	0.031470	0.833100	0.450210
H591	H59	0.041490	0.837330	0.354560
H601	H60	0.025030	0.898230	0.334600
H611	H61	0.075740	0.782890	0.444970
H621	H62	0.162990	0.621140	0.568530
C931	C93	0.011570	0.937850	0.367300
C941	C94	0.019680	0.901000	0.380520
C951	C95	0.021770	0.882080	0.413040
C961	C96	0.030560	0.847020	0.424810
C971	C97	0.037620	0.830310	0.404080
C981	C98	0.035550	0.849410	0.371450
C991	C99	0.026360	0.884360	0.359910
C1001	C100	0.047260	0.793130	0.416030
C1011	C101	0.067580	0.772120	0.436610
C1021	C102	0.139020	0.639770	0.565780
O171	O17	0.008280	0.954130	0.338200
O181	O18	0.008440	0.953500	0.384120
H631	H63	0.432240	0.657280	0.017850
H641	H64	0.452180	0.683800	0.032790
H651	H65	0.356250	0.764800	0.041510
H661	H66	0.337220	0.739450	0.025090
H671	H67	0.446250	0.696100	0.076870
H681	H68	0.575190	0.664610	0.153050
C1031	C103	0.370730	0.680050	0.011860
C1041	C104	0.383470	0.696010	0.020220
C1051	C105	0.415720	0.680830	0.022740
C1061	C106	0.426910	0.695920	0.031590
C1071	C107	0.405860	0.726480	0.038300
C1081	C108	0.373440	0.741630	0.035850
C1091	C109	0.362450	0.726810	0.026650
C1101	C110	0.417330	0.742730	0.047850
C1111	C111	0.437720	0.723410	0.068370
C1121	C112	0.568770	0.663370	0.135380
O191	O19	0.341800	0.696370	0.008360
O201	O20	0.387320	0.650590	0.008690
H691	H69	0.661930	0.425260	0.896720
H701	H70	0.685400	0.448640	0.835630
H711	H71	0.767960	0.354090	0.834940
H721	H72	0.745610	0.331700	0.896010
H731	H73	0.695950	0.447680	0.783860
H741	H74	0.669830	0.573510	0.606390
C1131	C113	0.687920	0.362370	0.937890
C1141	C114	0.702310	0.376730	0.901100
C1151	C115	0.685390	0.409660	0.883490
C1161	C116	0.698600	0.422950	0.848430
C1171	C117	0.728740	0.403360	0.830360
C1181	C118	0.745180	0.370240	0.848100
C1191	C119	0.732310	0.357220	0.883100
C1201	C120	0.743550	0.417110	0.793240
C1211	C121	0.723210	0.439300	0.772760
C1221	C122	0.665900	0.568850	0.632160
O211	O21	0.703800	0.333060	0.954360
O221	O22	0.658750	0.379470	0.953220
H751	H75	0.895950	0.015500	0.660500
H761	H76	0.834850	0.029770	0.685270
H771	H77	0.836700	0.042100	0.766670
H781	H78	0.897660	0.025520	0.743220
H791	H79	0.784240	0.071590	0.695690
H801	H80	0.609500	0.150020	0.666630
C1231	C123	0.938360	0.010430	0.685450
C1241	C124	0.901500	0.019040	0.700190
C1251	C125	0.883210	0.020890	0.683910
C1261	C126	0.848180	0.029470	0.697890
C1271	C127	0.830770	0.037040	0.728030
C1281	C128	0.849210	0.035700	0.743890
C1291	C129	0.884170	0.026480	0.730300
C1301	C130	0.793560	0.046120	0.743220
C1311	C131	0.773130	0.064080	0.722920
C1321	C132	0.633880	0.130450	0.664650
O231	O23	0.954640	0.006580	0.701930
O241	O24	0.954060	0.007450	0.656160
H811	H81	0.572280	0.984880	0.339670
H821	H82	0.550710	0.969920	0.314910
H831	H83	0.645970	0.959060	0.233090
H841	H84	0.666700	0.975660	0.256820
H851	H85	0.555930	0.924830	0.304880
H861	H86	0.388200	0.941970	0.325550
H871	H87	0.444640	0.946330	0.292370
H881	H88	0.487750	0.843470	0.350180
C1331	C133	0.634410	0.990190	0.315060
C1341	C134	0.621010	0.981760	0.299980
C1351	C135	0.588380	0.979690	0.316160
C1361	C136	0.576190	0.970730	0.302190
C1371	C137	0.596600	0.963300	0.271990
C1381	C138	0.629310	0.965260	0.256000
C1391	C139	0.641290	0.974610	0.269690
C1401	C140	0.584330	0.953260	0.257070
C1411	C141	0.563810	0.932900	0.277620
C1421	C142	0.409830	0.919760	0.329900
C1431	C143	0.441850	0.922550	0.311680
C1441	C144	0.466210	0.864450	0.343610
O251	O25	0.663510	0.993600	0.299030
O261	O26	0.617400	0.993310	0.344340
H891	H89	0.984850	0.572680	0.103480
H901	H90	0.970270	0.550460	0.164750
H911	H91	0.958620	0.645570	0.163240
H921	H92	0.974880	0.666910	0.102260
H931	H93	0.924800	0.555550	0.214720
H941	H94	0.941900	0.388350	0.344410
H951	H95	0.945800	0.444900	0.317220
H961	H96	0.843200	0.487390	0.318610
C1451	C145	0.988840	0.635390	0.061550
C1461	C146	0.981080	0.621400	0.098240
C1471	C147	0.979500	0.588580	0.116360
C1481	C148	0.970840	0.576020	0.151390
C1491	C149	0.963250	0.596270	0.168820
C1501	C150	0.964910	0.629100	0.150520
C1511	C151	0.974000	0.641430	0.115590
C1521	C152	0.953280	0.583710	0.205970
C1531	C153	0.932730	0.563400	0.226170
C1541	C154	0.894630	0.469970	0.316590
C1551	C155	0.919560	0.409860	0.340820
C1561	C156	0.922130	0.441950	0.324370
C1571	C157	0.864170	0.465970	0.325880
O271	O27	0.991770	0.664660	0.045420
O281	O28	0.991990	0.618720	0.045870
H971	H97	0.103880	0.339290	0.984460
H981	H98	0.165020	0.315010	0.970160
H991	H99	0.164100	0.233470	0.957190
H1001	H100	0.103130	0.256490	0.973730
H1011	H101	0.216500	0.304350	0.928750
H1021	H102	0.372370	0.311120	0.930210
H1031	H103	0.341600	0.278170	0.939080
H1041	H104	0.302520	0.357800	0.859290
C1581	C158	0.061990	0.314180	0.988780
C1591	C159	0.098830	0.299510	0.980550
C1601	C160	0.116860	0.315910	0.978970
C1611	C161	0.151910	0.302220	0.970360
C1621	C162	0.169580	0.272150	0.962690
C1631	C163	0.151350	0.256180	0.963780
C1641	C164	0.116380	0.269490	0.972990
C1651	C165	0.206790	0.256980	0.953870
C1661	C166	0.227450	0.277100	0.936010
C1671	C167	0.320140	0.315780	0.899660
C1681	C168	0.357620	0.321310	0.914260
C1691	C169	0.340110	0.302600	0.919360
C1701	C170	0.318050	0.347450	0.874540
O291	O29	0.045740	0.298030	0.992010
O301	O30	0.046380	0.343410	0.991940
H1051	H105	0.339720	0.104520	0.572240
H1061	H106	0.314820	0.165840	0.550540
H1071	H107	0.232820	0.163150	0.645670
H1081	H108	0.256600	0.102190	0.666470
H1091	H109	0.303900	0.216560	0.555050
H1101	H110	0.353080	0.378470	0.431570
C1711	C171	0.315110	0.061810	0.634640
C1721	C172	0.299990	0.098650	0.620960
C1731	C173	0.316190	0.117140	0.588280
C1741	C174	0.302130	0.152230	0.576000
C1751	C175	0.271820	0.169390	0.596350
C1761	C176	0.255820	0.150720	0.629070
C1771	C177	0.269570	0.115760	0.641120
C1781	C178	0.256570	0.206600	0.583940
C1791	C179	0.276610	0.227470	0.563310
C1801	C180	0.316590	0.318380	0.469940
C1811	C181	0.344920	0.359940	0.434210
O311	O31	0.299140	0.045400	0.663750
O321	O32	0.344370	0.046270	0.617860
H1111	H111	0.103400	0.572340	0.339720
H1121	H112	0.164560	0.549980	0.315390
H1131	H113	0.163300	0.645390	0.233830
H1141	H114	0.102350	0.666590	0.256810
H1151	H115	0.216300	0.550540	0.304380
H1161	H116	0.372470	0.386480	0.311000
H1171	H117	0.341570	0.441240	0.278080
H1181	H118	0.302180	0.480500	0.357780
C1821	C182	0.061320	0.634780	0.314670
C1831	C183	0.098190	0.621050	0.299970
C1841	C184	0.116320	0.588280	0.316370
C1851	C185	0.151400	0.575640	0.302640
C1861	C186	0.168980	0.595770	0.272540
C1871	C187	0.150670	0.628800	0.256580
C1881	C188	0.115670	0.641130	0.269900
C1891	C189	0.206180	0.582550	0.257210
C1901	C190	0.227070	0.559570	0.277090
C1911	C191	0.319910	0.464550	0.315700
C1921	C192	0.357620	0.406980	0.321210
C1931	C193	0.340020	0.438060	0.302520
C1941	C194	0.317770	0.460100	0.347400
O331	O33	0.045030	0.663850	0.298470
O341	O34	0.045630	0.618030	0.343880
H1191	H119	0.340200	0.982520	0.105950
H1201	H120	0.315820	0.967110	0.167500
H1211	H121	0.233530	0.956900	0.165130
H1221	H122	0.256660	0.973920	0.104210
H1231	H123	0.303870	0.923110	0.219320
H1241	H124	0.334530	0.847590	0.393590
C1951	C195	0.314640	0.988350	0.063370
C1961	C196	0.300130	0.979680	0.100330
C1971	C197	0.316710	0.977280	0.118730
C1981	C198	0.302960	0.968130	0.153930
C1991	C199	0.272630	0.961000	0.171210
C2001	C200	0.256490	0.963000	0.152620
C2011	C201	0.269890	0.972550	0.117640
C2021	C202	0.257030	0.951930	0.208420
C2031	C203	0.276570	0.931520	0.229810
C2041	C204	0.336220	0.864860	0.368060
O351	O35	0.298060	0.992090	0.047230
O361	O36	0.343910	0.991460	0.047400
H1251	H125	0.573600	0.102800	0.985170
H1261	H126	0.551120	0.164080	0.970130
H1271	H127	0.645760	0.163510	0.958560
H1281	H128	0.667390	0.102410	0.975320
H1291	H129	0.556190	0.213740	0.924390
H1301	H130	0.398740	0.371850	0.924940
H1311	H131	0.453670	0.338420	0.929800
H1321	H132	0.481820	0.301780	0.851630
C2051	C205	0.636210	0.061170	0.989790
C2061	C206	0.622100	0.097930	0.981800
C2071	C207	0.589320	0.115840	0.979920
C2081	C208	0.576620	0.150910	0.970890
C2091	C209	0.596630	0.168640	0.963220
C2101	C210	0.629430	0.150580	0.965000
C2111	C211	0.641910	0.115600	0.974440
C2121	C212	0.583870	0.205870	0.952930
C2131	C213	0.563590	0.225580	0.932360
C2141	C214	0.471660	0.318340	0.890730
C2151	C215	0.416010	0.357600	0.908080
C2161	C216	0.447880	0.338390	0.910930
C2171	C217	0.463580	0.317550	0.867230
O371	O37	0.665800	0.044980	0.992230
O381	O38	0.619090	0.045470	0.993680
H1331	H133	0.982240	0.340170	0.571470
H1341	H134	0.967260	0.315340	0.549820
H1351	H135	0.957310	0.233160	0.644800
H1361	H136	0.973860	0.256810	0.665510
H1371	H137	0.923600	0.303270	0.553910
H1381	H138	0.846980	0.335150	0.424840
C2181	C218	0.988010	0.315060	0.633730
C2191	C219	0.979510	0.300300	0.620000
C2201	C220	0.977160	0.316610	0.587450
C2211	C221	0.968260	0.302560	0.575210
C2221	C222	0.961330	0.272090	0.595460
C2231	C223	0.963290	0.256170	0.628170
C2241	C224	0.972550	0.269890	0.640160
C2251	C225	0.952220	0.256380	0.583020
C2261	C226	0.931940	0.275960	0.562380
C2271	C227	0.864670	0.336390	0.431230
O391	O39	0.991290	0.298720	0.662870
O401	O40	0.991440	0.344220	0.617180
H1391	H139	0.984000	0.104550	0.340480
H1401	H140	0.970460	0.165510	0.314730
H1411	H141	0.958280	0.162520	0.233860
H1421	H142	0.974120	0.101610	0.258350
H1431	H143	0.928590	0.215780	0.304270
H1441	H144	0.849950	0.390300	0.333520
C2281	C228	0.988410	0.061570	0.316870
C2291	C229	0.980270	0.098400	0.301430
C2301	C230	0.978750	0.117040	0.317030
C2311	C231	0.970610	0.151990	0.302420
C2321	C232	0.963160	0.169060	0.272230
C2331	C233	0.964490	0.150260	0.256760
C2341	C234	0.973260	0.115300	0.271010
C2351	C235	0.954030	0.206280	0.256810
C2361	C236	0.936060	0.226820	0.277020
C2371	C237	0.869540	0.365940	0.335460
O411	O41	0.991780	0.045280	0.300730
O421	O42	0.991580	0.045910	0.346210
H1451	H145	0.575070	0.337800	0.101490
H1461	H146	0.552060	0.314820	0.162740
H1471	H147	0.646210	0.231880	0.163440
H1481	H148	0.668490	0.253870	0.102220
H1491	H149	0.556230	0.305990	0.213110
H1501	H150	0.399160	0.304050	0.373110
H1511	H151	0.454050	0.277600	0.339580
H1521	H152	0.481540	0.365190	0.300820
C2381	C238	0.637900	0.311830	0.060200
C2391	C239	0.623570	0.297340	0.097100
C2401	C240	0.590690	0.314390	0.114750
C2411	C241	0.577600	0.301500	0.149850
C2421	C242	0.597290	0.271560	0.167940
C2431	C243	0.630150	0.254680	0.150190
C2441	C244	0.643040	0.267300	0.115140
C2451	C245	0.584020	0.257640	0.205200
C2461	C246	0.563570	0.278780	0.224950
C2471	C247	0.471690	0.319280	0.318300
C2481	C248	0.416280	0.318120	0.358270
C2491	C249	0.448130	0.302550	0.339040
C2501	C250	0.463450	0.351890	0.317020
O431	O43	0.667130	0.296020	0.043600
O441	O44	0.620850	0.341100	0.044920
H1531	H153	0.342360	0.568670	0.983110
H1541	H154	0.315590	0.548670	0.968600
H1551	H155	0.234920	0.644800	0.959260
H1561	H156	0.260570	0.663990	0.975270
H1571	H157	0.304120	0.554830	0.924170
H1581	H158	0.352900	0.431520	0.836910
C2511	C251	0.319910	0.630120	0.988820
C2521	C252	0.303800	0.617570	0.980460
C2531	C253	0.318820	0.585240	0.978190
C2541	C254	0.303590	0.574010	0.969600
C2551	C255	0.273120	0.595150	0.962710
C2561	C256	0.258060	0.627630	0.964990
C2571	C257	0.273040	0.638670	0.973940
C2581	C258	0.257130	0.583700	0.952880
C2591	C259	0.276820	0.563210	0.932460
C2601	C260	0.344810	0.434250	0.860890
O451	O45	0.303780	0.659070	0.992300
O461	O46	0.349380	0.613370	0.991920
H1591	H159	0.104020	0.983970	0.572260
H1601	H160	0.165000	0.970520	0.549830
H1611	H161	0.163320	0.957940	0.645480
H1621	H162	0.102440	0.973650	0.666760
H1631	H163	0.215730	0.928740	0.551350
H1641	H164	0.390550	0.849980	0.426210
C2611	C261	0.061860	0.987730	0.635010
C2621	C262	0.098580	0.980040	0.621120
C2631	C263	0.116780	0.978740	0.588190
C2641	C264	0.151770	0.970610	0.575560
C2651	C265	0.169200	0.963140	0.595800
C2661	C266	0.150780	0.964250	0.628850
C2671	C267	0.115830	0.972990	0.641190
C2681	C268	0.206400	0.954180	0.582790
C2691	C269	0.226840	0.936200	0.560030
C2701	C270	0.366150	0.869530	0.429060
O471	O47	0.045690	0.990420	0.664450
O481	O48	0.046170	0.991170	0.618190
H1651	H165	0.571140	0.983330	0.105440
H1661	H166	0.549890	0.968900	0.166740
H1671	H167	0.645400	0.958700	0.162970
H1681	H168	0.665750	0.974760	0.102080
H1691	H169	0.554670	0.924880	0.217160
H1701	H170	0.431580	0.836870	0.378560
C2711	C271	0.633380	0.988310	0.062210
C2721	C272	0.619950	0.980280	0.099030
C2731	C273	0.587330	0.978290	0.117840
C2741	C274	0.575320	0.969730	0.152930
C2751	C275	0.595880	0.962700	0.169800
C2761	C276	0.628580	0.964640	0.150790
C2771	C277	0.640360	0.973590	0.115830
C2781	C278	0.583810	0.953090	0.207060
C2791	C279	0.563130	0.932870	0.228000
C2801	C280	0.470020	0.895080	0.318670
C2811	C281	0.434250	0.860910	0.360080
O491	O49	0.662590	0.991510	0.045990
O501	O50	0.616680	0.991520	0.046440
H1711	H171	0.983560	0.571550	0.339730
H1721	H172	0.968550	0.549940	0.314950
H1731	H173	0.957930	0.645160	0.233060
H1741	H174	0.974560	0.665850	0.256680
H1751	H175	0.923960	0.554810	0.303880
H1761	H176	0.836840	0.431140	0.353020
C2821	C282	0.988490	0.633950	0.315040
C2831	C283	0.980380	0.620270	0.300000
C2841	C284	0.978320	0.587610	0.316250
C2851	C285	0.969400	0.575400	0.302280
C2861	C286	0.962170	0.595790	0.271990
C2871	C287	0.964050	0.628520	0.256020
C2881	C288	0.973370	0.640490	0.269680
C2891	C289	0.952720	0.583430	0.256660
C2901	C290	0.932240	0.563020	0.276580
C2911	C291	0.860790	0.433940	0.344900
O511	O51	0.991740	0.663090	0.298920
O521	O52	0.991590	0.617250	0.344290
H1771	H177	0.103640	0.338670	0.572420
H1781	H178	0.164980	0.314280	0.550610
H1791	H179	0.162960	0.232490	0.645870
H1801	H180	0.101960	0.255730	0.666760
H1811	H181	0.215020	0.304420	0.555640
H1821	H182	0.344450	0.325510	0.388070
H1831	H183	0.316950	0.292190	0.444490
H1841	H184	0.318870	0.349880	0.487730
C2921	C292	0.061360	0.313730	0.634910
C2931	C293	0.098150	0.298930	0.621150
C2941	C294	0.116420	0.315270	0.588440
C2951	C295	0.151510	0.301520	0.576120
C2961	C296	0.168820	0.271430	0.596520
C2971	C297	0.150360	0.255310	0.629270
C2981	C298	0.115400	0.268740	0.641340
C2991	C299	0.206000	0.256650	0.584100
C3001	C300	0.226350	0.277160	0.563620
C3011	C301	0.340700	0.329810	0.409720
C3021	C302	0.324190	0.311500	0.441730
C3031	C303	0.325990	0.343370	0.466170
O531	O53	0.045080	0.297440	0.663950
O541	O54	0.045750	0.343040	0.618280
H1851	H185	0.339440	0.104030	0.984690
H1861	H186	0.315020	0.165180	0.970030
H1871	H187	0.233630	0.163660	0.957380
H1881	H188	0.256720	0.102680	0.974310
H1891	H189	0.304580	0.215990	0.928100
H1901	H190	0.333650	0.390560	0.849800
C3041	C304	0.314230	0.061840	0.989760
C3051	C305	0.299710	0.098690	0.981060
C3061	C306	0.316070	0.116870	0.979190
C3071	C307	0.302320	0.151920	0.970360
C3081	C308	0.272240	0.169400	0.962670
C3091	C309	0.256340	0.151040	0.963960
C3101	C310	0.269690	0.116060	0.973410
C3111	C311	0.257090	0.206560	0.953710
C3121	C312	0.277320	0.227060	0.935670
C3131	C313	0.335570	0.366200	0.869390
O551	O55	0.297720	0.045640	0.993630
O561	O56	0.343560	0.046110	0.992780
H1911	H191	0.103730	0.572930	0.984690
H1921	H192	0.164970	0.550850	0.970340
H1931	H193	0.163030	0.646040	0.958970
H1941	H194	0.102050	0.667250	0.974980
H1951	H195	0.214790	0.555860	0.925240
H1961	H196	0.344420	0.388450	0.941940
H1971	H197	0.317180	0.444930	0.946030
H1981	H198	0.318450	0.487700	0.843440
C3141	C314	0.061460	0.635640	0.988760
C3151	C315	0.098230	0.621730	0.980990
C3161	C316	0.116510	0.588900	0.979430
C3171	C317	0.151560	0.576410	0.970920
C3181	C318	0.168910	0.596720	0.963460
C3191	C319	0.150430	0.629520	0.965170
C3201	C320	0.115480	0.641790	0.974080
C3211	C321	0.206160	0.584300	0.953410
C3221	C322	0.226290	0.563790	0.933050
C3231	C323	0.316480	0.470160	0.894880
C3241	C324	0.340800	0.410010	0.919650
C3251	C325	0.324310	0.442070	0.922320
C3261	C326	0.325760	0.466240	0.864370
O571	O57	0.045190	0.664880	0.991830
O581	O58	0.045850	0.618900	0.991860
H1991	H199	0.339970	0.984240	0.571840
H2001	H200	0.315100	0.970140	0.549720
H2011	H201	0.233800	0.957680	0.645370
H2021	H202	0.257400	0.974030	0.666370
H2031	H203	0.304210	0.928870	0.550620
H2041	H204	0.311030	0.930100	0.386510
H2051	H205	0.278030	0.939110	0.441300
H2061	H206	0.357720	0.859570	0.480590
C3271	C327	0.315450	0.988760	0.634310
C3281	C328	0.300450	0.980540	0.620650
C3291	C329	0.316560	0.978880	0.587870
C3301	C330	0.302490	0.970380	0.575380
C3311	C331	0.272320	0.962870	0.595650
C3321	C332	0.256590	0.964090	0.628670
C3331	C333	0.270280	0.973200	0.640880
C3341	C334	0.256930	0.954040	0.582630
C3351	C335	0.276950	0.936240	0.559650
C3361	C336	0.315660	0.899840	0.464610
C3371	C337	0.321230	0.914250	0.407020
C3381	C338	0.302490	0.919420	0.438110
C3391	C339	0.347370	0.874750	0.460180
O591	O59	0.299340	0.992010	0.663470
O601	O60	0.344690	0.992000	0.617450
H2071	H207	0.571880	0.105900	0.340030
H2081	H208	0.549930	0.167340	0.315370
H2091	H209	0.644840	0.164950	0.233060
H2101	H210	0.665810	0.104030	0.256570
H2111	H211	0.553720	0.219290	0.303250
H2121	H212	0.424600	0.393380	0.334440
C3401	C340	0.634460	0.063290	0.315010
C3411	C341	0.620480	0.100200	0.300120
C3421	C342	0.587820	0.118640	0.316470
C3431	C343	0.575370	0.153810	0.302530
C3441	C344	0.595500	0.171100	0.272100
C3451	C345	0.628280	0.152480	0.256080
C3461	C346	0.640460	0.117500	0.269700
C3471	C347	0.582890	0.208300	0.256450
C3481	C348	0.562220	0.229720	0.275940
C3491	C349	0.431110	0.367870	0.336080
O611	O61	0.663720	0.047090	0.298930
O621	O62	0.617720	0.047570	0.344240
H2131	H213	0.984550	0.339720	0.104130
H2141	H214	0.970200	0.314910	0.165240
H2151	H215	0.957700	0.233720	0.163180
H2161	H216	0.974320	0.257250	0.102220
H2171	H217	0.928830	0.304120	0.216330
H2181	H218	0.930290	0.310850	0.372340
H2191	H219	0.939290	0.277950	0.341440
H2201	H220	0.859540	0.357590	0.302300
C3501	C350	0.989030	0.315350	0.061640
C3511	C351	0.980800	0.300290	0.098480
C3521	C352	0.979120	0.316350	0.116860
C3531	C353	0.970500	0.302310	0.151900
C3541	C354	0.962890	0.272180	0.169270
C3551	C355	0.964180	0.256460	0.150700
C3561	C356	0.973420	0.270140	0.115710
C3571	C357	0.953950	0.256790	0.206510
C3581	C358	0.936150	0.276870	0.227220
C3591	C359	0.899900	0.315560	0.319930
C3601	C360	0.914370	0.321050	0.357550
C3611	C361	0.919550	0.302370	0.339960
C3621	C362	0.874760	0.347210	0.317860
O631	O63	0.992250	0.299270	0.045350
O641	O64	0.992260	0.344550	0.045990
H2211	H221	0.984950	0.102610	0.572810
H2221	H222	0.970170	0.163840	0.550690
H2231	H223	0.959020	0.162330	0.645580
H2241	H224	0.975430	0.101240	0.666910
H2251	H225	0.924490	0.213410	0.555990
H2261	H226	0.924940	0.371700	0.398730
H2271	H227	0.929780	0.338360	0.453680
H2281	H228	0.851640	0.301650	0.481890
C3631	C363	0.989370	0.060400	0.635270
C3641	C364	0.981470	0.097250	0.621410
C3651	C365	0.979710	0.115460	0.588650
C3661	C366	0.970910	0.150510	0.576170
C3671	C367	0.963340	0.167980	0.596400
C3681	C368	0.965260	0.149620	0.629130
C3691	C369	0.974470	0.114610	0.641440
C3701	C370	0.953080	0.205230	0.583780
C3711	C371	0.932500	0.225130	0.563490
C3721	C372	0.890760	0.318200	0.471700
C3731	C373	0.908090	0.357430	0.416000
C3741	C374	0.910930	0.338280	0.447890
C3751	C375	0.867250	0.317400	0.463630
O651	O65	0.992220	0.044190	0.664600
O661	O66	0.992610	0.044730	0.618540
H2291	H229	0.568940	0.341900	0.982290
H2301	H230	0.548410	0.316040	0.967280
H2311	H231	0.644080	0.234670	0.957990
H2321	H232	0.663690	0.259400	0.974520
H2331	H233	0.553580	0.303880	0.923390
H2341	H234	0.424790	0.335350	0.846950
C3761	C376	0.630680	0.318240	0.988250
C3771	C377	0.617650	0.302670	0.979870
C3781	C378	0.585280	0.318330	0.977350
C3791	C379	0.573730	0.303680	0.968410
C3801	C380	0.594520	0.273200	0.961550
C3811	C381	0.627070	0.257760	0.963810
C3821	C382	0.638410	0.272130	0.973100
C3831	C383	0.582700	0.257180	0.952140
C3841	C384	0.562180	0.276570	0.931740
C3851	C385	0.431200	0.336600	0.864630
O671	O67	0.660010	0.302430	0.990970
O681	O68	0.613640	0.347340	0.991970
H2351	H235	0.337150	0.576100	0.102370
H2361	H236	0.314060	0.552150	0.163440
H2371	H237	0.231450	0.646550	0.165120
H2381	H238	0.253310	0.669410	0.104110
H2391	H239	0.303920	0.551530	0.215410
H2401	H240	0.333430	0.426120	0.390540
C3861	C386	0.310470	0.639600	0.061620
C3871	C387	0.296560	0.624670	0.098450
C3881	C388	0.313740	0.591590	0.115760
C3891	C389	0.300790	0.577940	0.150860
C3901	C390	0.270740	0.597310	0.169290
C3911	C391	0.254150	0.630520	0.151810
C3921	C392	0.266720	0.643850	0.116810
C3931	C393	0.256160	0.583220	0.206490
C3941	C394	0.276690	0.560160	0.226710
C3951	C395	0.335390	0.428990	0.366150
O691	O69	0.294440	0.669030	0.045290
O701	O70	0.339530	0.622790	0.046040
H2411	H241	0.102720	0.985230	0.338470
H2421	H242	0.164000	0.970250	0.314890
H2431	H243	0.163800	0.958380	0.232340
H2441	H244	0.102730	0.975050	0.254900
H2451	H245	0.213820	0.924150	0.306100
H2461	H246	0.373090	0.923730	0.304200
H2471	H247	0.339690	0.928590	0.277750
H2481	H248	0.301060	0.852210	0.365400
C3961	C396	0.061330	0.989160	0.312900
C3971	C397	0.098070	0.981400	0.298280
C3981	C398	0.115820	0.979790	0.315050
C3991	C399	0.150890	0.970860	0.301810
C4001	C400	0.168710	0.963020	0.271850
C4011	C401	0.150790	0.964800	0.255180
C4021	C402	0.115820	0.974150	0.268140
C4031	C403	0.205890	0.952810	0.257810
C4041	C404	0.225640	0.932160	0.278900
C4051	C405	0.318600	0.890410	0.319430
C4061	C406	0.358350	0.907290	0.318260
C4071	C407	0.339200	0.910110	0.302700
C4081	C408	0.317250	0.867420	0.352080
O711	O71	0.045060	0.992120	0.296890
O721	O72	0.045900	0.992140	0.342120
H2491	H249	0.428350	0.016440	0.660490
H2501	H250	0.449680	0.031350	0.685600
H2511	H251	0.354300	0.041660	0.767330
H2521	H252	0.333900	0.025090	0.743350
H2531	H253	0.444880	0.075580	0.696840
H2541	H254	0.568480	0.162990	0.647340
C4091	C409	0.366080	0.011190	0.684910
C4101	C410	0.379580	0.019400	0.700090
C4111	C411	0.412190	0.021560	0.684020
C4121	C412	0.424250	0.030430	0.698210
C4131	C413	0.403740	0.037590	0.728550
C4141	C414	0.371060	0.035590	0.744360
C4151	C415	0.359240	0.026320	0.730470
C4161	C416	0.415960	0.047090	0.744040
C4171	C417	0.436570	0.067370	0.724140
C4181	C418	0.565730	0.139030	0.655430
O731	O73	0.336920	0.007900	0.700960
O741	O74	0.382930	0.008120	0.655600
H2551	H255	0.016280	0.427990	0.895510
H2561	H256	0.029740	0.450160	0.834550
H2571	H257	0.042130	0.354440	0.836620
H2581	H258	0.026370	0.333360	0.897550
H2591	H259	0.071370	0.448580	0.783860
H2601	H260	0.150100	0.573770	0.609530
C4191	C419	0.011950	0.365600	0.938010
C4201	C420	0.020070	0.379120	0.901210
C4211	C421	0.021530	0.411940	0.882840
C4221	C422	0.029650	0.424450	0.847860
C4231	C423	0.037030	0.404140	0.830540
C4241	C424	0.035890	0.371110	0.849090
C4251	C425	0.027150	0.358880	0.884050
C4261	C426	0.045900	0.417100	0.793350
C4271	C427	0.063820	0.439900	0.772820
C4281	C428	0.130490	0.570920	0.633880
O751	O75	0.008550	0.336530	0.954360
O761	O76	0.008790	0.382420	0.953570
H2611	H261	0.896080	0.660460	0.015610
H2621	H262	0.834880	0.684750	0.029940
H2631	H263	0.835800	0.766270	0.042920
H2641	H264	0.896720	0.743340	0.026330
H2651	H265	0.783220	0.695620	0.071440
H2661	H266	0.627560	0.688840	0.069800
H2671	H267	0.658230	0.721880	0.060960
H2681	H268	0.697350	0.642300	0.140740
C4291	C429	0.937920	0.685620	0.011320
C4301	C430	0.901090	0.700200	0.019570
C4311	C431	0.883090	0.683800	0.021130
C4321	C432	0.848010	0.697510	0.029740
C4331	C433	0.830340	0.727600	0.037400
C4341	C434	0.848540	0.743550	0.036330
C4351	C435	0.883520	0.730250	0.027100
C4361	C436	0.793170	0.742890	0.046040
C4371	C437	0.772370	0.722900	0.064000
C4381	C438	0.679690	0.684320	0.100390
C4391	C439	0.642310	0.678690	0.085750
C4401	C440	0.659750	0.697440	0.080670
C4411	C441	0.681840	0.652630	0.125490
O771	O77	0.953940	0.702030	0.008050
O781	O78	0.953800	0.656420	0.008110
H2691	H269	0.660410	0.897300	0.427190
H2701	H270	0.684790	0.836140	0.449420
H2711	H271	0.766540	0.837510	0.354120
H2721	H272	0.743360	0.898550	0.332970
H2731	H273	0.695200	0.785190	0.447600
H2741	H274	0.691850	0.623030	0.606970
H2751	H275	0.723610	0.654690	0.552300
H2761	H276	0.638280	0.702710	0.518510
C4421	C442	0.685540	0.939570	0.364840
C4431	C443	0.700270	0.902670	0.378440
C4441	C444	0.683840	0.884480	0.411190
C4451	C445	0.697590	0.849400	0.423790
C4461	C446	0.727730	0.831850	0.403650
C4471	C447	0.743750	0.850190	0.370680
C4481	C448	0.730350	0.885210	0.358380
C4491	C449	0.742800	0.794600	0.416730
C4501	C450	0.722470	0.774080	0.439070
C4511	C451	0.683200	0.680460	0.531650
C4521	C452	0.680220	0.639510	0.587560
C4531	C453	0.698260	0.657660	0.556520
C4541	C454	0.650250	0.684660	0.537520
O791	O79	0.701610	0.956100	0.335820
O801	O80	0.656330	0.955020	0.381820
H2771	H277	0.896410	0.427570	0.660290
H2781	H278	0.835270	0.450270	0.684820
H2791	H279	0.836210	0.354950	0.766490
H2801	H280	0.897080	0.333350	0.743270
H2811	H281	0.784090	0.448260	0.695390
H2821	H282	0.622810	0.607310	0.691770
H2831	H283	0.654270	0.552560	0.723600
H2841	H284	0.702270	0.518760	0.638290
C4551	C455	0.938140	0.364760	0.685380
C4561	C456	0.901410	0.378880	0.700100
C4571	C457	0.883440	0.411760	0.683730
C4581	C458	0.848420	0.424600	0.697570
C4591	C459	0.830830	0.404510	0.727720
C4601	C460	0.848980	0.371450	0.743700
C4611	C461	0.883890	0.358910	0.730240
C4621	C462	0.793720	0.417630	0.742840
C4631	C463	0.773100	0.439680	0.722670
C4641	C464	0.679900	0.531870	0.683250
C4651	C465	0.639210	0.587870	0.680160
C4661	C466	0.657240	0.556790	0.698250
C4671	C467	0.684230	0.537770	0.650250
O811	O81	0.954140	0.335390	0.701490
O821	O82	0.953950	0.381380	0.656230
H2851	H285	0.659700	0.015750	0.895670
H2861	H286	0.684810	0.029930	0.834550
H2871	H287	0.765900	0.042300	0.836950
H2881	H288	0.742100	0.025820	0.897860
H2891	H289	0.695730	0.071110	0.783490
H2901	H290	0.688900	0.069710	0.627730
H2911	H291	0.721970	0.060830	0.658390
H2921	H292	0.642400	0.140540	0.697620
C4681	C468	0.683960	0.011090	0.938450
C4691	C469	0.699040	0.019430	0.901520
C4701	C470	0.683090	0.021130	0.883040
C4711	C471	0.697320	0.029640	0.847980
C4721	C472	0.727510	0.037160	0.830700
C4731	C473	0.743130	0.035880	0.849330
C4741	C474	0.729280	0.026730	0.884310
C4751	C475	0.742980	0.046070	0.793470
C4761	C476	0.722990	0.063830	0.772680
C4771	C477	0.684390	0.100190	0.679940
C4781	C478	0.678740	0.085630	0.642510
C4791	C479	0.697520	0.080530	0.659950
C4801	C480	0.652710	0.125300	0.682100
O831	O83	0.700300	0.007690	0.954610
O841	O84	0.654700	0.007950	0.954270
H2931	H293	0.427430	0.896520	0.015460
H2941	H294	0.449710	0.835350	0.029510
H2951	H295	0.354630	0.837010	0.040870
H2961	H296	0.333220	0.897990	0.025120
H2971	H297	0.444010	0.786240	0.075370
H2981	H298	0.601220	0.628120	0.075070
H2991	H299	0.546280	0.661590	0.070190
H3001	H300	0.518160	0.698210	0.148370
C4811	C481	0.364570	0.938540	0.011910
C4821	C482	0.378680	0.901890	0.019210
C4831	C483	0.411540	0.883720	0.020600
C4841	C484	0.424150	0.848720	0.028950
C4851	C485	0.403880	0.831310	0.036440
C4861	C486	0.371100	0.849680	0.034700
C4871	C487	0.358710	0.884620	0.025940
C4881	C488	0.416320	0.794090	0.046860
C4891	C489	0.436540	0.774380	0.067490
C4901	C490	0.528310	0.681660	0.109260
C4911	C491	0.583950	0.642380	0.091930
C4921	C492	0.552090	0.661610	0.089060
C4931	C493	0.536400	0.682430	0.132770
O851	O85	0.335120	0.954660	0.009460
O861	O86	0.381400	0.954140	0.008710
H3011	H301	0.014990	0.660810	0.427760
H3021	H302	0.029670	0.685710	0.449440
H3031	H303	0.040870	0.767360	0.354050
H3041	H304	0.024500	0.743530	0.333250
H3051	H305	0.074990	0.695370	0.444140
H3061	H306	0.057960	0.674700	0.611530
H3071	H307	0.053970	0.708130	0.555020
H3081	H308	0.156530	0.649490	0.512320
C4941	C494	0.010390	0.685160	0.365370
C4951	C495	0.018400	0.700370	0.378940
C4961	C496	0.020210	0.684280	0.411680
C4971	C497	0.028960	0.698340	0.423930
C4981	C498	0.036530	0.728460	0.403440
C4991	C499	0.034630	0.744460	0.370720
C5001	C500	0.025460	0.730680	0.358690
C5011	C501	0.046720	0.743230	0.415700
C5021	C502	0.067120	0.722600	0.436180
C5031	C503	0.105100	0.681450	0.529820
C5041	C504	0.080270	0.670330	0.589980
C5051	C505	0.077650	0.688630	0.557910
C5061	C506	0.135590	0.656260	0.533770
O871	O87	0.007220	0.701090	0.336200
O881	O88	0.007370	0.655870	0.382210
H3091	H309	0.017240	0.894140	0.659900
H3101	H310	0.032650	0.832620	0.684290
H3111	H311	0.042840	0.835010	0.766590
H3121	H312	0.025860	0.895950	0.743380
H3131	H313	0.077020	0.781020	0.695920
H3141	H314	0.153060	0.606890	0.664530
C5071	C507	0.011630	0.936740	0.685240
C5081	C508	0.020130	0.899800	0.699890
C5091	C509	0.022510	0.881370	0.683360
C5101	C510	0.031650	0.846190	0.697120
C5111	C511	0.038830	0.828910	0.727450
C5121	C512	0.036760	0.847530	0.743590
C5131	C513	0.027230	0.882520	0.730160
C5141	C514	0.048090	0.791680	0.742900
C5151	C515	0.068620	0.770420	0.723230
C5161	C516	0.135430	0.632240	0.663250
O891	O89	0.008060	0.952940	0.701670
O901	O90	0.008530	0.952590	0.655990
H3151	H315	0.424010	0.662930	0.898350
H3161	H316	0.447710	0.685700	0.837170
H3171	H317	0.353420	0.768380	0.835510
H3181	H318	0.330740	0.746860	0.896570
H3191	H319	0.447440	0.695680	0.785290
H3201	H320	0.606900	0.692100	0.622850
H3211	H321	0.552260	0.723700	0.654710
H3221	H322	0.518640	0.638270	0.702610
C5171	C517	0.360720	0.689910	0.939100
C5181	C518	0.375530	0.703650	0.902200
C5191	C519	0.408550	0.686330	0.884870
C5201	C520	0.422040	0.699080	0.849770
C5211	C521	0.402610	0.729060	0.831380
C5221	C522	0.369460	0.745760	0.848870
C5231	C523	0.356270	0.733390	0.883860
C5241	C524	0.416530	0.743540	0.794180
C5251	C525	0.438970	0.722930	0.773960
C5261	C526	0.531680	0.683250	0.680420
C5271	C527	0.587510	0.680440	0.639310
C5281	C528	0.556490	0.698380	0.657590
C5291	C529	0.537590	0.650310	0.684530
O911	O91	0.331400	0.706020	0.955480
O921	O92	0.377490	0.660860	0.954660
H3231	H323	0.658470	0.430140	0.016760
H3241	H324	0.684600	0.450670	0.031370
H3251	H325	0.765760	0.354860	0.040920
H3261	H326	0.740740	0.335210	0.024670
H3271	H327	0.695910	0.445130	0.075700
H3281	H328	0.647120	0.568460	0.163070
C5301	C530	0.681610	0.368340	0.011340
C5311	C531	0.697410	0.381240	0.019580
C5321	C532	0.681980	0.413720	0.021770
C5331	C533	0.696830	0.425290	0.030420
C5341	C534	0.727240	0.404410	0.037400
C5351	C535	0.742660	0.371860	0.035130
C5361	C536	0.728090	0.360500	0.026070
C5371	C537	0.743010	0.416120	0.047180
C5381	C538	0.723210	0.436680	0.067530
C5391	C539	0.655200	0.565720	0.139090
O931	O93	0.697870	0.339660	0.007160
O941	O94	0.651990	0.385020	0.008840
H3291	H329	0.897240	0.014640	0.426510
H3301	H330	0.835970	0.029800	0.449100
H3311	H331	0.836220	0.041650	0.354510
H3321	H332	0.897330	0.024820	0.332700
H3331	H333	0.786200	0.075870	0.443990
H3341	H334	0.628170	0.075020	0.601390
H3351	H335	0.661490	0.070370	0.546350
H3361	H336	0.697970	0.148600	0.518370
C5401	C540	0.938580	0.010380	0.363670
C5411	C541	0.901910	0.018330	0.377940
C5421	C542	0.884120	0.020080	0.410790
C5431	C543	0.849060	0.029130	0.423570
C5441	C544	0.831280	0.036950	0.403580
C5451	C545	0.849220	0.035170	0.370770
C5461	C546	0.884200	0.025710	0.358190
C5471	C547	0.794110	0.047170	0.416490
C5481	C548	0.774380	0.067880	0.436620
C5491	C549	0.681490	0.109490	0.528440
C5501	C550	0.642350	0.091960	0.584130
C5511	C551	0.661500	0.089220	0.552200
C5521	C552	0.682240	0.132950	0.536590
O951	O95	0.954870	0.007320	0.334390
O961	O96	0.954160	0.007310	0.380410
Cu11	Cu1	0.362240	0.000010	0.001060
Cu21	Cu2	0.999770	0.361900	0.637330
Cu31	Cu3	0.999470	0.636270	0.363570
Cu41	Cu4	0.637950	0.999750	0.000140
Cu51	Cu5	0.000260	0.363720	0.999840
Cu61	Cu6	0.635810	0.001320	0.364060
Cu71	Cu7	0.364150	0.000060	0.636180
Cu81	Cu8	0.999820	0.637880	0.999990
Cu91	Cu9	0.999940	0.999730	0.363650
Cu101	Cu10	0.363510	0.636830	0.000320
Cu111	Cu11	0.634310	0.365870	0.999010
Cu121	Cu12	0.000140	0.998900	0.637550
Cu131	Cu13	0.317910	0.000140	0.001540
Cu141	Cu14	0.999610	0.318000	0.681120
Cu151	Cu15	0.999510	0.680240	0.319390
Cu161	Cu16	0.681490	0.999610	0.000210
Cu171	Cu17	0.000400	0.319520	0.999840
Cu181	Cu18	0.680280	0.001520	0.319820
Cu191	Cu19	0.320120	0.999970	0.680210
Cu201	Cu20	0.999580	0.682110	0.999940
Cu211	Cu21	0.000020	0.999700	0.319740
Cu221	Cu22	0.319340	0.681110	0.000420
Cu231	Cu23	0.678930	0.321090	0.999020
Cu241	Cu24	0.000160	0.998520	0.681660
H3371	H337	0.392420	0.018640	0.794760
C5531	C553	0.406570	0.035970	0.779290
C5541	C554	0.447100	0.076650	0.739430
C5551	C555	0.473200	0.091470	0.719360
C5561	C556	0.497740	0.100050	0.702870
C5571	C557	0.594010	0.111470	0.647290
H3381	H338	0.020280	0.391150	0.793910
C5581	C558	0.036120	0.406840	0.778150
C5591	C559	0.071620	0.452210	0.737880
C5601	C560	0.084350	0.479840	0.718110
C5611	C561	0.092660	0.504540	0.702390
C5621	C562	0.110520	0.597870	0.646670
H3391	H339	0.793890	0.794980	0.391480
C5631	C563	0.778020	0.779310	0.406830
C5641	C564	0.737310	0.739050	0.450800
C5651	C565	0.717030	0.718620	0.477390
C5661	C566	0.701010	0.701240	0.501370
C5671	C567	0.646910	0.643790	0.593970
H3401	H340	0.794180	0.793730	0.019960
C5681	C568	0.778260	0.778110	0.036030
C5691	C569	0.737380	0.738150	0.072020
C5701	C570	0.716760	0.718430	0.084810
C5711	C571	0.699600	0.702600	0.093080
C5721	C572	0.644620	0.646590	0.110630
H3411	H341	0.793740	0.392330	0.018900
C5731	C573	0.778290	0.406490	0.036210
C5741	C574	0.738590	0.447020	0.076900
C5751	C575	0.718650	0.473170	0.091670
C5761	C576	0.702350	0.497740	0.100180
C5771	C577	0.647060	0.594020	0.111540
H3421	H342	0.793420	0.018910	0.394190
C5781	C578	0.778190	0.036480	0.408080
C5791	C579	0.739230	0.077900	0.447800
C5801	C580	0.719540	0.093640	0.473200
C5811	C581	0.702610	0.103230	0.497110
C5821	C582	0.643350	0.114650	0.593340
H3431	H343	0.391720	0.794720	0.794150
C5831	C583	0.406950	0.778680	0.778650
C5841	C584	0.450830	0.737540	0.738860
C5851	C585	0.477430	0.717090	0.718590
C5861	C586	0.501400	0.701020	0.701250
C5871	C587	0.593960	0.647160	0.643480
H3441	H344	0.018970	0.793300	0.793440
C5881	C588	0.036570	0.777170	0.778120
C5891	C589	0.078080	0.735280	0.738850
C5901	C590	0.093850	0.713890	0.719090
C5911	C591	0.103420	0.697280	0.702220
C5921	C592	0.114620	0.648580	0.643390
H3451	H345	0.018840	0.794400	0.392440
C5931	C593	0.036180	0.778400	0.406590
C5941	C594	0.076910	0.737050	0.447060
C5951	C595	0.091670	0.716190	0.473200
C5961	C596	0.100180	0.699520	0.497760
C5971	C597	0.111440	0.647120	0.594080
H3461	H346	0.393440	0.793230	0.019170
C5981	C598	0.407550	0.778070	0.036540
C5991	C599	0.447640	0.739270	0.077670
C6001	C600	0.473090	0.719680	0.093360
C6011	C601	0.496990	0.702770	0.102960
C6021	C602	0.593100	0.643390	0.114670
H3471	H347	0.794510	0.392510	0.793750
C6031	C603	0.778700	0.407620	0.778030
C6041	C604	0.738080	0.451060	0.737700
C6051	C605	0.717590	0.477540	0.717460
C6061	C606	0.700400	0.501510	0.701260
C6071	C607	0.643480	0.594280	0.646870
H3481	H348	0.793910	0.020440	0.794340
C6081	C608	0.778240	0.036330	0.778460
C6091	C609	0.738180	0.071900	0.737680
C6101	C610	0.718450	0.084580	0.717080
C6111	C611	0.702640	0.092820	0.699910
C6121	C612	0.646630	0.110490	0.644880
H3491	H349	0.607580	0.981240	0.205960
C6131	C613	0.593390	0.963950	0.221890
C6141	C614	0.552770	0.923370	0.263080
C6151	C615	0.526620	0.908610	0.283890
C6161	C616	0.502050	0.900080	0.300580
C6171	C617	0.405900	0.888490	0.352910
H3501	H350	0.981540	0.606550	0.205960
C6181	C618	0.964020	0.592590	0.221450
C6191	C619	0.922870	0.552600	0.261290
C6201	C620	0.908000	0.526580	0.281310
C6211	C621	0.899470	0.502040	0.297680
C6221	C622	0.888410	0.405700	0.352960
H3511	H351	0.206090	0.206000	0.979720
C6231	C623	0.221880	0.221750	0.963680
C6241	C624	0.262470	0.262000	0.927870
C6251	C625	0.282990	0.281800	0.915180
C6261	C626	0.300150	0.297580	0.906970
C6271	C627	0.355340	0.353400	0.889370
H3521	H352	0.205770	0.205600	0.607270
C6281	C628	0.221360	0.221500	0.593180
C6291	C629	0.261450	0.262580	0.552750
C6301	C630	0.281530	0.283370	0.526570
C6311	C631	0.297840	0.300120	0.501990
C6321	C632	0.352890	0.352810	0.405820
H3531	H353	0.205070	0.608540	0.206420
C6331	C633	0.221020	0.593010	0.222000
C6341	C634	0.262070	0.547700	0.261750
C6351	C635	0.282730	0.520070	0.281500
C6361	C636	0.299880	0.495390	0.297400
C6371	C637	0.355300	0.402070	0.353310
H3541	H354	0.206570	0.981020	0.206560
C6381	C638	0.221800	0.963460	0.222780
C6391	C639	0.260790	0.922160	0.264930
C6401	C640	0.280480	0.906450	0.286370
C6411	C641	0.297450	0.896830	0.302910
C6421	C642	0.356650	0.885150	0.351480
H3551	H355	0.606530	0.206710	0.980810
C6431	C643	0.592460	0.221880	0.963400
C6441	C644	0.552320	0.260720	0.922360
C6451	C645	0.526870	0.280330	0.906670
C6461	C646	0.502970	0.297240	0.897050
C6471	C647	0.406870	0.356570	0.885340
H3561	H356	0.980960	0.205820	0.606590
C6481	C648	0.963560	0.221100	0.592530
C6491	C649	0.922570	0.260270	0.552310
C6501	C650	0.906840	0.280040	0.526860
C6511	C651	0.897170	0.297040	0.502990
C6521	C652	0.885410	0.356320	0.406860
H3571	H357	0.979570	0.205780	0.205770
C6531	C653	0.963710	0.221510	0.221580
C6541	C654	0.928150	0.261770	0.262200
C6551	C655	0.915490	0.281560	0.282740
C6561	C656	0.907260	0.297350	0.299910
C6571	C657	0.889460	0.353120	0.355290
H3581	H358	0.606380	0.206340	0.206020
C6581	C658	0.592400	0.222620	0.221200
C6591	C659	0.552180	0.264850	0.260140
C6601	C660	0.526710	0.286320	0.279870
C6611	C661	0.502870	0.302800	0.296970
C6621	C662	0.406910	0.351350	0.356560
H3591	H359	0.206390	0.607600	0.981160
C6631	C663	0.221810	0.593370	0.963890
C6641	C664	0.261400	0.552870	0.923160
C6651	C665	0.281310	0.526780	0.908340
C6661	C666	0.297620	0.502230	0.899810
C6671	C667	0.352930	0.405950	0.888450
H3601	H360	0.205960	0.979720	0.608730
C6681	C668	0.221670	0.963850	0.593060
C6691	C669	0.261800	0.928270	0.547780
C6701	C670	0.281580	0.915540	0.520160
C6711	C671	0.297410	0.907250	0.495450
C6721	C672	0.353350	0.889400	0.402130
N11	N1	0.626970	0.114780	0.627700
N21	N2	0.114750	0.630450	0.627030
N31	N3	0.627180	0.627480	0.627150
N41	N4	0.627430	0.626960	0.114890
N51	N5	0.373000	0.885070	0.369590
N61	N6	0.885180	0.372730	0.372530
N71	N7	0.372540	0.373010	0.885110
N81	N8	0.372550	0.369510	0.372930
