data_ADAXIO_freeONLY_PM
_symmetry_space_group_name_H-M	'P1'
_cell_length_a	18.191000
_cell_length_b	17.177000
_cell_length_c	13.692300
_cell_angle_alpha	90.000000
_cell_angle_beta	129.741000
_cell_angle_gamma	90.000000
_symmetry_Int_Tables_number 1

loop_
_symmetry_equiv_pos_as_xyz
'x,y,z'

loop_
_atom_site_label
_atom_site_type_symbol
_atom_site_fract_x
_atom_site_fract_y
_atom_site_fract_z
C11	C1	0.342100	0.166230	0.250600
C21	C2	0.337800	0.100330	0.319500
C31	C3	0.260900	0.049200	0.254400
H11	H1	0.208900	0.058700	0.169700
C41	C4	0.260700	0.984300	0.314300
H21	H2	0.208900	0.950300	0.269100
C51	C5	0.337100	0.969600	0.440900
C61	C6	0.412300	0.021800	0.506700
H31	H3	0.463000	0.013700	0.592500
C71	C7	0.412700	0.086000	0.446100
H41	H4	0.464400	0.120100	0.491500
C81	C8	0.341600	0.896540	0.506200
C91	C9	0.463600	0.328400	0.022200
H51	H5	0.469300	0.277900	0.003200
C101	C10	0.493400	0.390300	0.991600
H61	H6	0.520000	0.381100	0.953000
C111	C11	0.484500	0.466400	0.017300
C121	C12	0.443200	0.476800	0.074000
H71	H7	0.435500	0.526800	0.092400
C131	C13	0.413900	0.414000	0.102800
H81	H8	0.385100	0.421800	0.138700
N11	N1	0.426300	0.340930	0.079700
O11	O1	0.421560	0.200480	0.310300
O21	O2	0.267870	0.181760	0.139900
O31	O3	0.414100	0.889580	0.621200
O41	O4	0.273450	0.848960	0.439500
O51	O5	0.399840	0.281210	0.113400
C141	C14	0.842100	0.666230	0.250600
C151	C15	0.837800	0.600330	0.319500
C161	C16	0.760900	0.549200	0.254400
H91	H9	0.708900	0.558700	0.169700
C171	C17	0.760700	0.484300	0.314300
H101	H10	0.708900	0.450300	0.269100
C181	C18	0.837100	0.469600	0.440900
C191	C19	0.912300	0.521800	0.506700
H111	H11	0.963000	0.513700	0.592500
C201	C20	0.912700	0.586000	0.446100
H121	H12	0.964400	0.620100	0.491500
C211	C21	0.841600	0.396540	0.506200
C221	C22	0.963600	0.828400	0.022200
H131	H13	0.969300	0.777900	0.003200
C231	C23	0.993400	0.890300	0.991600
H141	H14	0.020000	0.881100	0.953000
C241	C24	0.984500	0.966400	0.017300
C251	C25	0.943200	0.976800	0.074000
H151	H15	0.935500	0.026800	0.092400
C261	C26	0.913900	0.914000	0.102800
H161	H16	0.885100	0.921800	0.138700
N21	N2	0.926300	0.840930	0.079700
O61	O6	0.921560	0.700480	0.310300
O71	O7	0.767870	0.681760	0.139900
O81	O8	0.914100	0.389580	0.621200
O91	O9	0.773450	0.348960	0.439500
O101	O10	0.899840	0.781210	0.113400
C271	C27	0.657900	0.166230	0.249400
C281	C28	0.662200	0.100330	0.180500
C291	C29	0.739100	0.049200	0.245600
H171	H17	0.791100	0.058700	0.330300
C301	C30	0.739300	0.984300	0.185700
H181	H18	0.791100	0.950300	0.230900
C311	C31	0.662900	0.969600	0.059100
C321	C32	0.587700	0.021800	0.993300
H191	H19	0.537000	0.013700	0.907500
C331	C33	0.587300	0.086000	0.053900
H201	H20	0.535600	0.120100	0.008500
C341	C34	0.658400	0.896540	0.993800
C351	C35	0.536400	0.328400	0.477800
H211	H21	0.530700	0.277900	0.496800
C361	C36	0.506600	0.390300	0.508400
H221	H22	0.480000	0.381100	0.547000
C371	C37	0.515500	0.466400	0.482700
C381	C38	0.556800	0.476800	0.426000
H231	H23	0.564500	0.526800	0.407600
C391	C39	0.586100	0.414000	0.397200
H241	H24	0.614900	0.421800	0.361300
N31	N3	0.573700	0.340930	0.420300
O111	O11	0.578440	0.200480	0.189700
O121	O12	0.732130	0.181760	0.360100
O131	O13	0.585900	0.889580	0.878800
O141	O14	0.726550	0.848960	0.060500
O151	O15	0.600160	0.281210	0.386600
C401	C40	0.157900	0.666230	0.249400
C411	C41	0.162200	0.600330	0.180500
C421	C42	0.239100	0.549200	0.245600
H251	H25	0.291100	0.558700	0.330300
C431	C43	0.239300	0.484300	0.185700
H261	H26	0.291100	0.450300	0.230900
C441	C44	0.162900	0.469600	0.059100
C451	C45	0.087700	0.521800	0.993300
H271	H27	0.037000	0.513700	0.907500
C461	C46	0.087300	0.586000	0.053900
H281	H28	0.035600	0.620100	0.008500
C471	C47	0.158400	0.396540	0.993800
C481	C48	0.036400	0.828400	0.477800
H291	H29	0.030700	0.777900	0.496800
C491	C49	0.006600	0.890300	0.508400
H301	H30	0.980000	0.881100	0.547000
C501	C50	0.015500	0.966400	0.482700
C511	C51	0.056800	0.976800	0.426000
H311	H31	0.064500	0.026800	0.407600
C521	C52	0.086100	0.914000	0.397200
H321	H32	0.114900	0.921800	0.361300
N41	N4	0.073700	0.840930	0.420300
O161	O16	0.078440	0.700480	0.189700
O171	O17	0.232130	0.681760	0.360100
O181	O18	0.085900	0.389580	0.878800
O191	O19	0.226550	0.348960	0.060500
O201	O20	0.100160	0.781210	0.386600
C531	C53	0.657900	0.833770	0.749400
C541	C54	0.662200	0.899670	0.680500
C551	C55	0.739100	0.950800	0.745600
H331	H33	0.791100	0.941300	0.830300
C561	C56	0.739300	0.015700	0.685700
H341	H34	0.791100	0.049700	0.730900
C571	C57	0.662900	0.030400	0.559100
C581	C58	0.587700	0.978200	0.493300
H351	H35	0.537000	0.986300	0.407500
C591	C59	0.587300	0.914000	0.553900
H361	H36	0.535600	0.879900	0.508500
C601	C60	0.658400	0.103460	0.493800
C611	C61	0.536400	0.671600	0.977800
H371	H37	0.530700	0.722100	0.996800
C621	C62	0.506600	0.609700	0.008400
H381	H38	0.480000	0.618900	0.047000
C631	C63	0.515500	0.533600	0.982700
C641	C64	0.556800	0.523200	0.926000
H391	H39	0.564500	0.473200	0.907600
C651	C65	0.586100	0.586000	0.897200
H401	H40	0.614900	0.578200	0.861300
N51	N5	0.573700	0.659070	0.920300
O211	O21	0.578440	0.799520	0.689700
O221	O22	0.732130	0.818240	0.860100
O231	O23	0.585900	0.110420	0.378800
O241	O24	0.726550	0.151040	0.560500
O251	O25	0.600160	0.718790	0.886600
C661	C66	0.157900	0.333770	0.749400
C671	C67	0.162200	0.399670	0.680500
C681	C68	0.239100	0.450800	0.745600
H411	H41	0.291100	0.441300	0.830300
C691	C69	0.239300	0.515700	0.685700
H421	H42	0.291100	0.549700	0.730900
C701	C70	0.162900	0.530400	0.559100
C711	C71	0.087700	0.478200	0.493300
H431	H43	0.037000	0.486300	0.407500
C721	C72	0.087300	0.414000	0.553900
H441	H44	0.035600	0.379900	0.508500
C731	C73	0.158400	0.603460	0.493800
C741	C74	0.036400	0.171600	0.977800
H451	H45	0.030700	0.222100	0.996800
C751	C75	0.006600	0.109700	0.008400
H461	H46	0.980000	0.118900	0.047000
C761	C76	0.015500	0.033600	0.982700
C771	C77	0.056800	0.023200	0.926000
H471	H47	0.064500	0.973200	0.907600
C781	C78	0.086100	0.086000	0.897200
H481	H48	0.114900	0.078200	0.861300
N61	N6	0.073700	0.159070	0.920300
O261	O26	0.078440	0.299520	0.689700
O271	O27	0.232130	0.318240	0.860100
O281	O28	0.085900	0.610420	0.378800
O291	O29	0.226550	0.651040	0.560500
O301	O30	0.100160	0.218790	0.886600
C791	C79	0.342100	0.833770	0.750600
C801	C80	0.337800	0.899670	0.819500
C811	C81	0.260900	0.950800	0.754400
H491	H49	0.208900	0.941300	0.669700
C821	C82	0.260700	0.015700	0.814300
H501	H50	0.208900	0.049700	0.769100
C831	C83	0.337100	0.030400	0.940900
C841	C84	0.412300	0.978200	0.006700
H511	H51	0.463000	0.986300	0.092500
C851	C85	0.412700	0.914000	0.946100
H521	H52	0.464400	0.879900	0.991500
C861	C86	0.341600	0.103460	0.006200
C871	C87	0.463600	0.671600	0.522200
H531	H53	0.469300	0.722100	0.503200
C881	C88	0.493400	0.609700	0.491600
H541	H54	0.520000	0.618900	0.453000
C891	C89	0.484500	0.533600	0.517300
C901	C90	0.443200	0.523200	0.574000
H551	H55	0.435500	0.473200	0.592400
C911	C91	0.413900	0.586000	0.602800
H561	H56	0.385100	0.578200	0.638700
N71	N7	0.426300	0.659070	0.579700
O311	O31	0.421560	0.799520	0.810300
O321	O32	0.267870	0.818240	0.639900
O331	O33	0.414100	0.110420	0.121200
O341	O34	0.273450	0.151040	0.939500
O351	O35	0.399840	0.718790	0.613400
C921	C92	0.842100	0.333770	0.750600
C931	C93	0.837800	0.399670	0.819500
C941	C94	0.760900	0.450800	0.754400
H571	H57	0.708900	0.441300	0.669700
C951	C95	0.760700	0.515700	0.814300
H581	H58	0.708900	0.549700	0.769100
C961	C96	0.837100	0.530400	0.940900
C971	C97	0.912300	0.478200	0.006700
H591	H59	0.963000	0.486300	0.092500
C981	C98	0.912700	0.414000	0.946100
H601	H60	0.964400	0.379900	0.991500
C991	C99	0.841600	0.603460	0.006200
C1001	C100	0.963600	0.171600	0.522200
H611	H61	0.969300	0.222100	0.503200
C1011	C101	0.993400	0.109700	0.491600
H621	H62	0.020000	0.118900	0.453000
C1021	C102	0.984500	0.033600	0.517300
C1031	C103	0.943200	0.023200	0.574000
H631	H63	0.935500	0.973200	0.592400
C1041	C104	0.913900	0.086000	0.602800
H641	H64	0.885100	0.078200	0.638700
N81	N8	0.926300	0.159070	0.579700
O361	O36	0.921560	0.299520	0.810300
O371	O37	0.767870	0.318240	0.639900
O381	O38	0.914100	0.610420	0.121200
O391	O39	0.773450	0.651040	0.939500
O401	O40	0.899840	0.218790	0.613400
Co11	Co1	0.500000	0.197340	0.250000
Co21	Co2	0.000000	0.697340	0.250000
Co31	Co3	0.500000	0.802660	0.750000
Co41	Co4	0.000000	0.302660	0.750000
Co51	Co5	0.250000	0.250000	0.000000
Co61	Co6	0.750000	0.250000	0.500000
Co71	Co7	0.750000	0.750000	0.000000
Co81	Co8	0.250000	0.750000	0.500000
