data_AFOYAW_freeONLY_PM
_symmetry_space_group_name_H-M	'P1'
_cell_length_a	13.342700
_cell_length_b	13.404700
_cell_length_c	13.562000
_cell_angle_alpha	102.339000
_cell_angle_beta	104.369000
_cell_angle_gamma	90.477000
_symmetry_Int_Tables_number 1

loop_
_symmetry_equiv_pos_as_xyz
'x,y,z'

loop_
_atom_site_label
_atom_site_type_symbol
_atom_site_fract_x
_atom_site_fract_y
_atom_site_fract_z
Cu11	Cu1	0.741290	0.572820	0.523920
O11	O1	0.645400	0.477500	0.545600
H11	H1	0.662700	0.464100	0.606500
O21	O2	0.844200	0.423400	0.381800
H21	H2	0.816500	0.382400	0.409600
H31	H3	0.858100	0.386700	0.327500
N11	N1	0.537900	0.525800	0.373300
N21	N2	0.638900	0.559600	0.382400
N31	N3	0.553700	0.530800	0.218600
N41	N4	0.564400	0.683600	0.588400
N51	N5	0.670500	0.702500	0.609400
N61	N6	0.611300	0.824400	0.710200
N71	N7	0.499400	0.275800	0.119000
N81	N8	0.598300	0.268900	0.176300
N91	N9	0.572000	0.157400	0.026100
N101	N10	0.844600	0.663200	0.490300
N111	N11	0.943800	0.636200	0.490400
N121	N12	0.935500	0.798000	0.488200
N131	N13	0.944800	0.498800	0.626900
N141	N14	0.854300	0.542100	0.641700
N151	N15	0.939900	0.510500	0.788800
C11	C1	0.489500	0.508300	0.273700
H41	H4	0.419900	0.483500	0.245300
C21	C2	0.646100	0.561800	0.288800
H51	H5	0.706500	0.581900	0.272300
C31	C3	0.431100	0.543700	0.056400
H61	H6	0.385300	0.573300	0.095200
C41	C4	0.527600	0.516800	0.106600
C51	C5	0.596900	0.473700	0.051400
H71	H7	0.662100	0.456400	0.086700
C61	C6	0.531700	0.756500	0.649100
H81	H8	0.462000	0.762200	0.651000
C71	C7	0.696600	0.786300	0.682600
H91	H9	0.764600	0.815600	0.711800
C81	C8	0.486600	0.211000	0.031000
H101	H10	0.425600	0.201900	0.976700
C91	C9	0.639300	0.198100	0.119500
H111	H11	0.707100	0.177800	0.140600
C101	C10	0.604500	0.913200	0.788300
C111	C11	0.680500	0.937100	0.881500
H121	H12	0.738700	0.897800	0.892000
C121	C12	0.670600	0.018900	0.958700
H131	H13	0.722800	0.036300	0.021500
C131	C13	0.584200	0.075200	0.944300
C141	C14	0.509000	0.050800	0.852000
H141	H14	0.450100	0.089100	0.842100
C151	C15	0.519500	0.970100	0.773300
H151	H15	0.468300	0.954300	0.709600
C161	C16	0.840900	0.759600	0.489000
H161	H16	0.781800	0.797300	0.488600
C171	C17	0.997300	0.717800	0.489500
H171	H17	0.067700	0.720700	0.489600
C181	C18	0.926300	0.980100	0.551700
H181	H18	0.876800	0.966200	0.586500
C191	C19	0.967700	0.901400	0.493500
C201	C20	0.040500	0.919400	0.442400
H191	H19	0.067800	0.864400	0.403800
C211	C21	0.994200	0.479500	0.716200
H201	H20	0.057900	0.448700	0.728500
C221	C22	0.853500	0.549100	0.738700
H211	H21	0.800900	0.576600	0.769200
C231	C23	0.070500	0.534200	0.953300
H221	H22	0.118400	0.557600	0.921500
C241	C24	0.971100	0.505200	0.898000
C251	C25	0.899600	0.471300	0.942100
H231	H23	0.831100	0.451900	0.902300
Cu21	Cu2	0.258710	0.427180	0.476080
O31	O3	0.354600	0.522500	0.454400
H241	H24	0.337300	0.535900	0.393500
O41	O4	0.155800	0.576600	0.618200
H251	H25	0.183500	0.617600	0.590400
H261	H26	0.141900	0.613300	0.672500
N161	N16	0.462100	0.474200	0.626700
N171	N17	0.361100	0.440400	0.617600
N181	N18	0.446300	0.469200	0.781400
N191	N19	0.435600	0.316400	0.411600
N201	N20	0.329500	0.297500	0.390600
N211	N21	0.388700	0.175600	0.289800
N221	N22	0.500600	0.724200	0.881000
N231	N23	0.401700	0.731100	0.823700
N241	N24	0.428000	0.842600	0.973900
N251	N25	0.155400	0.336800	0.509700
N261	N26	0.056200	0.363800	0.509600
N271	N27	0.064500	0.202000	0.511800
N281	N28	0.055200	0.501200	0.373100
N291	N29	0.145700	0.457900	0.358300
N301	N30	0.060100	0.489500	0.211200
C261	C26	0.510500	0.491700	0.726300
H271	H27	0.580100	0.516500	0.754700
C271	C27	0.353900	0.438200	0.711200
H281	H28	0.293500	0.418100	0.727700
C281	C28	0.568900	0.456300	0.943600
H291	H29	0.614700	0.426700	0.904800
C291	C29	0.472400	0.483200	0.893400
C301	C30	0.403100	0.526300	0.948600
H301	H30	0.337900	0.543600	0.913300
C311	C31	0.468300	0.243500	0.350900
H311	H31	0.538000	0.237800	0.349000
C321	C32	0.303400	0.213700	0.317400
H321	H32	0.235400	0.184400	0.288200
C331	C33	0.513400	0.789000	0.969000
H331	H33	0.574400	0.798100	0.023300
C341	C34	0.360700	0.801900	0.880500
H341	H34	0.292900	0.822200	0.859400
C351	C35	0.395500	0.086800	0.211700
C361	C36	0.319500	0.062900	0.118500
H351	H35	0.261300	0.102200	0.108000
C371	C37	0.329400	0.981100	0.041300
H361	H36	0.277200	0.963700	0.978500
C381	C38	0.415800	0.924800	0.055700
C391	C39	0.491000	0.949200	0.148000
H371	H37	0.549900	0.910900	0.157900
C401	C40	0.480500	0.029900	0.226700
H381	H38	0.531700	0.045700	0.290400
C411	C41	0.159100	0.240400	0.511000
H391	H39	0.218200	0.202700	0.511400
C421	C42	0.002700	0.282200	0.510500
H401	H40	0.932300	0.279300	0.510400
C431	C43	0.073700	0.019900	0.448300
H411	H41	0.123200	0.033800	0.413500
C441	C44	0.032300	0.098600	0.506500
C451	C45	0.959500	0.080600	0.557600
H421	H42	0.932200	0.135600	0.596200
C461	C46	0.005800	0.520500	0.283800
H431	H43	0.942100	0.551300	0.271500
C471	C47	0.146500	0.450900	0.261300
H441	H44	0.199100	0.423400	0.230800
C481	C48	0.929500	0.465800	0.046700
H451	H45	0.881600	0.442400	0.078500
C491	C49	0.028900	0.494800	0.102000
C501	C50	0.100400	0.528700	0.057900
H461	H46	0.168900	0.548100	0.097700
Cu31	Cu3	0.500000	0.500000	0.500000
Cu41	Cu4	0.000000	0.500000	0.500000
