data_AGABIU_freeONLY_PM
_symmetry_space_group_name_H-M	'P1'
_cell_length_a	18.605000
_cell_length_b	18.605000
_cell_length_c	14.904000
_cell_angle_alpha	90.000000
_cell_angle_beta	90.000000
_cell_angle_gamma	120.000000
_symmetry_Int_Tables_number 1

loop_
_symmetry_equiv_pos_as_xyz
'x,y,z'

loop_
_atom_site_label
_atom_site_type_symbol
_atom_site_fract_x
_atom_site_fract_y
_atom_site_fract_z
O11	O1	0.493700	0.912800	0.082900
O21	O2	0.409300	0.901900	0.932200
O31	O3	0.343900	0.763300	0.937800
N11	N1	0.425800	0.769000	0.086600
C11	C1	0.465000	0.767500	0.168500
C21	C2	0.529900	0.750100	0.167700
C31	C3	0.442700	0.840500	0.053700
C41	C4	0.394400	0.834300	0.967400
O41	O4	0.087200	0.580900	0.082900
O51	O5	0.098100	0.507400	0.932200
O61	O6	0.236700	0.580600	0.937800
N21	N2	0.231000	0.656800	0.086600
C51	C5	0.232500	0.697500	0.168500
C61	C6	0.249900	0.779800	0.167700
C71	C7	0.159500	0.602200	0.053700
C81	C8	0.165700	0.560100	0.967400
O71	O7	0.419100	0.506300	0.082900
O81	O8	0.492600	0.590700	0.932200
O91	O9	0.419400	0.656100	0.937800
N31	N3	0.343200	0.574200	0.086600
C91	C9	0.302500	0.535000	0.168500
C101	C10	0.220200	0.470100	0.167700
C111	C11	0.397800	0.557300	0.053700
C121	C12	0.439900	0.605600	0.967400
O101	O10	0.506300	0.087200	0.582900
O111	O11	0.590700	0.098100	0.432200
O121	O12	0.656100	0.236700	0.437800
N41	N4	0.574200	0.231000	0.586600
C131	C13	0.535000	0.232500	0.668500
C141	C14	0.470100	0.249900	0.667700
C151	C15	0.557300	0.159500	0.553700
C161	C16	0.605600	0.165700	0.467400
O131	O13	0.912800	0.419100	0.582900
O141	O14	0.901900	0.492600	0.432200
O151	O15	0.763300	0.419400	0.437800
N51	N5	0.769000	0.343200	0.586600
C171	C17	0.767500	0.302500	0.668500
C181	C18	0.750100	0.220200	0.667700
C191	C19	0.840500	0.397800	0.553700
C201	C20	0.834300	0.439900	0.467400
O161	O16	0.580900	0.493700	0.582900
O171	O17	0.507400	0.409300	0.432200
O181	O18	0.580600	0.343900	0.437800
N61	N6	0.656800	0.425800	0.586600
C211	C21	0.697500	0.465000	0.668500
C221	C22	0.779800	0.529900	0.667700
C231	C23	0.602200	0.442700	0.553700
C241	C24	0.560100	0.394400	0.467400
O191	O19	0.506300	0.087200	0.917100
O201	O20	0.590700	0.098100	0.067800
O211	O21	0.656100	0.236700	0.062200
N71	N7	0.574200	0.231000	0.913400
C251	C25	0.535000	0.232500	0.831500
C261	C26	0.470100	0.249900	0.832300
C271	C27	0.557300	0.159500	0.946300
C281	C28	0.605600	0.165700	0.032600
O221	O22	0.912800	0.419100	0.917100
O231	O23	0.901900	0.492600	0.067800
O241	O24	0.763300	0.419400	0.062200
N81	N8	0.769000	0.343200	0.913400
C291	C29	0.767500	0.302500	0.831500
C301	C30	0.750100	0.220200	0.832300
C311	C31	0.840500	0.397800	0.946300
C321	C32	0.834300	0.439900	0.032600
O251	O25	0.580900	0.493700	0.917100
O261	O26	0.507400	0.409300	0.067800
O271	O27	0.580600	0.343900	0.062200
N91	N9	0.656800	0.425800	0.913400
C331	C33	0.697500	0.465000	0.831500
C341	C34	0.779800	0.529900	0.832300
C351	C35	0.602200	0.442700	0.946300
C361	C36	0.560100	0.394400	0.032600
O281	O28	0.493700	0.912800	0.417100
O291	O29	0.409300	0.901900	0.567800
O301	O30	0.343900	0.763300	0.562200
N101	N10	0.425800	0.769000	0.413400
C371	C37	0.465000	0.767500	0.331500
C381	C38	0.529900	0.750100	0.332300
C391	C39	0.442700	0.840500	0.446300
C401	C40	0.394400	0.834300	0.532600
O311	O31	0.087200	0.580900	0.417100
O321	O32	0.098100	0.507400	0.567800
O331	O33	0.236700	0.580600	0.562200
N111	N11	0.231000	0.656800	0.413400
C411	C41	0.232500	0.697500	0.331500
C421	C42	0.249900	0.779800	0.332300
C431	C43	0.159500	0.602200	0.446300
C441	C44	0.165700	0.560100	0.532600
O341	O34	0.419100	0.506300	0.417100
O351	O35	0.492600	0.590700	0.567800
O361	O36	0.419400	0.656100	0.562200
N121	N12	0.343200	0.574200	0.413400
C451	C45	0.302500	0.535000	0.331500
C461	C46	0.220200	0.470100	0.332300
C471	C47	0.397800	0.557300	0.446300
C481	C48	0.439900	0.605600	0.532600
Ni11	Ni1	0.333330	0.666670	0.020000
Ni21	Ni2	0.666670	0.333330	0.520000
Ni31	Ni3	0.666670	0.333330	0.980000
Ni41	Ni4	0.333330	0.666670	0.480000
C491	C49	0.434200	0.777800	0.250000
C501	C50	0.561200	0.741200	0.250000
C511	C51	0.222200	0.656400	0.250000
C521	C52	0.258800	0.820000	0.250000
C531	C53	0.343600	0.565800	0.250000
C541	C54	0.180000	0.438800	0.250000
C551	C55	0.565800	0.222200	0.750000
C561	C56	0.438800	0.258800	0.750000
C571	C57	0.777800	0.343600	0.750000
C581	C58	0.741200	0.180000	0.750000
C591	C59	0.656400	0.434200	0.750000
C601	C60	0.820000	0.561200	0.750000
Li11	Li1	0.500000	0.000000	0.000000
Li21	Li2	0.000000	0.500000	0.000000
Li31	Li3	0.500000	0.500000	0.000000
Li41	Li4	0.500000	0.000000	0.500000
Li51	Li5	0.000000	0.500000	0.500000
Li61	Li6	0.500000	0.500000	0.500000
