data_AGARUW_freeONLY_PM
_symmetry_space_group_name_H-M	'P1'
_cell_length_a	8.521000
_cell_length_b	15.380000
_cell_length_c	18.477000
_cell_angle_alpha	90.000000
_cell_angle_beta	90.000000
_cell_angle_gamma	90.000000
_symmetry_Int_Tables_number 1

loop_
_symmetry_equiv_pos_as_xyz
'x,y,z'

loop_
_atom_site_label
_atom_site_type_symbol
_atom_site_fract_x
_atom_site_fract_y
_atom_site_fract_z
La11	La1	0.656040	0.715540	0.383240
La21	La2	0.843960	0.215540	0.616760
La31	La3	0.343960	0.284460	0.883240
La41	La4	0.156040	0.784460	0.116760
La51	La5	0.343960	0.284460	0.616760
La61	La6	0.156040	0.784460	0.383240
La71	La7	0.656040	0.715540	0.116760
La81	La8	0.843960	0.215540	0.883240
H11	H1	0.479600	0.981000	0.586300
H21	H2	0.033300	0.951000	0.544200
H31	H3	0.811400	0.565300	0.312000
H41	H4	0.719200	0.526500	0.365200
H51	H5	0.020400	0.481000	0.413700
H61	H6	0.466700	0.451000	0.455800
H71	H7	0.688600	0.065300	0.688000
H81	H8	0.780800	0.026500	0.634800
H91	H9	0.520400	0.019000	0.086300
H101	H10	0.966700	0.049000	0.044200
H111	H11	0.188600	0.434700	0.812000
H121	H12	0.280800	0.473500	0.865200
H131	H13	0.979600	0.519000	0.913700
H141	H14	0.533300	0.549000	0.955800
H151	H15	0.311400	0.934700	0.188000
H161	H16	0.219200	0.973500	0.134800
H171	H17	0.520400	0.019000	0.413700
H181	H18	0.966700	0.049000	0.455800
H191	H19	0.188600	0.434700	0.688000
H201	H20	0.280800	0.473500	0.634800
H211	H21	0.979600	0.519000	0.586300
H221	H22	0.533300	0.549000	0.544200
H231	H23	0.311400	0.934700	0.312000
H241	H24	0.219200	0.973500	0.365200
H251	H25	0.479600	0.981000	0.913700
H261	H26	0.033300	0.951000	0.955800
H271	H27	0.811400	0.565300	0.188000
H281	H28	0.719200	0.526500	0.134800
H291	H29	0.020400	0.481000	0.086300
H301	H30	0.466700	0.451000	0.044200
H311	H31	0.688600	0.065300	0.812000
H321	H32	0.780800	0.026500	0.865200
C11	C1	0.469100	0.821900	0.496500
C21	C2	0.359100	0.885000	0.528100
C31	C3	0.383300	0.959700	0.569000
C41	C4	0.237300	0.996000	0.578900
C51	C5	0.185900	0.078600	0.612200
C61	C6	0.030900	0.321900	0.503500
C71	C7	0.140900	0.385000	0.471900
C81	C8	0.116700	0.459700	0.431000
C91	C9	0.262700	0.496000	0.421100
C101	C10	0.314100	0.578600	0.387800
C111	C11	0.530900	0.178100	0.996500
C121	C12	0.640900	0.115000	0.028100
C131	C13	0.616700	0.040300	0.069000
C141	C14	0.762700	0.004000	0.078900
C151	C15	0.814100	0.921400	0.112200
C161	C16	0.969100	0.678100	0.003500
C171	C17	0.859100	0.615000	0.971900
C181	C18	0.883300	0.540300	0.931000
C191	C19	0.737300	0.504000	0.921100
C201	C20	0.685900	0.421400	0.887800
C211	C21	0.530900	0.178100	0.503500
C221	C22	0.640900	0.115000	0.471900
C231	C23	0.616700	0.040300	0.431000
C241	C24	0.762700	0.004000	0.421100
C251	C25	0.814100	0.921400	0.387800
C261	C26	0.969100	0.678100	0.496500
C271	C27	0.859100	0.615000	0.528100
C281	C28	0.883300	0.540300	0.569000
C291	C29	0.737300	0.504000	0.578900
C301	C30	0.685900	0.421400	0.612200
C311	C31	0.469100	0.821900	0.003500
C321	C32	0.359100	0.885000	0.971900
C331	C33	0.383300	0.959700	0.931000
C341	C34	0.237300	0.996000	0.921100
C351	C35	0.185900	0.078600	0.887800
C361	C36	0.030900	0.321900	0.996500
C371	C37	0.140900	0.385000	0.028100
C381	C38	0.116700	0.459700	0.069000
C391	C39	0.262700	0.496000	0.078900
C401	C40	0.314100	0.578600	0.112200
C411	C41	0.469700	0.750900	0.250000
C421	C42	0.030300	0.250900	0.750000
C431	C43	0.530300	0.249100	0.750000
C441	C44	0.969700	0.749100	0.250000
N11	N1	0.134200	0.942300	0.545100
N21	N2	0.204300	0.875000	0.513600
N31	N3	0.365800	0.442300	0.454900
N41	N4	0.295700	0.375000	0.486400
N51	N5	0.865800	0.057700	0.045100
N61	N6	0.795700	0.125000	0.013600
N71	N7	0.634200	0.557700	0.954900
N81	N8	0.704300	0.625000	0.986400
N91	N9	0.865800	0.057700	0.454900
N101	N10	0.795700	0.125000	0.486400
N111	N11	0.634200	0.557700	0.545100
N121	N12	0.704300	0.625000	0.513600
N131	N13	0.134200	0.942300	0.954900
N141	N14	0.204300	0.875000	0.986400
N151	N15	0.365800	0.442300	0.045100
N161	N16	0.295700	0.375000	0.013600
O11	O1	0.610300	0.824600	0.509900
O21	O2	0.411000	0.765900	0.454200
O31	O3	0.042800	0.094100	0.609100
O41	O4	0.290000	0.125300	0.638700
O51	O5	0.413300	0.773500	0.310800
O61	O6	0.780000	0.568800	0.355500
O71	O7	0.889700	0.324600	0.490100
O81	O8	0.089000	0.265900	0.545800
O91	O9	0.457200	0.594100	0.390900
O101	O10	0.210000	0.625300	0.361300
O111	O11	0.086700	0.273500	0.689200
O121	O12	0.720000	0.068800	0.644500
O131	O13	0.389700	0.175400	0.009900
O141	O14	0.589000	0.234100	0.954200
O151	O15	0.957200	0.905900	0.109100
O161	O16	0.710000	0.874700	0.138700
O171	O17	0.586700	0.226500	0.810800
O181	O18	0.220000	0.431200	0.855500
O191	O19	0.110300	0.675400	0.990100
O201	O20	0.911000	0.734100	0.045800
O211	O21	0.542800	0.405900	0.890900
O221	O22	0.790000	0.374700	0.861300
O231	O23	0.913300	0.726500	0.189200
O241	O24	0.280000	0.931200	0.144500
O251	O25	0.389700	0.175400	0.490100
O261	O26	0.589000	0.234100	0.545800
O271	O27	0.957200	0.905900	0.390900
O281	O28	0.710000	0.874700	0.361300
O291	O29	0.586700	0.226500	0.689200
O301	O30	0.220000	0.431200	0.644500
O311	O31	0.110300	0.675400	0.509900
O321	O32	0.911000	0.734100	0.454200
O331	O33	0.542800	0.405900	0.609100
O341	O34	0.790000	0.374700	0.638700
O351	O35	0.913300	0.726500	0.310800
O361	O36	0.280000	0.931200	0.355500
O371	O37	0.610300	0.824600	0.990100
O381	O38	0.411000	0.765900	0.045800
O391	O39	0.042800	0.094100	0.890900
O401	O40	0.290000	0.125300	0.861300
O411	O41	0.413300	0.773500	0.189200
O421	O42	0.780000	0.568800	0.144500
O431	O43	0.889700	0.324600	0.009900
O441	O44	0.089000	0.265900	0.954200
O451	O45	0.457200	0.594100	0.109100
O461	O46	0.210000	0.625300	0.138700
O471	O47	0.086700	0.273500	0.810800
O481	O48	0.720000	0.068800	0.855500
O491	O49	0.596400	0.705700	0.250000
O501	O50	0.903600	0.205700	0.750000
O511	O51	0.403600	0.294300	0.750000
O521	O52	0.096400	0.794300	0.250000
