data_AGIREP_freeONLY_PM
_symmetry_space_group_name_H-M	'P1'
_cell_length_a	19.739000
_cell_length_b	28.424500
_cell_length_c	28.424500
_cell_angle_alpha	61.595000
_cell_angle_beta	69.682700
_cell_angle_gamma	69.682700
_symmetry_Int_Tables_number 1

loop_
_symmetry_equiv_pos_as_xyz
'x,y,z'

loop_
_atom_site_label
_atom_site_type_symbol
_atom_site_fract_x
_atom_site_fract_y
_atom_site_fract_z
Zn11	Zn1	0.967100	0.282900	0.782900
Zn21	Zn2	0.352270	0.943640	0.802660
Zn31	Zn3	0.240910	0.895740	0.895740
Zn41	Zn4	0.205750	0.592950	0.592950
Zn51	Zn5	0.967100	0.782900	0.282900
Zn61	Zn6	0.967610	0.395740	0.395740
Zn71	Zn7	0.642420	0.550640	0.680780
Zn81	Zn8	0.585120	0.575810	0.575820
Zn91	Zn9	0.873840	0.949360	0.819220
Zn101	Zn10	0.126160	0.180780	0.050640
Zn111	Zn11	0.352270	0.802660	0.943640
Zn121	Zn12	0.807490	0.520660	0.014450
Zn131	Zn13	0.098570	0.556360	0.697340
Zn141	Zn14	0.263260	0.075810	0.075810
Zn151	Zn15	0.192510	0.479340	0.985550
Zn161	Zn16	0.391650	0.907050	0.907050
Zn171	Zn17	0.032900	0.217100	0.717100
Zn181	Zn18	0.608350	0.092950	0.092950
Zn191	Zn19	0.736740	0.924190	0.924190
Zn201	Zn20	0.759090	0.104260	0.104260
Zn211	Zn21	0.901430	0.443640	0.302660
Zn221	Zn22	0.642420	0.680780	0.550640
Zn231	Zn23	0.357580	0.319220	0.449360
Zn241	Zn24	0.342600	0.485550	0.979350
Zn251	Zn25	0.032900	0.717100	0.217100
Zn261	Zn26	0.414880	0.424190	0.424180
Zn271	Zn27	0.126160	0.050640	0.180780
Zn281	Zn28	0.873840	0.819220	0.949360
Zn291	Zn29	0.794250	0.407050	0.407050
Zn301	Zn30	0.807500	0.014450	0.520650
Zn311	Zn31	0.032390	0.604260	0.604260
Zn321	Zn32	0.657390	0.020660	0.514450
Zn331	Zn33	0.342610	0.979340	0.485550
Zn341	Zn34	0.357580	0.449360	0.319220
Zn351	Zn35	0.901430	0.302660	0.443640
Zn361	Zn36	0.657400	0.514450	0.020650
Zn371	Zn37	0.098570	0.697340	0.556360
Zn381	Zn38	0.192500	0.985550	0.479350
Zn391	Zn39	0.647730	0.056360	0.197340
Zn401	Zn40	0.647730	0.197340	0.056360
H11	H1	0.086400	0.044600	0.399200
H21	H2	0.762600	0.978900	0.695100
H31	H3	0.009600	0.038400	0.593400
H41	H4	0.018700	0.428500	0.897700
H51	H5	0.436600	0.521100	0.804900
H61	H6	0.762600	0.695100	0.978900
H71	H7	0.173300	0.423600	0.292400
H81	H8	0.928800	0.149100	0.482700
H91	H9	0.201900	0.602100	0.312700
H101	H10	0.573800	0.381300	0.046100
H111	H11	0.724100	0.060800	0.948600
H121	H12	0.998800	0.881300	0.546100
H131	H13	0.439400	0.649100	0.982700
H141	H14	0.883300	0.812700	0.102100
H151	H15	0.883300	0.102100	0.812700
H161	H16	0.553100	0.533800	0.899600
H171	H17	0.090700	0.004700	0.374100
H181	H18	0.110700	0.792400	0.923600
H191	H19	0.053100	0.538200	0.076400
H201	H20	0.946900	0.461800	0.923600
H211	H21	0.494000	0.039600	0.390400
H221	H22	0.332300	0.038200	0.576400
H231	H23	0.566700	0.688800	0.972800
H241	H24	0.433300	0.027200	0.311200
H251	H25	0.013500	0.399600	0.033800
H261	H26	0.398400	0.056600	0.168200
H271	H27	0.909300	0.995300	0.625900
H281	H28	0.798100	0.397900	0.687300
H291	H29	0.690700	0.544100	0.856100
H301	H30	0.376800	0.556600	0.668200
H311	H31	0.826700	0.576400	0.707600
H321	H32	0.808100	0.905200	0.189200
H331	H33	0.902500	0.594800	0.310800
H341	H34	0.655100	0.397700	0.928500
H351	H35	0.494000	0.390400	0.039600
H361	H36	0.469800	0.544600	0.899200
H371	H37	0.116700	0.187300	0.897900
H381	H38	0.667700	0.961800	0.423600
H391	H39	0.469500	0.495300	0.125900
H401	H40	0.288500	0.666700	0.940700
H411	H41	0.733500	0.439200	0.551400
H421	H42	0.104100	0.166700	0.440700
H431	H43	0.990400	0.406600	0.961600
H441	H44	0.009600	0.593400	0.038400
H451	H45	0.071200	0.850900	0.517300
H461	H46	0.690700	0.856100	0.544100
H471	H47	0.090900	0.955900	0.643900
H481	H48	0.469800	0.899200	0.544600
H491	H49	0.530200	0.455400	0.100800
H501	H50	0.553100	0.899600	0.533800
H511	H51	0.909100	0.356100	0.044100
H521	H52	0.446900	0.466200	0.100400
H531	H53	0.469500	0.125900	0.495300
H541	H54	0.889300	0.076400	0.207600
H551	H55	0.566700	0.972800	0.688800
H561	H56	0.655100	0.928500	0.397700
H571	H57	0.909300	0.625900	0.995300
H581	H58	0.110700	0.923600	0.792400
H591	H59	0.426200	0.618700	0.953900
H601	H60	0.981300	0.102300	0.571500
H611	H61	0.563400	0.195100	0.478900
H621	H62	0.358600	0.538400	0.093400
H631	H63	0.563400	0.478900	0.195100
H641	H64	0.601600	0.943400	0.831800
H651	H65	0.309300	0.143900	0.455900
H661	H66	0.946900	0.923600	0.461800
H671	H67	0.053100	0.076400	0.538200
H681	H68	0.924000	0.460400	0.109600
H691	H69	0.309300	0.455900	0.143900
H701	H70	0.895900	0.559300	0.833300
H711	H71	0.530500	0.504700	0.874100
H721	H72	0.076000	0.539600	0.890400
H731	H73	0.990400	0.961600	0.406600
H741	H74	0.641400	0.461600	0.906600
H751	H75	0.237400	0.021100	0.304900
H761	H76	0.104100	0.440700	0.166700
H771	H77	0.201900	0.312700	0.602100
H781	H78	0.275900	0.051400	0.939200
H791	H79	0.913600	0.955400	0.600800
H801	H80	0.667700	0.423600	0.961800
H811	H81	0.191900	0.094800	0.810800
H821	H82	0.446900	0.100400	0.466200
H831	H83	0.001200	0.118700	0.453900
H841	H84	0.998800	0.546100	0.881300
H851	H85	0.266500	0.448600	0.560800
H861	H86	0.981300	0.571500	0.102300
H871	H87	0.808100	0.189200	0.905200
H881	H88	0.771700	0.188800	0.472800
H891	H89	0.275900	0.939200	0.051400
H901	H90	0.076000	0.890400	0.539600
H911	H91	0.228300	0.811200	0.527200
H921	H92	0.090700	0.374100	0.004700
H931	H93	0.909100	0.044100	0.356100
H941	H94	0.332300	0.576400	0.038200
H951	H95	0.724100	0.948600	0.060800
H961	H96	0.889300	0.207600	0.076400
H971	H97	0.711500	0.059300	0.333300
H981	H98	0.506000	0.609600	0.960400
H991	H99	0.358600	0.093400	0.538400
H1001	H100	0.573800	0.046100	0.381300
H1011	H101	0.711500	0.333300	0.059300
H1021	H102	0.398400	0.168200	0.056600
H1031	H103	0.826700	0.707600	0.576400
H1041	H104	0.623200	0.443400	0.331800
H1051	H105	0.530200	0.100800	0.455400
H1061	H106	0.228300	0.527200	0.811200
H1071	H107	0.924000	0.109600	0.460400
H1081	H108	0.623200	0.331800	0.443400
H1091	H109	0.560600	0.350900	0.017300
H1101	H110	0.641400	0.906600	0.461600
H1111	H111	0.913600	0.600800	0.955400
H1121	H112	0.895900	0.833300	0.559300
H1131	H113	0.376800	0.668200	0.556600
H1141	H114	0.097500	0.689200	0.405200
H1151	H115	0.436600	0.804900	0.521100
H1161	H116	0.097500	0.405200	0.689200
H1171	H117	0.173300	0.292400	0.423600
H1181	H118	0.001200	0.453900	0.118700
H1191	H119	0.560600	0.017300	0.350900
H1201	H120	0.530500	0.874100	0.504700
H1211	H121	0.506000	0.960400	0.609600
H1221	H122	0.433300	0.311200	0.027200
H1231	H123	0.071200	0.517300	0.850900
H1241	H124	0.191900	0.810800	0.094800
H1251	H125	0.601600	0.831800	0.943400
H1261	H126	0.344900	0.602300	0.071500
H1271	H127	0.986500	0.966200	0.600400
H1281	H128	0.986500	0.600400	0.966200
H1291	H129	0.439400	0.982700	0.649100
H1301	H130	0.902500	0.310800	0.594800
H1311	H131	0.116700	0.897900	0.187300
H1321	H132	0.733500	0.551400	0.439200
H1331	H133	0.013500	0.033800	0.399600
H1341	H134	0.086400	0.399200	0.044600
H1351	H135	0.798100	0.687300	0.397900
H1361	H136	0.090900	0.643900	0.955900
H1371	H137	0.288500	0.940700	0.666700
H1381	H138	0.426200	0.953900	0.618700
H1391	H139	0.928800	0.482700	0.149100
H1401	H140	0.771700	0.472800	0.188800
H1411	H141	0.018700	0.897700	0.428500
H1421	H142	0.237400	0.304900	0.021100
H1431	H143	0.344900	0.071500	0.602300
H1441	H144	0.266500	0.560800	0.448600
C11	C1	0.764540	0.295040	0.443080
C21	C2	0.047200	0.884200	0.522800
C31	C3	0.197170	0.128480	0.973980
C41	C4	0.807410	0.898790	0.160190
C51	C5	0.807410	0.160190	0.898790
C61	C6	0.285270	0.287480	0.026580
C71	C7	0.484500	0.097300	0.482300
C81	C8	0.771370	0.413580	0.039680
C91	C9	0.234930	0.583320	0.424620
C101	C10	0.757130	0.083320	0.924620
C111	C11	0.818150	0.569040	0.744460
C121	C12	0.140930	0.180270	0.440470
C131	C13	0.618530	0.794500	0.951440
C141	C14	0.818150	0.744460	0.569040
C151	C15	0.670810	0.182270	0.478910
C161	C16	0.618530	0.951440	0.794500
C171	C17	0.775370	0.539680	0.913580
C181	C18	0.066950	0.969950	0.458150
C191	C19	0.935900	0.597300	0.982300
C201	C20	0.131650	0.930960	0.755540
C211	C21	0.305560	0.005230	0.378650
C221	C22	0.402180	0.030530	0.291110
C231	C23	0.952800	0.115800	0.477200
C241	C24	0.309440	0.040190	0.231530
C251	C25	0.581160	0.459810	0.268470
C261	C26	0.364470	0.705500	0.548560
C271	C27	0.750310	0.779390	0.558790
C281	C28	0.145660	0.848080	0.147600
C291	C29	0.249690	0.441210	0.220610
C301	C30	0.820540	0.564460	0.374460
C311	C31	0.804070	0.051120	0.354340
C321	C32	0.802530	0.879220	0.074320
C331	C33	0.238330	0.940470	0.680270
C341	C34	0.168080	0.487020	0.632420
C351	C35	0.209530	0.145660	0.448880
C361	C36	0.310560	0.505230	0.878650
C371	C37	0.004900	0.561100	0.071900
C381	C38	0.790470	0.551120	0.854340
C391	C39	0.803400	0.656800	0.391600
C401	C40	0.093110	0.811620	0.185760
C411	C41	0.994000	0.258300	0.052900
C421	C42	0.597820	0.708890	0.969470
C431	C43	0.831920	0.512980	0.367580
C441	C44	0.088490	0.941210	0.720610
C451	C45	0.285270	0.026580	0.287480
C461	C46	0.133610	0.660190	0.398790
C471	C47	0.504040	0.452760	0.303360
C481	C48	0.859070	0.819730	0.559530
C491	C49	0.181850	0.430960	0.255540
C501	C50	0.668010	0.682270	0.978910
C511	C51	0.250220	0.924500	0.772460
C521	C52	0.181850	0.255540	0.430960
C531	C53	0.909510	0.685760	0.311620
C541	C54	0.572090	0.765100	0.955120
C551	C55	0.004900	0.071900	0.561100
C561	C56	0.689440	0.494770	0.121350
C571	C57	0.700370	0.473980	0.628480
C581	C58	0.793300	0.265350	0.068250
C591	C59	0.362100	0.571900	0.061100
C601	C60	0.504950	0.469950	0.958150
C611	C61	0.802530	0.074320	0.879220
C621	C62	0.502660	0.204960	0.056920
C631	C63	0.750310	0.558790	0.779390
C641	C64	0.329190	0.521090	0.817730
C651	C65	0.858660	0.647600	0.348080
C661	C66	0.141340	0.651920	0.352400
C671	C67	0.866390	0.601210	0.339810
C681	C68	0.179460	0.625540	0.435540
C691	C69	0.145660	0.147600	0.848080
C701	C70	0.545800	0.022800	0.384200
C711	C71	0.694800	0.758300	0.552900
C721	C72	0.168080	0.632420	0.487020
C731	C73	0.854340	0.852400	0.151920
C741	C74	0.793300	0.068250	0.265350
C751	C75	0.179460	0.435540	0.625540
C761	C76	0.775370	0.913580	0.539680
C771	C77	0.064100	0.017700	0.402700
C781	C78	0.690560	0.768470	0.959810
C791	C79	0.739840	0.803360	0.952760
C801	C80	0.126900	0.234650	0.431750
C811	C81	0.670810	0.478910	0.182270
C821	C82	0.148200	0.156800	0.891600
C831	C83	0.292310	0.544880	0.734900
C841	C84	0.228630	0.586420	0.960320
C851	C85	0.329190	0.817730	0.521090
C861	C86	0.952800	0.477200	0.115800
C871	C87	0.418840	0.731530	0.540190
C881	C88	0.197470	0.925680	0.120780
C891	C89	0.052820	0.424500	0.272460
C901	C90	0.504040	0.303360	0.452760
C911	C91	0.851800	0.843200	0.108400
C921	C92	0.868350	0.244460	0.069040
C931	C93	0.140930	0.440470	0.180270
C941	C94	0.831920	0.367580	0.512980
C951	C95	0.637900	0.938900	0.428100
C961	C96	0.240540	0.874460	0.064460
C971	C97	0.133610	0.398790	0.660190
C981	C98	0.765070	0.575380	0.416680
C991	C99	0.209530	0.448880	0.145660
C1001	C100	0.495960	0.547240	0.696640
C1011	C101	0.090490	0.688380	0.314240
C1021	C102	0.195930	0.645660	0.948880
C1031	C103	0.749780	0.075500	0.227540
C1041	C104	0.242870	0.916680	0.075380
C1051	C105	0.402180	0.291110	0.030530
C1061	C106	0.418840	0.540190	0.731530
C1071	C107	0.235460	0.704960	0.556920
C1081	C108	0.497340	0.795040	0.943080
C1091	C109	0.545800	0.384200	0.022800
C1101	C110	0.854340	0.151920	0.852400
C1111	C111	0.381470	0.205500	0.048560
C1121	C112	0.263530	0.166670	0.449670
C1131	C113	0.859070	0.559530	0.819730
C1141	C114	0.224630	0.086420	0.460320
C1151	C115	0.260160	0.047240	0.196640
C1161	C116	0.088490	0.720610	0.941210
C1171	C117	0.260160	0.196640	0.047240
C1181	C118	0.250220	0.772460	0.924500
C1191	C119	0.707690	0.265100	0.455120
C1201	C120	0.757130	0.924620	0.083320
C1211	C121	0.694440	0.994770	0.621350
C1221	C122	0.759460	0.935540	0.125540
C1231	C123	0.292310	0.734900	0.544880
C1241	C124	0.712480	0.132420	0.987020
C1251	C125	0.331990	0.317730	0.021090
C1261	C126	0.756070	0.425680	0.620780
C1271	C127	0.234930	0.424620	0.583320
C1281	C128	0.196600	0.608400	0.343200
C1291	C129	0.305560	0.378650	0.005230
C1301	C130	0.599330	0.212520	0.473420
C1311	C131	0.120130	0.666670	0.949670
C1321	C132	0.759460	0.125540	0.935540
C1331	C133	0.093110	0.185760	0.811620
C1341	C134	0.495050	0.530050	0.041850
C1351	C135	0.820540	0.374460	0.564460
C1361	C136	0.858660	0.348080	0.647600
C1371	C137	0.484500	0.482300	0.097300
C1381	C138	0.635530	0.451440	0.294500
C1391	C139	0.263530	0.449670	0.166670
C1401	C140	0.276180	0.791110	0.530530
C1411	C141	0.906890	0.814240	0.188380
C1421	C142	0.803400	0.391600	0.656800
C1431	C143	0.906890	0.188380	0.814240
C1441	C144	0.305200	0.241700	0.447100
C1451	C145	0.006000	0.947100	0.741700
C1461	C146	0.195930	0.948880	0.645660
C1471	C147	0.714730	0.973420	0.712520
C1481	C148	0.381470	0.048560	0.205500
C1491	C149	0.427910	0.234900	0.044880
C1501	C150	0.224630	0.460320	0.086420
C1511	C151	0.192590	0.101210	0.839810
C1521	C152	0.331990	0.021090	0.317730
C1531	C153	0.400670	0.526580	0.787480
C1541	C154	0.736470	0.550330	0.833330
C1551	C155	0.243930	0.574320	0.379220
C1561	C156	0.707690	0.455120	0.265100
C1571	C157	0.995100	0.928100	0.438900
C1581	C158	0.736470	0.833330	0.550330
C1591	C159	0.802830	0.871520	0.026020
C1601	C160	0.879870	0.333330	0.050330
C1611	C161	0.192590	0.839810	0.101210
C1621	C162	0.228630	0.960320	0.586420
C1631	C163	0.235460	0.556920	0.704960
C1641	C164	0.197470	0.120780	0.925680
C1651	C165	0.309440	0.231530	0.040190
C1661	C166	0.933050	0.030050	0.541850
C1671	C167	0.299630	0.371520	0.526020
C1681	C168	0.400670	0.787480	0.526580
C1691	C169	0.242870	0.075380	0.916680
C1701	C170	0.126900	0.431750	0.234650
C1711	C171	0.790470	0.854340	0.551120
C1721	C172	0.504950	0.958150	0.469950
C1731	C173	0.148200	0.891600	0.156800
C1741	C174	0.305200	0.447100	0.241700
C1751	C175	0.851800	0.108400	0.843200
C1761	C176	0.287520	0.867580	0.012980
C1771	C177	0.712480	0.987020	0.132420
C1781	C178	0.761670	0.059530	0.319730
C1791	C179	0.572090	0.955120	0.765100
C1801	C180	0.668010	0.978910	0.682270
C1811	C181	0.723820	0.208890	0.469470
C1821	C182	0.515500	0.517700	0.902700
C1831	C183	0.771370	0.039680	0.413580
C1841	C184	0.714730	0.712520	0.973420
C1851	C185	0.196600	0.343200	0.608400
C1861	C186	0.764540	0.443080	0.295040
C1871	C187	0.581160	0.268470	0.459810
C1881	C188	0.243930	0.379220	0.574320
C1891	C189	0.206700	0.931750	0.734650
C1901	C190	0.454200	0.977200	0.615800
C1911	C191	0.637900	0.428100	0.938900
C1921	C192	0.868350	0.069040	0.244460
C1931	C193	0.597820	0.969470	0.708890
C1941	C194	0.909510	0.311620	0.685760
C1951	C195	0.935900	0.982300	0.597300
C1961	C196	0.047200	0.522800	0.884200
C1971	C197	0.299630	0.526020	0.371520
C1981	C198	0.497340	0.943080	0.795040
C1991	C199	0.364470	0.548560	0.705500
C2001	C200	0.879870	0.050330	0.333330
C2011	C201	0.141340	0.352400	0.651920
C2021	C202	0.238330	0.680270	0.940470
C2031	C203	0.804070	0.354340	0.051120
C2041	C204	0.427910	0.044880	0.234900
C2051	C205	0.933050	0.541850	0.030050
C2061	C206	0.700370	0.628480	0.473980
C2071	C207	0.749780	0.227540	0.075500
C2081	C208	0.249690	0.220610	0.441210
C2091	C209	0.802830	0.026020	0.871520
C2101	C210	0.765070	0.416680	0.575380
C2111	C211	0.495050	0.041850	0.530050
C2121	C212	0.911510	0.058790	0.279390
C2131	C213	0.064100	0.402700	0.017700
C2141	C214	0.911510	0.279390	0.058790
C2151	C215	0.120130	0.949670	0.666670
C2161	C216	0.873100	0.765350	0.568250
C2171	C217	0.362100	0.061100	0.571900
C2181	C218	0.502660	0.056920	0.204960
C2191	C219	0.206700	0.734650	0.931750
C2201	C220	0.006000	0.741700	0.947100
C2211	C221	0.197170	0.973980	0.128480
C2221	C222	0.276180	0.530530	0.791110
C2231	C223	0.454200	0.615800	0.977200
C2241	C224	0.761670	0.319730	0.059530
C2251	C225	0.873100	0.568250	0.765350
C2261	C226	0.287520	0.012980	0.867580
C2271	C227	0.495960	0.696640	0.547240
C2281	C228	0.515500	0.902700	0.517700
C2291	C229	0.995100	0.438900	0.928100
C2301	C230	0.739840	0.952760	0.803360
C2311	C231	0.131650	0.755540	0.930960
C2321	C232	0.635530	0.294500	0.451440
C2331	C233	0.947180	0.575500	0.727540
C2341	C234	0.866390	0.339810	0.601210
C2351	C235	0.310560	0.878650	0.505230
C2361	C236	0.052820	0.272460	0.424500
C2371	C237	0.240540	0.064460	0.874460
C2381	C238	0.090490	0.314240	0.688380
C2391	C239	0.723820	0.469470	0.208890
C2401	C240	0.994000	0.052900	0.258300
C2411	C241	0.694440	0.621350	0.994770
C2421	C242	0.690560	0.959810	0.768470
C2431	C243	0.689440	0.121350	0.494770
C2441	C244	0.756070	0.620780	0.425680
C2451	C245	0.066950	0.458150	0.969950
C2461	C246	0.694800	0.552900	0.758300
C2471	C247	0.599330	0.473420	0.212520
C2481	C248	0.947180	0.727540	0.575500
N11	N1	0.959640	0.530560	0.069560
N21	N2	0.040360	0.469440	0.930440
N31	N3	0.440240	0.569560	0.030560
N41	N4	0.559760	0.969440	0.430440
N51	N5	0.440240	0.030560	0.569560
N61	N6	0.040360	0.930440	0.469440
N71	N7	0.959640	0.069560	0.530560
N81	N8	0.559760	0.430440	0.969440
O11	O1	0.704440	0.040390	0.431470
O21	O2	0.077120	0.172880	0.672880
O31	O3	0.036300	0.017000	0.293600
O41	O4	0.690180	0.056020	0.250620
O51	O5	0.441810	0.474140	0.988580
O61	O6	0.095370	0.510430	0.642830
O71	O7	0.176300	0.459610	0.068530
O81	O8	0.015000	0.569600	0.569600
O91	O9	0.217970	0.919020	0.819280
O101	O10	0.786710	0.486240	0.392740
O111	O11	0.710520	0.849610	0.948350
O121	O12	0.094450	0.174640	0.774320
O131	O13	0.760070	0.999310	0.600430
O141	O14	0.852230	0.016750	0.831390
O151	O15	0.346900	0.206400	0.483000
O161	O16	0.963700	0.706400	0.983000
O171	O17	0.213290	0.607260	0.513760
O181	O18	0.508480	0.650390	0.551650
O191	O19	0.754580	0.501420	0.096220
O201	O20	0.653100	0.517000	0.793600
O211	O21	0.003180	0.556020	0.750620
O221	O22	0.640190	0.499310	0.100430
O231	O23	0.043730	0.319280	0.419020
O241	O24	0.459680	0.454510	0.279450
O251	O25	0.491520	0.448350	0.349610
O261	O26	0.901240	0.322020	0.726000
O271	O27	0.154200	0.930400	0.930400
O281	O28	0.043410	0.725680	0.325360
O291	O29	0.244900	0.098470	0.999730
O301	O30	0.640190	0.100430	0.499310
O311	O31	0.255480	0.563380	0.657320
O321	O32	0.979330	0.790180	0.935080
O331	O33	0.852330	0.895770	0.895770
O341	O34	0.530710	0.546590	0.546590
O351	O35	0.295410	0.435080	0.290180
O361	O36	0.904630	0.357170	0.489570
O371	O37	0.248630	0.989570	0.857170
O381	O38	0.827890	0.448110	0.267910
O391	O39	0.036300	0.293600	0.017000
O401	O40	0.558190	0.525860	0.011420
O411	O41	0.050740	0.226000	0.822020
O421	O42	0.543910	0.051890	0.232090
O431	O43	0.654170	0.121990	0.121990
O441	O44	0.309820	0.749380	0.943980
O451	O45	0.193640	0.045490	0.220550
O461	O46	0.245420	0.903780	0.498580
O471	O47	0.956590	0.674640	0.274320
O481	O48	0.248630	0.857170	0.989570
O491	O49	0.852230	0.831390	0.016750
O501	O50	0.456090	0.767910	0.948110
O511	O51	0.816500	0.442140	0.028860
O521	O52	0.334310	0.986240	0.892740
O531	O53	0.147770	0.983250	0.168610
O541	O54	0.376110	0.046590	0.046590
O551	O55	0.712500	0.528860	0.942140
O561	O56	0.949260	0.177980	0.774000
O571	O57	0.751370	0.142830	0.010430
O581	O58	0.845800	0.069600	0.069600
O591	O59	0.922880	0.327120	0.827120
O601	O60	0.172110	0.732090	0.551890
O611	O61	0.095470	0.974140	0.488580
O621	O62	0.345830	0.878010	0.878010
O631	O63	0.295560	0.959610	0.568530
O641	O64	0.782030	0.180720	0.080980
O651	O65	0.540320	0.720550	0.545490
O661	O66	0.949260	0.774000	0.177980
O671	O67	0.476180	0.936620	0.842680
O681	O68	0.904530	0.025860	0.511420
O691	O69	0.922880	0.827120	0.327120
O701	O70	0.806360	0.954510	0.779450
O711	O71	0.020670	0.209820	0.064920
O721	O72	0.704440	0.431470	0.040390
O731	O73	0.193640	0.220550	0.045490
O741	O74	0.239930	0.000690	0.399570
O751	O75	0.343100	0.500270	0.401530
O761	O76	0.441810	0.988580	0.474140
O771	O77	0.523820	0.063380	0.157320
O781	O78	0.979330	0.935080	0.790180
O791	O79	0.744520	0.436620	0.342680
O801	O80	0.647780	0.596220	0.001420
O811	O81	0.213290	0.513760	0.607260
O821	O82	0.295560	0.568530	0.959610
O831	O83	0.656900	0.499730	0.598470
O841	O84	0.183500	0.557860	0.971140
O851	O85	0.359810	0.899570	0.500690
O861	O86	0.904630	0.489570	0.357170
O871	O87	0.712500	0.942140	0.528860
O881	O88	0.098760	0.274000	0.677980
O891	O89	0.823700	0.931470	0.540390
O901	O90	0.647780	0.001420	0.596220
O911	O91	0.782030	0.080980	0.180720
O921	O92	0.690180	0.250620	0.056020
O931	O93	0.700370	0.483250	0.668610
O941	O94	0.098760	0.677980	0.274000
O951	O95	0.356130	0.395770	0.395770
O961	O96	0.656900	0.598470	0.499730
O971	O97	0.665690	0.013760	0.107260
O981	O98	0.459680	0.279450	0.454510
O991	O99	0.665690	0.107260	0.013760
O1001	O100	0.996820	0.249380	0.443980
O1011	O101	0.352220	0.998580	0.403780
O1021	O102	0.491520	0.349610	0.448350
O1031	O103	0.508480	0.551650	0.650390
O1041	O104	0.985000	0.430400	0.430400
O1051	O105	0.255480	0.657320	0.563380
O1061	O106	0.623890	0.953410	0.953410
O1071	O107	0.704590	0.564920	0.709820
O1081	O108	0.653100	0.793600	0.517000
O1091	O109	0.289480	0.150390	0.051650
O1101	O110	0.456090	0.948110	0.767910
O1111	O111	0.287500	0.471140	0.057860
O1121	O112	0.700370	0.668610	0.483250
O1131	O113	0.755100	0.000270	0.901530
O1141	O114	0.176300	0.068530	0.459610
O1151	O115	0.043730	0.419020	0.319280
O1161	O116	0.343100	0.401530	0.500270
O1171	O117	0.299630	0.331390	0.516750
O1181	O118	0.786710	0.392740	0.486240
O1191	O119	0.956590	0.274320	0.674640
O1201	O120	0.346900	0.483000	0.206400
O1211	O121	0.956270	0.680720	0.580980
O1221	O122	0.898150	0.378010	0.378010
O1231	O123	0.077120	0.672880	0.172880
O1241	O124	0.704590	0.709820	0.564920
O1251	O125	0.244900	0.999730	0.098470
O1261	O126	0.755100	0.901530	0.000270
O1271	O127	0.905550	0.825360	0.225680
O1281	O128	0.744520	0.342680	0.436620
O1291	O129	0.543910	0.232090	0.051890
O1301	O130	0.309820	0.943980	0.749380
O1311	O131	0.643870	0.604230	0.604230
O1321	O132	0.827890	0.267910	0.448110
O1331	O133	0.823700	0.540390	0.931470
O1341	O134	0.905550	0.225680	0.825360
O1351	O135	0.217970	0.819280	0.919020
O1361	O136	0.754580	0.096220	0.501420
O1371	O137	0.147670	0.104230	0.104230
O1381	O138	0.020670	0.064920	0.209820
O1391	O139	0.901240	0.726000	0.322020
O1401	O140	0.359810	0.500690	0.899570
O1411	O141	0.043410	0.325360	0.725680
O1421	O142	0.469290	0.453410	0.453410
O1431	O143	0.996820	0.443980	0.249380
O1441	O144	0.334310	0.892740	0.986240
O1451	O145	0.003180	0.750620	0.556020
O1461	O146	0.352220	0.403780	0.998580
O1471	O147	0.101850	0.621990	0.621990
O1481	O148	0.540320	0.545490	0.720550
O1491	O149	0.963700	0.983000	0.706400
O1501	O150	0.710520	0.948350	0.849610
O1511	O151	0.523820	0.157320	0.063380
O1521	O152	0.558190	0.011420	0.525860
O1531	O153	0.956270	0.580980	0.680720
O1541	O154	0.295410	0.290180	0.435080
O1551	O155	0.299630	0.516750	0.331390
O1561	O156	0.760070	0.600430	0.999310
O1571	O157	0.172110	0.551890	0.732090
O1581	O158	0.476180	0.842680	0.936620
O1591	O159	0.050740	0.822020	0.226000
O1601	O160	0.094450	0.774320	0.174640
O1611	O161	0.239930	0.399570	0.000690
O1621	O162	0.095470	0.488580	0.974140
O1631	O163	0.816500	0.028860	0.442140
O1641	O164	0.806360	0.779450	0.954510
O1651	O165	0.289480	0.051650	0.150390
O1661	O166	0.245420	0.498580	0.903780
O1671	O167	0.183500	0.971140	0.557860
O1681	O168	0.287500	0.057860	0.471140
O1691	O169	0.751370	0.010430	0.142830
O1701	O170	0.904530	0.511420	0.025860
O1711	O171	0.095370	0.642830	0.510430
O1721	O172	0.147770	0.168610	0.983250
