data_AGONEQ_freeONLY_PM
_symmetry_space_group_name_H-M	'P1'
_cell_length_a	12.901200
_cell_length_b	14.581600
_cell_length_c	11.824300
_cell_angle_alpha	90.000000
_cell_angle_beta	90.000000
_cell_angle_gamma	90.000000
_symmetry_Int_Tables_number 1

loop_
_symmetry_equiv_pos_as_xyz
'x,y,z'

loop_
_atom_site_label
_atom_site_type_symbol
_atom_site_fract_x
_atom_site_fract_y
_atom_site_fract_z
Cd11	Cd1	0.502110	0.254950	0.023730
O11	O1	0.479460	0.114770	0.147300
O21	O2	0.344610	0.195320	0.092620
O31	O3	0.141520	0.103040	0.023620
O41	O4	0.086930	0.185340	0.169750
O51	O5	0.089960	0.817000	0.378870
O61	O6	0.113380	0.912250	0.521280
O71	O7	0.322800	0.814880	0.475490
O81	O8	0.463450	0.862450	0.395280
C11	C1	0.384190	0.128310	0.144170
C21	C2	0.314640	0.063560	0.208280
C31	C3	0.206150	0.066090	0.205850
C41	C4	0.142280	0.123010	0.125020
C51	C5	0.150830	0.008220	0.278100
C61	C6	0.199420	0.944640	0.348400
C71	C7	0.130490	0.886310	0.423540
C81	C8	0.307670	0.938150	0.344970
C91	C9	0.367380	0.867620	0.410870
C101	C10	0.362620	0.998960	0.277000
H11	H1	0.437100	0.992700	0.279000
H21	H2	0.072300	0.011900	0.281000
Cd21	Cd2	0.497890	0.745060	0.523730
O91	O9	0.520540	0.885230	0.647300
O101	O10	0.655390	0.804680	0.592620
O111	O11	0.858480	0.896960	0.523620
O121	O12	0.913070	0.814660	0.669750
O131	O13	0.910040	0.183000	0.878870
O141	O14	0.886620	0.087750	0.021280
O151	O15	0.677200	0.185120	0.975490
O161	O16	0.536550	0.137550	0.895280
C111	C11	0.615810	0.871690	0.644170
C121	C12	0.685360	0.936440	0.708280
C131	C13	0.793850	0.933910	0.705850
C141	C14	0.857720	0.876990	0.625020
C151	C15	0.849170	0.991780	0.778100
C161	C16	0.800580	0.055360	0.848400
C171	C17	0.869510	0.113690	0.923540
C181	C18	0.692330	0.061850	0.844970
C191	C19	0.632620	0.132380	0.910870
C201	C20	0.637380	0.001040	0.777000
H31	H3	0.562900	0.007300	0.779000
H41	H4	0.927700	0.988100	0.781000
Cd31	Cd3	0.002110	0.245060	0.023730
O171	O17	0.979460	0.385230	0.147300
O181	O18	0.844610	0.304680	0.092620
O191	O19	0.641520	0.396960	0.023620
O201	O20	0.586930	0.314660	0.169750
O211	O21	0.589960	0.683000	0.378870
O221	O22	0.613380	0.587750	0.521280
O231	O23	0.822800	0.685120	0.475490
O241	O24	0.963450	0.637550	0.395280
C211	C21	0.884190	0.371690	0.144170
C221	C22	0.814640	0.436440	0.208280
C231	C23	0.706150	0.433910	0.205850
C241	C24	0.642280	0.376990	0.125020
C251	C25	0.650830	0.491780	0.278100
C261	C26	0.699420	0.555360	0.348400
C271	C27	0.630490	0.613690	0.423540
C281	C28	0.807670	0.561850	0.344970
C291	C29	0.867380	0.632380	0.410870
C301	C30	0.862620	0.501040	0.277000
H51	H5	0.937100	0.507300	0.279000
H61	H6	0.572300	0.488100	0.281000
Cd41	Cd4	0.997890	0.754950	0.523730
O251	O25	0.020540	0.614770	0.647300
O261	O26	0.155390	0.695320	0.592620
O271	O27	0.358480	0.603040	0.523620
O281	O28	0.413070	0.685340	0.669750
O291	O29	0.410040	0.317000	0.878870
O301	O30	0.386620	0.412250	0.021280
O311	O31	0.177200	0.314880	0.975490
O321	O32	0.036550	0.362450	0.895280
C311	C31	0.115810	0.628310	0.644170
C321	C32	0.185360	0.563560	0.708280
C331	C33	0.293850	0.566090	0.705850
C341	C34	0.357720	0.623010	0.625020
C351	C35	0.349170	0.508220	0.778100
C361	C36	0.300580	0.444640	0.848400
C371	C37	0.369510	0.386310	0.923540
C381	C38	0.192330	0.438150	0.844970
C391	C39	0.132620	0.367620	0.910870
C401	C40	0.137380	0.498960	0.777000
H71	H7	0.062900	0.492700	0.779000
H81	H8	0.427700	0.511900	0.781000
