data_AHAMAY_freeONLY_PM
_symmetry_space_group_name_H-M	'P1'
_cell_length_a	10.249200
_cell_length_b	11.071600
_cell_length_c	12.899100
_cell_angle_alpha	92.518000
_cell_angle_beta	95.255000
_cell_angle_gamma	107.331000
_symmetry_Int_Tables_number 1

loop_
_symmetry_equiv_pos_as_xyz
'x,y,z'

loop_
_atom_site_label
_atom_site_type_symbol
_atom_site_fract_x
_atom_site_fract_y
_atom_site_fract_z
Zn11	Zn1	0.615500	0.849090	0.669800
Zn21	Zn2	0.978770	0.718570	0.989510
Zn31	Zn3	0.382590	0.648280	0.325380
Zn41	Zn4	0.924250	0.559820	0.412750
Zn51	Zn5	0.080080	0.941190	0.583570
P11	P1	0.843570	0.916350	0.877770
P21	P2	0.158040	0.569790	0.115770
P31	P3	0.776770	0.771200	0.479150
P41	P4	0.223150	0.726930	0.518000
O11	O1	0.722200	0.843800	0.802560
O21	O2	0.830600	0.047100	0.917900
H11	H1	0.751200	0.047800	0.904100
O31	O3	0.869800	0.844400	0.970230
O41	O4	0.985600	0.019600	0.718860
H21	H2	0.003400	0.096000	0.733500
O51	O5	0.064000	0.771700	0.853100
O61	O6	0.034900	0.806900	0.687650
O71	O7	0.133000	0.645400	0.024540
O81	O8	0.284000	0.644300	0.188360
O91	O9	0.167200	0.439500	0.079850
O101	O10	0.021100	0.482800	0.283280
H31	H3	0.003500	0.406000	0.270900
O111	O11	0.970500	0.695800	0.308600
O121	O12	0.944500	0.727500	0.142480
O131	O13	0.822100	0.654200	0.495200
O141	O14	0.898100	0.893500	0.486640
O151	O15	0.667300	0.778500	0.547350
O161	O16	0.584900	0.638700	0.326600
H41	H4	0.588800	0.602800	0.270500
O171	O17	0.717800	0.973300	0.325510
O181	O18	0.507300	0.836500	0.305270
O191	O19	0.101800	0.605800	0.513590
O201	O20	0.179100	0.844400	0.500800
O211	O21	0.330900	0.716500	0.449600
O221	O22	0.416300	0.859900	0.671400
H51	H5	0.386000	0.920500	0.673900
O231	O23	0.276900	0.527600	0.680050
O241	O24	0.488700	0.661400	0.698560
O251	O25	0.681600	0.036800	0.653800
H61	H6	0.642100	0.052800	0.597600
H71	H7	0.662200	0.076300	0.705400
O261	O26	0.322000	0.462400	0.350700
H81	H8	0.234800	0.436500	0.348000
H91	H9	0.347900	0.420900	0.303900
C11	C1	0.000000	0.957400	0.811900
H101	H10	0.075700	0.013500	0.859800
C21	C2	0.035800	0.837100	0.782500
C31	C3	0.005200	0.540900	0.187700
H111	H11	0.926600	0.483600	0.143200
C41	C4	0.971300	0.663000	0.214300
C51	C5	0.695000	0.754700	0.343800
H121	H12	0.763200	0.754700	0.295300
C61	C6	0.635500	0.862800	0.323400
C71	C7	0.304600	0.744800	0.653200
H131	H13	0.236000	0.747500	0.700600
C81	C8	0.360500	0.636700	0.678500
Zn61	Zn6	0.384500	0.150910	0.330200
Zn71	Zn7	0.021230	0.281430	0.010490
Zn81	Zn8	0.617410	0.351720	0.674620
Zn91	Zn9	0.075750	0.440180	0.587250
Zn101	Zn10	0.919920	0.058810	0.416430
P51	P5	0.156430	0.083650	0.122230
P61	P6	0.841960	0.430210	0.884230
P71	P7	0.223230	0.228800	0.520850
P81	P8	0.776850	0.273070	0.482000
O271	O27	0.277800	0.156200	0.197440
O281	O28	0.169400	0.952900	0.082100
H141	H14	0.248800	0.952200	0.095900
O291	O29	0.130200	0.155600	0.029770
O301	O30	0.014400	0.980400	0.281140
H151	H15	0.996600	0.904000	0.266500
O311	O31	0.936000	0.228300	0.146900
O321	O32	0.965100	0.193100	0.312350
O331	O33	0.867000	0.354600	0.975460
O341	O34	0.716000	0.355700	0.811640
O351	O35	0.832800	0.560500	0.920150
O361	O36	0.978900	0.517200	0.716720
H161	H16	0.996500	0.594000	0.729100
O371	O37	0.029500	0.304200	0.691400
O381	O38	0.055500	0.272500	0.857520
O391	O39	0.177900	0.345800	0.504800
O401	O40	0.101900	0.106500	0.513360
O411	O41	0.332700	0.221500	0.452650
O421	O42	0.415100	0.361300	0.673400
H171	H17	0.411200	0.397200	0.729500
O431	O43	0.282200	0.026700	0.674490
O441	O44	0.492700	0.163500	0.694730
O451	O45	0.898200	0.394200	0.486410
O461	O46	0.820900	0.155600	0.499200
O471	O47	0.669100	0.283500	0.550400
O481	O48	0.583700	0.140100	0.328600
H181	H18	0.614000	0.079500	0.326100
O491	O49	0.723100	0.472400	0.319950
O501	O50	0.511300	0.338600	0.301440
O511	O51	0.318400	0.963200	0.346200
H191	H19	0.357900	0.947200	0.402400
H201	H20	0.337800	0.923700	0.294600
O521	O52	0.678000	0.537600	0.649300
H211	H21	0.765200	0.563500	0.652000
H221	H22	0.652100	0.579100	0.696100
C91	C9	0.000000	0.042600	0.188100
H231	H23	0.924300	0.986500	0.140200
C101	C10	0.964200	0.162900	0.217500
C111	C11	0.994800	0.459100	0.812300
H241	H24	0.073400	0.516400	0.856800
C121	C12	0.028700	0.337000	0.785700
C131	C13	0.305000	0.245300	0.656200
H251	H25	0.236800	0.245300	0.704700
C141	C14	0.364500	0.137200	0.676600
C151	C15	0.695400	0.255200	0.346800
H261	H26	0.764000	0.252500	0.299400
C161	C16	0.639500	0.363300	0.321500
