data_AHOKAJ_freeONLY_PM
_symmetry_space_group_name_H-M	'P1'
_cell_length_a	9.247000
_cell_length_b	8.824000
_cell_length_c	9.693000
_cell_angle_alpha	90.000000
_cell_angle_beta	120.720000
_cell_angle_gamma	90.000000
_symmetry_Int_Tables_number 1

loop_
_symmetry_equiv_pos_as_xyz
'x,y,z'

loop_
_atom_site_label
_atom_site_type_symbol
_atom_site_fract_x
_atom_site_fract_y
_atom_site_fract_z
P11	P1	0.263200	0.897500	0.931500
P21	P2	0.164700	0.667600	0.526900
O11	O1	0.143000	0.596000	0.658000
O21	O2	0.332000	0.735000	0.586000
O31	O3	0.149000	0.556000	0.395000
O41	O4	0.347000	0.941000	0.107000
O51	O5	0.138000	0.770000	0.901000
O61	O6	0.374000	0.882000	0.868000
P31	P3	0.736800	0.897500	0.568500
P41	P4	0.835300	0.667600	0.973100
O71	O7	0.857000	0.596000	0.842000
O81	O8	0.668000	0.735000	0.914000
O91	O9	0.851000	0.556000	0.105000
O101	O10	0.653000	0.941000	0.393000
O111	O11	0.862000	0.770000	0.599000
O121	O12	0.626000	0.882000	0.632000
P51	P5	0.736800	0.102500	0.068500
P61	P6	0.835300	0.332400	0.473100
O131	O13	0.857000	0.404000	0.342000
O141	O14	0.668000	0.265000	0.414000
O151	O15	0.851000	0.444000	0.605000
O161	O16	0.653000	0.059000	0.893000
O171	O17	0.862000	0.230000	0.099000
O181	O18	0.626000	0.118000	0.132000
P71	P7	0.263200	0.102500	0.431500
P81	P8	0.164700	0.332400	0.026900
O191	O19	0.143000	0.404000	0.158000
O201	O20	0.332000	0.265000	0.086000
O211	O21	0.149000	0.444000	0.895000
O221	O22	0.347000	0.059000	0.607000
O231	O23	0.138000	0.230000	0.401000
O241	O24	0.374000	0.118000	0.368000
Fe11	Fe1	0.000000	0.609600	0.750000
Fe21	Fe2	0.000000	0.390400	0.250000
Fe31	Fe3	0.500000	0.887700	0.750000
Fe41	Fe4	0.500000	0.112300	0.250000
