data_AHUTIH01_freeONLY_PM
_symmetry_space_group_name_H-M	'P1'
_cell_length_a	6.109200
_cell_length_b	7.686600
_cell_length_c	22.698700
_cell_angle_alpha	90.000000
_cell_angle_beta	91.657000
_cell_angle_gamma	90.000000
_symmetry_Int_Tables_number 1

loop_
_symmetry_equiv_pos_as_xyz
'x,y,z'

loop_
_atom_site_label
_atom_site_type_symbol
_atom_site_fract_x
_atom_site_fract_y
_atom_site_fract_z
La11	La1	0.454870	0.501720	0.853900
La21	La2	0.545130	0.001720	0.646100
La31	La3	0.545130	0.498280	0.146100
La41	La4	0.454870	0.998280	0.353900
H11	H1	0.302000	0.724000	0.758100
H21	H2	0.444000	0.625000	0.616600
H31	H3	0.037000	0.677000	0.870600
H41	H4	0.111000	0.730000	0.922000
H51	H5	0.041600	0.478000	0.717600
H61	H6	0.120200	0.565600	0.625100
H71	H7	0.698000	0.224000	0.741900
H81	H8	0.556000	0.125000	0.883400
H91	H9	0.963000	0.177000	0.629400
H101	H10	0.889000	0.230000	0.578000
H111	H11	0.958400	0.978000	0.782400
H121	H12	0.879800	0.065600	0.874900
H131	H13	0.698000	0.276000	0.241900
H141	H14	0.556000	0.375000	0.383400
H151	H15	0.963000	0.323000	0.129400
H161	H16	0.889000	0.270000	0.078000
H171	H17	0.958400	0.522000	0.282400
H181	H18	0.879800	0.434400	0.374900
H191	H19	0.302000	0.776000	0.258100
H201	H20	0.444000	0.875000	0.116600
H211	H21	0.037000	0.823000	0.370600
H221	H22	0.111000	0.770000	0.422000
H231	H23	0.041600	0.022000	0.217600
H241	H24	0.120200	0.934400	0.125100
C11	C1	0.361400	0.394100	0.711270
C21	C2	0.184000	0.535400	0.714450
C31	C3	0.182600	0.639100	0.656670
C41	C4	0.046600	0.805800	0.659860
C51	C5	0.582400	0.576000	0.998700
C61	C6	0.638600	0.894100	0.788730
C71	C7	0.816000	0.035400	0.785550
C81	C8	0.817400	0.139100	0.843330
C91	C9	0.953400	0.305800	0.840140
C101	C10	0.417600	0.076000	0.501300
C111	C11	0.638600	0.605900	0.288730
C121	C12	0.816000	0.464600	0.285550
C131	C13	0.817400	0.360900	0.343330
C141	C14	0.953400	0.194200	0.340140
C151	C15	0.417600	0.424000	0.001300
C161	C16	0.361400	0.105900	0.211270
C171	C17	0.184000	0.964600	0.214450
C181	C18	0.182600	0.860900	0.156670
C191	C19	0.046600	0.694200	0.159860
C201	C20	0.582400	0.924000	0.498700
O11	O1	0.511100	0.397900	0.750780
O21	O2	0.350600	0.286900	0.670200
O31	O3	0.220200	0.640200	0.765360
O41	O4	0.399800	0.685900	0.641750
O51	O5	0.145500	0.947300	0.654670
O61	O6	0.846200	0.789300	0.666670
O71	O7	0.623500	0.631900	0.948240
O81	O8	0.661500	0.630600	0.046300
O91	O9	0.149500	0.706700	0.888880
O101	O10	0.488900	0.897900	0.749220
O111	O11	0.649400	0.786900	0.829800
O121	O12	0.779800	0.140200	0.734640
O131	O13	0.600200	0.185900	0.858250
O141	O14	0.854500	0.447300	0.845330
O151	O15	0.153800	0.289300	0.833330
O161	O16	0.376500	0.131900	0.551760
O171	O17	0.338500	0.130600	0.453700
O181	O18	0.850500	0.206700	0.611120
O191	O19	0.488900	0.602100	0.249220
O201	O20	0.649400	0.713100	0.329800
O211	O21	0.779800	0.359800	0.234640
O221	O22	0.600200	0.314100	0.358250
O231	O23	0.854500	0.052700	0.345330
O241	O24	0.153800	0.210700	0.333330
O251	O25	0.376500	0.368100	0.051760
O261	O26	0.338500	0.369400	0.953700
O271	O27	0.850500	0.293300	0.111120
O281	O28	0.511100	0.102100	0.250780
O291	O29	0.350600	0.213100	0.170200
O301	O30	0.220200	0.859800	0.265360
O311	O31	0.399800	0.814100	0.141750
O321	O32	0.145500	0.552700	0.154670
O331	O33	0.846200	0.710700	0.166670
O341	O34	0.623500	0.868100	0.448240
O351	O35	0.661500	0.869400	0.546300
O361	O36	0.149500	0.793300	0.388880
