data_AJAYIT_freeONLY_PM
_symmetry_space_group_name_H-M	'P1'
_cell_length_a	13.316900
_cell_length_b	13.316900
_cell_length_c	14.297000
_cell_angle_alpha	90.000000
_cell_angle_beta	90.000000
_cell_angle_gamma	120.000000
_symmetry_Int_Tables_number 1

loop_
_symmetry_equiv_pos_as_xyz
'x,y,z'

loop_
_atom_site_label
_atom_site_type_symbol
_atom_site_fract_x
_atom_site_fract_y
_atom_site_fract_z
Er11	Er1	0.333330	0.666660	0.845680
Er21	Er2	0.333330	0.666660	0.345680
Er31	Er3	0.666670	0.333340	0.180540
Er41	Er4	0.666670	0.333340	0.680540
Cu11	Cu1	0.000500	0.500200	0.013300
Cu21	Cu2	0.499700	0.999500	0.013300
Cu31	Cu3	0.499800	0.500300	0.013300
Cu41	Cu4	0.499700	0.500200	0.513300
Cu51	Cu5	0.499800	0.999500	0.513300
Cu61	Cu6	0.000500	0.500300	0.513300
H11	H1	0.018800	0.669100	0.935700
H21	H2	0.973600	0.323900	0.093400
H31	H3	0.922000	0.609200	0.822900
H41	H4	0.810100	0.548400	0.885400
H51	H5	0.097500	0.406900	0.211500
H61	H6	0.200900	0.471000	0.141600
H71	H7	0.958100	0.701300	0.061900
H81	H8	0.858300	0.675400	0.991500
H91	H9	0.038200	0.290500	0.959100
H101	H10	0.135300	0.312100	0.032400
H111	H11	0.650300	0.981200	0.935700
H121	H12	0.350300	0.026400	0.093400
H131	H13	0.687200	0.078000	0.822900
H141	H14	0.738300	0.189900	0.885400
H151	H15	0.309400	0.902500	0.211500
H161	H16	0.270100	0.799100	0.141600
H171	H17	0.743200	0.041900	0.061900
H181	H18	0.817100	0.141700	0.991500
H191	H19	0.252300	0.961800	0.959100
H201	H20	0.176800	0.864700	0.032400
H211	H21	0.330900	0.349700	0.935700
H221	H22	0.676100	0.649700	0.093400
H231	H23	0.390800	0.312800	0.822900
H241	H24	0.451600	0.261700	0.885400
H251	H25	0.593100	0.690600	0.211500
H261	H26	0.529000	0.729900	0.141600
H271	H27	0.298700	0.256800	0.061900
H281	H28	0.324600	0.182900	0.991500
H291	H29	0.709500	0.747700	0.959100
H301	H30	0.687900	0.823200	0.032400
H311	H31	0.650300	0.669100	0.435700
H321	H32	0.350300	0.323900	0.593400
H331	H33	0.687200	0.609200	0.322900
H341	H34	0.738300	0.548400	0.385400
H351	H35	0.309400	0.406900	0.711500
H361	H36	0.270100	0.471000	0.641600
H371	H37	0.743200	0.701300	0.561900
H381	H38	0.817100	0.675400	0.491500
H391	H39	0.252300	0.290500	0.459100
H401	H40	0.176800	0.312100	0.532400
H411	H41	0.330900	0.981200	0.435700
H421	H42	0.676100	0.026400	0.593400
H431	H43	0.390800	0.078000	0.322900
H441	H44	0.451600	0.189900	0.385400
H451	H45	0.593100	0.902500	0.711500
H461	H46	0.529000	0.799100	0.641600
H471	H47	0.298700	0.041900	0.561900
H481	H48	0.324600	0.141700	0.491500
H491	H49	0.709500	0.961800	0.459100
H501	H50	0.687900	0.864700	0.532400
H511	H51	0.018800	0.349700	0.435700
H521	H52	0.973600	0.649700	0.593400
H531	H53	0.922000	0.312800	0.322900
H541	H54	0.810100	0.261700	0.385400
H551	H55	0.097500	0.690600	0.711500
H561	H56	0.200900	0.729900	0.641600
H571	H57	0.958100	0.256800	0.561900
H581	H58	0.858300	0.182900	0.491500
H591	H59	0.038200	0.747700	0.459100
H601	H60	0.135300	0.823200	0.532400
C11	C1	0.129700	0.564000	0.178500
C21	C2	0.874300	0.436200	0.853900
C31	C3	0.886300	0.557500	0.875700
C41	C4	0.123500	0.455900	0.156400
C51	C5	0.897700	0.641000	0.024000
C61	C6	0.095600	0.347000	0.001300
C71	C7	0.187200	0.462100	0.944500
C81	C8	0.814800	0.552000	0.086300
C91	C9	0.434300	0.870300	0.178500
C101	C10	0.561900	0.125700	0.853900
C111	C11	0.671200	0.113700	0.875700
C121	C12	0.332400	0.876500	0.156400
C131	C13	0.743300	0.102300	0.024000
C141	C14	0.251400	0.904400	0.001300
C151	C15	0.274900	0.812800	0.944500
C161	C16	0.737200	0.185200	0.086300
C171	C17	0.436000	0.565700	0.178500
C181	C18	0.563800	0.438100	0.853900
C191	C19	0.442500	0.328800	0.875700
C201	C20	0.544100	0.667600	0.156400
C211	C21	0.359000	0.256700	0.024000
C221	C22	0.653000	0.748600	0.001300
C231	C23	0.537900	0.725100	0.944500
C241	C24	0.448000	0.262800	0.086300
C251	C25	0.434300	0.564000	0.678500
C261	C26	0.561900	0.436200	0.353900
C271	C27	0.671200	0.557500	0.375700
C281	C28	0.332400	0.455900	0.656400
C291	C29	0.743300	0.641000	0.524000
C301	C30	0.251400	0.347000	0.501300
C311	C31	0.274900	0.462100	0.444500
C321	C32	0.737200	0.552000	0.586300
C331	C33	0.436000	0.870300	0.678500
C341	C34	0.563800	0.125700	0.353900
C351	C35	0.442500	0.113700	0.375700
C361	C36	0.544100	0.876500	0.656400
C371	C37	0.359000	0.102300	0.524000
C381	C38	0.653000	0.904400	0.501300
C391	C39	0.537900	0.812800	0.444500
C401	C40	0.448000	0.185200	0.586300
C411	C41	0.129700	0.565700	0.678500
C421	C42	0.874300	0.438100	0.353900
C431	C43	0.886300	0.328800	0.375700
C441	C44	0.123500	0.667600	0.656400
C451	C45	0.897700	0.256700	0.524000
C461	C46	0.095600	0.748600	0.501300
C471	C47	0.187200	0.725100	0.444500
C481	C48	0.814800	0.262800	0.586300
N11	N1	0.952800	0.604400	0.954200
N21	N2	0.039300	0.386100	0.071200
N31	N3	0.651600	0.047200	0.954200
N41	N4	0.346800	0.960700	0.071200
N51	N5	0.395600	0.348400	0.954200
N61	N6	0.613900	0.653200	0.071200
N71	N7	0.651600	0.604400	0.454200
N81	N8	0.346800	0.386100	0.571200
N91	N9	0.395600	0.047200	0.454200
N101	N10	0.613900	0.960700	0.571200
N111	N11	0.952800	0.348400	0.454200
N121	N12	0.039300	0.653200	0.571200
O11	O1	0.190600	0.555800	0.955000
O21	O2	0.076100	0.598300	0.123600
O31	O3	0.811300	0.455900	0.074600
O41	O4	0.928200	0.402400	0.906100
O51	O5	0.252400	0.446200	0.884300
O61	O6	0.758900	0.568000	0.141100
O71	O7	0.814800	0.376900	0.784400
O81	O8	0.185300	0.615900	0.245400
O91	O9	0.365200	0.809400	0.955000
O101	O10	0.522200	0.923900	0.123600
O111	O11	0.644600	0.188700	0.074600
O121	O12	0.474200	0.071800	0.906100
O131	O13	0.193800	0.747600	0.884300
O141	O14	0.809100	0.241100	0.141100
O151	O15	0.562100	0.185200	0.784400
O161	O16	0.430600	0.814700	0.245400
O171	O17	0.444200	0.634800	0.955000
O181	O18	0.401700	0.477800	0.123600
O191	O19	0.544100	0.355400	0.074600
O201	O20	0.597600	0.525800	0.906100
O211	O21	0.553800	0.806200	0.884300
O221	O22	0.432000	0.190900	0.141100
O231	O23	0.623100	0.437900	0.784400
O241	O24	0.384100	0.569400	0.245400
O251	O25	0.365200	0.555800	0.455000
O261	O26	0.522200	0.598300	0.623600
O271	O27	0.644600	0.455900	0.574600
O281	O28	0.474200	0.402400	0.406100
O291	O29	0.193800	0.446200	0.384300
O301	O30	0.809100	0.568000	0.641100
O311	O31	0.562100	0.376900	0.284400
O321	O32	0.430600	0.615900	0.745400
O331	O33	0.444200	0.809400	0.455000
O341	O34	0.401700	0.923900	0.623600
O351	O35	0.544100	0.188700	0.574600
O361	O36	0.597600	0.071800	0.406100
O371	O37	0.553800	0.747600	0.384300
O381	O38	0.432000	0.241100	0.641100
O391	O39	0.623100	0.185200	0.284400
O401	O40	0.384100	0.814700	0.745400
O411	O41	0.190600	0.634800	0.455000
O421	O42	0.076100	0.477800	0.623600
O431	O43	0.811300	0.355400	0.574600
O441	O44	0.928200	0.525800	0.406100
O451	O45	0.252400	0.806200	0.384300
O461	O46	0.758900	0.190900	0.641100
O471	O47	0.814800	0.437900	0.284400
O481	O48	0.185300	0.569400	0.745400
