data_AKOBAF_freeONLY_PM
_symmetry_space_group_name_H-M	'P1'
_cell_length_a	23.404000
_cell_length_b	11.097100
_cell_length_c	20.766000
_cell_angle_alpha	90.000000
_cell_angle_beta	120.476000
_cell_angle_gamma	90.000000
_symmetry_Int_Tables_number 1

loop_
_symmetry_equiv_pos_as_xyz
'x,y,z'

loop_
_atom_site_label
_atom_site_type_symbol
_atom_site_fract_x
_atom_site_fract_y
_atom_site_fract_z
O11	O1	0.506130	0.342400	0.331600
N11	N1	0.472680	0.883500	0.302290
N21	N2	0.559430	0.167600	0.375050
H11	H1	0.597600	0.136000	0.404400
C11	C1	0.505730	0.089400	0.339380
C21	C2	0.518980	0.967300	0.337070
H21	H2	0.563100	0.943000	0.361500
C31	C3	0.408750	0.918900	0.268220
H31	H3	0.375600	0.861400	0.244000
C41	C4	0.390910	0.036000	0.268020
H41	H4	0.346300	0.056900	0.244000
C51	C5	0.439110	0.124200	0.303570
H51	H5	0.427400	0.204300	0.303500
O21	O2	0.466610	0.576500	0.305700
C61	C6	0.621100	0.356700	0.400400
H61	H6	0.617000	0.424700	0.427200
H71	H7	0.623500	0.389800	0.358600
C71	C7	0.687300	0.299100	0.451800
C81	C8	0.722400	0.244500	0.424800
H81	H8	0.704300	0.238900	0.373400
C91	C9	0.715700	0.303000	0.528600
H91	H9	0.692600	0.338400	0.549100
C101	C10	0.557000	0.287800	0.367800
N31	N3	0.603770	0.692800	0.357060
N41	N4	0.761730	0.562500	0.401650
H101	H10	0.753500	0.569800	0.356500
C111	C11	0.713140	0.607700	0.415750
C121	C12	0.655440	0.648200	0.353720
H111	H11	0.652400	0.644300	0.307300
C131	C13	0.609480	0.700300	0.424500
H121	H12	0.574500	0.732500	0.428100
C141	C14	0.665340	0.662100	0.488710
H131	H13	0.667500	0.668100	0.534600
C151	C15	0.718380	0.614500	0.484820
H141	H14	0.756400	0.587900	0.527600
O31	O3	0.839910	0.498800	0.517040
C161	C16	0.857460	0.459100	0.414200
H151	H15	0.849200	0.373200	0.406500
H161	H16	0.840300	0.496400	0.365600
C171	C17	0.931220	0.480000	0.459490
C181	C18	0.974710	0.384100	0.481970
H171	H17	0.958400	0.305900	0.469800
C191	C19	0.042920	0.403500	0.522680
H181	H18	0.071600	0.338000	0.538200
C201	C20	0.820300	0.508500	0.450370
O41	O4	0.006130	0.842400	0.331600
N51	N5	0.972680	0.383500	0.302290
N61	N6	0.059430	0.667600	0.375050
H191	H19	0.097600	0.636000	0.404400
C211	C21	0.005730	0.589400	0.339380
C221	C22	0.018980	0.467300	0.337070
H201	H20	0.063100	0.443000	0.361500
C231	C23	0.908750	0.418900	0.268220
H211	H21	0.875600	0.361400	0.244000
C241	C24	0.890910	0.536000	0.268020
H221	H22	0.846300	0.556900	0.244000
C251	C25	0.939110	0.624200	0.303570
H231	H23	0.927400	0.704300	0.303500
O51	O5	0.966610	0.076500	0.305700
C261	C26	0.121100	0.856700	0.400400
H241	H24	0.117000	0.924700	0.427200
H251	H25	0.123500	0.889800	0.358600
C271	C27	0.187300	0.799100	0.451800
C281	C28	0.222400	0.744500	0.424800
H261	H26	0.204300	0.738900	0.373400
C291	C29	0.215700	0.803000	0.528600
H271	H27	0.192600	0.838400	0.549100
C301	C30	0.057000	0.787800	0.367800
N71	N7	0.103770	0.192800	0.357060
N81	N8	0.261730	0.062500	0.401650
H281	H28	0.253500	0.069800	0.356500
C311	C31	0.213140	0.107700	0.415750
C321	C32	0.155440	0.148200	0.353720
H291	H29	0.152400	0.144300	0.307300
C331	C33	0.109480	0.200300	0.424500
H301	H30	0.074500	0.232500	0.428100
C341	C34	0.165340	0.162100	0.488710
H311	H31	0.167500	0.168100	0.534600
C351	C35	0.218380	0.114500	0.484820
H321	H32	0.256400	0.087900	0.527600
O61	O6	0.339910	0.998800	0.517040
C361	C36	0.357460	0.959100	0.414200
H331	H33	0.349200	0.873200	0.406500
H341	H34	0.340300	0.996400	0.365600
C371	C37	0.431220	0.980000	0.459490
C381	C38	0.474710	0.884100	0.481970
H351	H35	0.458400	0.805900	0.469800
C391	C39	0.542920	0.903500	0.522680
H361	H36	0.571600	0.838000	0.538200
C401	C40	0.320300	0.008500	0.450370
O71	O7	0.493870	0.342400	0.168400
N91	N9	0.527320	0.883500	0.197710
N101	N10	0.440570	0.167600	0.124950
H371	H37	0.402400	0.136000	0.095600
C411	C41	0.494270	0.089400	0.160620
C421	C42	0.481020	0.967300	0.162930
H381	H38	0.436900	0.943000	0.138500
C431	C43	0.591250	0.918900	0.231780
H391	H39	0.624400	0.861400	0.256000
C441	C44	0.609090	0.036000	0.231980
H401	H40	0.653700	0.056900	0.256000
C451	C45	0.560890	0.124200	0.196430
H411	H41	0.572600	0.204300	0.196500
O81	O8	0.533390	0.576500	0.194300
C461	C46	0.378900	0.356700	0.099600
H421	H42	0.383000	0.424700	0.072800
H431	H43	0.376500	0.389800	0.141400
C471	C47	0.312700	0.299100	0.048200
C481	C48	0.277600	0.244500	0.075200
H441	H44	0.295700	0.238900	0.126600
C491	C49	0.284300	0.303000	0.971400
H451	H45	0.307400	0.338400	0.950900
C501	C50	0.443000	0.287800	0.132200
N111	N11	0.396230	0.692800	0.142940
N121	N12	0.238270	0.562500	0.098350
H461	H46	0.246500	0.569800	0.143500
C511	C51	0.286860	0.607700	0.084250
C521	C52	0.344560	0.648200	0.146280
H471	H47	0.347600	0.644300	0.192700
C531	C53	0.390520	0.700300	0.075500
H481	H48	0.425500	0.732500	0.071900
C541	C54	0.334660	0.662100	0.011290
H491	H49	0.332500	0.668100	0.965400
C551	C55	0.281620	0.614500	0.015180
H501	H50	0.243600	0.587900	0.972400
O91	O9	0.160090	0.498800	0.982960
C561	C56	0.142540	0.459100	0.085800
H511	H51	0.150800	0.373200	0.093500
H521	H52	0.159700	0.496400	0.134400
C571	C57	0.068780	0.480000	0.040510
C581	C58	0.025290	0.384100	0.018030
H531	H53	0.041600	0.305900	0.030200
C591	C59	0.957080	0.403500	0.977320
H541	H54	0.928400	0.338000	0.961800
C601	C60	0.179700	0.508500	0.049630
O101	O10	0.993870	0.842400	0.168400
N131	N13	0.027320	0.383500	0.197710
N141	N14	0.940570	0.667600	0.124950
H551	H55	0.902400	0.636000	0.095600
C611	C61	0.994270	0.589400	0.160620
C621	C62	0.981020	0.467300	0.162930
H561	H56	0.936900	0.443000	0.138500
C631	C63	0.091250	0.418900	0.231780
H571	H57	0.124400	0.361400	0.256000
C641	C64	0.109090	0.536000	0.231980
H581	H58	0.153700	0.556900	0.256000
C651	C65	0.060890	0.624200	0.196430
H591	H59	0.072600	0.704300	0.196500
O111	O11	0.033390	0.076500	0.194300
C661	C66	0.878900	0.856700	0.099600
H601	H60	0.883000	0.924700	0.072800
H611	H61	0.876500	0.889800	0.141400
C671	C67	0.812700	0.799100	0.048200
C681	C68	0.777600	0.744500	0.075200
H621	H62	0.795700	0.738900	0.126600
C691	C69	0.784300	0.803000	0.971400
H631	H63	0.807400	0.838400	0.950900
C701	C70	0.943000	0.787800	0.132200
N151	N15	0.896230	0.192800	0.142940
N161	N16	0.738270	0.062500	0.098350
H641	H64	0.746500	0.069800	0.143500
C711	C71	0.786860	0.107700	0.084250
C721	C72	0.844560	0.148200	0.146280
H651	H65	0.847600	0.144300	0.192700
C731	C73	0.890520	0.200300	0.075500
H661	H66	0.925500	0.232500	0.071900
C741	C74	0.834660	0.162100	0.011290
H671	H67	0.832500	0.168100	0.965400
C751	C75	0.781620	0.114500	0.015180
H681	H68	0.743600	0.087900	0.972400
O121	O12	0.660090	0.998800	0.982960
C761	C76	0.642540	0.959100	0.085800
H691	H69	0.650800	0.873200	0.093500
H701	H70	0.659700	0.996400	0.134400
C771	C77	0.568780	0.980000	0.040510
C781	C78	0.525290	0.884100	0.018030
H711	H71	0.541600	0.805900	0.030200
C791	C79	0.457080	0.903500	0.977320
H721	H72	0.428400	0.838000	0.961800
C801	C80	0.679700	0.008500	0.049630
O131	O13	0.493870	0.657600	0.668400
N171	N17	0.527320	0.116500	0.697710
N181	N18	0.440570	0.832400	0.624950
H731	H73	0.402400	0.864000	0.595600
C811	C81	0.494270	0.910600	0.660620
C821	C82	0.481020	0.032700	0.662930
H741	H74	0.436900	0.057000	0.638500
C831	C83	0.591250	0.081100	0.731780
H751	H75	0.624400	0.138600	0.756000
C841	C84	0.609090	0.964000	0.731980
H761	H76	0.653700	0.943100	0.756000
C851	C85	0.560890	0.875800	0.696430
H771	H77	0.572600	0.795700	0.696500
O141	O14	0.533390	0.423500	0.694300
C861	C86	0.378900	0.643300	0.599600
H781	H78	0.383000	0.575300	0.572800
H791	H79	0.376500	0.610200	0.641400
C871	C87	0.312700	0.700900	0.548200
C881	C88	0.277600	0.755500	0.575200
H801	H80	0.295700	0.761100	0.626600
C891	C89	0.284300	0.697000	0.471400
H811	H81	0.307400	0.661600	0.450900
C901	C90	0.443000	0.712200	0.632200
N191	N19	0.396230	0.307200	0.642940
N201	N20	0.238270	0.437500	0.598350
H821	H82	0.246500	0.430200	0.643500
C911	C91	0.286860	0.392300	0.584250
C921	C92	0.344560	0.351800	0.646280
H831	H83	0.347600	0.355700	0.692700
C931	C93	0.390520	0.299700	0.575500
H841	H84	0.425500	0.267500	0.571900
C941	C94	0.334660	0.337900	0.511290
H851	H85	0.332500	0.331900	0.465400
C951	C95	0.281620	0.385500	0.515180
H861	H86	0.243600	0.412100	0.472400
O151	O15	0.160090	0.501200	0.482960
C961	C96	0.142540	0.540900	0.585800
H871	H87	0.150800	0.626800	0.593500
H881	H88	0.159700	0.503600	0.634400
C971	C97	0.068780	0.520000	0.540510
C981	C98	0.025290	0.615900	0.518030
H891	H89	0.041600	0.694100	0.530200
C991	C99	0.957080	0.596500	0.477320
H901	H90	0.928400	0.662000	0.461800
C1001	C100	0.179700	0.491500	0.549630
O161	O16	0.993870	0.157600	0.668400
N211	N21	0.027320	0.616500	0.697710
N221	N22	0.940570	0.332400	0.624950
H911	H91	0.902400	0.364000	0.595600
C1011	C101	0.994270	0.410600	0.660620
C1021	C102	0.981020	0.532700	0.662930
H921	H92	0.936900	0.557000	0.638500
C1031	C103	0.091250	0.581100	0.731780
H931	H93	0.124400	0.638600	0.756000
C1041	C104	0.109090	0.464000	0.731980
H941	H94	0.153700	0.443100	0.756000
C1051	C105	0.060890	0.375800	0.696430
H951	H95	0.072600	0.295700	0.696500
O171	O17	0.033390	0.923500	0.694300
C1061	C106	0.878900	0.143300	0.599600
H961	H96	0.883000	0.075300	0.572800
H971	H97	0.876500	0.110200	0.641400
C1071	C107	0.812700	0.200900	0.548200
C1081	C108	0.777600	0.255500	0.575200
H981	H98	0.795700	0.261100	0.626600
C1091	C109	0.784300	0.197000	0.471400
H991	H99	0.807400	0.161600	0.450900
C1101	C110	0.943000	0.212200	0.632200
N231	N23	0.896230	0.807200	0.642940
N241	N24	0.738270	0.937500	0.598350
H1001	H100	0.746500	0.930200	0.643500
C1111	C111	0.786860	0.892300	0.584250
C1121	C112	0.844560	0.851800	0.646280
H1011	H101	0.847600	0.855700	0.692700
C1131	C113	0.890520	0.799700	0.575500
H1021	H102	0.925500	0.767500	0.571900
C1141	C114	0.834660	0.837900	0.511290
H1031	H103	0.832500	0.831900	0.465400
C1151	C115	0.781620	0.885500	0.515180
H1041	H104	0.743600	0.912100	0.472400
O181	O18	0.660090	0.001200	0.482960
C1161	C116	0.642540	0.040900	0.585800
H1051	H105	0.650800	0.126800	0.593500
H1061	H106	0.659700	0.003600	0.634400
C1171	C117	0.568780	0.020000	0.540510
C1181	C118	0.525290	0.115900	0.518030
H1071	H107	0.541600	0.194100	0.530200
C1191	C119	0.457080	0.096500	0.477320
H1081	H108	0.428400	0.162000	0.461800
C1201	C120	0.679700	0.991500	0.549630
O191	O19	0.506130	0.657600	0.831600
N251	N25	0.472680	0.116500	0.802290
N261	N26	0.559430	0.832400	0.875050
H1091	H109	0.597600	0.864000	0.904400
C1211	C121	0.505730	0.910600	0.839380
C1221	C122	0.518980	0.032700	0.837070
H1101	H110	0.563100	0.057000	0.861500
C1231	C123	0.408750	0.081100	0.768220
H1111	H111	0.375600	0.138600	0.744000
C1241	C124	0.390910	0.964000	0.768020
H1121	H112	0.346300	0.943100	0.744000
C1251	C125	0.439110	0.875800	0.803570
H1131	H113	0.427400	0.795700	0.803500
O201	O20	0.466610	0.423500	0.805700
C1261	C126	0.621100	0.643300	0.900400
H1141	H114	0.617000	0.575300	0.927200
H1151	H115	0.623500	0.610200	0.858600
C1271	C127	0.687300	0.700900	0.951800
C1281	C128	0.722400	0.755500	0.924800
H1161	H116	0.704300	0.761100	0.873400
C1291	C129	0.715700	0.697000	0.028600
H1171	H117	0.692600	0.661600	0.049100
C1301	C130	0.557000	0.712200	0.867800
N271	N27	0.603770	0.307200	0.857060
N281	N28	0.761730	0.437500	0.901650
H1181	H118	0.753500	0.430200	0.856500
C1311	C131	0.713140	0.392300	0.915750
C1321	C132	0.655440	0.351800	0.853720
H1191	H119	0.652400	0.355700	0.807300
C1331	C133	0.609480	0.299700	0.924500
H1201	H120	0.574500	0.267500	0.928100
C1341	C134	0.665340	0.337900	0.988710
H1211	H121	0.667500	0.331900	0.034600
C1351	C135	0.718380	0.385500	0.984820
H1221	H122	0.756400	0.412100	0.027600
O211	O21	0.839910	0.501200	0.017040
C1361	C136	0.857460	0.540900	0.914200
H1231	H123	0.849200	0.626800	0.906500
H1241	H124	0.840300	0.503600	0.865600
C1371	C137	0.931220	0.520000	0.959490
C1381	C138	0.974710	0.615900	0.981970
H1251	H125	0.958400	0.694100	0.969800
C1391	C139	0.042920	0.596500	0.022680
H1261	H126	0.071600	0.662000	0.038200
C1401	C140	0.820300	0.491500	0.950370
O221	O22	0.006130	0.157600	0.831600
N291	N29	0.972680	0.616500	0.802290
N301	N30	0.059430	0.332400	0.875050
H1271	H127	0.097600	0.364000	0.904400
C1411	C141	0.005730	0.410600	0.839380
C1421	C142	0.018980	0.532700	0.837070
H1281	H128	0.063100	0.557000	0.861500
C1431	C143	0.908750	0.581100	0.768220
H1291	H129	0.875600	0.638600	0.744000
C1441	C144	0.890910	0.464000	0.768020
H1301	H130	0.846300	0.443100	0.744000
C1451	C145	0.939110	0.375800	0.803570
H1311	H131	0.927400	0.295700	0.803500
O231	O23	0.966610	0.923500	0.805700
C1461	C146	0.121100	0.143300	0.900400
H1321	H132	0.117000	0.075300	0.927200
H1331	H133	0.123500	0.110200	0.858600
C1471	C147	0.187300	0.200900	0.951800
C1481	C148	0.222400	0.255500	0.924800
H1341	H134	0.204300	0.261100	0.873400
C1491	C149	0.215700	0.197000	0.028600
H1351	H135	0.192600	0.161600	0.049100
C1501	C150	0.057000	0.212200	0.867800
N311	N31	0.103770	0.807200	0.857060
N321	N32	0.261730	0.937500	0.901650
H1361	H136	0.253500	0.930200	0.856500
C1511	C151	0.213140	0.892300	0.915750
C1521	C152	0.155440	0.851800	0.853720
H1371	H137	0.152400	0.855700	0.807300
C1531	C153	0.109480	0.799700	0.924500
H1381	H138	0.074500	0.767500	0.928100
C1541	C154	0.165340	0.837900	0.988710
H1391	H139	0.167500	0.831900	0.034600
C1551	C155	0.218380	0.885500	0.984820
H1401	H140	0.256400	0.912100	0.027600
O241	O24	0.339910	0.001200	0.017040
C1561	C156	0.357460	0.040900	0.914200
H1411	H141	0.349200	0.126800	0.906500
H1421	H142	0.340300	0.003600	0.865600
C1571	C157	0.431220	0.020000	0.959490
C1581	C158	0.474710	0.115900	0.981970
H1431	H143	0.458400	0.194100	0.969800
C1591	C159	0.542920	0.096500	0.022680
H1441	H144	0.571600	0.162000	0.038200
C1601	C160	0.320300	0.991500	0.950370
Cd11	Cd1	0.500000	0.718020	0.250000
Cd21	Cd2	0.000000	0.218020	0.250000
Cd31	Cd3	0.500000	0.281980	0.750000
Cd41	Cd4	0.000000	0.781980	0.750000
