data_ALOLET_charged_PM
_symmetry_space_group_name_H-M	'P1'
_cell_length_a	27.295900
_cell_length_b	27.295900
_cell_length_c	28.089600
_cell_angle_alpha	90.000000
_cell_angle_beta	90.000000
_cell_angle_gamma	120.000000
_symmetry_Int_Tables_number 1

loop_
_symmetry_equiv_pos_as_xyz
'x,y,z'

loop_
_atom_site_label
_atom_site_type_symbol
_atom_site_fract_x
_atom_site_fract_y
_atom_site_fract_z
In11	In1	0.210200	0.727800	0.428100
In21	In2	0.848400	0.458200	0.426000
In31	In3	0.942200	0.816130	0.526500
In41	In4	0.727800	0.210200	0.928100
In51	In5	0.458200	0.848400	0.926000
In61	In6	0.816130	0.942200	0.026500
H11	H1	0.864000	0.623000	0.494000
H21	H2	0.702700	0.515800	0.468300
H31	H3	0.750300	0.669300	0.523800
H41	H4	0.042600	0.565100	0.429300
H51	H5	0.159200	0.530800	0.482100
H61	H6	0.005500	0.407600	0.450700
H71	H7	0.088200	0.798000	0.472000
H81	H8	0.151200	0.969000	0.496700
H91	H9	0.931700	0.808200	0.349700
H101	H10	0.932500	0.845400	0.281600
H111	H11	0.898700	0.955500	0.339700
H121	H12	0.904500	0.917600	0.412600
H131	H13	0.955400	0.911700	0.222900
H141	H14	0.920800	0.902800	0.135500
H151	H15	0.809400	0.951100	0.194900
H161	H16	0.830700	0.927100	0.277300
H171	H17	0.456900	0.853800	0.123300
H181	H18	0.415400	0.822100	0.197500
H191	H19	0.273500	0.728500	0.121500
H201	H20	0.317600	0.752600	0.047200
H211	H21	0.389200	0.787000	0.246200
H221	H22	0.354600	0.772000	0.322300
H231	H23	0.203900	0.714100	0.267900
H241	H24	0.233500	0.732100	0.190500
H251	H25	0.320200	0.737900	0.824600
H261	H26	0.283900	0.718700	0.746500
H271	H27	0.432500	0.835200	0.692100
H281	H28	0.472600	0.856200	0.768900
H291	H29	0.248700	0.735500	0.682400
H301	H30	0.211700	0.733800	0.608700
H311	H31	0.358500	0.770300	0.546100
H321	H32	0.384700	0.754100	0.619800
H331	H33	0.623000	0.864000	0.994000
H341	H34	0.515800	0.702700	0.968300
H351	H35	0.669300	0.750300	0.023800
H361	H36	0.565100	0.042600	0.929300
H371	H37	0.530800	0.159200	0.982100
H381	H38	0.407600	0.005500	0.950700
H391	H39	0.798000	0.088200	0.972000
H401	H40	0.969000	0.151200	0.996700
H411	H41	0.808200	0.931700	0.849700
H421	H42	0.845400	0.932500	0.781600
H431	H43	0.955500	0.898700	0.839700
H441	H44	0.917600	0.904500	0.912600
H451	H45	0.911700	0.955400	0.722900
H461	H46	0.902800	0.920800	0.635500
H471	H47	0.951100	0.809400	0.694900
H481	H48	0.927100	0.830700	0.777300
H491	H49	0.853800	0.456900	0.623300
H501	H50	0.822100	0.415400	0.697500
H511	H51	0.728500	0.273500	0.621500
H521	H52	0.752600	0.317600	0.547200
H531	H53	0.787000	0.389200	0.746200
H541	H54	0.772000	0.354600	0.822300
H551	H55	0.714100	0.203900	0.767900
H561	H56	0.732100	0.233500	0.690500
H571	H57	0.737900	0.320200	0.324600
H581	H58	0.718700	0.283900	0.246500
H591	H59	0.835200	0.432500	0.192100
H601	H60	0.856200	0.472600	0.268900
H611	H61	0.735500	0.248700	0.182400
H621	H62	0.733800	0.211700	0.108700
H631	H63	0.770300	0.358500	0.046100
H641	H64	0.754100	0.384700	0.119800
C11	C1	0.858600	0.714900	0.523500
C21	C2	0.816300	0.657500	0.508400
C31	C3	0.827000	0.615900	0.491500
C41	C4	0.787700	0.564700	0.471100
C51	C5	0.803200	0.528800	0.449600
C61	C6	0.731800	0.551400	0.477200
C71	C7	0.718700	0.590400	0.496400
C81	C8	0.760000	0.643600	0.511700
C91	C9	0.956100	0.473900	0.434600
C101	C10	0.009200	0.483200	0.448000
C111	C11	0.051600	0.539200	0.442200
C121	C12	0.107000	0.557000	0.455200
C131	C13	0.148000	0.618500	0.443400
C141	C14	0.121800	0.519200	0.474400
C151	C15	0.079300	0.463600	0.481700
C161	C16	0.027900	0.445600	0.458900
C171	C17	0.191500	0.817200	0.449800
C181	C18	0.173800	0.851100	0.455000
C191	C19	0.117600	0.835300	0.473200
C201	C20	0.108400	0.883000	0.494600
C211	C21	0.054400	0.870400	0.502400
C221	C22	0.154300	0.938800	0.484900
C231	C23	0.203000	0.951700	0.459500
C241	C24	0.229100	0.919500	0.454900
C251	C25	0.924300	0.843800	0.432900
C261	C26	0.920200	0.863000	0.390000
C271	C27	0.925700	0.838900	0.348400
C281	C28	0.922500	0.858800	0.308200
C291	C29	0.906600	0.897000	0.300400
C301	C30	0.903900	0.924300	0.341100
C311	C31	0.909400	0.901800	0.385000
C321	C32	0.893500	0.910400	0.251100
C331	C33	0.921800	0.911400	0.216400
C341	C34	0.906700	0.912500	0.161800
C351	C35	0.864000	0.933200	0.162400
C361	C36	0.835700	0.939300	0.199500
C371	C37	0.849200	0.925600	0.250000
C381	C38	0.847200	0.936800	0.111300
C391	C39	0.413200	0.822100	0.033100
C401	C40	0.392800	0.810200	0.079600
C411	C41	0.418700	0.826800	0.123900
C421	C42	0.395700	0.808800	0.169000
C431	C43	0.338700	0.767900	0.165200
C441	C44	0.312500	0.752500	0.120900
C451	C45	0.336500	0.768100	0.075700
C461	C46	0.316200	0.760800	0.210900
C471	C47	0.350600	0.772500	0.250700
C481	C48	0.329800	0.763500	0.296900
C491	C49	0.272500	0.742000	0.306000
C501	C50	0.242800	0.731000	0.263500
C511	C51	0.258300	0.739500	0.215700
C521	C52	0.247400	0.733800	0.350600
C531	C53	0.424000	0.812000	0.845500
C541	C54	0.399000	0.797700	0.800700
C551	C55	0.342300	0.755900	0.798000
C561	C56	0.322100	0.744000	0.751600
C571	C57	0.357300	0.768800	0.712500
C581	C58	0.411900	0.814400	0.718300
C591	C59	0.435300	0.828300	0.763600
C601	C60	0.325100	0.749300	0.662000
C611	C61	0.270700	0.740200	0.655600
C621	C62	0.247500	0.737800	0.611000
C631	C63	0.277000	0.741200	0.569600
C641	C64	0.334200	0.758000	0.572100
C651	C65	0.350500	0.753800	0.618100
C661	C66	0.254200	0.742700	0.525800
C671	C67	0.714900	0.858600	0.023500
C681	C68	0.657500	0.816300	0.008400
C691	C69	0.615900	0.827000	0.991500
C701	C70	0.564700	0.787700	0.971100
C711	C71	0.528800	0.803200	0.949600
C721	C72	0.551400	0.731800	0.977200
C731	C73	0.590400	0.718700	0.996400
C741	C74	0.643600	0.760000	0.011700
C751	C75	0.473900	0.956100	0.934600
C761	C76	0.483200	0.009200	0.948000
C771	C77	0.539200	0.051600	0.942200
C781	C78	0.557000	0.107000	0.955200
C791	C79	0.618500	0.148000	0.943400
C801	C80	0.519200	0.121800	0.974400
C811	C81	0.463600	0.079300	0.981700
C821	C82	0.445600	0.027900	0.958900
C831	C83	0.817200	0.191500	0.949800
C841	C84	0.851100	0.173800	0.955000
C851	C85	0.835300	0.117600	0.973200
C861	C86	0.883000	0.108400	0.994600
C871	C87	0.870400	0.054400	0.002400
C881	C88	0.938800	0.154300	0.984900
C891	C89	0.951700	0.203000	0.959500
C901	C90	0.919500	0.229100	0.954900
C911	C91	0.843800	0.924300	0.932900
C921	C92	0.863000	0.920200	0.890000
C931	C93	0.838900	0.925700	0.848400
C941	C94	0.858800	0.922500	0.808200
C951	C95	0.897000	0.906600	0.800400
C961	C96	0.924300	0.903900	0.841100
C971	C97	0.901800	0.909400	0.885000
C981	C98	0.910400	0.893500	0.751100
C991	C99	0.911400	0.921800	0.716400
C1001	C100	0.912500	0.906700	0.661800
C1011	C101	0.933200	0.864000	0.662400
C1021	C102	0.939300	0.835700	0.699500
C1031	C103	0.925600	0.849200	0.750000
C1041	C104	0.936800	0.847200	0.611300
C1051	C105	0.822100	0.413200	0.533100
C1061	C106	0.810200	0.392800	0.579600
C1071	C107	0.826800	0.418700	0.623900
C1081	C108	0.808800	0.395700	0.669000
C1091	C109	0.767900	0.338700	0.665200
C1101	C110	0.752500	0.312500	0.620900
C1111	C111	0.768100	0.336500	0.575700
C1121	C112	0.760800	0.316200	0.710900
C1131	C113	0.772500	0.350600	0.750700
C1141	C114	0.763500	0.329800	0.796900
C1151	C115	0.742000	0.272500	0.806000
C1161	C116	0.731000	0.242800	0.763500
C1171	C117	0.739500	0.258300	0.715700
C1181	C118	0.733800	0.247400	0.850600
C1191	C119	0.812000	0.424000	0.345500
C1201	C120	0.797700	0.399000	0.300700
C1211	C121	0.755900	0.342300	0.298000
C1221	C122	0.744000	0.322100	0.251600
C1231	C123	0.768800	0.357300	0.212500
C1241	C124	0.814400	0.411900	0.218300
C1251	C125	0.828300	0.435300	0.263600
C1261	C126	0.749300	0.325100	0.162000
C1271	C127	0.740200	0.270700	0.155600
C1281	C128	0.737800	0.247500	0.111000
C1291	C129	0.741200	0.277000	0.069600
C1301	C130	0.758000	0.334200	0.072100
C1311	C131	0.753800	0.350500	0.118100
C1321	C132	0.742700	0.254200	0.025800
N11	N1	0.242100	0.017800	0.460400
N21	N2	0.654400	0.570000	0.503900
N31	N3	0.090000	0.418300	0.503300
N41	N4	0.017800	0.242100	0.960400
N51	N5	0.570000	0.654400	0.003900
N61	N6	0.418300	0.090000	0.003300
O11	O1	0.145600	0.756900	0.441500
O21	O2	0.239300	0.823700	0.433500
O31	O3	0.941600	0.811900	0.450300
O41	O4	0.804100	0.947700	0.110100
O51	O5	0.923800	0.867600	0.476400
O61	O6	0.909500	0.426600	0.432900
O71	O7	0.905500	0.722200	0.524300
O81	O8	0.850400	0.541600	0.449400
O91	O9	0.458500	0.855500	0.005900
O101	O10	0.866400	0.926700	0.074200
O111	O11	0.846600	0.752300	0.528700
O121	O12	0.032600	0.899000	0.509600
O131	O13	0.020700	0.815700	0.522200
O141	O14	0.393300	0.802700	0.989000
O151	O15	0.192500	0.631700	0.449000
O161	O16	0.134300	0.647600	0.444300
O171	O17	0.770600	0.474300	0.450600
O181	O18	0.942500	0.513200	0.441900
O191	O19	0.402700	0.803600	0.881800
O201	O20	0.474700	0.852500	0.857700
O211	O21	0.279400	0.745800	0.483800
O221	O22	0.200900	0.716700	0.508500
O231	O23	0.279900	0.752300	0.389900
O241	O24	0.196500	0.730200	0.355600
O251	O25	0.756900	0.145600	0.941500
O261	O26	0.823700	0.239300	0.933500
O271	O27	0.811900	0.941600	0.950300
O281	O28	0.947700	0.804100	0.610100
O291	O29	0.867600	0.923800	0.976400
O301	O30	0.426600	0.909500	0.932900
O311	O31	0.722200	0.905500	0.024300
O321	O32	0.541600	0.850400	0.949400
O331	O33	0.855500	0.458500	0.505900
O341	O34	0.926700	0.866400	0.574200
O351	O35	0.752300	0.846600	0.028700
O361	O36	0.899000	0.032600	0.009600
O371	O37	0.815700	0.020700	0.022200
O381	O38	0.802700	0.393300	0.489000
O391	O39	0.631700	0.192500	0.949000
O401	O40	0.647600	0.134300	0.944300
O411	O41	0.474300	0.770600	0.950600
O421	O42	0.513200	0.942500	0.941900
O431	O43	0.803600	0.402700	0.381800
O441	O44	0.852500	0.474700	0.357700
O451	O45	0.745800	0.279400	0.983800
O461	O46	0.716700	0.200900	0.008500
O471	O47	0.752300	0.279900	0.889900
O481	O48	0.730200	0.196500	0.855600
In71	In7	0.517600	0.789800	0.428100
In81	In8	0.609800	0.151600	0.426000
In91	In9	0.873930	0.057800	0.526500
In101	In10	0.482400	0.272200	0.928100
In111	In11	0.390200	0.541800	0.926000
In121	In12	0.126070	0.183870	0.026500
H651	H65	0.759000	0.136000	0.494000
H661	H66	0.813100	0.297300	0.468300
H671	H67	0.919000	0.249700	0.523800
H681	H68	0.522500	0.957400	0.429300
H691	H69	0.371600	0.840800	0.482100
H701	H70	0.402100	0.994500	0.450700
H711	H71	0.709800	0.911800	0.472000
H721	H72	0.817800	0.848800	0.496700
H731	H73	0.876500	0.068300	0.349700
H741	H74	0.912900	0.067500	0.281600
H751	H75	0.056800	0.101300	0.339700
H761	H76	0.013100	0.095500	0.412600
H771	H77	0.956300	0.044600	0.222900
H781	H78	0.982000	0.079200	0.135500
H791	H79	0.141700	0.190600	0.194900
H801	H80	0.096400	0.169300	0.277300
H811	H81	0.396900	0.543100	0.123300
H821	H82	0.406700	0.584600	0.197500
H831	H83	0.455000	0.726500	0.121500
H841	H84	0.435000	0.682400	0.047200
H851	H85	0.397800	0.610800	0.246200
H861	H86	0.417400	0.645400	0.322300
H871	H87	0.510200	0.796100	0.267900
H881	H88	0.498600	0.766500	0.190500
H891	H89	0.417700	0.679800	0.824600
H901	H90	0.434800	0.716100	0.746500
H911	H91	0.402700	0.567500	0.692100
H921	H92	0.383600	0.527400	0.768900
H931	H93	0.486800	0.751300	0.682400
H941	H94	0.522100	0.788300	0.608700
H951	H95	0.411800	0.641500	0.546100
H961	H96	0.369400	0.615300	0.619800
H971	H97	0.241000	0.377000	0.994000
H981	H98	0.186900	0.484200	0.968300
H991	H99	0.081000	0.330700	0.023800
H1001	H100	0.477500	0.434900	0.929300
H1011	H101	0.628400	0.469200	0.982100
H1021	H102	0.597900	0.592400	0.950700
H1031	H103	0.290200	0.202000	0.972000
H1041	H104	0.182200	0.031000	0.996700
H1051	H105	0.123500	0.191800	0.849700
H1061	H106	0.087100	0.154600	0.781600
H1071	H107	0.943200	0.044500	0.839700
H1081	H108	0.986900	0.082400	0.912600
H1091	H109	0.043700	0.088300	0.722900
H1101	H110	0.018000	0.097200	0.635500
H1111	H111	0.858300	0.048900	0.694900
H1121	H112	0.903600	0.072900	0.777300
H1131	H113	0.603100	0.146200	0.623300
H1141	H114	0.593300	0.177900	0.697500
H1151	H115	0.545000	0.271500	0.621500
H1161	H116	0.565000	0.247400	0.547200
H1171	H117	0.602200	0.213000	0.746200
H1181	H118	0.582600	0.228000	0.822300
H1191	H119	0.489800	0.285900	0.767900
H1201	H120	0.501400	0.267900	0.690500
H1211	H121	0.582300	0.262100	0.324600
H1221	H122	0.565200	0.281300	0.246500
H1231	H123	0.597300	0.164800	0.192100
H1241	H124	0.616400	0.143800	0.268900
H1251	H125	0.513200	0.264500	0.182400
H1261	H126	0.477900	0.266200	0.108700
H1271	H127	0.588200	0.229700	0.046100
H1281	H128	0.630600	0.245900	0.119800
C1331	C133	0.856300	0.141400	0.523500
C1341	C134	0.841200	0.183700	0.508400
C1351	C135	0.788900	0.173000	0.491500
C1361	C136	0.777000	0.212300	0.471100
C1371	C137	0.725600	0.196800	0.449600
C1381	C138	0.819600	0.268200	0.477200
C1391	C139	0.871700	0.281300	0.496400
C1401	C140	0.883600	0.240000	0.511700
C1411	C141	0.517800	0.043900	0.434600
C1421	C142	0.474000	0.990800	0.448000
C1431	C143	0.487600	0.948400	0.442200
C1441	C144	0.450000	0.893000	0.455200
C1451	C145	0.470500	0.852000	0.443400
C1461	C146	0.397400	0.878200	0.474400
C1471	C147	0.384300	0.920700	0.481700
C1481	C148	0.417700	0.972100	0.458900
C1491	C149	0.625700	0.808500	0.449800
C1501	C150	0.677300	0.826200	0.455000
C1511	C151	0.717700	0.882400	0.473200
C1521	C152	0.774600	0.891600	0.494600
C1531	C153	0.816000	0.945600	0.502400
C1541	C154	0.784500	0.845700	0.484900
C1551	C155	0.748700	0.797000	0.459500
C1561	C156	0.690400	0.770900	0.454900
C1571	C157	0.919500	0.075700	0.432900
C1581	C158	0.942800	0.079800	0.390000
C1591	C159	0.913200	0.074300	0.348400
C1601	C160	0.936300	0.077500	0.308200
C1611	C161	0.990400	0.093400	0.300400
C1621	C162	0.020400	0.096100	0.341100
C1631	C163	0.992400	0.090600	0.385000
C1641	C164	0.016900	0.106500	0.251100
C1651	C165	0.989600	0.078200	0.216400
C1661	C166	0.005800	0.093300	0.161800
C1671	C167	0.069200	0.136000	0.162400
C1681	C168	0.103600	0.164300	0.199500
C1691	C169	0.076400	0.150800	0.250000
C1701	C170	0.089600	0.152800	0.111300
C1711	C171	0.408900	0.586800	0.033100
C1721	C172	0.417400	0.607200	0.079600
C1731	C173	0.408100	0.581300	0.123900
C1741	C174	0.413100	0.604300	0.169000
C1751	C175	0.429200	0.661300	0.165200
C1761	C176	0.440000	0.687500	0.120900
C1771	C177	0.431600	0.663500	0.075700
C1781	C178	0.444600	0.683800	0.210900
C1791	C179	0.421900	0.649400	0.250700
C1801	C180	0.433700	0.670200	0.296900
C1811	C181	0.469500	0.727500	0.306000
C1821	C182	0.488200	0.757200	0.263500
C1831	C183	0.481200	0.741700	0.215700
C1841	C184	0.486400	0.752600	0.350600
C1851	C185	0.388000	0.576000	0.845500
C1861	C186	0.398700	0.601000	0.800700
C1871	C187	0.413600	0.657700	0.798000
C1881	C188	0.421900	0.677900	0.751600
C1891	C189	0.411500	0.642700	0.712500
C1901	C190	0.402500	0.588100	0.718300
C1911	C191	0.393000	0.564700	0.763600
C1921	C192	0.424200	0.674900	0.662000
C1931	C193	0.469500	0.729300	0.655600
C1941	C194	0.490300	0.752500	0.611000
C1951	C195	0.464200	0.723000	0.569600
C1961	C196	0.423800	0.665800	0.572100
C1971	C197	0.403300	0.649500	0.618100
C1981	C198	0.488500	0.745800	0.525800
C1991	C199	0.143700	0.285100	0.023500
C2001	C200	0.158800	0.342500	0.008400
C2011	C201	0.211100	0.384100	0.991500
C2021	C202	0.223000	0.435300	0.971100
C2031	C203	0.274400	0.471200	0.949600
C2041	C204	0.180400	0.448600	0.977200
C2051	C205	0.128300	0.409600	0.996400
C2061	C206	0.116400	0.356400	0.011700
C2071	C207	0.482200	0.526100	0.934600
C2081	C208	0.526000	0.516800	0.948000
C2091	C209	0.512400	0.460800	0.942200
C2101	C210	0.550000	0.443000	0.955200
C2111	C211	0.529500	0.381500	0.943400
C2121	C212	0.602600	0.480800	0.974400
C2131	C213	0.615700	0.536400	0.981700
C2141	C214	0.582300	0.554400	0.958900
C2151	C215	0.374300	0.182800	0.949800
C2161	C216	0.322700	0.148900	0.955000
C2171	C217	0.282300	0.164700	0.973200
C2181	C218	0.225400	0.117000	0.994600
C2191	C219	0.184000	0.129600	0.002400
C2201	C220	0.215500	0.061200	0.984900
C2211	C221	0.251300	0.048300	0.959500
C2221	C222	0.309600	0.080500	0.954900
C2231	C223	0.080500	0.156200	0.932900
C2241	C224	0.057200	0.137000	0.890000
C2251	C225	0.086800	0.161100	0.848400
C2261	C226	0.063700	0.141200	0.808200
C2271	C227	0.009600	0.103000	0.800400
C2281	C228	0.979600	0.075700	0.841100
C2291	C229	0.007600	0.098200	0.885000
C2301	C230	0.983100	0.089600	0.751100
C2311	C231	0.010400	0.088600	0.716400
C2321	C232	0.994200	0.087500	0.661800
C2331	C233	0.930800	0.066800	0.662400
C2341	C234	0.896400	0.060700	0.699500
C2351	C235	0.923600	0.074400	0.750000
C2361	C236	0.910400	0.063200	0.611300
C2371	C237	0.591100	0.177900	0.533100
C2381	C238	0.582600	0.189800	0.579600
C2391	C239	0.591900	0.173200	0.623900
C2401	C240	0.586900	0.191200	0.669000
C2411	C241	0.570800	0.232100	0.665200
C2421	C242	0.560000	0.247500	0.620900
C2431	C243	0.568400	0.231900	0.575700
C2441	C244	0.555400	0.239200	0.710900
C2451	C245	0.578100	0.227500	0.750700
C2461	C246	0.566300	0.236500	0.796900
C2471	C247	0.530500	0.258000	0.806000
C2481	C248	0.511800	0.269000	0.763500
C2491	C249	0.518800	0.260500	0.715700
C2501	C250	0.513600	0.266200	0.850600
C2511	C251	0.612000	0.188000	0.345500
C2521	C252	0.601300	0.202300	0.300700
C2531	C253	0.586400	0.244100	0.298000
C2541	C254	0.578100	0.256000	0.251600
C2551	C255	0.588500	0.231200	0.212500
C2561	C256	0.597500	0.185600	0.218300
C2571	C257	0.607000	0.171700	0.263600
C2581	C258	0.575800	0.250700	0.162000
C2591	C259	0.530500	0.259800	0.155600
C2601	C260	0.509700	0.262200	0.111000
C2611	C261	0.535800	0.258800	0.069600
C2621	C262	0.576200	0.242000	0.072100
C2631	C263	0.596700	0.246200	0.118100
C2641	C264	0.511500	0.257300	0.025800
N71	N7	0.775700	0.757900	0.460400
N81	N8	0.915600	0.345600	0.503900
N91	N9	0.328300	0.910000	0.503300
N101	N10	0.224300	0.982200	0.960400
N111	N11	0.084400	0.430000	0.003900
N121	N12	0.671700	0.581700	0.003300
O491	O49	0.611300	0.854400	0.441500
O501	O50	0.584400	0.760700	0.433500
O511	O51	0.870300	0.058400	0.450300
O521	O52	0.143600	0.195900	0.110100
O531	O53	0.943800	0.076200	0.476400
O541	O54	0.517100	0.090500	0.432900
O551	O55	0.816700	0.094500	0.524300
O561	O56	0.691200	0.149600	0.449400
O571	O57	0.397000	0.541500	0.005900
O581	O58	0.060300	0.133600	0.074200
O591	O59	0.905700	0.153400	0.528700
O601	O60	0.866400	0.967400	0.509600
O611	O61	0.795000	0.979300	0.522200
O621	O62	0.409400	0.606700	0.989000
O631	O63	0.439200	0.807500	0.449000
O641	O64	0.513300	0.865700	0.444300
O651	O65	0.703700	0.229400	0.450600
O661	O66	0.570700	0.057500	0.441900
O671	O67	0.400900	0.597300	0.881800
O681	O68	0.377800	0.525300	0.857700
O691	O69	0.466400	0.720600	0.483800
O701	O70	0.515800	0.799100	0.508500
O711	O71	0.472400	0.720100	0.389900
O721	O72	0.533700	0.803500	0.355600
O731	O73	0.388700	0.243100	0.941500
O741	O74	0.415600	0.176300	0.933500
O751	O75	0.129700	0.188100	0.950300
O761	O76	0.856400	0.052300	0.610100
O771	O77	0.056200	0.132400	0.976400
O781	O78	0.482900	0.573400	0.932900
O791	O79	0.183300	0.277800	0.024300
O801	O80	0.308800	0.458400	0.949400
O811	O81	0.603000	0.144500	0.505900
O821	O82	0.939700	0.073300	0.574200
O831	O83	0.094300	0.247700	0.028700
O841	O84	0.133600	0.101000	0.009600
O851	O85	0.205000	0.184300	0.022200
O861	O86	0.590600	0.197300	0.489000
O871	O87	0.560800	0.368300	0.949000
O881	O88	0.486700	0.352400	0.944300
O891	O89	0.296300	0.525700	0.950600
O901	O90	0.429300	0.486800	0.941900
O911	O91	0.599100	0.196400	0.381800
O921	O92	0.622200	0.147500	0.357700
O931	O93	0.533600	0.254200	0.983800
O941	O94	0.484200	0.283300	0.008500
O951	O95	0.527600	0.247700	0.889900
O961	O96	0.466300	0.269800	0.855600
In131	In13	0.272200	0.482400	0.428100
In141	In14	0.541800	0.390200	0.426000
In151	In15	0.183870	0.126070	0.526500
In161	In16	0.789800	0.517600	0.928100
In171	In17	0.151600	0.609800	0.926000
In181	In18	0.057800	0.873930	0.026500
H1291	H129	0.377000	0.241000	0.494000
H1301	H130	0.484200	0.186900	0.468300
H1311	H131	0.330700	0.081000	0.523800
H1321	H132	0.434900	0.477500	0.429300
H1331	H133	0.469200	0.628400	0.482100
H1341	H134	0.592400	0.597900	0.450700
H1351	H135	0.202000	0.290200	0.472000
H1361	H136	0.031000	0.182200	0.496700
H1371	H137	0.191800	0.123500	0.349700
H1381	H138	0.154600	0.087100	0.281600
H1391	H139	0.044500	0.943200	0.339700
H1401	H140	0.082400	0.986900	0.412600
H1411	H141	0.088300	0.043700	0.222900
H1421	H142	0.097200	0.018000	0.135500
H1431	H143	0.048900	0.858300	0.194900
H1441	H144	0.072900	0.903600	0.277300
H1451	H145	0.146200	0.603100	0.123300
H1461	H146	0.177900	0.593300	0.197500
H1471	H147	0.271500	0.545000	0.121500
H1481	H148	0.247400	0.565000	0.047200
H1491	H149	0.213000	0.602200	0.246200
H1501	H150	0.228000	0.582600	0.322300
H1511	H151	0.285900	0.489800	0.267900
H1521	H152	0.267900	0.501400	0.190500
H1531	H153	0.262100	0.582300	0.824600
H1541	H154	0.281300	0.565200	0.746500
H1551	H155	0.164800	0.597300	0.692100
H1561	H156	0.143800	0.616400	0.768900
H1571	H157	0.264500	0.513200	0.682400
H1581	H158	0.266200	0.477900	0.608700
H1591	H159	0.229700	0.588200	0.546100
H1601	H160	0.245900	0.630600	0.619800
H1611	H161	0.136000	0.759000	0.994000
H1621	H162	0.297300	0.813100	0.968300
H1631	H163	0.249700	0.919000	0.023800
H1641	H164	0.957400	0.522500	0.929300
H1651	H165	0.840800	0.371600	0.982100
H1661	H166	0.994500	0.402100	0.950700
H1671	H167	0.911800	0.709800	0.972000
H1681	H168	0.848800	0.817800	0.996700
H1691	H169	0.068300	0.876500	0.849700
H1701	H170	0.067500	0.912900	0.781600
H1711	H171	0.101300	0.056800	0.839700
H1721	H172	0.095500	0.013100	0.912600
H1731	H173	0.044600	0.956300	0.722900
H1741	H174	0.079200	0.982000	0.635500
H1751	H175	0.190600	0.141700	0.694900
H1761	H176	0.169300	0.096400	0.777300
H1771	H177	0.543100	0.396900	0.623300
H1781	H178	0.584600	0.406700	0.697500
H1791	H179	0.726500	0.455000	0.621500
H1801	H180	0.682400	0.435000	0.547200
H1811	H181	0.610800	0.397800	0.746200
H1821	H182	0.645400	0.417400	0.822300
H1831	H183	0.796100	0.510200	0.767900
H1841	H184	0.766500	0.498600	0.690500
H1851	H185	0.679800	0.417700	0.324600
H1861	H186	0.716100	0.434800	0.246500
H1871	H187	0.567500	0.402700	0.192100
H1881	H188	0.527400	0.383600	0.268900
H1891	H189	0.751300	0.486800	0.182400
H1901	H190	0.788300	0.522100	0.108700
H1911	H191	0.641500	0.411800	0.046100
H1921	H192	0.615300	0.369400	0.119800
C2651	C265	0.285100	0.143700	0.523500
C2661	C266	0.342500	0.158800	0.508400
C2671	C267	0.384100	0.211100	0.491500
C2681	C268	0.435300	0.223000	0.471100
C2691	C269	0.471200	0.274400	0.449600
C2701	C270	0.448600	0.180400	0.477200
C2711	C271	0.409600	0.128300	0.496400
C2721	C272	0.356400	0.116400	0.511700
C2731	C273	0.526100	0.482200	0.434600
C2741	C274	0.516800	0.526000	0.448000
C2751	C275	0.460800	0.512400	0.442200
C2761	C276	0.443000	0.550000	0.455200
C2771	C277	0.381500	0.529500	0.443400
C2781	C278	0.480800	0.602600	0.474400
C2791	C279	0.536400	0.615700	0.481700
C2801	C280	0.554400	0.582300	0.458900
C2811	C281	0.182800	0.374300	0.449800
C2821	C282	0.148900	0.322700	0.455000
C2831	C283	0.164700	0.282300	0.473200
C2841	C284	0.117000	0.225400	0.494600
C2851	C285	0.129600	0.184000	0.502400
C2861	C286	0.061200	0.215500	0.484900
C2871	C287	0.048300	0.251300	0.459500
C2881	C288	0.080500	0.309600	0.454900
C2891	C289	0.156200	0.080500	0.432900
C2901	C290	0.137000	0.057200	0.390000
C2911	C291	0.161100	0.086800	0.348400
C2921	C292	0.141200	0.063700	0.308200
C2931	C293	0.103000	0.009600	0.300400
C2941	C294	0.075700	0.979600	0.341100
C2951	C295	0.098200	0.007600	0.385000
C2961	C296	0.089600	0.983100	0.251100
C2971	C297	0.088600	0.010400	0.216400
C2981	C298	0.087500	0.994200	0.161800
C2991	C299	0.066800	0.930800	0.162400
C3001	C300	0.060700	0.896400	0.199500
C3011	C301	0.074400	0.923600	0.250000
C3021	C302	0.063200	0.910400	0.111300
C3031	C303	0.177900	0.591100	0.033100
C3041	C304	0.189800	0.582600	0.079600
C3051	C305	0.173200	0.591900	0.123900
C3061	C306	0.191200	0.586900	0.169000
C3071	C307	0.232100	0.570800	0.165200
C3081	C308	0.247500	0.560000	0.120900
C3091	C309	0.231900	0.568400	0.075700
C3101	C310	0.239200	0.555400	0.210900
C3111	C311	0.227500	0.578100	0.250700
C3121	C312	0.236500	0.566300	0.296900
C3131	C313	0.258000	0.530500	0.306000
C3141	C314	0.269000	0.511800	0.263500
C3151	C315	0.260500	0.518800	0.215700
C3161	C316	0.266200	0.513600	0.350600
C3171	C317	0.188000	0.612000	0.845500
C3181	C318	0.202300	0.601300	0.800700
C3191	C319	0.244100	0.586400	0.798000
C3201	C320	0.256000	0.578100	0.751600
C3211	C321	0.231200	0.588500	0.712500
C3221	C322	0.185600	0.597500	0.718300
C3231	C323	0.171700	0.607000	0.763600
C3241	C324	0.250700	0.575800	0.662000
C3251	C325	0.259800	0.530500	0.655600
C3261	C326	0.262200	0.509700	0.611000
C3271	C327	0.258800	0.535800	0.569600
C3281	C328	0.242000	0.576200	0.572100
C3291	C329	0.246200	0.596700	0.618100
C3301	C330	0.257300	0.511500	0.525800
C3311	C331	0.141400	0.856300	0.023500
C3321	C332	0.183700	0.841200	0.008400
C3331	C333	0.173000	0.788900	0.991500
C3341	C334	0.212300	0.777000	0.971100
C3351	C335	0.196800	0.725600	0.949600
C3361	C336	0.268200	0.819600	0.977200
C3371	C337	0.281300	0.871700	0.996400
C3381	C338	0.240000	0.883600	0.011700
C3391	C339	0.043900	0.517800	0.934600
C3401	C340	0.990800	0.474000	0.948000
C3411	C341	0.948400	0.487600	0.942200
C3421	C342	0.893000	0.450000	0.955200
C3431	C343	0.852000	0.470500	0.943400
C3441	C344	0.878200	0.397400	0.974400
C3451	C345	0.920700	0.384300	0.981700
C3461	C346	0.972100	0.417700	0.958900
C3471	C347	0.808500	0.625700	0.949800
C3481	C348	0.826200	0.677300	0.955000
C3491	C349	0.882400	0.717700	0.973200
C3501	C350	0.891600	0.774600	0.994600
C3511	C351	0.945600	0.816000	0.002400
C3521	C352	0.845700	0.784500	0.984900
C3531	C353	0.797000	0.748700	0.959500
C3541	C354	0.770900	0.690400	0.954900
C3551	C355	0.075700	0.919500	0.932900
C3561	C356	0.079800	0.942800	0.890000
C3571	C357	0.074300	0.913200	0.848400
C3581	C358	0.077500	0.936300	0.808200
C3591	C359	0.093400	0.990400	0.800400
C3601	C360	0.096100	0.020400	0.841100
C3611	C361	0.090600	0.992400	0.885000
C3621	C362	0.106500	0.016900	0.751100
C3631	C363	0.078200	0.989600	0.716400
C3641	C364	0.093300	0.005800	0.661800
C3651	C365	0.136000	0.069200	0.662400
C3661	C366	0.164300	0.103600	0.699500
C3671	C367	0.150800	0.076400	0.750000
C3681	C368	0.152800	0.089600	0.611300
C3691	C369	0.586800	0.408900	0.533100
C3701	C370	0.607200	0.417400	0.579600
C3711	C371	0.581300	0.408100	0.623900
C3721	C372	0.604300	0.413100	0.669000
C3731	C373	0.661300	0.429200	0.665200
C3741	C374	0.687500	0.440000	0.620900
C3751	C375	0.663500	0.431600	0.575700
C3761	C376	0.683800	0.444600	0.710900
C3771	C377	0.649400	0.421900	0.750700
C3781	C378	0.670200	0.433700	0.796900
C3791	C379	0.727500	0.469500	0.806000
C3801	C380	0.757200	0.488200	0.763500
C3811	C381	0.741700	0.481200	0.715700
C3821	C382	0.752600	0.486400	0.850600
C3831	C383	0.576000	0.388000	0.345500
C3841	C384	0.601000	0.398700	0.300700
C3851	C385	0.657700	0.413600	0.298000
C3861	C386	0.677900	0.421900	0.251600
C3871	C387	0.642700	0.411500	0.212500
C3881	C388	0.588100	0.402500	0.218300
C3891	C389	0.564700	0.393000	0.263600
C3901	C390	0.674900	0.424200	0.162000
C3911	C391	0.729300	0.469500	0.155600
C3921	C392	0.752500	0.490300	0.111000
C3931	C393	0.723000	0.464200	0.069600
C3941	C394	0.665800	0.423800	0.072100
C3951	C395	0.649500	0.403300	0.118100
C3961	C396	0.745800	0.488500	0.025800
N131	N13	0.982200	0.224300	0.460400
N141	N14	0.430000	0.084400	0.503900
N151	N15	0.581700	0.671700	0.503300
N161	N16	0.757900	0.775700	0.960400
N171	N17	0.345600	0.915600	0.003900
N181	N18	0.910000	0.328300	0.003300
O971	O97	0.243100	0.388700	0.441500
O981	O98	0.176300	0.415600	0.433500
O991	O99	0.188100	0.129700	0.450300
O1001	O100	0.052300	0.856400	0.110100
O1011	O101	0.132400	0.056200	0.476400
O1021	O102	0.573400	0.482900	0.432900
O1031	O103	0.277800	0.183300	0.524300
O1041	O104	0.458400	0.308800	0.449400
O1051	O105	0.144500	0.603000	0.005900
O1061	O106	0.073300	0.939700	0.074200
O1071	O107	0.247700	0.094300	0.528700
O1081	O108	0.101000	0.133600	0.509600
O1091	O109	0.184300	0.205000	0.522200
O1101	O110	0.197300	0.590600	0.989000
O1111	O111	0.368300	0.560800	0.449000
O1121	O112	0.352400	0.486700	0.444300
O1131	O113	0.525700	0.296300	0.450600
O1141	O114	0.486800	0.429300	0.441900
O1151	O115	0.196400	0.599100	0.881800
O1161	O116	0.147500	0.622200	0.857700
O1171	O117	0.254200	0.533600	0.483800
O1181	O118	0.283300	0.484200	0.508500
O1191	O119	0.247700	0.527600	0.389900
O1201	O120	0.269800	0.466300	0.355600
O1211	O121	0.854400	0.611300	0.941500
O1221	O122	0.760700	0.584400	0.933500
O1231	O123	0.058400	0.870300	0.950300
O1241	O124	0.195900	0.143600	0.610100
O1251	O125	0.076200	0.943800	0.976400
O1261	O126	0.090500	0.517100	0.932900
O1271	O127	0.094500	0.816700	0.024300
O1281	O128	0.149600	0.691200	0.949400
O1291	O129	0.541500	0.397000	0.505900
O1301	O130	0.133600	0.060300	0.574200
O1311	O131	0.153400	0.905700	0.028700
O1321	O132	0.967400	0.866400	0.009600
O1331	O133	0.979300	0.795000	0.022200
O1341	O134	0.606700	0.409400	0.489000
O1351	O135	0.807500	0.439200	0.949000
O1361	O136	0.865700	0.513300	0.944300
O1371	O137	0.229400	0.703700	0.950600
O1381	O138	0.057500	0.570700	0.941900
O1391	O139	0.597300	0.400900	0.381800
O1401	O140	0.525300	0.377800	0.357700
O1411	O141	0.720600	0.466400	0.983800
O1421	O142	0.799100	0.515800	0.008500
O1431	O143	0.720100	0.472400	0.889900
O1441	O144	0.803500	0.533700	0.855600
H1931	H193	0.637700	0.078700	0.034800
H1941	H194	0.625100	0.088900	0.087200
H1951	H195	0.575000	0.054300	0.051800
H1961	H196	0.613300	0.944100	0.040200
H1971	H197	0.551100	0.931300	0.048100
H1981	H198	0.584700	0.924300	0.090300
C3971	C397	0.612200	0.062500	0.061200
C3981	C398	0.587700	0.946100	0.062500
N191	N19	0.610200	0.007900	0.076800
H1991	H199	0.441000	0.362300	0.034800
H2001	H200	0.463800	0.374900	0.087200
H2011	H201	0.479300	0.425000	0.051800
H2021	H202	0.330800	0.386700	0.040200
H2031	H203	0.380200	0.448900	0.048100
H2041	H204	0.339600	0.415300	0.090300
C3991	C399	0.450300	0.387800	0.061200
C4001	C400	0.358400	0.412300	0.062500
N201	N20	0.397700	0.389800	0.076800
H2051	H205	0.921300	0.559000	0.034800
H2061	H206	0.911100	0.536200	0.087200
H2071	H207	0.945700	0.520700	0.051800
H2081	H208	0.055900	0.669200	0.040200
H2091	H209	0.068700	0.619800	0.048100
H2101	H210	0.075700	0.660400	0.090300
C4011	C401	0.937500	0.549700	0.061200
C4021	C402	0.053900	0.641600	0.062500
N211	N21	0.992100	0.602300	0.076800
H2111	H211	0.559000	0.921300	0.534800
H2121	H212	0.536200	0.911100	0.587200
H2131	H213	0.520700	0.945700	0.551800
H2141	H214	0.669200	0.055900	0.540200
H2151	H215	0.619800	0.068700	0.548100
H2161	H216	0.660400	0.075700	0.590300
C4031	C403	0.549700	0.937500	0.561200
C4041	C404	0.641600	0.053900	0.562500
N221	N22	0.602300	0.992100	0.576800
H2171	H217	0.078700	0.637700	0.534800
H2181	H218	0.088900	0.625100	0.587200
H2191	H219	0.054300	0.575000	0.551800
H2201	H220	0.944100	0.613300	0.540200
H2211	H221	0.931300	0.551100	0.548100
H2221	H222	0.924300	0.584700	0.590300
C4051	C405	0.062500	0.612200	0.561200
C4061	C406	0.946100	0.587700	0.562500
N231	N23	0.007900	0.610200	0.576800
H2231	H223	0.362300	0.441000	0.534800
H2241	H224	0.374900	0.463800	0.587200
H2251	H225	0.425000	0.479300	0.551800
H2261	H226	0.386700	0.330800	0.540200
H2271	H227	0.448900	0.380200	0.548100
H2281	H228	0.415300	0.339600	0.590300
C4071	C407	0.387800	0.450300	0.561200
C4081	C408	0.412300	0.358400	0.562500
N241	N24	0.389800	0.397700	0.576800
