data_ALONEV_freeONLY_PM
_symmetry_space_group_name_H-M	'P1'
_cell_length_a	30.585000
_cell_length_b	30.585000
_cell_length_c	27.348000
_cell_angle_alpha	90.000000
_cell_angle_beta	90.000000
_cell_angle_gamma	90.000000
_symmetry_Int_Tables_number 1

loop_
_symmetry_equiv_pos_as_xyz
'x,y,z'

loop_
_atom_site_label
_atom_site_type_symbol
_atom_site_fract_x
_atom_site_fract_y
_atom_site_fract_z
Nb11	Nb1	0.040540	0.990100	0.806460
Nb21	Nb2	0.041130	0.990120	0.699300
Nb31	Nb3	0.980690	0.932780	0.752510
Nb41	Nb4	0.947000	0.009160	0.805880
Nb51	Nb5	0.947390	0.009010	0.698700
Nb61	Nb6	0.007430	0.066330	0.752540
Cl11	Cl1	0.032910	0.910280	0.816000
Cl21	Cl2	0.993380	0.999520	0.878850
Cl31	Cl3	0.104610	0.977780	0.753440
Cl41	Cl4	0.064690	0.066620	0.816240
Cl51	Cl5	0.033770	0.910550	0.689750
Cl61	Cl6	0.994610	0.999540	0.626480
Cl71	Cl7	0.065510	0.066660	0.689760
Cl81	Cl8	0.922600	0.932470	0.815300
Cl91	Cl9	0.923340	0.932390	0.689240
Cl101	Cl10	0.883700	0.021400	0.752080
Cl111	Cl11	0.954290	0.089250	0.815190
Cl121	Cl12	0.954670	0.088970	0.689140
N11	N1	0.115620	0.967490	0.895280
N21	N2	0.119540	0.970740	0.613360
N31	N3	0.967490	0.820760	0.751200
N41	N4	0.870150	0.031000	0.893370
N51	N5	0.869420	0.027710	0.612160
N61	N6	0.023710	0.177530	0.751500
N71	N7	0.041360	0.765370	0.300220
N81	N8	0.041370	0.765690	0.198510
N91	N9	0.039390	0.770210	0.800870
N101	N10	0.039080	0.771110	0.699960
C11	C1	0.091090	0.977260	0.865750
C21	C2	0.093380	0.978190	0.641790
C31	C3	0.969110	0.858430	0.752030
C41	C4	0.895430	0.021880	0.864480
C51	C5	0.895620	0.019980	0.640600
C61	C6	0.020170	0.140270	0.752110
C71	C7	0.976900	0.245500	0.649900
C81	C8	0.919450	0.219120	0.705470
C91	C9	0.894100	0.208900	0.660180
H11	H1	0.912000	0.215600	0.631400
H21	H2	0.867400	0.226600	0.659500
H31	H3	0.886300	0.177800	0.660000
C101	C10	0.900780	0.211910	0.751130
H41	H4	0.871500	0.201700	0.751400
C111	C11	0.982700	0.232000	0.851300
C121	C12	0.920280	0.218040	0.796300
C131	C13	0.895500	0.205400	0.841740
H51	H5	0.866900	0.193400	0.832600
H61	H6	0.891400	0.231200	0.862400
H71	H7	0.912100	0.183200	0.859800
C141	C14	0.093760	0.815220	0.660030
H81	H8	0.080500	0.802000	0.630900
H91	H9	0.124700	0.807100	0.661700
H101	H10	0.091100	0.847100	0.658100
C151	C15	0.070550	0.798950	0.705050
C161	C16	0.084700	0.813660	0.750820
H111	H11	0.105800	0.836500	0.751000
C171	C17	0.002600	0.225700	0.100400
C181	C18	0.071050	0.798350	0.795740
C191	C19	0.093930	0.813110	0.841660
H121	H12	0.117000	0.834100	0.833200
H131	H13	0.106900	0.787800	0.858100
H141	H14	0.072800	0.827100	0.863600
C201	C20	0.025000	0.752000	0.650400
O11	O1	0.958640	0.234630	0.699780
O21	O2	0.958630	0.234310	0.801490
O31	O3	0.020210	0.210610	0.050870
O41	O4	0.021110	0.210920	0.949960
Nb71	Nb7	0.540540	0.490100	0.306460
Nb81	Nb8	0.541130	0.490120	0.199300
Nb91	Nb9	0.480690	0.432780	0.252510
Nb101	Nb10	0.447000	0.509160	0.305880
Nb111	Nb11	0.447390	0.509010	0.198700
Nb121	Nb12	0.507430	0.566330	0.252540
Cl131	Cl13	0.532910	0.410280	0.316000
Cl141	Cl14	0.493380	0.499520	0.378850
Cl151	Cl15	0.604610	0.477780	0.253440
Cl161	Cl16	0.564690	0.566620	0.316240
Cl171	Cl17	0.533770	0.410550	0.189750
Cl181	Cl18	0.494610	0.499540	0.126480
Cl191	Cl19	0.565510	0.566660	0.189760
Cl201	Cl20	0.422600	0.432470	0.315300
Cl211	Cl21	0.423340	0.432390	0.189240
Cl221	Cl22	0.383700	0.521400	0.252080
Cl231	Cl23	0.454290	0.589250	0.315190
Cl241	Cl24	0.454670	0.588970	0.189140
N111	N11	0.615620	0.467490	0.395280
N121	N12	0.619540	0.470740	0.113360
N131	N13	0.467490	0.320760	0.251200
N141	N14	0.370150	0.531000	0.393370
N151	N15	0.369420	0.527710	0.112160
N161	N16	0.523710	0.677530	0.251500
N171	N17	0.541360	0.265370	0.800220
N181	N18	0.541370	0.265690	0.698510
N191	N19	0.539390	0.270210	0.300870
N201	N20	0.539080	0.271110	0.199960
C211	C21	0.591090	0.477260	0.365750
C221	C22	0.593380	0.478190	0.141790
C231	C23	0.469110	0.358430	0.252030
C241	C24	0.395430	0.521880	0.364480
C251	C25	0.395620	0.519980	0.140600
C261	C26	0.520170	0.640270	0.252110
C271	C27	0.476900	0.745500	0.149900
C281	C28	0.419450	0.719120	0.205470
C291	C29	0.394100	0.708900	0.160180
H151	H15	0.412000	0.715600	0.131400
H161	H16	0.367400	0.726600	0.159500
H171	H17	0.386300	0.677800	0.160000
C301	C30	0.400780	0.711910	0.251130
H181	H18	0.371500	0.701700	0.251400
C311	C31	0.482700	0.732000	0.351300
C321	C32	0.420280	0.718040	0.296300
C331	C33	0.395500	0.705400	0.341740
H191	H19	0.366900	0.693400	0.332600
H201	H20	0.391400	0.731200	0.362400
H211	H21	0.412100	0.683200	0.359800
C341	C34	0.593760	0.315220	0.160030
H221	H22	0.580500	0.302000	0.130900
H231	H23	0.624700	0.307100	0.161700
H241	H24	0.591100	0.347100	0.158100
C351	C35	0.570550	0.298950	0.205050
C361	C36	0.584700	0.313660	0.250820
H251	H25	0.605800	0.336500	0.251000
C371	C37	0.502600	0.725700	0.600400
C381	C38	0.571050	0.298350	0.295740
C391	C39	0.593930	0.313110	0.341660
H261	H26	0.617000	0.334100	0.333200
H271	H27	0.606900	0.287800	0.358100
H281	H28	0.572800	0.327100	0.363600
C401	C40	0.525000	0.252000	0.150400
O51	O5	0.458640	0.734630	0.199780
O61	O6	0.458630	0.734310	0.301490
O71	O7	0.520210	0.710610	0.550870
O81	O8	0.521110	0.710920	0.449960
Nb131	Nb13	0.459460	0.009900	0.306460
Nb141	Nb14	0.458870	0.009880	0.199300
Nb151	Nb15	0.519310	0.067220	0.252510
Nb161	Nb16	0.553000	0.990840	0.305880
Nb171	Nb17	0.552610	0.990990	0.198700
Nb181	Nb18	0.492570	0.933670	0.252540
Cl251	Cl25	0.467090	0.089720	0.316000
Cl261	Cl26	0.506620	0.000480	0.378850
Cl271	Cl27	0.395390	0.022220	0.253440
Cl281	Cl28	0.435310	0.933380	0.316240
Cl291	Cl29	0.466230	0.089450	0.189750
Cl301	Cl30	0.505390	0.000460	0.126480
Cl311	Cl31	0.434490	0.933340	0.189760
Cl321	Cl32	0.577400	0.067530	0.315300
Cl331	Cl33	0.576660	0.067610	0.189240
Cl341	Cl34	0.616300	0.978600	0.252080
Cl351	Cl35	0.545710	0.910750	0.315190
Cl361	Cl36	0.545330	0.911030	0.189140
N211	N21	0.384380	0.032510	0.395280
N221	N22	0.380460	0.029260	0.113360
N231	N23	0.532510	0.179240	0.251200
N241	N24	0.629850	0.969000	0.393370
N251	N25	0.630580	0.972290	0.112160
N261	N26	0.476290	0.822470	0.251500
N271	N27	0.458640	0.234630	0.800220
N281	N28	0.458630	0.234310	0.698510
N291	N29	0.460610	0.229790	0.300870
N301	N30	0.460920	0.228890	0.199960
C411	C41	0.408910	0.022740	0.365750
C421	C42	0.406620	0.021810	0.141790
C431	C43	0.530890	0.141570	0.252030
C441	C44	0.604570	0.978120	0.364480
C451	C45	0.604380	0.980020	0.140600
C461	C46	0.479830	0.859730	0.252110
C471	C47	0.523100	0.754500	0.149900
C481	C48	0.580550	0.780880	0.205470
C491	C49	0.605900	0.791100	0.160180
H291	H29	0.588000	0.784400	0.131400
H301	H30	0.632600	0.773400	0.159500
H311	H31	0.613700	0.822200	0.160000
C501	C50	0.599220	0.788090	0.251130
H321	H32	0.628500	0.798300	0.251400
C511	C51	0.517300	0.768000	0.351300
C521	C52	0.579720	0.781960	0.296300
C531	C53	0.604500	0.794600	0.341740
H331	H33	0.633100	0.806600	0.332600
H341	H34	0.608600	0.768800	0.362400
H351	H35	0.587900	0.816800	0.359800
C541	C54	0.406240	0.184780	0.160030
H361	H36	0.419500	0.198000	0.130900
H371	H37	0.375300	0.192900	0.161700
H381	H38	0.408900	0.152900	0.158100
C551	C55	0.429450	0.201050	0.205050
C561	C56	0.415300	0.186340	0.250820
H391	H39	0.394200	0.163500	0.251000
C571	C57	0.497400	0.774300	0.600400
C581	C58	0.428950	0.201650	0.295740
C591	C59	0.406070	0.186890	0.341660
H401	H40	0.383000	0.165900	0.333200
H411	H41	0.393100	0.212200	0.358100
H421	H42	0.427200	0.172900	0.363600
C601	C60	0.475000	0.248000	0.150400
O91	O9	0.541360	0.765370	0.199780
O101	O10	0.541370	0.765690	0.301490
O111	O11	0.479790	0.789390	0.550870
O121	O12	0.478890	0.789080	0.449960
Nb191	Nb19	0.959460	0.509900	0.806460
Nb201	Nb20	0.958870	0.509880	0.699300
Nb211	Nb21	0.019310	0.567220	0.752510
Nb221	Nb22	0.053000	0.490840	0.805880
Nb231	Nb23	0.052610	0.490990	0.698700
Nb241	Nb24	0.992570	0.433670	0.752540
Cl371	Cl37	0.967090	0.589720	0.816000
Cl381	Cl38	0.006620	0.500480	0.878850
Cl391	Cl39	0.895390	0.522220	0.753440
Cl401	Cl40	0.935310	0.433380	0.816240
Cl411	Cl41	0.966230	0.589450	0.689750
Cl421	Cl42	0.005390	0.500460	0.626480
Cl431	Cl43	0.934490	0.433340	0.689760
Cl441	Cl44	0.077400	0.567530	0.815300
Cl451	Cl45	0.076660	0.567610	0.689240
Cl461	Cl46	0.116300	0.478600	0.752080
Cl471	Cl47	0.045710	0.410750	0.815190
Cl481	Cl48	0.045330	0.411030	0.689140
N311	N31	0.884380	0.532510	0.895280
N321	N32	0.880460	0.529260	0.613360
N331	N33	0.032510	0.679240	0.751200
N341	N34	0.129850	0.469000	0.893370
N351	N35	0.130580	0.472290	0.612160
N361	N36	0.976290	0.322470	0.751500
N371	N37	0.958640	0.734630	0.300220
N381	N38	0.958630	0.734310	0.198510
N391	N39	0.960610	0.729790	0.800870
N401	N40	0.960920	0.728890	0.699960
C611	C61	0.908910	0.522740	0.865750
C621	C62	0.906620	0.521810	0.641790
C631	C63	0.030890	0.641570	0.752030
C641	C64	0.104570	0.478120	0.864480
C651	C65	0.104380	0.480020	0.640600
C661	C66	0.979830	0.359730	0.752110
C671	C67	0.023100	0.254500	0.649900
C681	C68	0.080550	0.280880	0.705470
C691	C69	0.105900	0.291100	0.660180
H431	H43	0.088000	0.284400	0.631400
H441	H44	0.132600	0.273400	0.659500
H451	H45	0.113700	0.322200	0.660000
C701	C70	0.099220	0.288090	0.751130
H461	H46	0.128500	0.298300	0.751400
C711	C71	0.017300	0.268000	0.851300
C721	C72	0.079720	0.281960	0.796300
C731	C73	0.104500	0.294600	0.841740
H471	H47	0.133100	0.306600	0.832600
H481	H48	0.108600	0.268800	0.862400
H491	H49	0.087900	0.316800	0.859800
C741	C74	0.906240	0.684780	0.660030
H501	H50	0.919500	0.698000	0.630900
H511	H51	0.875300	0.692900	0.661700
H521	H52	0.908900	0.652900	0.658100
C751	C75	0.929450	0.701050	0.705050
C761	C76	0.915300	0.686340	0.750820
H531	H53	0.894200	0.663500	0.751000
C771	C77	0.997400	0.274300	0.100400
C781	C78	0.928950	0.701650	0.795740
C791	C79	0.906070	0.686890	0.841660
H541	H54	0.883000	0.665900	0.833200
H551	H55	0.893100	0.712200	0.858100
H561	H56	0.927200	0.672900	0.863600
C801	C80	0.975000	0.748000	0.650400
O131	O13	0.041360	0.265370	0.699780
O141	O14	0.041370	0.265690	0.801490
O151	O15	0.979790	0.289390	0.050870
O161	O16	0.978890	0.289080	0.949960
Nb251	Nb25	0.759900	0.290540	0.056460
Nb261	Nb26	0.759880	0.291130	0.949300
Nb271	Nb27	0.817220	0.230690	0.002510
Nb281	Nb28	0.740840	0.197000	0.055880
Nb291	Nb29	0.740990	0.197390	0.948700
Nb301	Nb30	0.683670	0.257430	0.002540
Cl491	Cl49	0.839720	0.282910	0.066000
Cl501	Cl50	0.750480	0.243380	0.128850
Cl511	Cl51	0.772220	0.354610	0.003440
Cl521	Cl52	0.683380	0.314690	0.066240
Cl531	Cl53	0.839450	0.283770	0.939750
Cl541	Cl54	0.750460	0.244610	0.876480
Cl551	Cl55	0.683340	0.315510	0.939760
Cl561	Cl56	0.817530	0.172600	0.065300
Cl571	Cl57	0.817610	0.173340	0.939240
Cl581	Cl58	0.728600	0.133700	0.002080
Cl591	Cl59	0.660750	0.204290	0.065190
Cl601	Cl60	0.661030	0.204670	0.939140
N411	N41	0.782510	0.365620	0.145280
N421	N42	0.779260	0.369540	0.863360
N431	N43	0.929240	0.217490	0.001200
N441	N44	0.719000	0.120150	0.143370
N451	N45	0.722290	0.119420	0.862160
N461	N46	0.572470	0.273710	0.001500
N471	N47	0.984630	0.291360	0.550220
N481	N48	0.984310	0.291370	0.448510
C811	C81	0.772740	0.341090	0.115750
C821	C82	0.771810	0.343380	0.891790
C831	C83	0.891570	0.219110	0.002030
C841	C84	0.728120	0.145430	0.114480
C851	C85	0.730020	0.145620	0.890600
C861	C86	0.609730	0.270170	0.002110
C871	C87	0.504500	0.226900	0.899900
C881	C88	0.530880	0.169450	0.955470
C891	C89	0.541100	0.144100	0.910180
H571	H57	0.534400	0.162000	0.881400
H581	H58	0.523400	0.117400	0.909500
H591	H59	0.572200	0.136300	0.910000
C901	C90	0.538090	0.150780	0.001130
H601	H60	0.548300	0.121500	0.001400
C911	C91	0.518000	0.232700	0.101300
C921	C92	0.531960	0.170280	0.046300
C931	C93	0.544600	0.145500	0.091740
H611	H61	0.556600	0.116900	0.082600
H621	H62	0.518800	0.141400	0.112400
H631	H63	0.566800	0.162100	0.109800
C941	C94	0.934780	0.343760	0.910030
H641	H64	0.948000	0.330500	0.880900
H651	H65	0.942900	0.374700	0.911700
H661	H66	0.902900	0.341100	0.908100
C951	C95	0.951050	0.320550	0.955050
C961	C96	0.936340	0.334700	0.000820
H671	H67	0.913500	0.355800	0.001000
C971	C97	0.524300	0.252600	0.350400
C981	C98	0.951650	0.321050	0.045740
C991	C99	0.936890	0.343930	0.091660
H681	H68	0.915900	0.367000	0.083200
H691	H69	0.962200	0.356900	0.108100
H701	H70	0.922900	0.322800	0.113600
C1001	C100	0.998000	0.275000	0.900400
O171	O17	0.515370	0.208640	0.949780
O181	O18	0.515690	0.208630	0.051490
Nb311	Nb31	0.259900	0.790540	0.556460
Nb321	Nb32	0.259880	0.791130	0.449300
Nb331	Nb33	0.317220	0.730690	0.502510
Nb341	Nb34	0.240840	0.697000	0.555880
Nb351	Nb35	0.240990	0.697390	0.448700
Nb361	Nb36	0.183670	0.757430	0.502540
Cl611	Cl61	0.339720	0.782910	0.566000
Cl621	Cl62	0.250480	0.743380	0.628850
Cl631	Cl63	0.272220	0.854610	0.503440
Cl641	Cl64	0.183380	0.814690	0.566240
Cl651	Cl65	0.339450	0.783770	0.439750
Cl661	Cl66	0.250460	0.744610	0.376480
Cl671	Cl67	0.183340	0.815510	0.439760
Cl681	Cl68	0.317530	0.672600	0.565300
Cl691	Cl69	0.317610	0.673340	0.439240
Cl701	Cl70	0.228600	0.633700	0.502080
Cl711	Cl71	0.160750	0.704290	0.565190
Cl721	Cl72	0.161030	0.704670	0.439140
N491	N49	0.282510	0.865620	0.645280
N501	N50	0.279260	0.869540	0.363360
N511	N51	0.429240	0.717490	0.501200
N521	N52	0.219000	0.620150	0.643370
N531	N53	0.222290	0.619420	0.362160
N541	N54	0.072470	0.773710	0.501500
N551	N55	0.484630	0.791360	0.050220
N561	N56	0.484310	0.791370	0.948510
C1011	C101	0.272740	0.841090	0.615750
C1021	C102	0.271810	0.843380	0.391790
C1031	C103	0.391570	0.719110	0.502030
C1041	C104	0.228120	0.645430	0.614480
C1051	C105	0.230020	0.645620	0.390600
C1061	C106	0.109730	0.770170	0.502110
C1071	C107	0.004500	0.726900	0.399900
C1081	C108	0.030880	0.669450	0.455470
C1091	C109	0.041100	0.644100	0.410180
H711	H71	0.034400	0.662000	0.381400
H721	H72	0.023400	0.617400	0.409500
H731	H73	0.072200	0.636300	0.410000
C1101	C110	0.038090	0.650780	0.501130
H741	H74	0.048300	0.621500	0.501400
C1111	C111	0.018000	0.732700	0.601300
C1121	C112	0.031960	0.670280	0.546300
C1131	C113	0.044600	0.645500	0.591740
H751	H75	0.056600	0.616900	0.582600
H761	H76	0.018800	0.641400	0.612400
H771	H77	0.066800	0.662100	0.609800
C1141	C114	0.434780	0.843760	0.410030
H781	H78	0.448000	0.830500	0.380900
H791	H79	0.442900	0.874700	0.411700
H801	H80	0.402900	0.841100	0.408100
C1151	C115	0.451050	0.820550	0.455050
C1161	C116	0.436340	0.834700	0.500820
H811	H81	0.413500	0.855800	0.501000
C1171	C117	0.024300	0.752600	0.850400
C1181	C118	0.451650	0.821050	0.545740
C1191	C119	0.436890	0.843930	0.591660
H821	H82	0.415900	0.867000	0.583200
H831	H83	0.462200	0.856900	0.608100
H841	H84	0.422900	0.822800	0.613600
C1201	C120	0.498000	0.775000	0.400400
O191	O19	0.015370	0.708640	0.449780
O201	O20	0.015690	0.708630	0.551490
Nb371	Nb37	0.740100	0.709460	0.556460
Nb381	Nb38	0.740120	0.708870	0.449300
Nb391	Nb39	0.682780	0.769310	0.502510
Nb401	Nb40	0.759160	0.803000	0.555880
Nb411	Nb41	0.759010	0.802610	0.448700
Nb421	Nb42	0.816330	0.742570	0.502540
Cl731	Cl73	0.660280	0.717090	0.566000
Cl741	Cl74	0.749520	0.756620	0.628850
Cl751	Cl75	0.727780	0.645390	0.503440
Cl761	Cl76	0.816620	0.685310	0.566240
Cl771	Cl77	0.660550	0.716230	0.439750
Cl781	Cl78	0.749540	0.755390	0.376480
Cl791	Cl79	0.816660	0.684490	0.439760
Cl801	Cl80	0.682470	0.827400	0.565300
Cl811	Cl81	0.682390	0.826660	0.439240
Cl821	Cl82	0.771400	0.866300	0.502080
Cl831	Cl83	0.839250	0.795710	0.565190
Cl841	Cl84	0.838970	0.795330	0.439140
N571	N57	0.717490	0.634380	0.645280
N581	N58	0.720740	0.630460	0.363360
N591	N59	0.570760	0.782510	0.501200
N601	N60	0.781000	0.879850	0.643370
N611	N61	0.777710	0.880580	0.362160
N621	N62	0.927530	0.726290	0.501500
N631	N63	0.515370	0.708640	0.050220
N641	N64	0.515690	0.708630	0.948510
C1211	C121	0.727260	0.658910	0.615750
C1221	C122	0.728190	0.656620	0.391790
C1231	C123	0.608430	0.780890	0.502030
C1241	C124	0.771880	0.854570	0.614480
C1251	C125	0.769980	0.854380	0.390600
C1261	C126	0.890270	0.729830	0.502110
C1271	C127	0.995500	0.773100	0.399900
C1281	C128	0.969120	0.830550	0.455470
C1291	C129	0.958900	0.855900	0.410180
H851	H85	0.965600	0.838000	0.381400
H861	H86	0.976600	0.882600	0.409500
H871	H87	0.927800	0.863700	0.410000
C1301	C130	0.961910	0.849220	0.501130
H881	H88	0.951700	0.878500	0.501400
C1311	C131	0.982000	0.767300	0.601300
C1321	C132	0.968040	0.829720	0.546300
C1331	C133	0.955400	0.854500	0.591740
H891	H89	0.943400	0.883100	0.582600
H901	H90	0.981200	0.858600	0.612400
H911	H91	0.933200	0.837900	0.609800
C1341	C134	0.565220	0.656240	0.410030
H921	H92	0.552000	0.669500	0.380900
H931	H93	0.557100	0.625300	0.411700
H941	H94	0.597100	0.658900	0.408100
C1351	C135	0.548950	0.679450	0.455050
C1361	C136	0.563660	0.665300	0.500820
H951	H95	0.586500	0.644200	0.501000
C1371	C137	0.975700	0.747400	0.850400
C1381	C138	0.548350	0.678950	0.545740
C1391	C139	0.563110	0.656070	0.591660
H961	H96	0.584100	0.633000	0.583200
H971	H97	0.537800	0.643100	0.608100
H981	H98	0.577100	0.677200	0.613600
C1401	C140	0.502000	0.725000	0.400400
O211	O21	0.984630	0.791360	0.449780
O221	O22	0.984310	0.791370	0.551490
Nb431	Nb43	0.240100	0.209460	0.056460
Nb441	Nb44	0.240120	0.208870	0.949300
Nb451	Nb45	0.182780	0.269310	0.002510
Nb461	Nb46	0.259160	0.303000	0.055880
Nb471	Nb47	0.259010	0.302610	0.948700
Nb481	Nb48	0.316330	0.242570	0.002540
Cl851	Cl85	0.160280	0.217090	0.066000
Cl861	Cl86	0.249520	0.256620	0.128850
Cl871	Cl87	0.227780	0.145390	0.003440
Cl881	Cl88	0.316620	0.185310	0.066240
Cl891	Cl89	0.160550	0.216230	0.939750
Cl901	Cl90	0.249540	0.255390	0.876480
Cl911	Cl91	0.316660	0.184490	0.939760
Cl921	Cl92	0.182470	0.327400	0.065300
Cl931	Cl93	0.182390	0.326660	0.939240
Cl941	Cl94	0.271400	0.366300	0.002080
Cl951	Cl95	0.339250	0.295710	0.065190
Cl961	Cl96	0.338970	0.295330	0.939140
N651	N65	0.217490	0.134380	0.145280
N661	N66	0.220740	0.130460	0.863360
N671	N67	0.070760	0.282510	0.001200
N681	N68	0.281000	0.379850	0.143370
N691	N69	0.277710	0.380580	0.862160
N701	N70	0.427530	0.226290	0.001500
N711	N71	0.015370	0.208640	0.550220
N721	N72	0.015690	0.208630	0.448510
C1411	C141	0.227260	0.158910	0.115750
C1421	C142	0.228190	0.156620	0.891790
C1431	C143	0.108430	0.280890	0.002030
C1441	C144	0.271880	0.354570	0.114480
C1451	C145	0.269980	0.354380	0.890600
C1461	C146	0.390270	0.229830	0.002110
C1471	C147	0.495500	0.273100	0.899900
C1481	C148	0.469120	0.330550	0.955470
C1491	C149	0.458900	0.355900	0.910180
H991	H99	0.465600	0.338000	0.881400
H1001	H100	0.476600	0.382600	0.909500
H1011	H101	0.427800	0.363700	0.910000
C1501	C150	0.461910	0.349220	0.001130
H1021	H102	0.451700	0.378500	0.001400
C1511	C151	0.482000	0.267300	0.101300
C1521	C152	0.468040	0.329720	0.046300
C1531	C153	0.455400	0.354500	0.091740
H1031	H103	0.443400	0.383100	0.082600
H1041	H104	0.481200	0.358600	0.112400
H1051	H105	0.433200	0.337900	0.109800
C1541	C154	0.065220	0.156240	0.910030
H1061	H106	0.052000	0.169500	0.880900
H1071	H107	0.057100	0.125300	0.911700
H1081	H108	0.097100	0.158900	0.908100
C1551	C155	0.048950	0.179450	0.955050
C1561	C156	0.063660	0.165300	0.000820
H1091	H109	0.086500	0.144200	0.001000
C1571	C157	0.475700	0.247400	0.350400
C1581	C158	0.048350	0.178950	0.045740
C1591	C159	0.063110	0.156070	0.091660
H1101	H110	0.084100	0.133000	0.083200
H1111	H111	0.037800	0.143100	0.108100
H1121	H112	0.077100	0.177200	0.113600
C1601	C160	0.002000	0.225000	0.900400
O231	O23	0.484630	0.291360	0.949780
O241	O24	0.484310	0.291370	0.051490
Nb491	Nb49	0.959460	0.009900	0.193540
Nb501	Nb50	0.958870	0.009880	0.300700
Nb511	Nb51	0.019310	0.067220	0.247490
Nb521	Nb52	0.053000	0.990840	0.194120
Nb531	Nb53	0.052610	0.990990	0.301300
Nb541	Nb54	0.992570	0.933670	0.247460
Cl971	Cl97	0.967090	0.089720	0.184000
Cl981	Cl98	0.006620	0.000480	0.121150
Cl991	Cl99	0.895390	0.022220	0.246560
Cl1001	Cl100	0.935310	0.933380	0.183760
Cl1011	Cl101	0.966230	0.089450	0.310250
Cl1021	Cl102	0.005390	0.000460	0.373520
Cl1031	Cl103	0.934490	0.933340	0.310240
Cl1041	Cl104	0.077400	0.067530	0.184700
Cl1051	Cl105	0.076660	0.067610	0.310760
Cl1061	Cl106	0.116300	0.978600	0.247920
Cl1071	Cl107	0.045710	0.910750	0.184810
Cl1081	Cl108	0.045330	0.911030	0.310860
N731	N73	0.884380	0.032510	0.104720
N741	N74	0.880460	0.029260	0.386640
N751	N75	0.032510	0.179240	0.248800
N761	N76	0.129850	0.969000	0.106630
N771	N77	0.130580	0.972290	0.387840
N781	N78	0.976290	0.822470	0.248500
N791	N79	0.960610	0.229790	0.199130
N801	N80	0.960920	0.228890	0.300040
C1611	C161	0.908910	0.022740	0.134250
C1621	C162	0.906620	0.021810	0.358210
C1631	C163	0.030890	0.141570	0.247970
C1641	C164	0.104570	0.978120	0.135520
C1651	C165	0.104380	0.980020	0.359400
C1661	C166	0.979830	0.859730	0.247890
C1671	C167	0.023100	0.754500	0.350100
C1681	C168	0.080550	0.780880	0.294530
C1691	C169	0.105900	0.791100	0.339820
H1131	H113	0.088000	0.784400	0.368600
H1141	H114	0.132600	0.773400	0.340500
H1151	H115	0.113700	0.822200	0.340000
C1701	C170	0.099220	0.788090	0.248870
H1161	H116	0.128500	0.798300	0.248600
C1711	C171	0.017300	0.768000	0.148700
C1721	C172	0.079720	0.781960	0.203700
C1731	C173	0.104500	0.794600	0.158260
H1171	H117	0.133100	0.806600	0.167400
H1181	H118	0.108600	0.768800	0.137600
H1191	H119	0.087900	0.816800	0.140200
C1741	C174	0.906240	0.184780	0.339970
H1201	H120	0.919500	0.198000	0.369100
H1211	H121	0.875300	0.192900	0.338300
H1221	H122	0.908900	0.152900	0.341900
C1751	C175	0.929450	0.201050	0.294950
C1761	C176	0.915300	0.186340	0.249180
H1231	H123	0.894200	0.163500	0.249000
C1771	C177	0.997400	0.774300	0.899600
C1781	C178	0.928950	0.201650	0.204260
C1791	C179	0.906070	0.186890	0.158340
H1241	H124	0.883000	0.165900	0.166800
H1251	H125	0.893100	0.212200	0.141900
H1261	H126	0.927200	0.172900	0.136400
C1801	C180	0.975000	0.248000	0.349600
O251	O25	0.979790	0.789390	0.949130
O261	O26	0.978890	0.789080	0.050040
Nb551	Nb55	0.459460	0.509900	0.693540
Nb561	Nb56	0.458870	0.509880	0.800700
Nb571	Nb57	0.519310	0.567220	0.747490
Nb581	Nb58	0.553000	0.490840	0.694120
Nb591	Nb59	0.552610	0.490990	0.801300
Nb601	Nb60	0.492570	0.433670	0.747460
Cl1091	Cl109	0.467090	0.589720	0.684000
Cl1101	Cl110	0.506620	0.500480	0.621150
Cl1111	Cl111	0.395390	0.522220	0.746560
Cl1121	Cl112	0.435310	0.433380	0.683760
Cl1131	Cl113	0.466230	0.589450	0.810250
Cl1141	Cl114	0.505390	0.500460	0.873520
Cl1151	Cl115	0.434490	0.433340	0.810240
Cl1161	Cl116	0.577400	0.567530	0.684700
Cl1171	Cl117	0.576660	0.567610	0.810760
Cl1181	Cl118	0.616300	0.478600	0.747920
Cl1191	Cl119	0.545710	0.410750	0.684810
Cl1201	Cl120	0.545330	0.411030	0.810860
N811	N81	0.384380	0.532510	0.604720
N821	N82	0.380460	0.529260	0.886640
N831	N83	0.532510	0.679240	0.748800
N841	N84	0.629850	0.469000	0.606630
N851	N85	0.630580	0.472290	0.887840
N861	N86	0.476290	0.322470	0.748500
N871	N87	0.460610	0.729790	0.699130
N881	N88	0.460920	0.728890	0.800040
C1811	C181	0.408910	0.522740	0.634250
C1821	C182	0.406620	0.521810	0.858210
C1831	C183	0.530890	0.641570	0.747970
C1841	C184	0.604570	0.478120	0.635520
C1851	C185	0.604380	0.480020	0.859400
C1861	C186	0.479830	0.359730	0.747890
C1871	C187	0.523100	0.254500	0.850100
C1881	C188	0.580550	0.280880	0.794530
C1891	C189	0.605900	0.291100	0.839820
H1271	H127	0.588000	0.284400	0.868600
H1281	H128	0.632600	0.273400	0.840500
H1291	H129	0.613700	0.322200	0.840000
C1901	C190	0.599220	0.288090	0.748870
H1301	H130	0.628500	0.298300	0.748600
C1911	C191	0.517300	0.268000	0.648700
C1921	C192	0.579720	0.281960	0.703700
C1931	C193	0.604500	0.294600	0.658260
H1311	H131	0.633100	0.306600	0.667400
H1321	H132	0.608600	0.268800	0.637600
H1331	H133	0.587900	0.316800	0.640200
C1941	C194	0.406240	0.684780	0.839970
H1341	H134	0.419500	0.698000	0.869100
H1351	H135	0.375300	0.692900	0.838300
H1361	H136	0.408900	0.652900	0.841900
C1951	C195	0.429450	0.701050	0.794950
C1961	C196	0.415300	0.686340	0.749180
H1371	H137	0.394200	0.663500	0.749000
C1971	C197	0.497400	0.274300	0.399600
C1981	C198	0.428950	0.701650	0.704260
C1991	C199	0.406070	0.686890	0.658340
H1381	H138	0.383000	0.665900	0.666800
H1391	H139	0.393100	0.712200	0.641900
H1401	H140	0.427200	0.672900	0.636400
C2001	C200	0.475000	0.748000	0.849600
O271	O27	0.479790	0.289390	0.449130
O281	O28	0.478890	0.289080	0.550040
Nb611	Nb61	0.540540	0.990100	0.693540
Nb621	Nb62	0.541130	0.990120	0.800700
Nb631	Nb63	0.480690	0.932780	0.747490
Nb641	Nb64	0.447000	0.009160	0.694120
Nb651	Nb65	0.447390	0.009010	0.801300
Nb661	Nb66	0.507430	0.066330	0.747460
Cl1211	Cl121	0.532910	0.910280	0.684000
Cl1221	Cl122	0.493380	0.999520	0.621150
Cl1231	Cl123	0.604610	0.977780	0.746560
Cl1241	Cl124	0.564690	0.066620	0.683760
Cl1251	Cl125	0.533770	0.910550	0.810250
Cl1261	Cl126	0.494610	0.999540	0.873520
Cl1271	Cl127	0.565510	0.066660	0.810240
Cl1281	Cl128	0.422600	0.932470	0.684700
Cl1291	Cl129	0.423340	0.932390	0.810760
Cl1301	Cl130	0.383700	0.021400	0.747920
Cl1311	Cl131	0.454290	0.089250	0.684810
Cl1321	Cl132	0.454670	0.088970	0.810860
N891	N89	0.615620	0.967490	0.604720
N901	N90	0.619540	0.970740	0.886640
N911	N91	0.467490	0.820760	0.748800
N921	N92	0.370150	0.031000	0.606630
N931	N93	0.369420	0.027710	0.887840
N941	N94	0.523710	0.177530	0.748500
N951	N95	0.539390	0.770210	0.699130
N961	N96	0.539080	0.771110	0.800040
C2011	C201	0.591090	0.977260	0.634250
C2021	C202	0.593380	0.978190	0.858210
C2031	C203	0.469110	0.858430	0.747970
C2041	C204	0.395430	0.021880	0.635520
C2051	C205	0.395620	0.019980	0.859400
C2061	C206	0.520170	0.140270	0.747890
C2071	C207	0.476900	0.245500	0.850100
C2081	C208	0.419450	0.219120	0.794530
C2091	C209	0.394100	0.208900	0.839820
H1411	H141	0.412000	0.215600	0.868600
H1421	H142	0.367400	0.226600	0.840500
H1431	H143	0.386300	0.177800	0.840000
C2101	C210	0.400780	0.211910	0.748870
H1441	H144	0.371500	0.201700	0.748600
C2111	C211	0.482700	0.232000	0.648700
C2121	C212	0.420280	0.218040	0.703700
C2131	C213	0.395500	0.205400	0.658260
H1451	H145	0.366900	0.193400	0.667400
H1461	H146	0.391400	0.231200	0.637600
H1471	H147	0.412100	0.183200	0.640200
C2141	C214	0.593760	0.815220	0.839970
H1481	H148	0.580500	0.802000	0.869100
H1491	H149	0.624700	0.807100	0.838300
H1501	H150	0.591100	0.847100	0.841900
C2151	C215	0.570550	0.798950	0.794950
C2161	C216	0.584700	0.813660	0.749180
H1511	H151	0.605800	0.836500	0.749000
C2171	C217	0.502600	0.225700	0.399600
C2181	C218	0.571050	0.798350	0.704260
C2191	C219	0.593930	0.813110	0.658340
H1521	H152	0.617000	0.834100	0.666800
H1531	H153	0.606900	0.787800	0.641900
H1541	H154	0.572800	0.827100	0.636400
C2201	C220	0.525000	0.752000	0.849600
O291	O29	0.520210	0.210610	0.449130
O301	O30	0.521110	0.210920	0.550040
Nb671	Nb67	0.040540	0.490100	0.193540
Nb681	Nb68	0.041130	0.490120	0.300700
Nb691	Nb69	0.980690	0.432780	0.247490
Nb701	Nb70	0.947000	0.509160	0.194120
Nb711	Nb71	0.947390	0.509010	0.301300
Nb721	Nb72	0.007430	0.566330	0.247460
Cl1331	Cl133	0.032910	0.410280	0.184000
Cl1341	Cl134	0.993380	0.499520	0.121150
Cl1351	Cl135	0.104610	0.477780	0.246560
Cl1361	Cl136	0.064690	0.566620	0.183760
Cl1371	Cl137	0.033770	0.410550	0.310250
Cl1381	Cl138	0.994610	0.499540	0.373520
Cl1391	Cl139	0.065510	0.566660	0.310240
Cl1401	Cl140	0.922600	0.432470	0.184700
Cl1411	Cl141	0.923340	0.432390	0.310760
Cl1421	Cl142	0.883700	0.521400	0.247920
Cl1431	Cl143	0.954290	0.589250	0.184810
Cl1441	Cl144	0.954670	0.588970	0.310860
N971	N97	0.115620	0.467490	0.104720
N981	N98	0.119540	0.470740	0.386640
N991	N99	0.967490	0.320760	0.248800
N1001	N100	0.870150	0.531000	0.106630
N1011	N101	0.869420	0.527710	0.387840
N1021	N102	0.023710	0.677530	0.248500
N1031	N103	0.039390	0.270210	0.199130
N1041	N104	0.039080	0.271110	0.300040
C2211	C221	0.091090	0.477260	0.134250
C2221	C222	0.093380	0.478190	0.358210
C2231	C223	0.969110	0.358430	0.247970
C2241	C224	0.895430	0.521880	0.135520
C2251	C225	0.895620	0.519980	0.359400
C2261	C226	0.020170	0.640270	0.247890
C2271	C227	0.976900	0.745500	0.350100
C2281	C228	0.919450	0.719120	0.294530
C2291	C229	0.894100	0.708900	0.339820
H1551	H155	0.912000	0.715600	0.368600
H1561	H156	0.867400	0.726600	0.340500
H1571	H157	0.886300	0.677800	0.340000
C2301	C230	0.900780	0.711910	0.248870
H1581	H158	0.871500	0.701700	0.248600
C2311	C231	0.982700	0.732000	0.148700
C2321	C232	0.920280	0.718040	0.203700
C2331	C233	0.895500	0.705400	0.158260
H1591	H159	0.866900	0.693400	0.167400
H1601	H160	0.891400	0.731200	0.137600
H1611	H161	0.912100	0.683200	0.140200
C2341	C234	0.093760	0.315220	0.339970
H1621	H162	0.080500	0.302000	0.369100
H1631	H163	0.124700	0.307100	0.338300
H1641	H164	0.091100	0.347100	0.341900
C2351	C235	0.070550	0.298950	0.294950
C2361	C236	0.084700	0.313660	0.249180
H1651	H165	0.105800	0.336500	0.249000
C2371	C237	0.002600	0.725700	0.899600
C2381	C238	0.071050	0.298350	0.204260
C2391	C239	0.093930	0.313110	0.158340
H1661	H166	0.117000	0.334100	0.166800
H1671	H167	0.106900	0.287800	0.141900
H1681	H168	0.072800	0.327100	0.136400
C2401	C240	0.025000	0.252000	0.349600
O311	O31	0.020210	0.710610	0.949130
O321	O32	0.021110	0.710920	0.050040
Nb731	Nb73	0.240100	0.709460	0.943540
Nb741	Nb74	0.240120	0.708870	0.050700
Nb751	Nb75	0.182780	0.769310	0.997490
Nb761	Nb76	0.259160	0.803000	0.944120
Nb771	Nb77	0.259010	0.802610	0.051300
Nb781	Nb78	0.316330	0.742570	0.997460
Cl1451	Cl145	0.160280	0.717090	0.934000
Cl1461	Cl146	0.249520	0.756620	0.871150
Cl1471	Cl147	0.227780	0.645390	0.996560
Cl1481	Cl148	0.316620	0.685310	0.933760
Cl1491	Cl149	0.160550	0.716230	0.060250
Cl1501	Cl150	0.249540	0.755390	0.123520
Cl1511	Cl151	0.316660	0.684490	0.060240
Cl1521	Cl152	0.182470	0.827400	0.934700
Cl1531	Cl153	0.182390	0.826660	0.060760
Cl1541	Cl154	0.271400	0.866300	0.997920
Cl1551	Cl155	0.339250	0.795710	0.934810
Cl1561	Cl156	0.338970	0.795330	0.060860
N1051	N105	0.217490	0.634380	0.854720
N1061	N106	0.220740	0.630460	0.136640
N1071	N107	0.070760	0.782510	0.998800
N1081	N108	0.281000	0.879850	0.856630
N1091	N109	0.277710	0.880580	0.137840
N1101	N110	0.427530	0.726290	0.998500
C2411	C241	0.227260	0.658910	0.884250
C2421	C242	0.228190	0.656620	0.108210
C2431	C243	0.108430	0.780890	0.997970
C2441	C244	0.271880	0.854570	0.885520
C2451	C245	0.269980	0.854380	0.109400
C2461	C246	0.390270	0.729830	0.997890
C2471	C247	0.495500	0.773100	0.100100
C2481	C248	0.469120	0.830550	0.044530
C2491	C249	0.458900	0.855900	0.089820
H1691	H169	0.465600	0.838000	0.118600
H1701	H170	0.476600	0.882600	0.090500
H1711	H171	0.427800	0.863700	0.090000
C2501	C250	0.461910	0.849220	0.998870
H1721	H172	0.451700	0.878500	0.998600
C2511	C251	0.482000	0.767300	0.898700
C2521	C252	0.468040	0.829720	0.953700
C2531	C253	0.455400	0.854500	0.908260
H1731	H173	0.443400	0.883100	0.917400
H1741	H174	0.481200	0.858600	0.887600
H1751	H175	0.433200	0.837900	0.890200
C2541	C254	0.065220	0.656240	0.089970
H1761	H176	0.052000	0.669500	0.119100
H1771	H177	0.057100	0.625300	0.088300
H1781	H178	0.097100	0.658900	0.091900
C2551	C255	0.048950	0.679450	0.044950
C2561	C256	0.063660	0.665300	0.999180
H1791	H179	0.086500	0.644200	0.999000
C2571	C257	0.475700	0.747400	0.649600
C2581	C258	0.048350	0.678950	0.954260
C2591	C259	0.063110	0.656070	0.908340
H1801	H180	0.084100	0.633000	0.916800
H1811	H181	0.037800	0.643100	0.891900
H1821	H182	0.077100	0.677200	0.886400
C2601	C260	0.002000	0.725000	0.099600
Nb791	Nb79	0.740100	0.209460	0.443540
Nb801	Nb80	0.740120	0.208870	0.550700
Nb811	Nb81	0.682780	0.269310	0.497490
Nb821	Nb82	0.759160	0.303000	0.444120
Nb831	Nb83	0.759010	0.302610	0.551300
Nb841	Nb84	0.816330	0.242570	0.497460
Cl1571	Cl157	0.660280	0.217090	0.434000
Cl1581	Cl158	0.749520	0.256620	0.371150
Cl1591	Cl159	0.727780	0.145390	0.496560
Cl1601	Cl160	0.816620	0.185310	0.433760
Cl1611	Cl161	0.660550	0.216230	0.560250
Cl1621	Cl162	0.749540	0.255390	0.623520
Cl1631	Cl163	0.816660	0.184490	0.560240
Cl1641	Cl164	0.682470	0.327400	0.434700
Cl1651	Cl165	0.682390	0.326660	0.560760
Cl1661	Cl166	0.771400	0.366300	0.497920
Cl1671	Cl167	0.839250	0.295710	0.434810
Cl1681	Cl168	0.838970	0.295330	0.560860
N1111	N111	0.717490	0.134380	0.354720
N1121	N112	0.720740	0.130460	0.636640
N1131	N113	0.570760	0.282510	0.498800
N1141	N114	0.781000	0.379850	0.356630
N1151	N115	0.777710	0.380580	0.637840
N1161	N116	0.927530	0.226290	0.498500
C2611	C261	0.727260	0.158910	0.384250
C2621	C262	0.728190	0.156620	0.608210
C2631	C263	0.608430	0.280890	0.497970
C2641	C264	0.771880	0.354570	0.385520
C2651	C265	0.769980	0.354380	0.609400
C2661	C266	0.890270	0.229830	0.497890
C2671	C267	0.995500	0.273100	0.600100
C2681	C268	0.969120	0.330550	0.544530
C2691	C269	0.958900	0.355900	0.589820
H1831	H183	0.965600	0.338000	0.618600
H1841	H184	0.976600	0.382600	0.590500
H1851	H185	0.927800	0.363700	0.590000
C2701	C270	0.961910	0.349220	0.498870
H1861	H186	0.951700	0.378500	0.498600
C2711	C271	0.982000	0.267300	0.398700
C2721	C272	0.968040	0.329720	0.453700
C2731	C273	0.955400	0.354500	0.408260
H1871	H187	0.943400	0.383100	0.417400
H1881	H188	0.981200	0.358600	0.387600
H1891	H189	0.933200	0.337900	0.390200
C2741	C274	0.565220	0.156240	0.589970
H1901	H190	0.552000	0.169500	0.619100
H1911	H191	0.557100	0.125300	0.588300
H1921	H192	0.597100	0.158900	0.591900
C2751	C275	0.548950	0.179450	0.544950
C2761	C276	0.563660	0.165300	0.499180
H1931	H193	0.586500	0.144200	0.499000
C2771	C277	0.975700	0.247400	0.149600
C2781	C278	0.548350	0.178950	0.454260
C2791	C279	0.563110	0.156070	0.408340
H1941	H194	0.584100	0.133000	0.416800
H1951	H195	0.537800	0.143100	0.391900
H1961	H196	0.577100	0.177200	0.386400
C2801	C280	0.502000	0.225000	0.599600
Nb851	Nb85	0.259900	0.290540	0.443540
Nb861	Nb86	0.259880	0.291130	0.550700
Nb871	Nb87	0.317220	0.230690	0.497490
Nb881	Nb88	0.240840	0.197000	0.444120
Nb891	Nb89	0.240990	0.197390	0.551300
Nb901	Nb90	0.183670	0.257430	0.497460
Cl1691	Cl169	0.339720	0.282910	0.434000
Cl1701	Cl170	0.250480	0.243380	0.371150
Cl1711	Cl171	0.272220	0.354610	0.496560
Cl1721	Cl172	0.183380	0.314690	0.433760
Cl1731	Cl173	0.339450	0.283770	0.560250
Cl1741	Cl174	0.250460	0.244610	0.623520
Cl1751	Cl175	0.183340	0.315510	0.560240
Cl1761	Cl176	0.317530	0.172600	0.434700
Cl1771	Cl177	0.317610	0.173340	0.560760
Cl1781	Cl178	0.228600	0.133700	0.497920
Cl1791	Cl179	0.160750	0.204290	0.434810
Cl1801	Cl180	0.161030	0.204670	0.560860
N1171	N117	0.282510	0.365620	0.354720
N1181	N118	0.279260	0.369540	0.636640
N1191	N119	0.429240	0.217490	0.498800
N1201	N120	0.219000	0.120150	0.356630
N1211	N121	0.222290	0.119420	0.637840
N1221	N122	0.072470	0.273710	0.498500
C2811	C281	0.272740	0.341090	0.384250
C2821	C282	0.271810	0.343380	0.608210
C2831	C283	0.391570	0.219110	0.497970
C2841	C284	0.228120	0.145430	0.385520
C2851	C285	0.230020	0.145620	0.609400
C2861	C286	0.109730	0.270170	0.497890
C2871	C287	0.004500	0.226900	0.600100
C2881	C288	0.030880	0.169450	0.544530
C2891	C289	0.041100	0.144100	0.589820
H1971	H197	0.034400	0.162000	0.618600
H1981	H198	0.023400	0.117400	0.590500
H1991	H199	0.072200	0.136300	0.590000
C2901	C290	0.038090	0.150780	0.498870
H2001	H200	0.048300	0.121500	0.498600
C2911	C291	0.018000	0.232700	0.398700
C2921	C292	0.031960	0.170280	0.453700
C2931	C293	0.044600	0.145500	0.408260
H2011	H201	0.056600	0.116900	0.417400
H2021	H202	0.018800	0.141400	0.387600
H2031	H203	0.066800	0.162100	0.390200
C2941	C294	0.434780	0.343760	0.589970
H2041	H204	0.448000	0.330500	0.619100
H2051	H205	0.442900	0.374700	0.588300
H2061	H206	0.402900	0.341100	0.591900
C2951	C295	0.451050	0.320550	0.544950
C2961	C296	0.436340	0.334700	0.499180
H2071	H207	0.413500	0.355800	0.499000
C2971	C297	0.024300	0.252600	0.149600
C2981	C298	0.451650	0.321050	0.454260
C2991	C299	0.436890	0.343930	0.408340
H2081	H208	0.415900	0.367000	0.416800
H2091	H209	0.462200	0.356900	0.391900
H2101	H210	0.422900	0.322800	0.386400
C3001	C300	0.498000	0.275000	0.599600
Nb911	Nb91	0.759900	0.790540	0.943540
Nb921	Nb92	0.759880	0.791130	0.050700
Nb931	Nb93	0.817220	0.730690	0.997490
Nb941	Nb94	0.740840	0.697000	0.944120
Nb951	Nb95	0.740990	0.697390	0.051300
Nb961	Nb96	0.683670	0.757430	0.997460
Cl1811	Cl181	0.839720	0.782910	0.934000
Cl1821	Cl182	0.750480	0.743380	0.871150
Cl1831	Cl183	0.772220	0.854610	0.996560
Cl1841	Cl184	0.683380	0.814690	0.933760
Cl1851	Cl185	0.839450	0.783770	0.060250
Cl1861	Cl186	0.750460	0.744610	0.123520
Cl1871	Cl187	0.683340	0.815510	0.060240
Cl1881	Cl188	0.817530	0.672600	0.934700
Cl1891	Cl189	0.817610	0.673340	0.060760
Cl1901	Cl190	0.728600	0.633700	0.997920
Cl1911	Cl191	0.660750	0.704290	0.934810
Cl1921	Cl192	0.661030	0.704670	0.060860
N1231	N123	0.782510	0.865620	0.854720
N1241	N124	0.779260	0.869540	0.136640
N1251	N125	0.929240	0.717490	0.998800
N1261	N126	0.719000	0.620150	0.856630
N1271	N127	0.722290	0.619420	0.137840
N1281	N128	0.572470	0.773710	0.998500
C3011	C301	0.772740	0.841090	0.884250
C3021	C302	0.771810	0.843380	0.108210
C3031	C303	0.891570	0.719110	0.997970
C3041	C304	0.728120	0.645430	0.885520
C3051	C305	0.730020	0.645620	0.109400
C3061	C306	0.609730	0.770170	0.997890
C3071	C307	0.504500	0.726900	0.100100
C3081	C308	0.530880	0.669450	0.044530
C3091	C309	0.541100	0.644100	0.089820
H2111	H211	0.534400	0.662000	0.118600
H2121	H212	0.523400	0.617400	0.090500
H2131	H213	0.572200	0.636300	0.090000
C3101	C310	0.538090	0.650780	0.998870
H2141	H214	0.548300	0.621500	0.998600
C3111	C311	0.518000	0.732700	0.898700
C3121	C312	0.531960	0.670280	0.953700
C3131	C313	0.544600	0.645500	0.908260
H2151	H215	0.556600	0.616900	0.917400
H2161	H216	0.518800	0.641400	0.887600
H2171	H217	0.566800	0.662100	0.890200
C3141	C314	0.934780	0.843760	0.089970
H2181	H218	0.948000	0.830500	0.119100
H2191	H219	0.942900	0.874700	0.088300
H2201	H220	0.902900	0.841100	0.091900
C3151	C315	0.951050	0.820550	0.044950
C3161	C316	0.936340	0.834700	0.999180
H2211	H221	0.913500	0.855800	0.999000
C3171	C317	0.524300	0.752600	0.649600
C3181	C318	0.951650	0.821050	0.954260
C3191	C319	0.936890	0.843930	0.908340
H2221	H222	0.915900	0.867000	0.916800
H2231	H223	0.962200	0.856900	0.891900
H2241	H224	0.922900	0.822800	0.886400
C3201	C320	0.998000	0.775000	0.099600
Mn11	Mn1	0.000000	0.250000	0.750680
Mn21	Mn2	0.500000	0.750000	0.250680
Mn31	Mn3	0.500000	0.250000	0.000680
Mn41	Mn4	0.000000	0.750000	0.500680
Mn51	Mn5	0.000000	0.750000	0.249320
Mn61	Mn6	0.500000	0.250000	0.749320
Mn71	Mn7	0.500000	0.750000	0.999320
Mn81	Mn8	0.000000	0.250000	0.499320
Mn91	Mn9	0.000000	0.750000	0.750400
Mn101	Mn10	0.500000	0.250000	0.250400
Mn111	Mn11	0.000000	0.250000	0.000400
Mn121	Mn12	0.500000	0.750000	0.500400
Mn131	Mn13	0.000000	0.250000	0.249600
Mn141	Mn14	0.500000	0.750000	0.749600
Mn151	Mn15	0.000000	0.750000	0.999600
Mn161	Mn16	0.500000	0.250000	0.499600
