data_ALUKOI_freeONLY_PM
_symmetry_space_group_name_H-M	'P1'
_cell_length_a	16.108600
_cell_length_b	16.108600
_cell_length_c	27.963200
_cell_angle_alpha	79.979900
_cell_angle_beta	79.979900
_cell_angle_gamma	63.018800
_symmetry_Int_Tables_number 1

loop_
_symmetry_equiv_pos_as_xyz
'x,y,z'

loop_
_atom_site_label
_atom_site_type_symbol
_atom_site_fract_x
_atom_site_fract_y
_atom_site_fract_z
Sm11	Sm1	0.531250	0.066570	0.046100
Sm21	Sm2	0.933430	0.468750	0.453900
Sm31	Sm3	0.468750	0.933430	0.953900
Sm41	Sm4	0.066570	0.531250	0.546100
H11	H1	0.633200	0.065000	0.202800
H21	H2	0.707600	0.106200	0.253700
H31	H3	0.840600	0.195000	0.133700
H41	H4	0.759900	0.160100	0.085500
H51	H5	0.325700	0.827100	0.090000
H61	H6	0.261200	0.767600	0.158300
H71	H7	0.367600	0.865000	0.242400
H81	H8	0.429100	0.933700	0.170700
H91	H9	0.823300	0.789100	0.056100
H101	H10	0.949700	0.646500	0.042800
H111	H11	0.806400	0.588000	0.961100
H121	H12	0.682000	0.732200	0.968900
H131	H13	0.305200	0.347400	0.109000
H141	H14	0.269400	0.329800	0.163800
H151	H15	0.252700	0.283700	0.123700
H161	H16	0.327400	0.162800	0.213800
H171	H17	0.431300	0.135700	0.221100
H181	H18	0.409000	0.072400	0.193700
H191	H19	0.490100	0.414100	0.043100
H201	H20	0.599200	0.357800	0.042600
H211	H21	0.533100	0.323100	0.079300
H221	H22	0.475600	0.344600	0.928300
H231	H23	0.463900	0.425900	0.956500
H241	H24	0.397800	0.376200	0.972400
H251	H25	0.935000	0.366800	0.297200
H261	H26	0.893800	0.292400	0.246300
H271	H27	0.805000	0.159400	0.366300
H281	H28	0.839900	0.240100	0.414500
H291	H29	0.172900	0.674300	0.410000
H301	H30	0.232400	0.738800	0.341700
H311	H31	0.135000	0.632400	0.257600
H321	H32	0.066300	0.570900	0.329300
H331	H33	0.210900	0.176700	0.443900
H341	H34	0.353500	0.050300	0.457200
H351	H35	0.412000	0.193600	0.538900
H361	H36	0.267800	0.318000	0.531100
H371	H37	0.652600	0.694800	0.391000
H381	H38	0.670200	0.730600	0.336200
H391	H39	0.716300	0.747300	0.376300
H401	H40	0.837200	0.672600	0.286200
H411	H41	0.864300	0.568700	0.278900
H421	H42	0.927600	0.591000	0.306300
H431	H43	0.585900	0.509900	0.456900
H441	H44	0.642200	0.400800	0.457400
H451	H45	0.676900	0.466900	0.420700
H461	H46	0.655400	0.524400	0.571700
H471	H47	0.574100	0.536100	0.543500
H481	H48	0.623800	0.602200	0.527600
H491	H49	0.366800	0.935000	0.797200
H501	H50	0.292400	0.893800	0.746300
H511	H51	0.159400	0.805000	0.866300
H521	H52	0.240100	0.839900	0.914500
H531	H53	0.674300	0.172900	0.910000
H541	H54	0.738800	0.232400	0.841700
H551	H55	0.632400	0.135000	0.757600
H561	H56	0.570900	0.066300	0.829300
H571	H57	0.176700	0.210900	0.943900
H581	H58	0.050300	0.353500	0.957200
H591	H59	0.193600	0.412000	0.038900
H601	H60	0.318000	0.267800	0.031100
H611	H61	0.694800	0.652600	0.891000
H621	H62	0.730600	0.670200	0.836200
H631	H63	0.747300	0.716300	0.876300
H641	H64	0.672600	0.837200	0.786200
H651	H65	0.568700	0.864300	0.778900
H661	H66	0.591000	0.927600	0.806300
H671	H67	0.509900	0.585900	0.956900
H681	H68	0.400800	0.642200	0.957400
H691	H69	0.466900	0.676900	0.920700
H701	H70	0.524400	0.655400	0.071700
H711	H71	0.536100	0.574100	0.043500
H721	H72	0.602200	0.623800	0.027600
H731	H73	0.065000	0.633200	0.702800
H741	H74	0.106200	0.707600	0.753700
H751	H75	0.195000	0.840600	0.633700
H761	H76	0.160100	0.759900	0.585500
H771	H77	0.827100	0.325700	0.590000
H781	H78	0.767600	0.261200	0.658300
H791	H79	0.865000	0.367600	0.742400
H801	H80	0.933700	0.429100	0.670700
H811	H81	0.789100	0.823300	0.556100
H821	H82	0.646500	0.949700	0.542800
H831	H83	0.588000	0.806400	0.461100
H841	H84	0.732200	0.682000	0.468900
H851	H85	0.347400	0.305200	0.609000
H861	H86	0.329800	0.269400	0.663800
H871	H87	0.283700	0.252700	0.623700
H881	H88	0.162800	0.327400	0.713800
H891	H89	0.135700	0.431300	0.721100
H901	H90	0.072400	0.409000	0.693700
H911	H91	0.414100	0.490100	0.543100
H921	H92	0.357800	0.599200	0.542600
H931	H93	0.323100	0.533100	0.579300
H941	H94	0.344600	0.475600	0.428300
H951	H95	0.425900	0.463900	0.456500
H961	H96	0.376200	0.397800	0.472400
C11	C1	0.645290	0.077090	0.109710
C21	C2	0.705400	0.092200	0.138850
C31	C3	0.677930	0.086530	0.189650
C41	C4	0.719930	0.114530	0.219910
C51	C5	0.779600	0.154200	0.199120
C61	C6	0.799580	0.168980	0.147470
C71	C7	0.755810	0.143010	0.119080
C81	C8	0.421130	0.923930	0.076980
C91	C9	0.381470	0.887070	0.122690
C101	C10	0.332980	0.836780	0.120570
C111	C11	0.294810	0.800210	0.161130
C121	C12	0.307070	0.812270	0.204930
C131	C13	0.358390	0.859790	0.211400
C141	C14	0.396100	0.900100	0.168370
C151	C15	0.665370	0.870170	0.018990
C161	C16	0.740740	0.776740	0.012530
C171	C17	0.820670	0.750070	0.036030
C181	C18	0.895200	0.664600	0.028600
C191	C19	0.889550	0.602150	0.998600
C201	C20	0.810840	0.629040	0.979000
C211	C21	0.735370	0.714970	0.983950
C221	C22	0.295320	0.302320	0.133680
C231	C23	0.391390	0.135590	0.199370
C241	C24	0.541080	0.352680	0.047070
C251	C25	0.460250	0.367250	0.959700
C261	C26	0.922910	0.354710	0.390290
C271	C27	0.907800	0.294600	0.361150
C281	C28	0.913470	0.322070	0.310350
C291	C29	0.885470	0.280070	0.280090
C301	C30	0.845800	0.220400	0.300880
C311	C31	0.831020	0.200420	0.352530
C321	C32	0.856990	0.244190	0.380920
C331	C33	0.076070	0.578870	0.423020
C341	C34	0.112930	0.618530	0.377310
C351	C35	0.163220	0.667020	0.379430
C361	C36	0.199790	0.705190	0.338870
C371	C37	0.187730	0.692930	0.295070
C381	C38	0.140210	0.641610	0.288600
C391	C39	0.099900	0.603900	0.331630
C401	C40	0.129830	0.334630	0.481010
C411	C41	0.223260	0.259260	0.487470
C421	C42	0.249930	0.179330	0.463970
C431	C43	0.335400	0.104800	0.471400
C441	C44	0.397850	0.110450	0.501400
C451	C45	0.370960	0.189160	0.521000
C461	C46	0.285030	0.264630	0.516050
C471	C47	0.697680	0.704680	0.366320
C481	C48	0.864410	0.608610	0.300630
C491	C49	0.647320	0.458920	0.452930
C501	C50	0.632750	0.539750	0.540300
C511	C51	0.354710	0.922910	0.890290
C521	C52	0.294600	0.907800	0.861150
C531	C53	0.322070	0.913470	0.810350
C541	C54	0.280070	0.885470	0.780090
C551	C55	0.220400	0.845800	0.800880
C561	C56	0.200420	0.831020	0.852530
C571	C57	0.244190	0.856990	0.880920
C581	C58	0.578870	0.076070	0.923020
C591	C59	0.618530	0.112930	0.877310
C601	C60	0.667020	0.163220	0.879430
C611	C61	0.705190	0.199790	0.838870
C621	C62	0.692930	0.187730	0.795070
C631	C63	0.641610	0.140210	0.788600
C641	C64	0.603900	0.099900	0.831630
C651	C65	0.334630	0.129830	0.981010
C661	C66	0.259260	0.223260	0.987470
C671	C67	0.179330	0.249930	0.963970
C681	C68	0.104800	0.335400	0.971400
C691	C69	0.110450	0.397850	0.001400
C701	C70	0.189160	0.370960	0.021000
C711	C71	0.264630	0.285030	0.016050
C721	C72	0.704680	0.697680	0.866320
C731	C73	0.608610	0.864410	0.800630
C741	C74	0.458920	0.647320	0.952930
C751	C75	0.539750	0.632750	0.040300
C761	C76	0.077090	0.645290	0.609710
C771	C77	0.092200	0.705400	0.638850
C781	C78	0.086530	0.677930	0.689650
C791	C79	0.114530	0.719930	0.719910
C801	C80	0.154200	0.779600	0.699120
C811	C81	0.168980	0.799580	0.647470
C821	C82	0.143010	0.755810	0.619080
C831	C83	0.923930	0.421130	0.576980
C841	C84	0.887070	0.381470	0.622690
C851	C85	0.836780	0.332980	0.620570
C861	C86	0.800210	0.294810	0.661130
C871	C87	0.812270	0.307070	0.704930
C881	C88	0.859790	0.358390	0.711400
C891	C89	0.900100	0.396100	0.668370
C901	C90	0.870170	0.665370	0.518990
C911	C91	0.776740	0.740740	0.512530
C921	C92	0.750070	0.820670	0.536030
C931	C93	0.664600	0.895200	0.528600
C941	C94	0.602150	0.889550	0.498600
C951	C95	0.629040	0.810840	0.479000
C961	C96	0.714970	0.735370	0.483950
C971	C97	0.302320	0.295320	0.633680
C981	C98	0.135590	0.391390	0.699370
C991	C99	0.352680	0.541080	0.547070
C1001	C100	0.367250	0.460250	0.459700
S11	S1	0.402950	0.203510	0.141930
S21	S2	0.543050	0.281710	0.001440
S31	S3	0.796490	0.597050	0.358070
S41	S4	0.718290	0.456950	0.498560
S51	S5	0.597050	0.796490	0.858070
S61	S6	0.456950	0.718290	0.998560
S71	S7	0.203510	0.402950	0.641930
S81	S8	0.281710	0.543050	0.501440
N11	N1	0.820010	0.191010	0.225200
N21	N2	0.275950	0.774350	0.249090
N31	N3	0.955780	0.515380	0.995020
N41	N4	0.808990	0.179990	0.274800
N51	N5	0.225650	0.724050	0.250910
N61	N6	0.484620	0.044220	0.504980
N71	N7	0.179990	0.808990	0.774800
N81	N8	0.724050	0.225650	0.750910
N91	N9	0.044220	0.484620	0.004980
N101	N10	0.191010	0.820010	0.725200
N111	N11	0.774350	0.275950	0.749090
N121	N12	0.515380	0.955780	0.495020
O11	O1	0.590470	0.042130	0.126010
O21	O2	0.656580	0.103540	0.063140
O31	O3	0.408140	0.914960	0.034980
O41	O4	0.469050	0.964010	0.086070
O51	O5	0.596990	0.896030	0.997140
O61	O6	0.675580	0.920660	0.046190
O71	O7	0.403900	0.149700	0.102560
O81	O8	0.487100	0.232020	0.026390
O91	O9	0.957870	0.409530	0.373990
O101	O10	0.896460	0.343420	0.436860
O111	O11	0.085040	0.591860	0.465020
O121	O12	0.035990	0.530950	0.413930
O131	O13	0.103970	0.403010	0.502860
O141	O14	0.079340	0.324420	0.453810
O151	O15	0.850300	0.596100	0.397440
O161	O16	0.767980	0.512900	0.473610
O171	O17	0.409530	0.957870	0.873990
O181	O18	0.343420	0.896460	0.936860
O191	O19	0.591860	0.085040	0.965020
O201	O20	0.530950	0.035990	0.913930
O211	O21	0.403010	0.103970	0.002860
O221	O22	0.324420	0.079340	0.953810
O231	O23	0.596100	0.850300	0.897440
O241	O24	0.512900	0.767980	0.973610
O251	O25	0.042130	0.590470	0.626010
O261	O26	0.103540	0.656580	0.563140
O271	O27	0.914960	0.408140	0.534980
O281	O28	0.964010	0.469050	0.586070
O291	O29	0.896030	0.596990	0.497140
O301	O30	0.920660	0.675580	0.546190
O311	O31	0.149700	0.403900	0.602560
O321	O32	0.232020	0.487100	0.526390
