data_ALUREF_freeONLY_PM
_symmetry_space_group_name_H-M	'P1'
_cell_length_a	11.395000
_cell_length_b	18.663000
_cell_length_c	24.329000
_cell_angle_alpha	90.000000
_cell_angle_beta	90.000000
_cell_angle_gamma	90.000000
_symmetry_Int_Tables_number 1

loop_
_symmetry_equiv_pos_as_xyz
'x,y,z'

loop_
_atom_site_label
_atom_site_type_symbol
_atom_site_fract_x
_atom_site_fract_y
_atom_site_fract_z
Co11	Co1	0.465440	0.699930	0.480740
Co21	Co2	0.465440	0.300070	0.519260
Co31	Co3	0.534560	0.800070	0.980740
Co41	Co4	0.534560	0.199930	0.019260
Co51	Co5	0.460640	0.500000	0.500000
Co61	Co6	0.539360	0.000000	0.000000
H11	H1	0.423700	0.524900	0.355500
H21	H2	0.633500	0.594700	0.319200
H31	H3	0.634800	0.533600	0.364400
H41	H4	0.595100	0.515800	0.303500
H51	H5	0.093200	0.609000	0.243000
H61	H6	0.129800	0.780900	0.145100
H71	H7	0.392100	0.724800	0.248000
H81	H8	0.764200	0.535500	0.224900
H91	H9	0.679200	0.539700	0.173400
H101	H10	0.815500	0.527700	0.164700
H111	H11	0.764100	0.647300	0.145700
H121	H12	0.692400	0.806700	0.156600
H131	H13	0.718000	0.890100	0.155900
H141	H14	0.670300	0.853200	0.210100
H151	H15	0.514800	0.913100	0.167800
H161	H16	0.874800	0.758800	0.550400
H171	H17	0.673500	0.754200	0.548500
H181	H18	0.678900	0.653800	0.408200
H191	H19	0.880400	0.658400	0.404100
H201	H20	0.056000	0.732000	0.399100
H211	H21	0.260100	0.730700	0.402400
H221	H22	0.251300	0.672600	0.555600
H231	H23	0.052500	0.681000	0.559100
H241	H24	0.502200	0.832200	0.413000
H251	H25	0.493600	0.954700	0.417500
H261	H26	0.407200	0.937200	0.575300
H271	H27	0.418700	0.814000	0.566800
H281	H28	0.253300	0.517000	0.420300
H291	H29	0.052400	0.516400	0.418700
H301	H30	0.871500	0.440700	0.430200
H311	H31	0.670500	0.441900	0.433100
H321	H32	0.453300	0.622600	0.274200
H331	H33	0.917700	0.640200	0.233900
H341	H34	0.493900	0.771800	0.185400
H351	H35	0.423700	0.475100	0.644500
H361	H36	0.633500	0.405300	0.680800
H371	H37	0.634800	0.466400	0.635600
H381	H38	0.595100	0.484200	0.696500
H391	H39	0.093200	0.391000	0.757000
H401	H40	0.129800	0.219100	0.854900
H411	H41	0.392100	0.275200	0.752000
H421	H42	0.764200	0.464500	0.775100
H431	H43	0.679200	0.460300	0.826600
H441	H44	0.815500	0.472300	0.835300
H451	H45	0.764100	0.352700	0.854300
H461	H46	0.692400	0.193300	0.843400
H471	H47	0.718000	0.109900	0.844100
H481	H48	0.670300	0.146800	0.789900
H491	H49	0.514800	0.086900	0.832200
H501	H50	0.874800	0.241200	0.449600
H511	H51	0.673500	0.245800	0.451500
H521	H52	0.678900	0.346200	0.591800
H531	H53	0.880400	0.341600	0.595900
H541	H54	0.056000	0.268000	0.600900
H551	H55	0.260100	0.269300	0.597600
H561	H56	0.251300	0.327400	0.444400
H571	H57	0.052500	0.319000	0.440900
H581	H58	0.502200	0.167800	0.587000
H591	H59	0.493600	0.045300	0.582500
H601	H60	0.407200	0.062800	0.424700
H611	H61	0.418700	0.186000	0.433200
H621	H62	0.253300	0.483000	0.579700
H631	H63	0.052400	0.483600	0.581300
H641	H64	0.871500	0.559300	0.569800
H651	H65	0.670500	0.558100	0.566900
H661	H66	0.453300	0.377400	0.725800
H671	H67	0.917700	0.359800	0.766100
H681	H68	0.493900	0.228200	0.814600
H691	H69	0.576300	0.975100	0.855500
H701	H70	0.366500	0.905300	0.819200
H711	H71	0.365200	0.966400	0.864400
H721	H72	0.404900	0.984200	0.803500
H731	H73	0.906800	0.891000	0.743000
H741	H74	0.870200	0.719100	0.645100
H751	H75	0.607900	0.775200	0.748000
H761	H76	0.235800	0.964500	0.724900
H771	H77	0.320800	0.960300	0.673400
H781	H78	0.184500	0.972300	0.664700
H791	H79	0.235900	0.852700	0.645700
H801	H80	0.307600	0.693300	0.656600
H811	H81	0.282000	0.609900	0.655900
H821	H82	0.329700	0.646800	0.710100
H831	H83	0.485200	0.586900	0.667800
H841	H84	0.125200	0.741200	0.050400
H851	H85	0.326500	0.745800	0.048500
H861	H86	0.321100	0.846200	0.908200
H871	H87	0.119600	0.841600	0.904100
H881	H88	0.944000	0.768000	0.899100
H891	H89	0.739900	0.769300	0.902400
H901	H90	0.748700	0.827400	0.055600
H911	H91	0.947500	0.819000	0.059100
H921	H92	0.497800	0.667800	0.913000
H931	H93	0.506400	0.545300	0.917500
H941	H94	0.592800	0.562800	0.075300
H951	H95	0.581300	0.686000	0.066800
H961	H96	0.746700	0.983000	0.920300
H971	H97	0.947600	0.983600	0.918700
H981	H98	0.128500	0.059300	0.930200
H991	H99	0.329500	0.058100	0.933100
H1001	H100	0.546700	0.877400	0.774200
H1011	H101	0.082300	0.859800	0.733900
H1021	H102	0.506100	0.728200	0.685400
H1031	H103	0.576300	0.024900	0.144500
H1041	H104	0.366500	0.094700	0.180800
H1051	H105	0.365200	0.033600	0.135600
H1061	H106	0.404900	0.015800	0.196500
H1071	H107	0.906800	0.109000	0.257000
H1081	H108	0.870200	0.280900	0.354900
H1091	H109	0.607900	0.224800	0.252000
H1101	H110	0.235800	0.035500	0.275100
H1111	H111	0.320800	0.039700	0.326600
H1121	H112	0.184500	0.027700	0.335300
H1131	H113	0.235900	0.147300	0.354300
H1141	H114	0.307600	0.306700	0.343400
H1151	H115	0.282000	0.390100	0.344100
H1161	H116	0.329700	0.353200	0.289900
H1171	H117	0.485200	0.413100	0.332200
H1181	H118	0.125200	0.258800	0.949600
H1191	H119	0.326500	0.254200	0.951500
H1201	H120	0.321100	0.153800	0.091800
H1211	H121	0.119600	0.158400	0.095900
H1221	H122	0.944000	0.232000	0.100900
H1231	H123	0.739900	0.230700	0.097600
H1241	H124	0.748700	0.172600	0.944400
H1251	H125	0.947500	0.181000	0.940900
H1261	H126	0.497800	0.332200	0.087000
H1271	H127	0.506400	0.454700	0.082500
H1281	H128	0.592800	0.437200	0.924700
H1291	H129	0.581300	0.314000	0.933200
H1301	H130	0.746700	0.017000	0.079700
H1311	H131	0.947600	0.016400	0.081300
H1321	H132	0.128500	0.940700	0.069800
H1331	H133	0.329500	0.941900	0.066900
H1341	H134	0.546700	0.122600	0.225800
H1351	H135	0.082300	0.140200	0.266100
H1361	H136	0.506100	0.271800	0.314600
C11	C1	0.463600	0.617500	0.397700
C21	C2	0.466300	0.569900	0.347400
C31	C3	0.594300	0.551800	0.332200
C41	C4	0.292600	0.612800	0.297800
C51	C5	0.248500	0.660000	0.252400
C61	C6	0.137900	0.648400	0.230900
C71	C7	0.093200	0.693800	0.192100
C81	C8	0.160400	0.750300	0.172200
C91	C9	0.274500	0.761700	0.192800
C101	C10	0.316900	0.717000	0.233300
C111	C11	0.972400	0.682500	0.167000
C121	C12	0.756800	0.551400	0.187100
C131	C13	0.775100	0.632100	0.184400
C141	C14	0.684400	0.672000	0.219600
C151	C15	0.346100	0.820600	0.169100
C161	C16	0.666900	0.853000	0.170300
C171	C17	0.540900	0.867100	0.151600
C181	C18	0.536300	0.873900	0.090100
C191	C19	0.836400	0.736700	0.520800
C201	C20	0.715400	0.733700	0.519200
C211	C21	0.719300	0.675800	0.437300
C221	C22	0.840200	0.677100	0.434600
C231	C23	0.900300	0.707100	0.478500
C241	C24	0.029900	0.707000	0.478400
C251	C25	0.094200	0.720900	0.432300
C261	C26	0.217600	0.718700	0.434200
C271	C27	0.211500	0.686200	0.523400
C281	C28	0.092100	0.689900	0.525900
C291	C29	0.482200	0.853600	0.446700
C301	C30	0.478200	0.927300	0.449100
C311	C31	0.451500	0.960400	0.497600
C321	C32	0.427800	0.916900	0.541300
C331	C33	0.433800	0.842700	0.535800
C341	C34	0.211800	0.509800	0.453200
C351	C35	0.091700	0.509800	0.452300
C361	C36	0.832600	0.464800	0.458800
C371	C37	0.712200	0.466100	0.460700
C381	C38	0.463600	0.382500	0.602300
C391	C39	0.466300	0.430100	0.652600
C401	C40	0.594300	0.448200	0.667800
C411	C41	0.292600	0.387200	0.702200
C421	C42	0.248500	0.340000	0.747600
C431	C43	0.137900	0.351600	0.769100
C441	C44	0.093200	0.306200	0.807900
C451	C45	0.160400	0.249700	0.827800
C461	C46	0.274500	0.238300	0.807200
C471	C47	0.316900	0.283000	0.766700
C481	C48	0.972400	0.317500	0.833000
C491	C49	0.756800	0.448600	0.812900
C501	C50	0.775100	0.367900	0.815600
C511	C51	0.684400	0.328000	0.780400
C521	C52	0.346100	0.179400	0.830900
C531	C53	0.666900	0.147000	0.829700
C541	C54	0.540900	0.132900	0.848400
C551	C55	0.536300	0.126100	0.909900
C561	C56	0.836400	0.263300	0.479200
C571	C57	0.715400	0.266300	0.480800
C581	C58	0.719300	0.324200	0.562700
C591	C59	0.840200	0.322900	0.565400
C601	C60	0.900300	0.292900	0.521500
C611	C61	0.029900	0.293000	0.521600
C621	C62	0.094200	0.279100	0.567700
C631	C63	0.217600	0.281300	0.565800
C641	C64	0.211500	0.313800	0.476600
C651	C65	0.092100	0.310100	0.474100
C661	C66	0.482200	0.146400	0.553300
C671	C67	0.478200	0.072700	0.550900
C681	C68	0.451500	0.039600	0.502400
C691	C69	0.427800	0.083100	0.458700
C701	C70	0.433800	0.157300	0.464200
C711	C71	0.211800	0.490200	0.546800
C721	C72	0.091700	0.490200	0.547700
C731	C73	0.832600	0.535200	0.541200
C741	C74	0.712200	0.533900	0.539300
C751	C75	0.536400	0.882500	0.897700
C761	C76	0.533700	0.930100	0.847400
C771	C77	0.405700	0.948200	0.832200
C781	C78	0.707400	0.887200	0.797800
C791	C79	0.751500	0.840000	0.752400
C801	C80	0.862100	0.851600	0.730900
C811	C81	0.906800	0.806200	0.692100
C821	C82	0.839600	0.749700	0.672200
C831	C83	0.725500	0.738300	0.692800
C841	C84	0.683100	0.783000	0.733300
C851	C85	0.027600	0.817500	0.667000
C861	C86	0.243200	0.948600	0.687100
C871	C87	0.224900	0.867900	0.684400
C881	C88	0.315600	0.828000	0.719600
C891	C89	0.653900	0.679400	0.669100
C901	C90	0.333100	0.647000	0.670300
C911	C91	0.459100	0.632900	0.651600
C921	C92	0.463700	0.626100	0.590100
C931	C93	0.163600	0.763300	0.020800
C941	C94	0.284600	0.766300	0.019200
C951	C95	0.280700	0.824200	0.937300
C961	C96	0.159800	0.822900	0.934600
C971	C97	0.099700	0.792900	0.978500
C981	C98	0.970100	0.793000	0.978400
C991	C99	0.905800	0.779100	0.932300
C1001	C100	0.782400	0.781300	0.934200
C1011	C101	0.788500	0.813800	0.023400
C1021	C102	0.907900	0.810100	0.025900
C1031	C103	0.517800	0.646400	0.946700
C1041	C104	0.521800	0.572700	0.949100
C1051	C105	0.548500	0.539600	0.997600
C1061	C106	0.572200	0.583100	0.041300
C1071	C107	0.566200	0.657300	0.035800
C1081	C108	0.788200	0.990200	0.953200
C1091	C109	0.908300	0.990200	0.952300
C1101	C110	0.167400	0.035200	0.958800
C1111	C111	0.287800	0.033900	0.960700
C1121	C112	0.536400	0.117500	0.102300
C1131	C113	0.533700	0.069900	0.152600
C1141	C114	0.405700	0.051800	0.167800
C1151	C115	0.707400	0.112800	0.202200
C1161	C116	0.751500	0.160000	0.247600
C1171	C117	0.862100	0.148400	0.269100
C1181	C118	0.906800	0.193800	0.307900
C1191	C119	0.839600	0.250300	0.327800
C1201	C120	0.725500	0.261700	0.307200
C1211	C121	0.683100	0.217000	0.266700
C1221	C122	0.027600	0.182500	0.333000
C1231	C123	0.243200	0.051400	0.312900
C1241	C124	0.224900	0.132100	0.315600
C1251	C125	0.315600	0.172000	0.280400
C1261	C126	0.653900	0.320600	0.330900
C1271	C127	0.333100	0.353000	0.329700
C1281	C128	0.459100	0.367100	0.348400
C1291	C129	0.463700	0.373900	0.409900
C1301	C130	0.163600	0.236700	0.979200
C1311	C131	0.284600	0.233700	0.980800
C1321	C132	0.280700	0.175800	0.062700
C1331	C133	0.159800	0.177100	0.065400
C1341	C134	0.099700	0.207100	0.021500
C1351	C135	0.970100	0.207000	0.021600
C1361	C136	0.905800	0.220900	0.067700
C1371	C137	0.782400	0.218700	0.065800
C1381	C138	0.788500	0.186200	0.976600
C1391	C139	0.907900	0.189900	0.974100
C1401	C140	0.517800	0.353600	0.053300
C1411	C141	0.521800	0.427300	0.050900
C1421	C142	0.548500	0.460400	0.002400
C1431	C143	0.572200	0.416900	0.958700
C1441	C144	0.566200	0.342700	0.964200
C1451	C145	0.788200	0.009800	0.046800
C1461	C146	0.908300	0.009800	0.047700
C1471	C147	0.167400	0.964800	0.041200
C1481	C148	0.287800	0.966100	0.039300
C1491	C149	0.027100	0.500000	0.500000
C1501	C150	0.897000	0.500000	0.500000
C1511	C151	0.972900	0.000000	0.000000
C1521	C152	0.103000	0.000000	0.000000
N11	N1	0.410000	0.605600	0.300700
N21	N2	0.895300	0.650600	0.200600
N31	N3	0.464700	0.811000	0.171800
N41	N4	0.654400	0.703600	0.478500
N51	N5	0.276400	0.700300	0.479200
N61	N6	0.459700	0.811100	0.489000
N71	N7	0.410000	0.394400	0.699300
N81	N8	0.895300	0.349400	0.799400
N91	N9	0.464700	0.189000	0.828200
N101	N10	0.654400	0.296400	0.521500
N111	N11	0.276400	0.299700	0.520800
N121	N12	0.459700	0.188900	0.511000
N131	N13	0.590000	0.894400	0.800700
N141	N14	0.104700	0.849400	0.700600
N151	N15	0.535300	0.689000	0.671800
N161	N16	0.345600	0.796400	0.978500
N171	N17	0.723600	0.799700	0.979200
N181	N18	0.540300	0.688900	0.989000
N191	N19	0.590000	0.105600	0.199300
N201	N20	0.104700	0.150600	0.299400
N211	N21	0.535300	0.311000	0.328200
N221	N22	0.345600	0.203600	0.021500
N231	N23	0.723600	0.200300	0.020800
N241	N24	0.540300	0.311100	0.011000
N251	N25	0.271700	0.500000	0.500000
N261	N26	0.650800	0.500000	0.500000
N271	N27	0.728300	0.000000	0.000000
N281	N28	0.349200	0.000000	0.000000
O11	O1	0.465100	0.590750	0.445550
O21	O2	0.462800	0.685250	0.392700
O31	O3	0.226000	0.585400	0.332500
O41	O4	0.719100	0.706900	0.260500
O51	O5	0.578100	0.664700	0.204800
O61	O6	0.948600	0.701700	0.121500
O71	O7	0.526800	0.817130	0.062620
O81	O8	0.546400	0.935680	0.069760
O91	O9	0.303300	0.873700	0.148000
O101	O10	0.465100	0.409250	0.554450
O111	O11	0.462800	0.314750	0.607300
O121	O12	0.226000	0.414600	0.667500
O131	O13	0.719100	0.293100	0.739500
O141	O14	0.578100	0.335300	0.795200
O151	O15	0.948600	0.298300	0.878500
O161	O16	0.526800	0.182870	0.937380
O171	O17	0.546400	0.064320	0.930240
O181	O18	0.303300	0.126300	0.852000
O191	O19	0.534900	0.909250	0.945550
O201	O20	0.537200	0.814750	0.892700
O211	O21	0.774000	0.914600	0.832500
O221	O22	0.280900	0.793100	0.760500
O231	O23	0.421900	0.835300	0.704800
O241	O24	0.051400	0.798300	0.621500
O251	O25	0.473200	0.682870	0.562620
O261	O26	0.453600	0.564320	0.569760
O271	O27	0.696700	0.626300	0.648000
O281	O28	0.534900	0.090750	0.054450
O291	O29	0.537200	0.185250	0.107300
O301	O30	0.774000	0.085400	0.167500
O311	O31	0.280900	0.206900	0.239500
O321	O32	0.421900	0.164700	0.295200
O331	O33	0.051400	0.201700	0.378500
O341	O34	0.473200	0.317130	0.437380
O351	O35	0.453600	0.435680	0.430240
O361	O36	0.696700	0.373700	0.352000
