data_AMAGAX_freeONLY_PM
_symmetry_space_group_name_H-M	'P1'
_cell_length_a	7.717990
_cell_length_b	25.286900
_cell_length_c	25.286900
_cell_angle_alpha	61.022000
_cell_angle_beta	84.160700
_cell_angle_gamma	95.839300
_symmetry_Int_Tables_number 1

loop_
_symmetry_equiv_pos_as_xyz
'x,y,z'

loop_
_atom_site_label
_atom_site_type_symbol
_atom_site_fract_x
_atom_site_fract_y
_atom_site_fract_z
Cu11	Cu1	0.746730	0.747460	0.005820
Cu21	Cu2	0.251070	0.500830	0.256530
Cu31	Cu3	0.752550	0.005820	0.246720
Cu41	Cu4	0.507600	0.256530	0.242640
Cu51	Cu5	0.999270	0.246720	0.747460
Cu61	Cu6	0.750240	0.242640	0.500830
Cu71	Cu7	0.253270	0.252540	0.994180
Cu81	Cu8	0.748930	0.499170	0.743470
Cu91	Cu9	0.247450	0.994180	0.753280
Cu101	Cu10	0.492400	0.743470	0.757360
Cu111	Cu11	0.000730	0.753280	0.252540
Cu121	Cu12	0.249760	0.757360	0.499170
H11	H1	0.985200	0.677600	0.082900
H21	H2	0.478600	0.630100	0.090300
H31	H3	0.729100	0.508700	0.204400
H41	H4	0.512900	0.314500	0.425100
H51	H5	0.010100	0.362300	0.426700
H61	H6	0.765800	0.487300	0.313500
H71	H7	0.220000	0.794200	0.013800
H81	H8	0.852000	0.788500	0.135300
H91	H9	0.309300	0.746800	0.183300
H101	H10	0.177600	0.744300	0.830100
H111	H11	0.641500	0.707600	0.875000
H121	H12	0.273600	0.700000	0.997600
H131	H13	0.068100	0.082900	0.239500
H141	H14	0.568900	0.090300	0.279600
H151	H15	0.933500	0.204400	0.286900
H161	H16	0.938000	0.425100	0.260400
H171	H17	0.436800	0.426700	0.211000
H181	H18	0.079300	0.313500	0.199200
H191	H19	0.233800	0.013800	0.192000
H201	H20	0.987300	0.135300	0.076200
H211	H21	0.492600	0.183300	0.069900
H221	H22	0.007700	0.830100	0.425600
H231	H23	0.516500	0.875000	0.417400
H241	H24	0.271200	0.997600	0.302400
H251	H25	0.307600	0.239500	0.677600
H261	H26	0.848500	0.279600	0.630100
H271	H27	0.220400	0.286900	0.508700
H281	H28	0.198400	0.260400	0.314500
H291	H29	0.647800	0.211000	0.362300
H301	H30	0.278500	0.199200	0.487300
H311	H31	0.425800	0.192000	0.794200
H321	H32	0.063500	0.076200	0.788500
H331	H33	0.562500	0.069900	0.746800
H341	H34	0.433300	0.425600	0.744300
H351	H35	0.933900	0.417400	0.707600
H361	H36	0.573600	0.302400	0.700000
H371	H37	0.014800	0.322400	0.917100
H381	H38	0.521400	0.369900	0.909700
H391	H39	0.270900	0.491300	0.795600
H401	H40	0.487100	0.685500	0.574900
H411	H41	0.989900	0.637700	0.573300
H421	H42	0.234200	0.512700	0.686500
H431	H43	0.780000	0.205800	0.986200
H441	H44	0.148000	0.211500	0.864700
H451	H45	0.690700	0.253200	0.816700
H461	H46	0.822400	0.255700	0.169900
H471	H47	0.358500	0.292400	0.125000
H481	H48	0.726400	0.300000	0.002400
H491	H49	0.931900	0.917100	0.760500
H501	H50	0.431100	0.909700	0.720400
H511	H51	0.066500	0.795600	0.713100
H521	H52	0.062000	0.574900	0.739600
H531	H53	0.563200	0.573300	0.789000
H541	H54	0.920700	0.686500	0.800800
H551	H55	0.766200	0.986200	0.808000
H561	H56	0.012700	0.864700	0.923800
H571	H57	0.507400	0.816700	0.930100
H581	H58	0.992300	0.169900	0.574400
H591	H59	0.483500	0.125000	0.582600
H601	H60	0.728800	0.002400	0.697600
H611	H61	0.692400	0.760500	0.322400
H621	H62	0.151500	0.720400	0.369900
H631	H63	0.779600	0.713100	0.491300
H641	H64	0.801600	0.739600	0.685500
H651	H65	0.352200	0.789000	0.637700
H661	H66	0.721500	0.800800	0.512700
H671	H67	0.574200	0.808000	0.205800
H681	H68	0.936500	0.923800	0.211500
H691	H69	0.437500	0.930100	0.253200
H701	H70	0.566700	0.574400	0.255700
H711	H71	0.066100	0.582600	0.292400
H721	H72	0.426400	0.697600	0.300000
C11	C1	0.056250	0.579390	0.173540
C21	C2	0.883660	0.591980	0.149200
C31	C3	0.879640	0.648040	0.100920
C41	C4	0.584900	0.619400	0.105400
C51	C5	0.728120	0.549220	0.172560
C61	C6	0.440000	0.416400	0.339500
C71	C7	0.610800	0.403500	0.363500
C81	C8	0.616400	0.345000	0.409400
C91	C9	0.906000	0.373600	0.410100
C101	C10	0.765900	0.446100	0.344000
C111	C11	0.476900	0.754800	0.083600
C121	C12	0.293300	0.766700	0.095800
C131	C13	0.179500	0.785700	0.054500
C141	C14	0.968000	0.783300	0.124400
C151	C15	0.233700	0.758400	0.153500
C161	C16	0.014500	0.737800	0.928600
C171	C17	0.197400	0.725700	0.915900
C181	C18	0.255700	0.733600	0.859000
C191	C19	0.524100	0.711400	0.886300
C201	C20	0.312800	0.707900	0.957200
C211	C21	0.229790	0.173540	0.247070
C221	C22	0.032860	0.149200	0.258820
C231	C23	0.980560	0.100920	0.251040
C241	C24	0.690300	0.105400	0.275200
C251	C25	0.900680	0.172560	0.278220
C261	C26	0.779500	0.339500	0.244100
C271	C27	0.974300	0.363500	0.233000
C281	C28	0.025800	0.409400	0.245600
C291	C29	0.316100	0.410100	0.216300
C301	C30	0.109900	0.344000	0.209900
C311	C31	0.560500	0.083600	0.161600
C321	C32	0.389100	0.095800	0.137500
C331	C33	0.234000	0.054500	0.159800
C341	C34	0.092400	0.124400	0.092300
C351	C35	0.387200	0.153500	0.088100
C361	C36	0.943100	0.928600	0.333600
C371	C37	0.113300	0.915900	0.358400
C381	C38	0.114700	0.859000	0.407400
C391	C39	0.410400	0.886300	0.402300
C401	C40	0.270000	0.957200	0.334900
C411	C41	0.476860	0.247070	0.579390
C421	C42	0.291680	0.258820	0.591980
C431	C43	0.231600	0.251040	0.648040
C441	C44	0.965500	0.275200	0.619400
C451	C45	0.178900	0.278220	0.549220
C461	C46	0.023600	0.244100	0.416400
C471	C47	0.207300	0.233000	0.403500
C481	C48	0.271400	0.245600	0.345000
C491	C49	0.532400	0.216300	0.373600
C501	C50	0.319800	0.209900	0.446100
C511	C51	0.722100	0.161600	0.754800
C521	C52	0.526600	0.137500	0.766700
C531	C53	0.393800	0.159800	0.785700
C541	C54	0.184700	0.092300	0.783300
C551	C55	0.475300	0.088100	0.758400
C561	C56	0.276700	0.333600	0.737800
C571	C57	0.471700	0.358400	0.725700
C581	C58	0.522100	0.407400	0.733600
C591	C59	0.812700	0.402300	0.711400
C601	C60	0.604900	0.334900	0.707900
C611	C61	0.943750	0.420610	0.826460
C621	C62	0.116340	0.408020	0.850800
C631	C63	0.120360	0.351960	0.899080
C641	C64	0.415100	0.380600	0.894600
C651	C65	0.271880	0.450780	0.827440
C661	C66	0.560000	0.583600	0.660500
C671	C67	0.389200	0.596500	0.636500
C681	C68	0.383600	0.655000	0.590600
C691	C69	0.094000	0.626400	0.589900
C701	C70	0.234100	0.553900	0.656000
C711	C71	0.523100	0.245200	0.916400
C721	C72	0.706700	0.233300	0.904200
C731	C73	0.820500	0.214300	0.945500
C741	C74	0.032000	0.216700	0.875600
C751	C75	0.766300	0.241600	0.846500
C761	C76	0.985500	0.262200	0.071400
C771	C77	0.802600	0.274300	0.084100
C781	C78	0.744300	0.266400	0.141000
C791	C79	0.475900	0.288600	0.113700
C801	C80	0.687200	0.292100	0.042800
C811	C81	0.770210	0.826460	0.752930
C821	C82	0.967140	0.850800	0.741180
C831	C83	0.019440	0.899080	0.748960
C841	C84	0.309700	0.894600	0.724800
C851	C85	0.099320	0.827440	0.721780
C861	C86	0.220500	0.660500	0.755900
C871	C87	0.025700	0.636500	0.767000
C881	C88	0.974200	0.590600	0.754400
C891	C89	0.683900	0.589900	0.783700
C901	C90	0.890100	0.656000	0.790100
C911	C91	0.439500	0.916400	0.838400
C921	C92	0.610900	0.904200	0.862500
C931	C93	0.766000	0.945500	0.840200
C941	C94	0.907600	0.875600	0.907700
C951	C95	0.612800	0.846500	0.911900
C961	C96	0.056900	0.071400	0.666400
C971	C97	0.886700	0.084100	0.641600
C981	C98	0.885300	0.141000	0.592600
C991	C99	0.589600	0.113700	0.597700
C1001	C100	0.730000	0.042800	0.665100
C1011	C101	0.523140	0.752930	0.420610
C1021	C102	0.708320	0.741180	0.408020
C1031	C103	0.768400	0.748960	0.351960
C1041	C104	0.034500	0.724800	0.380600
C1051	C105	0.821100	0.721780	0.450780
C1061	C106	0.976400	0.755900	0.583600
C1071	C107	0.792700	0.767000	0.596500
C1081	C108	0.728600	0.754400	0.655000
C1091	C109	0.467600	0.783700	0.626400
C1101	C110	0.680200	0.790100	0.553900
C1111	C111	0.277900	0.838400	0.245200
C1121	C112	0.473400	0.862500	0.233300
C1131	C113	0.606200	0.840200	0.214300
C1141	C114	0.815300	0.907700	0.216700
C1151	C115	0.524700	0.911900	0.241600
C1161	C116	0.723300	0.666400	0.262200
C1171	C117	0.528300	0.641600	0.274300
C1181	C118	0.477900	0.592600	0.266400
C1191	C119	0.187300	0.597700	0.288600
C1201	C120	0.395100	0.665100	0.292100
N11	N1	0.731080	0.663010	0.077670
N21	N2	0.574710	0.563350	0.151320
N31	N3	0.764830	0.329780	0.432790
N41	N4	0.917270	0.431340	0.366530
N51	N5	0.069030	0.766730	0.167440
N61	N6	0.012100	0.793500	0.068000
N71	N7	0.419910	0.726550	0.842920
N81	N8	0.479700	0.701300	0.942500
N91	N9	0.808750	0.077670	0.259320
N101	N10	0.726030	0.151320	0.285330
N111	N11	0.197620	0.432790	0.237430
N121	N12	0.283800	0.366530	0.202130
N131	N13	0.236470	0.167440	0.065830
N141	N14	0.080100	0.068000	0.138500
N151	N15	0.262830	0.842920	0.430530
N161	N16	0.422200	0.942500	0.356200
N171	N17	0.068070	0.259320	0.663010
N181	N18	0.011360	0.285330	0.563350
N191	N19	0.435050	0.237430	0.329780
N201	N20	0.485930	0.202130	0.431340
N211	N21	0.302300	0.065830	0.766730
N221	N22	0.218600	0.138500	0.793500
N231	N23	0.693360	0.430530	0.726550
N241	N24	0.778400	0.356200	0.701300
N251	N25	0.268920	0.336990	0.922330
N261	N26	0.425290	0.436650	0.848680
N271	N27	0.235170	0.670220	0.567210
N281	N28	0.082730	0.568660	0.633470
N291	N29	0.930970	0.233270	0.832560
N301	N30	0.987900	0.206500	0.932000
N311	N31	0.580090	0.273450	0.157080
N321	N32	0.520300	0.298700	0.057500
N331	N33	0.191250	0.922330	0.740680
N341	N34	0.273970	0.848680	0.714670
N351	N35	0.802380	0.567210	0.762570
N361	N36	0.716200	0.633470	0.797870
N371	N37	0.763530	0.832560	0.934170
N381	N38	0.919900	0.932000	0.861500
N391	N39	0.737170	0.157080	0.569470
N401	N40	0.577800	0.057500	0.643800
N411	N41	0.931930	0.740680	0.336990
N421	N42	0.988640	0.714670	0.436650
N431	N43	0.564950	0.762570	0.670220
N441	N44	0.514070	0.797870	0.568660
N451	N45	0.697700	0.934170	0.233270
N461	N46	0.781400	0.861500	0.206500
N471	N47	0.306640	0.569470	0.273450
N481	N48	0.221600	0.643800	0.298700
O11	O1	0.039320	0.528910	0.225450
O21	O2	0.190440	0.616050	0.143930
O31	O3	0.455970	0.470280	0.291770
O41	O4	0.306800	0.378000	0.365900
O51	O5	0.509230	0.753570	0.033980
O61	O6	0.575340	0.747070	0.120750
O71	O7	0.983840	0.741100	0.977380
O81	O8	0.911580	0.742610	0.892970
O91	O9	0.264770	0.225450	0.245640
O101	O10	0.334370	0.143930	0.240020
O111	O11	0.747740	0.291770	0.237950
O121	O12	0.672700	0.365900	0.256100
O131	O13	0.543210	0.033980	0.212450
O141	O14	0.696090	0.120750	0.132180
O151	O15	0.961220	0.977380	0.281520
O161	O16	0.804550	0.892970	0.364420
O171	O17	0.510410	0.245640	0.528910
O181	O18	0.574390	0.240020	0.616050
O191	O19	0.985690	0.237950	0.470280
O201	O20	0.928800	0.256100	0.378000
O211	O21	0.755660	0.212450	0.753570
O221	O22	0.828270	0.132180	0.747070
O231	O23	0.242740	0.281520	0.741100
O241	O24	0.168970	0.364420	0.742610
O251	O25	0.960680	0.471090	0.774550
O261	O26	0.809560	0.383950	0.856070
O271	O27	0.544030	0.529720	0.708230
O281	O28	0.693200	0.622000	0.634100
O291	O29	0.490770	0.246430	0.966020
O301	O30	0.424660	0.252930	0.879250
O311	O31	0.016160	0.258900	0.022620
O321	O32	0.088420	0.257390	0.107030
O331	O33	0.735230	0.774550	0.754360
O341	O34	0.665630	0.856070	0.759980
O351	O35	0.252260	0.708230	0.762050
O361	O36	0.327300	0.634100	0.743900
O371	O37	0.456790	0.966020	0.787550
O381	O38	0.303910	0.879250	0.867820
O391	O39	0.038780	0.022620	0.718480
O401	O40	0.195450	0.107030	0.635580
O411	O41	0.489590	0.754360	0.471090
O421	O42	0.425610	0.759980	0.383950
O431	O43	0.014310	0.762050	0.529720
O441	O44	0.071200	0.743900	0.622000
O451	O45	0.244340	0.787550	0.246430
O461	O46	0.171730	0.867820	0.252930
O471	O47	0.757260	0.718480	0.258900
O481	O48	0.831030	0.635580	0.257390
