data_AMUPOP_freeONLY_PM
_symmetry_space_group_name_H-M	'P1'
_cell_length_a	25.801000
_cell_length_b	16.784400
_cell_length_c	18.952200
_cell_angle_alpha	90.000000
_cell_angle_beta	128.764000
_cell_angle_gamma	90.000000
_symmetry_Int_Tables_number 1

loop_
_symmetry_equiv_pos_as_xyz
'x,y,z'

loop_
_atom_site_label
_atom_site_type_symbol
_atom_site_fract_x
_atom_site_fract_y
_atom_site_fract_z
Zn11	Zn1	0.268110	0.990280	0.292530
O11	O1	0.148020	0.081220	0.212640
O21	O2	0.177370	0.968450	0.186040
O31	O3	0.020940	0.915610	0.176150
O41	O4	0.087210	0.838660	0.293250
C11	C1	0.085620	0.822080	0.168030
C21	C2	0.037660	0.930650	0.046260
N11	N1	0.276640	0.956990	0.402690
C31	C3	0.064540	0.006290	0.082350
C41	C4	0.073010	0.853400	0.089680
N21	N2	0.079650	0.024460	0.351000
N31	N3	0.254860	0.905410	0.487970
C51	C5	0.063680	0.861060	0.217060
C61	C6	0.974050	0.926830	0.964500
H11	H1	0.956200	0.876900	0.939600
C71	C7	0.134580	0.020470	0.167410
N41	N4	0.174170	0.088770	0.435800
C81	C8	0.117710	0.749100	0.201340
H21	H2	0.126800	0.729300	0.253900
C91	C9	0.106700	0.015200	0.439500
H31	H3	0.088000	0.985900	0.460200
N51	N5	0.316990	0.907440	0.274420
C101	C10	0.253670	0.771600	0.538000
H41	H4	0.233400	0.739500	0.557500
H51	H5	0.300600	0.776300	0.588800
C111	C11	0.223000	0.853400	0.513600
H61	H6	0.175800	0.849500	0.463500
H71	H7	0.228400	0.876300	0.564800
C121	C12	0.121810	0.069500	0.351500
H81	H8	0.115800	0.085700	0.299900
C131	C13	0.233760	0.915380	0.403400
H91	H9	0.193900	0.895400	0.351800
C141	C14	0.221880	0.223000	0.486300
H101	H10	0.180300	0.246100	0.435100
H111	H11	0.220200	0.218900	0.536000
C151	C15	0.372910	0.917400	0.286800
H121	H12	0.392100	0.966700	0.293900
C161	C16	0.314910	0.942900	0.544700
H131	H13	0.341600	0.945600	0.607500
C171	C17	0.328070	0.974900	0.492500
H141	H14	0.365700	0.004400	0.513300
N61	N6	0.398480	0.847800	0.287900
C181	C18	0.228800	0.140500	0.461300
H151	H15	0.229900	0.144300	0.411100
H161	H16	0.270500	0.117300	0.512300
C191	C19	0.355700	0.788400	0.272000
H171	H17	0.359900	0.733900	0.267800
C201	C20	0.306200	0.826500	0.263700
H181	H18	0.269500	0.801300	0.252300
C211	C21	0.164400	0.054600	0.492100
H191	H19	0.192400	0.058200	0.554900
C221	C22	0.136650	0.704960	0.159530
O51	O5	0.186210	0.601990	0.269830
C231	C23	0.091020	0.808240	0.047060
H201	H20	0.082100	0.827600	0.994500
C241	C24	0.122010	0.734870	0.080600
H211	H21	0.133000	0.705600	0.050000
C251	C25	0.170550	0.625410	0.198400
O61	O6	0.181150	0.586800	0.150880
C261	C26	0.463500	0.841100	0.234900
H221	H22	0.440400	0.888800	0.199900
H231	H23	0.439300	0.795300	0.196400
C271	C27	0.464800	0.838400	0.310700
H241	H24	0.493900	0.880300	0.352500
H251	H25	0.483700	0.787900	0.341400
Zn21	Zn2	0.768110	0.490280	0.292530
O71	O7	0.648020	0.581220	0.212640
O81	O8	0.677370	0.468450	0.186040
O91	O9	0.520940	0.415610	0.176150
O101	O10	0.587210	0.338660	0.293250
C281	C28	0.585620	0.322080	0.168030
C291	C29	0.537660	0.430650	0.046260
N71	N7	0.776640	0.456990	0.402690
C301	C30	0.564540	0.506290	0.082350
C311	C31	0.573010	0.353400	0.089680
N81	N8	0.579650	0.524460	0.351000
N91	N9	0.754860	0.405410	0.487970
C321	C32	0.563680	0.361060	0.217060
C331	C33	0.474050	0.426830	0.964500
H261	H26	0.456200	0.376900	0.939600
C341	C34	0.634580	0.520470	0.167410
N101	N10	0.674170	0.588770	0.435800
C351	C35	0.617710	0.249100	0.201340
H271	H27	0.626800	0.229300	0.253900
C361	C36	0.606700	0.515200	0.439500
H281	H28	0.588000	0.485900	0.460200
N111	N11	0.816990	0.407440	0.274420
C371	C37	0.753670	0.271600	0.538000
H291	H29	0.733400	0.239500	0.557500
H301	H30	0.800600	0.276300	0.588800
C381	C38	0.723000	0.353400	0.513600
H311	H31	0.675800	0.349500	0.463500
H321	H32	0.728400	0.376300	0.564800
C391	C39	0.621810	0.569500	0.351500
H331	H33	0.615800	0.585700	0.299900
C401	C40	0.733760	0.415380	0.403400
H341	H34	0.693900	0.395400	0.351800
C411	C41	0.721880	0.723000	0.486300
H351	H35	0.680300	0.746100	0.435100
H361	H36	0.720200	0.718900	0.536000
C421	C42	0.872910	0.417400	0.286800
H371	H37	0.892100	0.466700	0.293900
C431	C43	0.814910	0.442900	0.544700
H381	H38	0.841600	0.445600	0.607500
C441	C44	0.828070	0.474900	0.492500
H391	H39	0.865700	0.504400	0.513300
N121	N12	0.898480	0.347800	0.287900
C451	C45	0.728800	0.640500	0.461300
H401	H40	0.729900	0.644300	0.411100
H411	H41	0.770500	0.617300	0.512300
C461	C46	0.855700	0.288400	0.272000
H421	H42	0.859900	0.233900	0.267800
C471	C47	0.806200	0.326500	0.263700
H431	H43	0.769500	0.301300	0.252300
C481	C48	0.664400	0.554600	0.492100
H441	H44	0.692400	0.558200	0.554900
C491	C49	0.636650	0.204960	0.159530
O111	O11	0.686210	0.101990	0.269830
C501	C50	0.591020	0.308240	0.047060
H451	H45	0.582100	0.327600	0.994500
C511	C51	0.622010	0.234870	0.080600
H461	H46	0.633000	0.205600	0.050000
C521	C52	0.670550	0.125410	0.198400
O121	O12	0.681150	0.086800	0.150880
C531	C53	0.963500	0.341100	0.234900
H471	H47	0.940400	0.388800	0.199900
H481	H48	0.939300	0.295300	0.196400
C541	C54	0.964800	0.338400	0.310700
H491	H49	0.993900	0.380300	0.352500
H501	H50	0.983700	0.287900	0.341400
Zn31	Zn3	0.731890	0.990280	0.207470
O131	O13	0.851980	0.081220	0.287360
O141	O14	0.822630	0.968450	0.313960
O151	O15	0.979060	0.915610	0.323850
O161	O16	0.912790	0.838660	0.206750
C551	C55	0.914380	0.822080	0.331970
C561	C56	0.962340	0.930650	0.453740
N131	N13	0.723360	0.956990	0.097310
C571	C57	0.935460	0.006290	0.417650
C581	C58	0.926990	0.853400	0.410320
N141	N14	0.920350	0.024460	0.149000
N151	N15	0.745140	0.905410	0.012030
C591	C59	0.936320	0.861060	0.282940
C601	C60	0.025950	0.926830	0.535500
H511	H51	0.043800	0.876900	0.560400
C611	C61	0.865420	0.020470	0.332590
N161	N16	0.825830	0.088770	0.064200
C621	C62	0.882290	0.749100	0.298660
H521	H52	0.873200	0.729300	0.246100
C631	C63	0.893300	0.015200	0.060500
H531	H53	0.912000	0.985900	0.039800
N171	N17	0.683010	0.907440	0.225580
C641	C64	0.746330	0.771600	0.962000
H541	H54	0.766600	0.739500	0.942500
H551	H55	0.699400	0.776300	0.911200
C651	C65	0.777000	0.853400	0.986400
H561	H56	0.824200	0.849500	0.036500
H571	H57	0.771600	0.876300	0.935200
C661	C66	0.878190	0.069500	0.148500
H581	H58	0.884200	0.085700	0.200100
C671	C67	0.766240	0.915380	0.096600
H591	H59	0.806100	0.895400	0.148200
C681	C68	0.778120	0.223000	0.013700
H601	H60	0.819700	0.246100	0.064900
H611	H61	0.779800	0.218900	0.964000
C691	C69	0.627090	0.917400	0.213200
H621	H62	0.607900	0.966700	0.206100
C701	C70	0.685090	0.942900	0.955300
H631	H63	0.658400	0.945600	0.892500
C711	C71	0.671930	0.974900	0.007500
H641	H64	0.634300	0.004400	0.986700
N181	N18	0.601520	0.847800	0.212100
C721	C72	0.771200	0.140500	0.038700
H651	H65	0.770100	0.144300	0.088900
H661	H66	0.729500	0.117300	0.987700
C731	C73	0.644300	0.788400	0.228000
H671	H67	0.640100	0.733900	0.232200
C741	C74	0.693800	0.826500	0.236300
H681	H68	0.730500	0.801300	0.247700
C751	C75	0.835600	0.054600	0.007900
H691	H69	0.807600	0.058200	0.945100
C761	C76	0.863350	0.704960	0.340470
O171	O17	0.813790	0.601990	0.230170
C771	C77	0.908980	0.808240	0.452940
H701	H70	0.917900	0.827600	0.505500
C781	C78	0.877990	0.734870	0.419400
H711	H71	0.867000	0.705600	0.450000
C791	C79	0.829450	0.625410	0.301600
O181	O18	0.818850	0.586800	0.349120
C801	C80	0.536500	0.841100	0.265100
H721	H72	0.559600	0.888800	0.300100
H731	H73	0.560700	0.795300	0.303600
C811	C81	0.535200	0.838400	0.189300
H741	H74	0.506100	0.880300	0.147500
H751	H75	0.516300	0.787900	0.158600
Zn41	Zn4	0.231890	0.490280	0.207470
O191	O19	0.351980	0.581220	0.287360
O201	O20	0.322630	0.468450	0.313960
O211	O21	0.479060	0.415610	0.323850
O221	O22	0.412790	0.338660	0.206750
C821	C82	0.414380	0.322080	0.331970
C831	C83	0.462340	0.430650	0.453740
N191	N19	0.223360	0.456990	0.097310
C841	C84	0.435460	0.506290	0.417650
C851	C85	0.426990	0.353400	0.410320
N201	N20	0.420350	0.524460	0.149000
N211	N21	0.245140	0.405410	0.012030
C861	C86	0.436320	0.361060	0.282940
C871	C87	0.525950	0.426830	0.535500
H761	H76	0.543800	0.376900	0.560400
C881	C88	0.365420	0.520470	0.332590
N221	N22	0.325830	0.588770	0.064200
C891	C89	0.382290	0.249100	0.298660
H771	H77	0.373200	0.229300	0.246100
C901	C90	0.393300	0.515200	0.060500
H781	H78	0.412000	0.485900	0.039800
N231	N23	0.183010	0.407440	0.225580
C911	C91	0.246330	0.271600	0.962000
H791	H79	0.266600	0.239500	0.942500
H801	H80	0.199400	0.276300	0.911200
C921	C92	0.277000	0.353400	0.986400
H811	H81	0.324200	0.349500	0.036500
H821	H82	0.271600	0.376300	0.935200
C931	C93	0.378190	0.569500	0.148500
H831	H83	0.384200	0.585700	0.200100
C941	C94	0.266240	0.415380	0.096600
H841	H84	0.306100	0.395400	0.148200
C951	C95	0.278120	0.723000	0.013700
H851	H85	0.319700	0.746100	0.064900
H861	H86	0.279800	0.718900	0.964000
C961	C96	0.127090	0.417400	0.213200
H871	H87	0.107900	0.466700	0.206100
C971	C97	0.185090	0.442900	0.955300
H881	H88	0.158400	0.445600	0.892500
C981	C98	0.171930	0.474900	0.007500
H891	H89	0.134300	0.504400	0.986700
N241	N24	0.101520	0.347800	0.212100
C991	C99	0.271200	0.640500	0.038700
H901	H90	0.270100	0.644300	0.088900
H911	H91	0.229500	0.617300	0.987700
C1001	C100	0.144300	0.288400	0.228000
H921	H92	0.140100	0.233900	0.232200
C1011	C101	0.193800	0.326500	0.236300
H931	H93	0.230500	0.301300	0.247700
C1021	C102	0.335600	0.554600	0.007900
H941	H94	0.307600	0.558200	0.945100
C1031	C103	0.363350	0.204960	0.340470
O231	O23	0.313790	0.101990	0.230170
C1041	C104	0.408980	0.308240	0.452940
H951	H95	0.417900	0.327600	0.505500
C1051	C105	0.377990	0.234870	0.419400
H961	H96	0.367000	0.205600	0.450000
C1061	C106	0.329450	0.125410	0.301600
O241	O24	0.318850	0.086800	0.349120
C1071	C107	0.036500	0.341100	0.265100
H971	H97	0.059600	0.388800	0.300100
H981	H98	0.060700	0.295300	0.303600
C1081	C108	0.035200	0.338400	0.189300
H991	H99	0.006100	0.380300	0.147500
H1001	H100	0.016300	0.287900	0.158600
Zn51	Zn5	0.731890	0.009720	0.707470
O251	O25	0.851980	0.918780	0.787360
O261	O26	0.822630	0.031550	0.813960
O271	O27	0.979060	0.084390	0.823850
O281	O28	0.912790	0.161340	0.706750
C1091	C109	0.914380	0.177920	0.831970
C1101	C110	0.962340	0.069350	0.953740
N251	N25	0.723360	0.043010	0.597310
C1111	C111	0.935460	0.993710	0.917650
C1121	C112	0.926990	0.146600	0.910320
N261	N26	0.920350	0.975540	0.649000
N271	N27	0.745140	0.094590	0.512030
C1131	C113	0.936320	0.138940	0.782940
C1141	C114	0.025950	0.073170	0.035500
H1011	H101	0.043800	0.123100	0.060400
C1151	C115	0.865420	0.979530	0.832590
N281	N28	0.825830	0.911230	0.564200
C1161	C116	0.882290	0.250900	0.798660
H1021	H102	0.873200	0.270700	0.746100
C1171	C117	0.893300	0.984800	0.560500
H1031	H103	0.912000	0.014100	0.539800
N291	N29	0.683010	0.092560	0.725580
C1181	C118	0.746330	0.228400	0.462000
H1041	H104	0.766600	0.260500	0.442500
H1051	H105	0.699400	0.223700	0.411200
C1191	C119	0.777000	0.146600	0.486400
H1061	H106	0.824200	0.150500	0.536500
H1071	H107	0.771600	0.123700	0.435200
C1201	C120	0.878190	0.930500	0.648500
H1081	H108	0.884200	0.914300	0.700100
C1211	C121	0.766240	0.084620	0.596600
H1091	H109	0.806100	0.104600	0.648200
C1221	C122	0.778120	0.777000	0.513700
H1101	H110	0.819700	0.753900	0.564900
H1111	H111	0.779800	0.781100	0.464000
C1231	C123	0.627090	0.082600	0.713200
H1121	H112	0.607900	0.033300	0.706100
C1241	C124	0.685090	0.057100	0.455300
H1131	H113	0.658400	0.054400	0.392500
C1251	C125	0.671930	0.025100	0.507500
H1141	H114	0.634300	0.995600	0.486700
N301	N30	0.601520	0.152200	0.712100
C1261	C126	0.771200	0.859500	0.538700
H1151	H115	0.770100	0.855700	0.588900
H1161	H116	0.729500	0.882700	0.487700
C1271	C127	0.644300	0.211600	0.728000
H1171	H117	0.640100	0.266100	0.732200
C1281	C128	0.693800	0.173500	0.736300
H1181	H118	0.730500	0.198700	0.747700
C1291	C129	0.835600	0.945400	0.507900
H1191	H119	0.807600	0.941800	0.445100
C1301	C130	0.863350	0.295040	0.840470
O291	O29	0.813790	0.398010	0.730170
C1311	C131	0.908980	0.191760	0.952940
H1201	H120	0.917900	0.172400	0.005500
C1321	C132	0.877990	0.265130	0.919400
H1211	H121	0.867000	0.294400	0.950000
C1331	C133	0.829450	0.374590	0.801600
O301	O30	0.818850	0.413200	0.849120
C1341	C134	0.536500	0.158900	0.765100
H1221	H122	0.559600	0.111200	0.800100
H1231	H123	0.560700	0.204700	0.803600
C1351	C135	0.535200	0.161600	0.689300
H1241	H124	0.506100	0.119700	0.647500
H1251	H125	0.516300	0.212100	0.658600
Zn61	Zn6	0.231890	0.509720	0.707470
O311	O31	0.351980	0.418780	0.787360
O321	O32	0.322630	0.531550	0.813960
O331	O33	0.479060	0.584390	0.823850
O341	O34	0.412790	0.661340	0.706750
C1361	C136	0.414380	0.677920	0.831970
C1371	C137	0.462340	0.569350	0.953740
N311	N31	0.223360	0.543010	0.597310
C1381	C138	0.435460	0.493710	0.917650
C1391	C139	0.426990	0.646600	0.910320
N321	N32	0.420350	0.475540	0.649000
N331	N33	0.245140	0.594590	0.512030
C1401	C140	0.436320	0.638940	0.782940
C1411	C141	0.525950	0.573170	0.035500
H1261	H126	0.543800	0.623100	0.060400
C1421	C142	0.365420	0.479530	0.832590
N341	N34	0.325830	0.411230	0.564200
C1431	C143	0.382290	0.750900	0.798660
H1271	H127	0.373200	0.770700	0.746100
C1441	C144	0.393300	0.484800	0.560500
H1281	H128	0.412000	0.514100	0.539800
N351	N35	0.183010	0.592560	0.725580
C1451	C145	0.246330	0.728400	0.462000
H1291	H129	0.266600	0.760500	0.442500
H1301	H130	0.199400	0.723700	0.411200
C1461	C146	0.277000	0.646600	0.486400
H1311	H131	0.324200	0.650500	0.536500
H1321	H132	0.271600	0.623700	0.435200
C1471	C147	0.378190	0.430500	0.648500
H1331	H133	0.384200	0.414300	0.700100
C1481	C148	0.266240	0.584620	0.596600
H1341	H134	0.306100	0.604600	0.648200
C1491	C149	0.278120	0.277000	0.513700
H1351	H135	0.319700	0.253900	0.564900
H1361	H136	0.279800	0.281100	0.464000
C1501	C150	0.127090	0.582600	0.713200
H1371	H137	0.107900	0.533300	0.706100
C1511	C151	0.185090	0.557100	0.455300
H1381	H138	0.158400	0.554400	0.392500
C1521	C152	0.171930	0.525100	0.507500
H1391	H139	0.134300	0.495600	0.486700
N361	N36	0.101520	0.652200	0.712100
C1531	C153	0.271200	0.359500	0.538700
H1401	H140	0.270100	0.355700	0.588900
H1411	H141	0.229500	0.382700	0.487700
C1541	C154	0.144300	0.711600	0.728000
H1421	H142	0.140100	0.766100	0.732200
C1551	C155	0.193800	0.673500	0.736300
H1431	H143	0.230500	0.698700	0.747700
C1561	C156	0.335600	0.445400	0.507900
H1441	H144	0.307600	0.441800	0.445100
C1571	C157	0.363350	0.795040	0.840470
O351	O35	0.313790	0.898010	0.730170
C1581	C158	0.408980	0.691760	0.952940
H1451	H145	0.417900	0.672400	0.005500
C1591	C159	0.377990	0.765130	0.919400
H1461	H146	0.367000	0.794400	0.950000
C1601	C160	0.329450	0.874590	0.801600
O361	O36	0.318850	0.913200	0.849120
C1611	C161	0.036500	0.658900	0.765100
H1471	H147	0.059600	0.611200	0.800100
H1481	H148	0.060700	0.704700	0.803600
C1621	C162	0.035200	0.661600	0.689300
H1491	H149	0.006100	0.619700	0.647500
H1501	H150	0.016300	0.712100	0.658600
Zn71	Zn7	0.268110	0.009720	0.792530
O371	O37	0.148020	0.918780	0.712640
O381	O38	0.177370	0.031550	0.686040
O391	O39	0.020940	0.084390	0.676150
O401	O40	0.087210	0.161340	0.793250
C1631	C163	0.085620	0.177920	0.668030
C1641	C164	0.037660	0.069350	0.546260
N371	N37	0.276640	0.043010	0.902690
C1651	C165	0.064540	0.993710	0.582350
C1661	C166	0.073010	0.146600	0.589680
N381	N38	0.079650	0.975540	0.851000
N391	N39	0.254860	0.094590	0.987970
C1671	C167	0.063680	0.138940	0.717060
C1681	C168	0.974050	0.073170	0.464500
H1511	H151	0.956200	0.123100	0.439600
C1691	C169	0.134580	0.979530	0.667410
N401	N40	0.174170	0.911230	0.935800
C1701	C170	0.117710	0.250900	0.701340
H1521	H152	0.126800	0.270700	0.753900
C1711	C171	0.106700	0.984800	0.939500
H1531	H153	0.088000	0.014100	0.960200
N411	N41	0.316990	0.092560	0.774420
C1721	C172	0.253670	0.228400	0.038000
H1541	H154	0.233400	0.260500	0.057500
H1551	H155	0.300600	0.223700	0.088800
C1731	C173	0.223000	0.146600	0.013600
H1561	H156	0.175800	0.150500	0.963500
H1571	H157	0.228400	0.123700	0.064800
C1741	C174	0.121810	0.930500	0.851500
H1581	H158	0.115800	0.914300	0.799900
C1751	C175	0.233760	0.084620	0.903400
H1591	H159	0.193900	0.104600	0.851800
C1761	C176	0.221880	0.777000	0.986300
H1601	H160	0.180300	0.753900	0.935100
H1611	H161	0.220200	0.781100	0.036000
C1771	C177	0.372910	0.082600	0.786800
H1621	H162	0.392100	0.033300	0.793900
C1781	C178	0.314910	0.057100	0.044700
H1631	H163	0.341600	0.054400	0.107500
C1791	C179	0.328070	0.025100	0.992500
H1641	H164	0.365700	0.995600	0.013300
N421	N42	0.398480	0.152200	0.787900
C1801	C180	0.228800	0.859500	0.961300
H1651	H165	0.229900	0.855700	0.911100
H1661	H166	0.270500	0.882700	0.012300
C1811	C181	0.355700	0.211600	0.772000
H1671	H167	0.359900	0.266100	0.767800
C1821	C182	0.306200	0.173500	0.763700
H1681	H168	0.269500	0.198700	0.752300
C1831	C183	0.164400	0.945400	0.992100
H1691	H169	0.192400	0.941800	0.054900
C1841	C184	0.136650	0.295040	0.659530
O411	O41	0.186210	0.398010	0.769830
C1851	C185	0.091020	0.191760	0.547060
H1701	H170	0.082100	0.172400	0.494500
C1861	C186	0.122010	0.265130	0.580600
H1711	H171	0.133000	0.294400	0.550000
C1871	C187	0.170550	0.374590	0.698400
O421	O42	0.181150	0.413200	0.650880
C1881	C188	0.463500	0.158900	0.734900
H1721	H172	0.440400	0.111200	0.699900
H1731	H173	0.439300	0.204700	0.696400
C1891	C189	0.464800	0.161600	0.810700
H1741	H174	0.493900	0.119700	0.852500
H1751	H175	0.483700	0.212100	0.841400
Zn81	Zn8	0.768110	0.509720	0.792530
O431	O43	0.648020	0.418780	0.712640
O441	O44	0.677370	0.531550	0.686040
O451	O45	0.520940	0.584390	0.676150
O461	O46	0.587210	0.661340	0.793250
C1901	C190	0.585620	0.677920	0.668030
C1911	C191	0.537660	0.569350	0.546260
N431	N43	0.776640	0.543010	0.902690
C1921	C192	0.564540	0.493710	0.582350
C1931	C193	0.573010	0.646600	0.589680
N441	N44	0.579650	0.475540	0.851000
N451	N45	0.754860	0.594590	0.987970
C1941	C194	0.563680	0.638940	0.717060
C1951	C195	0.474050	0.573170	0.464500
H1761	H176	0.456200	0.623100	0.439600
C1961	C196	0.634580	0.479530	0.667410
N461	N46	0.674170	0.411230	0.935800
C1971	C197	0.617710	0.750900	0.701340
H1771	H177	0.626800	0.770700	0.753900
C1981	C198	0.606700	0.484800	0.939500
H1781	H178	0.588000	0.514100	0.960200
N471	N47	0.816990	0.592560	0.774420
C1991	C199	0.753670	0.728400	0.038000
H1791	H179	0.733400	0.760500	0.057500
H1801	H180	0.800600	0.723700	0.088800
C2001	C200	0.723000	0.646600	0.013600
H1811	H181	0.675800	0.650500	0.963500
H1821	H182	0.728400	0.623700	0.064800
C2011	C201	0.621810	0.430500	0.851500
H1831	H183	0.615800	0.414300	0.799900
C2021	C202	0.733760	0.584620	0.903400
H1841	H184	0.693900	0.604600	0.851800
C2031	C203	0.721880	0.277000	0.986300
H1851	H185	0.680300	0.253900	0.935100
H1861	H186	0.720200	0.281100	0.036000
C2041	C204	0.872910	0.582600	0.786800
H1871	H187	0.892100	0.533300	0.793900
C2051	C205	0.814910	0.557100	0.044700
H1881	H188	0.841600	0.554400	0.107500
C2061	C206	0.828070	0.525100	0.992500
H1891	H189	0.865700	0.495600	0.013300
N481	N48	0.898480	0.652200	0.787900
C2071	C207	0.728800	0.359500	0.961300
H1901	H190	0.729900	0.355700	0.911100
H1911	H191	0.770500	0.382700	0.012300
C2081	C208	0.855700	0.711600	0.772000
H1921	H192	0.859900	0.766100	0.767800
C2091	C209	0.806200	0.673500	0.763700
H1931	H193	0.769500	0.698700	0.752300
C2101	C210	0.664400	0.445400	0.992100
H1941	H194	0.692400	0.441800	0.054900
C2111	C211	0.636650	0.795040	0.659530
O471	O47	0.686210	0.898010	0.769830
C2121	C212	0.591020	0.691760	0.547060
H1951	H195	0.582100	0.672400	0.494500
C2131	C213	0.622010	0.765130	0.580600
H1961	H196	0.633000	0.794400	0.550000
C2141	C214	0.670550	0.874590	0.698400
O481	O48	0.681150	0.913200	0.650880
C2151	C215	0.963500	0.658900	0.734900
H1971	H197	0.940400	0.611200	0.699900
H1981	H198	0.939300	0.704700	0.696400
C2161	C216	0.964800	0.661600	0.810700
H1991	H199	0.993900	0.619700	0.852500
H2001	H200	0.983700	0.712100	0.841400
Zn91	Zn9	0.000000	0.960970	0.250000
Zn101	Zn10	0.500000	0.460970	0.250000
Zn111	Zn11	0.000000	0.039030	0.750000
Zn121	Zn12	0.500000	0.539030	0.750000
