data_ANAWIX_freeONLY_PM
_symmetry_space_group_name_H-M	'P1'
_cell_length_a	16.264000
_cell_length_b	15.110000
_cell_length_c	14.376000
_cell_angle_alpha	90.000000
_cell_angle_beta	115.148000
_cell_angle_gamma	90.000000
_symmetry_Int_Tables_number 1

loop_
_symmetry_equiv_pos_as_xyz
'x,y,z'

loop_
_atom_site_label
_atom_site_type_symbol
_atom_site_fract_x
_atom_site_fract_y
_atom_site_fract_z
C11	C1	0.686100	0.404300	0.567200
C21	C2	0.743300	0.325700	0.623700
C31	C3	0.707300	0.241400	0.604600
C41	C4	0.756900	0.169100	0.660400
C51	C5	0.844500	0.179600	0.736500
C61	C6	0.880000	0.264100	0.755700
C71	C7	0.830600	0.336000	0.699100
C81	C8	0.898000	0.100300	0.793700
O11	O1	0.611600	0.409800	0.577400
O21	O2	0.712600	0.453600	0.518100
O31	O3	0.933700	0.104700	0.889200
O41	O4	0.901400	0.037000	0.738300
O51	O5	0.440000	0.444200	0.589600
H11	H1	0.390000	0.469000	0.576000
O61	O6	0.589900	0.337000	0.738200
H21	H2	0.596000	0.346000	0.683000
H31	H3	0.644000	0.335000	0.786000
F11	F1	0.623700	0.227000	0.531400
F21	F2	0.717100	0.089700	0.641000
F31	F3	0.964300	0.277800	0.828300
F41	F4	0.868000	0.416400	0.723000
C91	C9	0.186100	0.904300	0.567200
C101	C10	0.243300	0.825700	0.623700
C111	C11	0.207300	0.741400	0.604600
C121	C12	0.256900	0.669100	0.660400
C131	C13	0.344500	0.679600	0.736500
C141	C14	0.380000	0.764100	0.755700
C151	C15	0.330600	0.836000	0.699100
C161	C16	0.398000	0.600300	0.793700
O71	O7	0.111600	0.909800	0.577400
O81	O8	0.212600	0.953600	0.518100
O91	O9	0.433700	0.604700	0.889200
O101	O10	0.401400	0.537000	0.738300
O111	O11	0.940000	0.944200	0.589600
H41	H4	0.890000	0.969000	0.576000
O121	O12	0.089900	0.837000	0.738200
H51	H5	0.096000	0.846000	0.683000
H61	H6	0.144000	0.835000	0.786000
F51	F5	0.123700	0.727000	0.531400
F61	F6	0.217100	0.589700	0.641000
F71	F7	0.464300	0.777800	0.828300
F81	F8	0.368000	0.916400	0.723000
C171	C17	0.313900	0.404300	0.932800
C181	C18	0.256700	0.325700	0.876300
C191	C19	0.292700	0.241400	0.895400
C201	C20	0.243100	0.169100	0.839600
C211	C21	0.155500	0.179600	0.763500
C221	C22	0.120000	0.264100	0.744300
C231	C23	0.169400	0.336000	0.800900
C241	C24	0.102000	0.100300	0.706300
O131	O13	0.388400	0.409800	0.922600
O141	O14	0.287400	0.453600	0.981900
O151	O15	0.066300	0.104700	0.610800
O161	O16	0.098600	0.037000	0.761700
O171	O17	0.560000	0.444200	0.910400
H71	H7	0.610000	0.469000	0.924000
O181	O18	0.410100	0.337000	0.761800
H81	H8	0.404000	0.346000	0.817000
H91	H9	0.356000	0.335000	0.714000
F91	F9	0.376300	0.227000	0.968600
F101	F10	0.282900	0.089700	0.859000
F111	F11	0.035700	0.277800	0.671700
F121	F12	0.132000	0.416400	0.777000
C251	C25	0.813900	0.904300	0.932800
C261	C26	0.756700	0.825700	0.876300
C271	C27	0.792700	0.741400	0.895400
C281	C28	0.743100	0.669100	0.839600
C291	C29	0.655500	0.679600	0.763500
C301	C30	0.620000	0.764100	0.744300
C311	C31	0.669400	0.836000	0.800900
C321	C32	0.602000	0.600300	0.706300
O191	O19	0.888400	0.909800	0.922600
O201	O20	0.787400	0.953600	0.981900
O211	O21	0.566300	0.604700	0.610800
O221	O22	0.598600	0.537000	0.761700
O231	O23	0.060000	0.944200	0.910400
H101	H10	0.110000	0.969000	0.924000
O241	O24	0.910100	0.837000	0.761800
H111	H11	0.904000	0.846000	0.817000
H121	H12	0.856000	0.835000	0.714000
F131	F13	0.876300	0.727000	0.968600
F141	F14	0.782900	0.589700	0.859000
F151	F15	0.535700	0.777800	0.671700
F161	F16	0.632000	0.916400	0.777000
C331	C33	0.313900	0.595700	0.432800
C341	C34	0.256700	0.674300	0.376300
C351	C35	0.292700	0.758600	0.395400
C361	C36	0.243100	0.830900	0.339600
C371	C37	0.155500	0.820400	0.263500
C381	C38	0.120000	0.735900	0.244300
C391	C39	0.169400	0.664000	0.300900
C401	C40	0.102000	0.899700	0.206300
O251	O25	0.388400	0.590200	0.422600
O261	O26	0.287400	0.546400	0.481900
O271	O27	0.066300	0.895300	0.110800
O281	O28	0.098600	0.963000	0.261700
O291	O29	0.560000	0.555800	0.410400
H131	H13	0.610000	0.531000	0.424000
O301	O30	0.410100	0.663000	0.261800
H141	H14	0.404000	0.654000	0.317000
H151	H15	0.356000	0.665000	0.214000
F171	F17	0.376300	0.773000	0.468600
F181	F18	0.282900	0.910300	0.359000
F191	F19	0.035700	0.722200	0.171700
F201	F20	0.132000	0.583600	0.277000
C411	C41	0.813900	0.095700	0.432800
C421	C42	0.756700	0.174300	0.376300
C431	C43	0.792700	0.258600	0.395400
C441	C44	0.743100	0.330900	0.339600
C451	C45	0.655500	0.320400	0.263500
C461	C46	0.620000	0.235900	0.244300
C471	C47	0.669400	0.164000	0.300900
C481	C48	0.602000	0.399700	0.206300
O311	O31	0.888400	0.090200	0.422600
O321	O32	0.787400	0.046400	0.481900
O331	O33	0.566300	0.395300	0.110800
O341	O34	0.598600	0.463000	0.261700
O351	O35	0.060000	0.055800	0.410400
H161	H16	0.110000	0.031000	0.424000
O361	O36	0.910100	0.163000	0.261800
H171	H17	0.904000	0.154000	0.317000
H181	H18	0.856000	0.165000	0.214000
F211	F21	0.876300	0.273000	0.468600
F221	F22	0.782900	0.410300	0.359000
F231	F23	0.535700	0.222200	0.171700
F241	F24	0.632000	0.083600	0.277000
C491	C49	0.686100	0.595700	0.067200
C501	C50	0.743300	0.674300	0.123700
C511	C51	0.707300	0.758600	0.104600
C521	C52	0.756900	0.830900	0.160400
C531	C53	0.844500	0.820400	0.236500
C541	C54	0.880000	0.735900	0.255700
C551	C55	0.830600	0.664000	0.199100
C561	C56	0.898000	0.899700	0.293700
O371	O37	0.611600	0.590200	0.077400
O381	O38	0.712600	0.546400	0.018100
O391	O39	0.933700	0.895300	0.389200
O401	O40	0.901400	0.963000	0.238300
O411	O41	0.440000	0.555800	0.089600
H191	H19	0.390000	0.531000	0.076000
O421	O42	0.589900	0.663000	0.238200
H201	H20	0.596000	0.654000	0.183000
H211	H21	0.644000	0.665000	0.286000
F251	F25	0.623700	0.773000	0.031400
F261	F26	0.717100	0.910300	0.141000
F271	F27	0.964300	0.722200	0.328300
F281	F28	0.868000	0.583600	0.223000
C571	C57	0.186100	0.095700	0.067200
C581	C58	0.243300	0.174300	0.123700
C591	C59	0.207300	0.258600	0.104600
C601	C60	0.256900	0.330900	0.160400
C611	C61	0.344500	0.320400	0.236500
C621	C62	0.380000	0.235900	0.255700
C631	C63	0.330600	0.164000	0.199100
C641	C64	0.398000	0.399700	0.293700
O431	O43	0.111600	0.090200	0.077400
O441	O44	0.212600	0.046400	0.018100
O451	O45	0.433700	0.395300	0.389200
O461	O46	0.401400	0.463000	0.238300
O471	O47	0.940000	0.055800	0.089600
H221	H22	0.890000	0.031000	0.076000
O481	O48	0.089900	0.163000	0.238200
H231	H23	0.096000	0.154000	0.183000
H241	H24	0.144000	0.165000	0.286000
F291	F29	0.123700	0.273000	0.031400
F301	F30	0.217100	0.410300	0.141000
F311	F31	0.464300	0.222200	0.328300
F321	F32	0.368000	0.083600	0.223000
In11	In1	0.500000	0.500000	0.500000
In21	In2	0.000000	0.000000	0.500000
In31	In3	0.500000	0.500000	0.000000
In41	In4	0.000000	0.000000	0.000000
In51	In5	0.500000	0.435510	0.750000
In61	In6	0.000000	0.935510	0.750000
In71	In7	0.500000	0.564490	0.250000
In81	In8	0.000000	0.064490	0.250000
