data_ANAWOD_freeONLY_PM
_symmetry_space_group_name_H-M	'P1'
_cell_length_a	16.978900
_cell_length_b	21.612000
_cell_length_c	13.890500
_cell_angle_alpha	90.000000
_cell_angle_beta	90.000000
_cell_angle_gamma	90.000000
_symmetry_Int_Tables_number 1

loop_
_symmetry_equiv_pos_as_xyz
'x,y,z'

loop_
_atom_site_label
_atom_site_type_symbol
_atom_site_fract_x
_atom_site_fract_y
_atom_site_fract_z
C11	C1	0.358000	0.168400	0.619300
C21	C2	0.425600	0.166100	0.547800
C31	C3	0.439200	0.214300	0.484000
C41	C4	0.503700	0.213000	0.421100
C51	C5	0.555700	0.165200	0.421500
C61	C6	0.542600	0.116100	0.485000
C71	C7	0.477700	0.117200	0.548300
C81	C8	0.627100	0.164700	0.357500
C91	C9	0.135100	0.996700	0.871400
C101	C10	0.065800	0.998100	0.938300
C111	C11	0.017600	0.049100	0.940600
C121	C12	0.951200	0.050100	0.001600
F11	F1	0.389600	0.262900	0.478700
F21	F2	0.511700	0.261400	0.361200
F31	F3	0.591500	0.067300	0.491700
F41	F4	0.469200	0.068300	0.608300
F51	F5	0.028400	0.096800	0.881000
F61	F6	0.904300	0.099900	0.996400
In11	In1	0.250030	0.083270	0.750910
O11	O1	0.344500	0.220100	0.653700
O21	O2	0.324400	0.118100	0.637600
O31	O3	0.662700	0.215100	0.344700
O41	O4	0.645600	0.112700	0.322900
O51	O5	0.173000	0.045300	0.861900
O61	O6	0.148300	0.945100	0.829600
O71	O7	0.254600	0.166700	0.826700
H11	H1	0.278000	0.166900	0.880000
C131	C13	0.142000	0.831600	0.619300
C141	C14	0.074400	0.833900	0.547800
C151	C15	0.060800	0.785700	0.484000
C161	C16	0.996300	0.787000	0.421100
C171	C17	0.944300	0.834800	0.421500
C181	C18	0.957400	0.883900	0.485000
C191	C19	0.022300	0.882800	0.548300
C201	C20	0.872900	0.835300	0.357500
C211	C21	0.364900	0.003300	0.871400
C221	C22	0.434200	0.001900	0.938300
C231	C23	0.482400	0.950900	0.940600
C241	C24	0.548800	0.949900	0.001600
F71	F7	0.110400	0.737100	0.478700
F81	F8	0.988300	0.738600	0.361200
F91	F9	0.908500	0.932700	0.491700
F101	F10	0.030800	0.931700	0.608300
F111	F11	0.471600	0.903200	0.881000
F121	F12	0.595700	0.900100	0.996400
In21	In2	0.249970	0.916730	0.750910
O81	O8	0.155500	0.779900	0.653700
O91	O9	0.175600	0.881900	0.637600
O101	O10	0.837300	0.784900	0.344700
O111	O11	0.854400	0.887300	0.322900
O121	O12	0.327000	0.954700	0.861900
O131	O13	0.351700	0.054900	0.829600
O141	O14	0.245400	0.833300	0.826700
H21	H2	0.222000	0.833100	0.880000
C251	C25	0.142000	0.668400	0.880700
C261	C26	0.074400	0.666100	0.952200
C271	C27	0.060800	0.714300	0.016000
C281	C28	0.996300	0.713000	0.078900
C291	C29	0.944300	0.665200	0.078500
C301	C30	0.957400	0.616100	0.015000
C311	C31	0.022300	0.617200	0.951700
C321	C32	0.872900	0.664700	0.142500
C331	C33	0.364900	0.496700	0.628600
C341	C34	0.434200	0.498100	0.561700
C351	C35	0.482400	0.549100	0.559400
C361	C36	0.548800	0.550100	0.498400
F131	F13	0.110400	0.762900	0.021300
F141	F14	0.988300	0.761400	0.138800
F151	F15	0.908500	0.567300	0.008300
F161	F16	0.030800	0.568300	0.891700
F171	F17	0.471600	0.596800	0.619000
F181	F18	0.595700	0.599900	0.503600
In31	In3	0.249970	0.583270	0.749090
O151	O15	0.155500	0.720100	0.846300
O161	O16	0.175600	0.618100	0.862400
O171	O17	0.837300	0.715100	0.155300
O181	O18	0.854400	0.612700	0.177100
O191	O19	0.327000	0.545300	0.638100
O201	O20	0.351700	0.445100	0.670400
O211	O21	0.245400	0.666700	0.673300
H31	H3	0.222000	0.666900	0.620000
C371	C37	0.358000	0.331600	0.880700
C381	C38	0.425600	0.333900	0.952200
C391	C39	0.439200	0.285700	0.016000
C401	C40	0.503700	0.287000	0.078900
C411	C41	0.555700	0.334800	0.078500
C421	C42	0.542600	0.383900	0.015000
C431	C43	0.477700	0.382800	0.951700
C441	C44	0.627100	0.335300	0.142500
C451	C45	0.135100	0.503300	0.628600
C461	C46	0.065800	0.501900	0.561700
C471	C47	0.017600	0.450900	0.559400
C481	C48	0.951200	0.449900	0.498400
F191	F19	0.389600	0.237100	0.021300
F201	F20	0.511700	0.238600	0.138800
F211	F21	0.591500	0.432700	0.008300
F221	F22	0.469200	0.431700	0.891700
F231	F23	0.028400	0.403200	0.619000
F241	F24	0.904300	0.400100	0.503600
In41	In4	0.250030	0.416730	0.749090
O221	O22	0.344500	0.279900	0.846300
O231	O23	0.324400	0.381900	0.862400
O241	O24	0.662700	0.284900	0.155300
O251	O25	0.645600	0.387300	0.177100
O261	O26	0.173000	0.454700	0.638100
O271	O27	0.148300	0.554900	0.670400
O281	O28	0.254600	0.333300	0.673300
H41	H4	0.278000	0.333100	0.620000
C491	C49	0.642000	0.831600	0.380700
C501	C50	0.574400	0.833900	0.452200
C511	C51	0.560800	0.785700	0.516000
C521	C52	0.496300	0.787000	0.578900
C531	C53	0.444300	0.834800	0.578500
C541	C54	0.457400	0.883900	0.515000
C551	C55	0.522300	0.882800	0.451700
C561	C56	0.372900	0.835300	0.642500
C571	C57	0.864900	0.003300	0.128600
C581	C58	0.934200	0.001900	0.061700
C591	C59	0.982400	0.950900	0.059400
C601	C60	0.048800	0.949900	0.998400
F251	F25	0.610400	0.737100	0.521300
F261	F26	0.488300	0.738600	0.638800
F271	F27	0.408500	0.932700	0.508300
F281	F28	0.530800	0.931700	0.391700
F291	F29	0.971600	0.903200	0.119000
F301	F30	0.095700	0.900100	0.003600
In51	In5	0.749970	0.916730	0.249090
O291	O29	0.655500	0.779900	0.346300
O301	O30	0.675600	0.881900	0.362400
O311	O31	0.337300	0.784900	0.655300
O321	O32	0.354400	0.887300	0.677100
O331	O33	0.827000	0.954700	0.138100
O341	O34	0.851700	0.054900	0.170400
O351	O35	0.745400	0.833300	0.173300
H51	H5	0.722000	0.833100	0.120000
C611	C61	0.858000	0.168400	0.380700
C621	C62	0.925600	0.166100	0.452200
C631	C63	0.939200	0.214300	0.516000
C641	C64	0.003700	0.213000	0.578900
C651	C65	0.055700	0.165200	0.578500
C661	C66	0.042600	0.116100	0.515000
C671	C67	0.977700	0.117200	0.451700
C681	C68	0.127100	0.164700	0.642500
C691	C69	0.635100	0.996700	0.128600
C701	C70	0.565800	0.998100	0.061700
C711	C71	0.517600	0.049100	0.059400
C721	C72	0.451200	0.050100	0.998400
F311	F31	0.889600	0.262900	0.521300
F321	F32	0.011700	0.261400	0.638800
F331	F33	0.091500	0.067300	0.508300
F341	F34	0.969200	0.068300	0.391700
F351	F35	0.528400	0.096800	0.119000
F361	F36	0.404300	0.099900	0.003600
In61	In6	0.750030	0.083270	0.249090
O361	O36	0.844500	0.220100	0.346300
O371	O37	0.824400	0.118100	0.362400
O381	O38	0.162700	0.215100	0.655300
O391	O39	0.145600	0.112700	0.677100
O401	O40	0.673000	0.045300	0.138100
O411	O41	0.648300	0.945100	0.170400
O421	O42	0.754600	0.166700	0.173300
H61	H6	0.778000	0.166900	0.120000
C731	C73	0.858000	0.331600	0.119300
C741	C74	0.925600	0.333900	0.047800
C751	C75	0.939200	0.285700	0.984000
C761	C76	0.003700	0.287000	0.921100
C771	C77	0.055700	0.334800	0.921500
C781	C78	0.042600	0.383900	0.985000
C791	C79	0.977700	0.382800	0.048300
C801	C80	0.127100	0.335300	0.857500
C811	C81	0.635100	0.503300	0.371400
C821	C82	0.565800	0.501900	0.438300
C831	C83	0.517600	0.450900	0.440600
C841	C84	0.451200	0.449900	0.501600
F371	F37	0.889600	0.237100	0.978700
F381	F38	0.011700	0.238600	0.861200
F391	F39	0.091500	0.432700	0.991700
F401	F40	0.969200	0.431700	0.108300
F411	F41	0.528400	0.403200	0.381000
F421	F42	0.404300	0.400100	0.496400
In71	In7	0.750030	0.416730	0.250910
O431	O43	0.844500	0.279900	0.153700
O441	O44	0.824400	0.381900	0.137600
O451	O45	0.162700	0.284900	0.844700
O461	O46	0.145600	0.387300	0.822900
O471	O47	0.673000	0.454700	0.361900
O481	O48	0.648300	0.554900	0.329600
O491	O49	0.754600	0.333300	0.326700
H71	H7	0.778000	0.333100	0.380000
C851	C85	0.642000	0.668400	0.119300
C861	C86	0.574400	0.666100	0.047800
C871	C87	0.560800	0.714300	0.984000
C881	C88	0.496300	0.713000	0.921100
C891	C89	0.444300	0.665200	0.921500
C901	C90	0.457400	0.616100	0.985000
C911	C91	0.522300	0.617200	0.048300
C921	C92	0.372900	0.664700	0.857500
C931	C93	0.864900	0.496700	0.371400
C941	C94	0.934200	0.498100	0.438300
C951	C95	0.982400	0.549100	0.440600
C961	C96	0.048800	0.550100	0.501600
F431	F43	0.610400	0.762900	0.978700
F441	F44	0.488300	0.761400	0.861200
F451	F45	0.408500	0.567300	0.991700
F461	F46	0.530800	0.568300	0.108300
F471	F47	0.971600	0.596800	0.381000
F481	F48	0.095700	0.599900	0.496400
In81	In8	0.749970	0.583270	0.250910
O501	O50	0.655500	0.720100	0.153700
O511	O51	0.675600	0.618100	0.137600
O521	O52	0.337300	0.715100	0.844700
O531	O53	0.354400	0.612700	0.822900
O541	O54	0.827000	0.545300	0.361900
O551	O55	0.851700	0.445100	0.329600
O561	O56	0.745400	0.666700	0.326700
H81	H8	0.722000	0.666900	0.380000
In91	In9	0.250440	0.250000	0.750000
In101	In10	0.249560	0.750000	0.750000
In111	In11	0.749560	0.750000	0.250000
In121	In12	0.750440	0.250000	0.250000
O571	O57	0.250000	0.000000	0.675200
H91	H9	0.250000	0.000000	0.615700
O581	O58	0.250000	0.500000	0.824800
H101	H10	0.250000	0.500000	0.884300
O591	O59	0.750000	0.000000	0.324800
H111	H11	0.750000	0.000000	0.384300
O601	O60	0.750000	0.500000	0.175200
H121	H12	0.750000	0.500000	0.115700
