data_ANUGOG_freeONLY_PM
_symmetry_space_group_name_H-M	'P1'
_cell_length_a	18.114800
_cell_length_b	18.114800
_cell_length_c	24.397000
_cell_angle_alpha	74.542200
_cell_angle_beta	74.542200
_cell_angle_gamma	106.384000
_symmetry_Int_Tables_number 1

loop_
_symmetry_equiv_pos_as_xyz
'x,y,z'

loop_
_atom_site_label
_atom_site_type_symbol
_atom_site_fract_x
_atom_site_fract_y
_atom_site_fract_z
Cu11	Cu1	0.552660	0.995260	0.953820
Cu21	Cu2	0.493520	0.550920	0.953820
Cu31	Cu3	0.504740	0.947340	0.546180
Cu41	Cu4	0.949080	0.006480	0.546180
Cu51	Cu5	0.447340	0.004740	0.046180
Cu61	Cu6	0.506480	0.449080	0.046180
Cu71	Cu7	0.495260	0.052660	0.453820
Cu81	Cu8	0.050920	0.993520	0.453820
H11	H1	0.771700	0.571100	0.005200
H21	H2	0.877200	0.812200	0.836400
H31	H3	0.912000	0.650800	0.963800
H41	H4	0.735800	0.730600	0.876600
H51	H5	0.996400	0.810600	0.777200
H61	H6	0.050100	0.914500	0.683600
H71	H7	0.223100	0.923700	0.005200
H81	H8	0.286400	0.851400	0.836400
H91	H9	0.124200	0.885400	0.963800
H101	H10	0.387600	0.892800	0.876600
H111	H11	0.226400	0.912200	0.777200
H121	H12	0.266300	0.901900	0.683600
H131	H13	0.928900	0.728300	0.494800
H141	H14	0.687800	0.622800	0.663600
H151	H15	0.849200	0.588000	0.536200
H161	H16	0.769400	0.764200	0.623400
H171	H17	0.689400	0.503600	0.722800
H181	H18	0.585500	0.449900	0.816400
H191	H19	0.576300	0.276900	0.494800
H201	H20	0.648600	0.213600	0.663600
H211	H21	0.614600	0.375800	0.536200
H221	H22	0.607200	0.112400	0.623400
H231	H23	0.587800	0.273600	0.722800
H241	H24	0.598100	0.233700	0.816400
H251	H25	0.228300	0.428900	0.994800
H261	H26	0.122800	0.187800	0.163600
H271	H27	0.088000	0.349200	0.036200
H281	H28	0.264200	0.269400	0.123400
H291	H29	0.003600	0.189400	0.222800
H301	H30	0.949900	0.085500	0.316400
H311	H31	0.776900	0.076300	0.994800
H321	H32	0.713600	0.148600	0.163600
H331	H33	0.875800	0.114600	0.036200
H341	H34	0.612400	0.107200	0.123400
H351	H35	0.773600	0.087800	0.222800
H361	H36	0.733700	0.098100	0.316400
H371	H37	0.071100	0.271700	0.505200
H381	H38	0.312200	0.377200	0.336400
H391	H39	0.150800	0.412000	0.463800
H401	H40	0.230600	0.235800	0.376600
H411	H41	0.310600	0.496400	0.277200
H421	H42	0.414500	0.550100	0.183600
H431	H43	0.423700	0.723100	0.505200
H441	H44	0.351400	0.786400	0.336400
H451	H45	0.385400	0.624200	0.463800
H461	H46	0.392800	0.887600	0.376600
H471	H47	0.412200	0.726400	0.277200
H481	H48	0.401900	0.766300	0.183600
H491	H49	0.032900	0.782900	0.934200
H501	H50	0.237700	0.987700	0.524600
H511	H51	0.717100	0.467100	0.565800
H521	H52	0.512300	0.262300	0.975400
H531	H53	0.967100	0.217100	0.065800
H541	H54	0.762300	0.012300	0.475400
H551	H55	0.282900	0.532900	0.434200
H561	H56	0.487700	0.737700	0.024600
C11	C1	0.742750	0.642550	0.941900
C21	C2	0.793550	0.618750	0.970100
C31	C3	0.856260	0.762260	0.869480
C41	C4	0.908770	0.736970	0.894060
C51	C5	0.876930	0.666330	0.945540
C61	C6	0.771490	0.713890	0.893620
C71	C7	0.001970	0.789970	0.860260
C81	C8	0.031930	0.820530	0.797940
C91	C9	0.104200	0.920800	0.663600
C101	C10	0.134760	0.949360	0.600680
C111	C11	0.648630	0.587830	0.964740
C121	C12	0.081150	0.965350	0.566300
C131	C13	0.315350	0.915550	0.941900
C141	C14	0.236350	0.911150	0.970100
C151	C15	0.274260	0.868260	0.869480
C161	C16	0.197170	0.868970	0.894060
C171	C17	0.177530	0.888130	0.945540
C181	C18	0.334890	0.892490	0.893620
C191	C19	0.137770	0.849770	0.860260
C201	C20	0.170130	0.881530	0.797940
C211	C21	0.232200	0.915600	0.663600
C221	C22	0.264560	0.949960	0.600680
C231	C23	0.386630	0.947430	0.964740
C241	C24	0.352550	0.968350	0.566300
C251	C25	0.857450	0.757250	0.558100
C261	C26	0.881250	0.706450	0.529900
C271	C27	0.737740	0.643740	0.630520
C281	C28	0.763030	0.591230	0.605940
C291	C29	0.833670	0.623070	0.554460
C301	C30	0.786110	0.728510	0.606380
C311	C31	0.710030	0.498030	0.639740
C321	C32	0.679470	0.468070	0.702060
C331	C33	0.579200	0.395800	0.836400
C341	C34	0.550640	0.365240	0.899320
C351	C35	0.912170	0.851370	0.535260
C361	C36	0.534650	0.418850	0.933700
C371	C37	0.584450	0.184650	0.558100
C381	C38	0.588850	0.263650	0.529900
C391	C39	0.631740	0.225740	0.630520
C401	C40	0.631030	0.302830	0.605940
C411	C41	0.611870	0.322470	0.554460
C421	C42	0.607510	0.165110	0.606380
C431	C43	0.650230	0.362230	0.639740
C441	C44	0.618470	0.329870	0.702060
C451	C45	0.584400	0.267800	0.836400
C461	C46	0.550040	0.235440	0.899320
C471	C47	0.552570	0.113370	0.535260
C481	C48	0.531650	0.147450	0.933700
C491	C49	0.257250	0.357450	0.058100
C501	C50	0.206450	0.381250	0.029900
C511	C51	0.143740	0.237740	0.130520
C521	C52	0.091230	0.263030	0.105940
C531	C53	0.123070	0.333670	0.054460
C541	C54	0.228510	0.286110	0.106380
C551	C55	0.998030	0.210030	0.139740
C561	C56	0.968070	0.179470	0.202060
C571	C57	0.895800	0.079200	0.336400
C581	C58	0.865240	0.050640	0.399320
C591	C59	0.351370	0.412170	0.035260
C601	C60	0.918850	0.034650	0.433700
C611	C61	0.684650	0.084450	0.058100
C621	C62	0.763650	0.088850	0.029900
C631	C63	0.725740	0.131740	0.130520
C641	C64	0.802830	0.131030	0.105940
C651	C65	0.822470	0.111870	0.054460
C661	C66	0.665110	0.107510	0.106380
C671	C67	0.862230	0.150230	0.139740
C681	C68	0.829870	0.118470	0.202060
C691	C69	0.767800	0.084400	0.336400
C701	C70	0.735440	0.050040	0.399320
C711	C71	0.613370	0.052570	0.035260
C721	C72	0.647450	0.031650	0.433700
C731	C73	0.142550	0.242750	0.441900
C741	C74	0.118750	0.293550	0.470100
C751	C75	0.262260	0.356260	0.369480
C761	C76	0.236970	0.408770	0.394060
C771	C77	0.166330	0.376930	0.445540
C781	C78	0.213890	0.271490	0.393620
C791	C79	0.289970	0.501970	0.360260
C801	C80	0.320530	0.531930	0.297940
C811	C81	0.420800	0.604200	0.163600
C821	C82	0.449360	0.634760	0.100680
C831	C83	0.087830	0.148630	0.464740
C841	C84	0.465350	0.581150	0.066300
C851	C85	0.415550	0.815350	0.441900
C861	C86	0.411150	0.736350	0.470100
C871	C87	0.368260	0.774260	0.369480
C881	C88	0.368970	0.697170	0.394060
C891	C89	0.388130	0.677530	0.445540
C901	C90	0.392490	0.834890	0.393620
C911	C91	0.349770	0.637770	0.360260
C921	C92	0.381530	0.670130	0.297940
C931	C93	0.415600	0.732200	0.163600
C941	C94	0.449960	0.764560	0.100680
C951	C95	0.447430	0.886630	0.464740
C961	C96	0.468350	0.852550	0.066300
C971	C97	0.054150	0.804150	0.891700
C981	C98	0.117500	0.867500	0.765000
C991	C99	0.150100	0.900100	0.699800
C1001	C100	0.216460	0.966460	0.567080
C1011	C101	0.695850	0.445850	0.608300
C1021	C102	0.632500	0.382500	0.735000
C1031	C103	0.599900	0.349900	0.800200
C1041	C104	0.533540	0.283540	0.932920
C1051	C105	0.945850	0.195850	0.108300
C1061	C106	0.882500	0.132500	0.235000
C1071	C107	0.849900	0.099900	0.300200
C1081	C108	0.783540	0.033540	0.432920
C1091	C109	0.304150	0.554150	0.391700
C1101	C110	0.367500	0.617500	0.265000
C1111	C111	0.400100	0.650100	0.199800
C1121	C112	0.466460	0.716460	0.067080
O11	O1	0.610230	0.611510	0.933640
O21	O2	0.018190	0.977410	0.591680
O31	O3	0.622510	0.524090	0.013700
O41	O4	0.104130	0.968690	0.511900
O51	O5	0.456130	0.954850	0.933640
O61	O6	0.390130	0.930910	0.591680
O71	O7	0.363790	0.962210	0.013700
O81	O8	0.383970	0.019410	0.511900
O91	O9	0.888490	0.889770	0.566360
O101	O10	0.522590	0.481810	0.908320
O111	O11	0.975910	0.877490	0.486300
O121	O12	0.531310	0.395870	0.988100
O131	O13	0.545150	0.043870	0.566360
O141	O14	0.569090	0.109870	0.908320
O151	O15	0.537790	0.136210	0.486300
O161	O16	0.480590	0.116030	0.988100
O171	O17	0.389770	0.388490	0.066360
O181	O18	0.981810	0.022590	0.408320
O191	O19	0.377490	0.475910	0.986300
O201	O20	0.895870	0.031310	0.488100
O211	O21	0.543870	0.045150	0.066360
O221	O22	0.609870	0.069090	0.408320
O231	O23	0.636210	0.037790	0.986300
O241	O24	0.616030	0.980590	0.488100
O251	O25	0.111510	0.110230	0.433640
O261	O26	0.477410	0.518190	0.091680
O271	O27	0.024090	0.122510	0.513700
O281	O28	0.468690	0.604130	0.011900
O291	O29	0.454850	0.956130	0.433640
O301	O30	0.430910	0.890130	0.091680
O311	O31	0.462210	0.863790	0.513700
O321	O32	0.519410	0.883970	0.011900
