data_AQAJEI_freeONLY_PM
_symmetry_space_group_name_H-M	'P1'
_cell_length_a	19.766500
_cell_length_b	15.801200
_cell_length_c	16.968000
_cell_angle_alpha	90.000000
_cell_angle_beta	90.000000
_cell_angle_gamma	90.000000
_symmetry_Int_Tables_number 1

loop_
_symmetry_equiv_pos_as_xyz
'x,y,z'

loop_
_atom_site_label
_atom_site_type_symbol
_atom_site_fract_x
_atom_site_fract_y
_atom_site_fract_z
C11	C1	0.147000	0.424800	0.203700
H11	H1	0.117200	0.419800	0.245900
C21	C2	0.229700	0.400900	0.125900
H21	H2	0.267900	0.377700	0.102400
C31	C3	0.217800	0.297500	0.234700
C41	C4	0.213700	0.298700	0.316200
H31	H3	0.202400	0.348400	0.342500
C51	C5	0.226500	0.225600	0.358000
H41	H4	0.223000	0.225600	0.412600
C61	C6	0.244800	0.151800	0.318700
C71	C7	0.249400	0.151300	0.237200
H51	H5	0.261800	0.102000	0.211000
C81	C8	0.235500	0.225100	0.194200
H61	H6	0.238100	0.225200	0.139500
C91	C9	0.259800	0.072000	0.364600
C101	C10	0.093900	0.642200	0.981600
H71	H7	0.114700	0.687300	0.007200
C111	C11	0.020400	0.564100	0.922000
H81	H8	0.980200	0.545700	0.899100
C121	C12	0.978400	0.706000	0.963700
C131	C13	0.913400	0.683900	0.980700
H91	H9	0.901500	0.627400	0.987100
C141	C14	0.865600	0.747300	0.988100
H101	H10	0.821200	0.733100	0.000900
C151	C15	0.882400	0.830700	0.977000
C161	C16	0.948800	0.852600	0.958800
H111	H11	0.960500	0.909200	0.952000
C171	C17	0.997300	0.790200	0.950900
H121	H12	0.041500	0.803900	0.937300
C181	C18	0.829900	0.899700	0.983100
N11	N1	0.143100	0.482700	0.150800
N21	N2	0.197200	0.467300	0.100000
N31	N3	0.200200	0.371400	0.190800
N41	N4	0.076000	0.518900	0.926300
N51	N5	0.122900	0.569500	0.965500
N61	N6	0.029100	0.641500	0.955500
O11	O1	0.263300	0.003600	0.330700
O21	O2	0.268900	0.082600	0.438000
O31	O3	0.770000	0.875300	0.998100
O41	O4	0.845300	0.974500	0.975600
Zn11	Zn1	0.214620	0.522880	0.993430
C191	C19	0.353000	0.075200	0.703700
H131	H13	0.382800	0.080200	0.745900
C201	C20	0.270300	0.099100	0.625900
H141	H14	0.232100	0.122300	0.602400
C211	C21	0.282200	0.202500	0.734700
C221	C22	0.286300	0.201300	0.816200
H151	H15	0.297600	0.151600	0.842500
C231	C23	0.273500	0.274400	0.858000
H161	H16	0.277000	0.274400	0.912600
C241	C24	0.255200	0.348200	0.818700
C251	C25	0.250600	0.348700	0.737200
H171	H17	0.238200	0.398000	0.711000
C261	C26	0.264500	0.274900	0.694200
H181	H18	0.261900	0.274800	0.639500
C271	C27	0.240200	0.428000	0.864600
C281	C28	0.406100	0.857800	0.481600
H191	H19	0.385300	0.812700	0.507200
C291	C29	0.479600	0.935900	0.422000
H201	H20	0.519800	0.954300	0.399100
C301	C30	0.521600	0.794000	0.463700
C311	C31	0.586600	0.816100	0.480700
H211	H21	0.598500	0.872600	0.487100
C321	C32	0.634400	0.752700	0.488100
H221	H22	0.678800	0.766900	0.500900
C331	C33	0.617600	0.669300	0.477000
C341	C34	0.551200	0.647400	0.458800
H231	H23	0.539500	0.590800	0.452000
C351	C35	0.502700	0.709800	0.450900
H241	H24	0.458500	0.696100	0.437300
C361	C36	0.670100	0.600300	0.483100
N71	N7	0.356900	0.017300	0.650800
N81	N8	0.302800	0.032700	0.600000
N91	N9	0.299800	0.128600	0.690800
N101	N10	0.424000	0.981100	0.426300
N111	N11	0.377100	0.930500	0.465500
N121	N12	0.470900	0.858500	0.455500
O51	O5	0.236700	0.496400	0.830700
O61	O6	0.231100	0.417400	0.938000
O71	O7	0.730000	0.624700	0.498100
O81	O8	0.654700	0.525500	0.475600
Zn21	Zn2	0.285380	0.977120	0.493430
C371	C37	0.853000	0.424800	0.296300
H251	H25	0.882800	0.419800	0.254100
C381	C38	0.770300	0.400900	0.374100
H261	H26	0.732100	0.377700	0.397600
C391	C39	0.782200	0.297500	0.265300
C401	C40	0.786300	0.298700	0.183800
H271	H27	0.797600	0.348400	0.157500
C411	C41	0.773500	0.225600	0.142000
H281	H28	0.777000	0.225600	0.087400
C421	C42	0.755200	0.151800	0.181300
C431	C43	0.750600	0.151300	0.262800
H291	H29	0.738200	0.102000	0.289000
C441	C44	0.764500	0.225100	0.305800
H301	H30	0.761900	0.225200	0.360500
C451	C45	0.740200	0.072000	0.135400
C461	C46	0.906100	0.642200	0.518400
H311	H31	0.885300	0.687300	0.492800
C471	C47	0.979600	0.564100	0.578000
H321	H32	0.019800	0.545700	0.600900
C481	C48	0.021600	0.706000	0.536300
C491	C49	0.086600	0.683900	0.519300
H331	H33	0.098500	0.627400	0.512900
C501	C50	0.134400	0.747300	0.511900
H341	H34	0.178800	0.733100	0.499100
C511	C51	0.117600	0.830700	0.523000
C521	C52	0.051200	0.852600	0.541200
H351	H35	0.039500	0.909200	0.548000
C531	C53	0.002700	0.790200	0.549100
H361	H36	0.958500	0.803900	0.562700
C541	C54	0.170100	0.899700	0.516900
N131	N13	0.856900	0.482700	0.349200
N141	N14	0.802800	0.467300	0.400000
N151	N15	0.799800	0.371400	0.309200
N161	N16	0.924000	0.518900	0.573700
N171	N17	0.877100	0.569500	0.534500
N181	N18	0.970900	0.641500	0.544500
O91	O9	0.736700	0.003600	0.169300
O101	O10	0.731100	0.082600	0.062000
O111	O11	0.230000	0.875300	0.501900
O121	O12	0.154700	0.974500	0.524400
Zn31	Zn3	0.785380	0.522880	0.506570
C551	C55	0.647000	0.075200	0.796300
H371	H37	0.617200	0.080200	0.754100
C561	C56	0.729700	0.099100	0.874100
H381	H38	0.767900	0.122300	0.897600
C571	C57	0.717800	0.202500	0.765300
C581	C58	0.713700	0.201300	0.683800
H391	H39	0.702400	0.151600	0.657500
C591	C59	0.726500	0.274400	0.642000
H401	H40	0.723000	0.274400	0.587400
C601	C60	0.744800	0.348200	0.681300
C611	C61	0.749400	0.348700	0.762800
H411	H41	0.761800	0.398000	0.789000
C621	C62	0.735500	0.274900	0.805800
H421	H42	0.738100	0.274800	0.860500
C631	C63	0.759800	0.428000	0.635400
C641	C64	0.593900	0.857800	0.018400
H431	H43	0.614700	0.812700	0.992800
C651	C65	0.520400	0.935900	0.078000
H441	H44	0.480200	0.954300	0.100900
C661	C66	0.478400	0.794000	0.036300
C671	C67	0.413400	0.816100	0.019300
H451	H45	0.401500	0.872600	0.012900
C681	C68	0.365600	0.752700	0.011900
H461	H46	0.321200	0.766900	0.999100
C691	C69	0.382400	0.669300	0.023000
C701	C70	0.448800	0.647400	0.041200
H471	H47	0.460500	0.590800	0.048000
C711	C71	0.497300	0.709800	0.049100
H481	H48	0.541500	0.696100	0.062700
C721	C72	0.329900	0.600300	0.016900
N191	N19	0.643100	0.017300	0.849200
N201	N20	0.697200	0.032700	0.900000
N211	N21	0.700200	0.128600	0.809200
N221	N22	0.576000	0.981100	0.073700
N231	N23	0.622900	0.930500	0.034500
N241	N24	0.529100	0.858500	0.044500
O131	O13	0.763300	0.496400	0.669300
O141	O14	0.768900	0.417400	0.562000
O151	O15	0.270000	0.624700	0.001900
O161	O16	0.345300	0.525500	0.024400
Zn41	Zn4	0.714620	0.977120	0.006570
C731	C73	0.853000	0.575200	0.796300
H491	H49	0.882800	0.580200	0.754100
C741	C74	0.770300	0.599100	0.874100
H501	H50	0.732100	0.622300	0.897600
C751	C75	0.782200	0.702500	0.765300
C761	C76	0.786300	0.701300	0.683800
H511	H51	0.797600	0.651600	0.657500
C771	C77	0.773500	0.774400	0.642000
H521	H52	0.777000	0.774400	0.587400
C781	C78	0.755200	0.848200	0.681300
C791	C79	0.750600	0.848700	0.762800
H531	H53	0.738200	0.898000	0.789000
C801	C80	0.764500	0.774900	0.805800
H541	H54	0.761900	0.774800	0.860500
C811	C81	0.740200	0.928000	0.635400
C821	C82	0.906100	0.357800	0.018400
H551	H55	0.885300	0.312700	0.992800
C831	C83	0.979600	0.435900	0.078000
H561	H56	0.019800	0.454300	0.100900
C841	C84	0.021600	0.294000	0.036300
C851	C85	0.086600	0.316100	0.019300
H571	H57	0.098500	0.372600	0.012900
C861	C86	0.134400	0.252700	0.011900
H581	H58	0.178800	0.266900	0.999100
C871	C87	0.117600	0.169300	0.023000
C881	C88	0.051200	0.147400	0.041200
H591	H59	0.039500	0.090800	0.048000
C891	C89	0.002700	0.209800	0.049100
H601	H60	0.958500	0.196100	0.062700
C901	C90	0.170100	0.100300	0.016900
N251	N25	0.856900	0.517300	0.849200
N261	N26	0.802800	0.532700	0.900000
N271	N27	0.799800	0.628600	0.809200
N281	N28	0.924000	0.481100	0.073700
N291	N29	0.877100	0.430500	0.034500
N301	N30	0.970900	0.358500	0.044500
O171	O17	0.736700	0.996400	0.669300
O181	O18	0.731100	0.917400	0.562000
O191	O19	0.230000	0.124700	0.001900
O201	O20	0.154700	0.025500	0.024400
Zn51	Zn5	0.785380	0.477120	0.006570
C911	C91	0.647000	0.924800	0.296300
H611	H61	0.617200	0.919800	0.254100
C921	C92	0.729700	0.900900	0.374100
H621	H62	0.767900	0.877700	0.397600
C931	C93	0.717800	0.797500	0.265300
C941	C94	0.713700	0.798700	0.183800
H631	H63	0.702400	0.848400	0.157500
C951	C95	0.726500	0.725600	0.142000
H641	H64	0.723000	0.725600	0.087400
C961	C96	0.744800	0.651800	0.181300
C971	C97	0.749400	0.651300	0.262800
H651	H65	0.761800	0.602000	0.289000
C981	C98	0.735500	0.725100	0.305800
H661	H66	0.738100	0.725200	0.360500
C991	C99	0.759800	0.572000	0.135400
C1001	C100	0.593900	0.142200	0.518400
H671	H67	0.614700	0.187300	0.492800
C1011	C101	0.520400	0.064100	0.578000
H681	H68	0.480200	0.045700	0.600900
C1021	C102	0.478400	0.206000	0.536300
C1031	C103	0.413400	0.183900	0.519300
H691	H69	0.401500	0.127400	0.512900
C1041	C104	0.365600	0.247300	0.511900
H701	H70	0.321200	0.233100	0.499100
C1051	C105	0.382400	0.330700	0.523000
C1061	C106	0.448800	0.352600	0.541200
H711	H71	0.460500	0.409200	0.548000
C1071	C107	0.497300	0.290200	0.549100
H721	H72	0.541500	0.303900	0.562700
C1081	C108	0.329900	0.399700	0.516900
N311	N31	0.643100	0.982700	0.349200
N321	N32	0.697200	0.967300	0.400000
N331	N33	0.700200	0.871400	0.309200
N341	N34	0.576000	0.018900	0.573700
N351	N35	0.622900	0.069500	0.534500
N361	N36	0.529100	0.141500	0.544500
O211	O21	0.763300	0.503600	0.169300
O221	O22	0.768900	0.582600	0.062000
O231	O23	0.270000	0.375300	0.501900
O241	O24	0.345300	0.474500	0.524400
Zn61	Zn6	0.714620	0.022880	0.506570
C1091	C109	0.147000	0.575200	0.703700
H731	H73	0.117200	0.580200	0.745900
C1101	C110	0.229700	0.599100	0.625900
H741	H74	0.267900	0.622300	0.602400
C1111	C111	0.217800	0.702500	0.734700
C1121	C112	0.213700	0.701300	0.816200
H751	H75	0.202400	0.651600	0.842500
C1131	C113	0.226500	0.774400	0.858000
H761	H76	0.223000	0.774400	0.912600
C1141	C114	0.244800	0.848200	0.818700
C1151	C115	0.249400	0.848700	0.737200
H771	H77	0.261800	0.898000	0.711000
C1161	C116	0.235500	0.774900	0.694200
H781	H78	0.238100	0.774800	0.639500
C1171	C117	0.259800	0.928000	0.864600
C1181	C118	0.093900	0.357800	0.481600
H791	H79	0.114700	0.312700	0.507200
C1191	C119	0.020400	0.435900	0.422000
H801	H80	0.980200	0.454300	0.399100
C1201	C120	0.978400	0.294000	0.463700
C1211	C121	0.913400	0.316100	0.480700
H811	H81	0.901500	0.372600	0.487100
C1221	C122	0.865600	0.252700	0.488100
H821	H82	0.821200	0.266900	0.500900
C1231	C123	0.882400	0.169300	0.477000
C1241	C124	0.948800	0.147400	0.458800
H831	H83	0.960500	0.090800	0.452000
C1251	C125	0.997300	0.209800	0.450900
H841	H84	0.041500	0.196100	0.437300
C1261	C126	0.829900	0.100300	0.483100
N371	N37	0.143100	0.517300	0.650800
N381	N38	0.197200	0.532700	0.600000
N391	N39	0.200200	0.628600	0.690800
N401	N40	0.076000	0.481100	0.426300
N411	N41	0.122900	0.430500	0.465500
N421	N42	0.029100	0.358500	0.455500
O251	O25	0.263300	0.996400	0.830700
O261	O26	0.268900	0.917400	0.938000
O271	O27	0.770000	0.124700	0.498100
O281	O28	0.845300	0.025500	0.475600
Zn71	Zn7	0.214620	0.477120	0.493430
C1271	C127	0.353000	0.924800	0.203700
H851	H85	0.382800	0.919800	0.245900
C1281	C128	0.270300	0.900900	0.125900
H861	H86	0.232100	0.877700	0.102400
C1291	C129	0.282200	0.797500	0.234700
C1301	C130	0.286300	0.798700	0.316200
H871	H87	0.297600	0.848400	0.342500
C1311	C131	0.273500	0.725600	0.358000
H881	H88	0.277000	0.725600	0.412600
C1321	C132	0.255200	0.651800	0.318700
C1331	C133	0.250600	0.651300	0.237200
H891	H89	0.238200	0.602000	0.211000
C1341	C134	0.264500	0.725100	0.194200
H901	H90	0.261900	0.725200	0.139500
C1351	C135	0.240200	0.572000	0.364600
C1361	C136	0.406100	0.142200	0.981600
H911	H91	0.385300	0.187300	0.007200
C1371	C137	0.479600	0.064100	0.922000
H921	H92	0.519800	0.045700	0.899100
C1381	C138	0.521600	0.206000	0.963700
C1391	C139	0.586600	0.183900	0.980700
H931	H93	0.598500	0.127400	0.987100
C1401	C140	0.634400	0.247300	0.988100
H941	H94	0.678800	0.233100	0.000900
C1411	C141	0.617600	0.330700	0.977000
C1421	C142	0.551200	0.352600	0.958800
H951	H95	0.539500	0.409200	0.952000
C1431	C143	0.502700	0.290200	0.950900
H961	H96	0.458500	0.303900	0.937300
C1441	C144	0.670100	0.399700	0.983100
N431	N43	0.356900	0.982700	0.150800
N441	N44	0.302800	0.967300	0.100000
N451	N45	0.299800	0.871400	0.190800
N461	N46	0.424000	0.018900	0.926300
N471	N47	0.377100	0.069500	0.965500
N481	N48	0.470900	0.141500	0.955500
O291	O29	0.236700	0.503600	0.330700
O301	O30	0.231100	0.582600	0.438000
O311	O31	0.730000	0.375300	0.998100
O321	O32	0.654700	0.474500	0.975600
Zn81	Zn8	0.285380	0.022880	0.993430
