data_AQUCOG_freeONLY_PM
_symmetry_space_group_name_H-M	'P1'
_cell_length_a	25.754200
_cell_length_b	25.754200
_cell_length_c	6.755000
_cell_angle_alpha	90.000000
_cell_angle_beta	90.000000
_cell_angle_gamma	120.000000
_symmetry_Int_Tables_number 1

loop_
_symmetry_equiv_pos_as_xyz
'x,y,z'

loop_
_atom_site_label
_atom_site_type_symbol
_atom_site_fract_x
_atom_site_fract_y
_atom_site_fract_z
Ni11	Ni1	0.618620	0.647870	0.352900
O11	O1	0.437860	0.407710	0.437050
O21	O2	0.368790	0.365410	0.218200
O31	O3	0.613560	0.583690	0.157510
C11	C1	0.417740	0.407260	0.255160
C21	C2	0.462250	0.453230	0.118480
C31	C3	0.559040	0.548740	0.079100
C41	C4	0.517430	0.497290	0.194570
H11	H1	0.528000	0.493240	0.327660
Ni21	Ni2	0.285290	0.981200	0.686230
O41	O4	0.104530	0.741040	0.770380
O51	O5	0.035460	0.698740	0.551530
O61	O6	0.280230	0.917020	0.490840
C51	C5	0.084410	0.740590	0.588490
C61	C6	0.128920	0.786560	0.451810
C71	C7	0.225710	0.882070	0.412430
C81	C8	0.184100	0.830620	0.527900
H21	H2	0.194670	0.826570	0.660990
Ni31	Ni3	0.951950	0.314540	0.019570
O71	O7	0.771190	0.074380	0.103720
O81	O8	0.702120	0.032080	0.884870
O91	O9	0.946890	0.250360	0.824180
C91	C9	0.751070	0.073930	0.921830
C101	C10	0.795580	0.119900	0.785150
C111	C11	0.892370	0.215410	0.745770
C121	C12	0.850760	0.163960	0.861240
H31	H3	0.861330	0.159910	0.994330
Ni41	Ni4	0.352130	0.970750	0.352900
O101	O10	0.592290	0.030150	0.437050
O111	O11	0.634590	0.003380	0.218200
O121	O12	0.416310	0.029870	0.157510
C131	C13	0.592740	0.010480	0.255160
C141	C14	0.546770	0.009020	0.118480
C151	C15	0.451260	0.010300	0.079100
C161	C16	0.502710	0.020140	0.194570
H41	H4	0.506760	0.034760	0.327660
Ni51	Ni5	0.018800	0.304080	0.686230
O131	O13	0.258960	0.363480	0.770380
O141	O14	0.301260	0.336710	0.551530
O151	O15	0.082980	0.363200	0.490840
C171	C17	0.259410	0.343810	0.588490
C181	C18	0.213440	0.342350	0.451810
C191	C19	0.117930	0.343630	0.412430
C201	C20	0.169380	0.353470	0.527900
H51	H5	0.173430	0.368090	0.660990
Ni61	Ni6	0.685460	0.637420	0.019570
O161	O16	0.925620	0.696820	0.103720
O171	O17	0.967920	0.670050	0.884870
O181	O18	0.749640	0.696540	0.824180
C211	C21	0.926070	0.677150	0.921830
C221	C22	0.880100	0.675690	0.785150
C231	C23	0.784590	0.676970	0.745770
C241	C24	0.836040	0.686810	0.861240
H61	H6	0.840090	0.701430	0.994330
Ni71	Ni7	0.029250	0.381380	0.352900
O191	O19	0.969850	0.562140	0.437050
O201	O20	0.996620	0.631210	0.218200
O211	O21	0.970130	0.386440	0.157510
C251	C25	0.989520	0.582260	0.255160
C261	C26	0.990980	0.537750	0.118480
C271	C27	0.989700	0.440960	0.079100
C281	C28	0.979860	0.482570	0.194570
H71	H7	0.965240	0.472000	0.327660
Ni81	Ni8	0.695920	0.714710	0.686230
O221	O22	0.636520	0.895470	0.770380
O231	O23	0.663290	0.964540	0.551530
O241	O24	0.636800	0.719770	0.490840
C291	C29	0.656190	0.915590	0.588490
C301	C30	0.657650	0.871080	0.451810
C311	C31	0.656370	0.774290	0.412430
C321	C32	0.646530	0.815900	0.527900
H81	H8	0.631910	0.805330	0.660990
Ni91	Ni9	0.362580	0.048050	0.019570
O251	O25	0.303180	0.228810	0.103720
O261	O26	0.329950	0.297880	0.884870
O271	O27	0.303460	0.053110	0.824180
C331	C33	0.322850	0.248930	0.921830
C341	C34	0.324310	0.204420	0.785150
C351	C35	0.323030	0.107630	0.745770
C361	C36	0.313190	0.149240	0.861240
H91	H9	0.298570	0.138670	0.994330
Ni101	Ni10	0.381380	0.352130	0.647100
O281	O28	0.562140	0.592290	0.562950
O291	O29	0.631210	0.634590	0.781800
O301	O30	0.386440	0.416310	0.842490
C371	C37	0.582260	0.592740	0.744840
C381	C38	0.537750	0.546770	0.881520
C391	C39	0.440960	0.451260	0.920900
C401	C40	0.482570	0.502710	0.805430
H101	H10	0.472000	0.506760	0.672340
Ni111	Ni11	0.048050	0.685460	0.980430
O311	O31	0.228810	0.925620	0.896280
O321	O32	0.297880	0.967920	0.115130
O331	O33	0.053110	0.749640	0.175820
C411	C41	0.248930	0.926070	0.078170
C421	C42	0.204420	0.880100	0.214850
C431	C43	0.107630	0.784590	0.254230
C441	C44	0.149240	0.836040	0.138760
H111	H11	0.138670	0.840090	0.005670
Ni121	Ni12	0.714710	0.018800	0.313770
O341	O34	0.895470	0.258960	0.229620
O351	O35	0.964540	0.301260	0.448470
O361	O36	0.719770	0.082980	0.509160
C451	C45	0.915590	0.259410	0.411510
C461	C46	0.871080	0.213440	0.548190
C471	C47	0.774290	0.117930	0.587570
C481	C48	0.815900	0.169380	0.472100
H121	H12	0.805330	0.173430	0.339010
Ni131	Ni13	0.647870	0.029250	0.647100
O371	O37	0.407710	0.969850	0.562950
O381	O38	0.365410	0.996620	0.781800
O391	O39	0.583690	0.970130	0.842490
C491	C49	0.407260	0.989520	0.744840
C501	C50	0.453230	0.990980	0.881520
C511	C51	0.548740	0.989700	0.920900
C521	C52	0.497290	0.979860	0.805430
H131	H13	0.493240	0.965240	0.672340
Ni141	Ni14	0.314540	0.362580	0.980430
O401	O40	0.074380	0.303180	0.896280
O411	O41	0.032080	0.329950	0.115130
O421	O42	0.250360	0.303460	0.175820
C531	C53	0.073930	0.322850	0.078170
C541	C54	0.119900	0.324310	0.214850
C551	C55	0.215410	0.323030	0.254230
C561	C56	0.163960	0.313190	0.138760
H141	H14	0.159910	0.298570	0.005670
Ni151	Ni15	0.981200	0.695920	0.313770
O431	O43	0.741040	0.636520	0.229620
O441	O44	0.698740	0.663290	0.448470
O451	O45	0.917020	0.636800	0.509160
C571	C57	0.740590	0.656190	0.411510
C581	C58	0.786560	0.657650	0.548190
C591	C59	0.882070	0.656370	0.587570
C601	C60	0.830620	0.646530	0.472100
H151	H15	0.826570	0.631910	0.339010
Ni161	Ni16	0.970750	0.618620	0.647100
O461	O46	0.030150	0.437860	0.562950
O471	O47	0.003380	0.368790	0.781800
O481	O48	0.029870	0.613560	0.842490
C611	C61	0.010480	0.417740	0.744840
C621	C62	0.009020	0.462250	0.881520
C631	C63	0.010300	0.559040	0.920900
C641	C64	0.020140	0.517430	0.805430
H161	H16	0.034760	0.528000	0.672340
Ni171	Ni17	0.637420	0.951950	0.980430
O491	O49	0.696820	0.771190	0.896280
O501	O50	0.670050	0.702120	0.115130
O511	O51	0.696540	0.946890	0.175820
C651	C65	0.677150	0.751070	0.078170
C661	C66	0.675690	0.795580	0.214850
C671	C67	0.676970	0.892370	0.254230
C681	C68	0.686810	0.850760	0.138760
H171	H17	0.701430	0.861330	0.005670
Ni181	Ni18	0.304080	0.285290	0.313770
O521	O52	0.363480	0.104530	0.229620
O531	O53	0.336710	0.035460	0.448470
O541	O54	0.363200	0.280230	0.509160
C691	C69	0.343810	0.084410	0.411510
C701	C70	0.342350	0.128920	0.548190
C711	C71	0.343630	0.225710	0.587570
C721	C72	0.353470	0.184100	0.472100
H181	H18	0.368090	0.194670	0.339010
