data_ARINOF_freeONLY_PM
_symmetry_space_group_name_H-M	'P1'
_cell_length_a	12.726000
_cell_length_b	8.057000
_cell_length_c	13.505000
_cell_angle_alpha	89.958000
_cell_angle_beta	90.123000
_cell_angle_gamma	89.928000
_symmetry_Int_Tables_number 1

loop_
_symmetry_equiv_pos_as_xyz
'x,y,z'

loop_
_atom_site_label
_atom_site_type_symbol
_atom_site_fract_x
_atom_site_fract_y
_atom_site_fract_z
Cu11	Cu1	0.750010	0.251190	0.250040
C11	C1	0.849000	0.659700	0.077100
H11	H1	0.812300	0.741300	0.042600
C21	C2	0.954200	0.670600	0.086600
C31	C3	0.946200	0.416100	0.176500
H21	H2	0.981600	0.330000	0.208200
C41	C4	0.003900	0.542100	0.138300
H31	H3	0.076400	0.543100	0.146500
C51	C5	0.795200	0.527500	0.118500
H41	H4	0.722900	0.521000	0.109300
C61	C6	0.585800	0.830500	0.051500
C71	C7	0.638800	0.959400	0.007500
H51	H5	0.648800	0.961400	0.939300
C81	C8	0.677300	0.086200	0.066400
H61	H6	0.714000	0.171700	0.035800
C91	C9	0.572100	0.837600	0.152200
H71	H7	0.536900	0.752800	0.185000
C101	C10	0.610800	0.970600	0.204300
H81	H8	0.598500	0.975200	0.272100
N11	N1	0.843300	0.408600	0.171400
N21	N2	0.665100	0.093000	0.162800
C111	C11	0.544900	0.668700	0.412700
C121	C12	0.651000	0.659200	0.423000
H91	H9	0.687200	0.741200	0.457600
C131	C13	0.496600	0.543100	0.362400
H101	H10	0.423900	0.544100	0.354800
C141	C14	0.553700	0.416700	0.323500
H111	H11	0.518200	0.332000	0.290800
C151	C15	0.704800	0.528000	0.382200
H121	H12	0.777100	0.521800	0.391200
N31	N3	0.656400	0.408100	0.329800
N41	N4	0.834600	0.092400	0.337100
C161	C16	0.913900	0.830600	0.448500
C171	C17	0.861700	0.957900	0.492200
H131	H13	0.852000	0.958700	0.560500
C181	C18	0.822800	0.087500	0.434300
H141	H14	0.787100	0.173800	0.465200
C191	C19	0.928200	0.839100	0.347200
H151	H15	0.964100	0.755200	0.314200
C201	C20	0.889200	0.971500	0.296200
H161	H16	0.901700	0.976800	0.228500
C211	C21	0.949600	0.690200	0.508500
H171	H17	0.947300	0.695600	0.577300
C221	C22	0.012800	0.812000	0.046800
H181	H18	0.085600	0.806300	0.042100
C231	C23	0.487200	0.811900	0.452200
H191	H19	0.414300	0.808100	0.454900
N51	N5	0.534200	0.939800	0.482400
N61	N6	0.965400	0.941200	0.018800
C241	C24	0.549300	0.692200	0.992100
H201	H20	0.549400	0.700000	0.923400
N71	N7	0.516800	0.559500	0.034200
N81	N8	0.983700	0.560900	0.465500
Cu21	Cu2	0.249990	0.748810	0.749960
C251	C25	0.151000	0.340300	0.922900
H211	H21	0.187700	0.258700	0.957400
C261	C26	0.045800	0.329400	0.913400
C271	C27	0.053800	0.583900	0.823500
H221	H22	0.018400	0.670000	0.791800
C281	C28	0.996100	0.457900	0.861700
H231	H23	0.923600	0.456900	0.853500
C291	C29	0.204800	0.472500	0.881500
H241	H24	0.277100	0.479000	0.890700
C301	C30	0.414200	0.169500	0.948500
C311	C31	0.361200	0.040600	0.992500
H251	H25	0.351200	0.038600	0.060700
C321	C32	0.322700	0.913800	0.933600
H261	H26	0.286000	0.828300	0.964200
C331	C33	0.427900	0.162400	0.847800
H271	H27	0.463100	0.247200	0.815000
C341	C34	0.389200	0.029400	0.795700
H281	H28	0.401500	0.024800	0.727900
N91	N9	0.156700	0.591400	0.828600
N101	N10	0.334900	0.907000	0.837200
C351	C35	0.455100	0.331300	0.587300
C361	C36	0.349000	0.340800	0.577000
H291	H29	0.312800	0.258800	0.542400
C371	C37	0.503400	0.456900	0.637600
H301	H30	0.576100	0.455900	0.645200
C381	C38	0.446300	0.583300	0.676500
H311	H31	0.481800	0.668000	0.709200
C391	C39	0.295200	0.472000	0.617800
H321	H32	0.222900	0.478200	0.608800
N111	N11	0.343600	0.591900	0.670200
N121	N12	0.165400	0.907600	0.662900
C401	C40	0.086100	0.169400	0.551500
C411	C41	0.138300	0.042100	0.507800
H331	H33	0.148000	0.041300	0.439500
C421	C42	0.177200	0.912500	0.565700
H341	H34	0.212900	0.826200	0.534800
C431	C43	0.071800	0.160900	0.652800
H351	H35	0.035900	0.244800	0.685800
C441	C44	0.110800	0.028500	0.703800
H361	H36	0.098300	0.023200	0.771500
C451	C45	0.050400	0.309800	0.491500
H371	H37	0.052700	0.304400	0.422700
C461	C46	0.987200	0.188000	0.953200
H381	H38	0.914400	0.193700	0.957900
C471	C47	0.512800	0.188100	0.547800
H391	H39	0.585700	0.191900	0.545100
N131	N13	0.465800	0.060200	0.517600
N141	N14	0.034600	0.058800	0.981200
C481	C48	0.450700	0.307800	0.007900
H401	H40	0.450600	0.300000	0.076600
N151	N15	0.483200	0.440500	0.965800
N161	N16	0.016300	0.439100	0.534500
