data_ASADAA_freeONLY_PM
_symmetry_space_group_name_H-M	'P1'
_cell_length_a	11.941000
_cell_length_b	15.298600
_cell_length_c	17.316000
_cell_angle_alpha	84.721800
_cell_angle_beta	76.366100
_cell_angle_gamma	67.029100
_symmetry_Int_Tables_number 1

loop_
_symmetry_equiv_pos_as_xyz
'x,y,z'

loop_
_atom_site_label
_atom_site_type_symbol
_atom_site_fract_x
_atom_site_fract_y
_atom_site_fract_z
Cd11	Cd1	0.527260	0.562660	0.334440
Cd21	Cd2	0.209150	0.369280	0.185880
Cd31	Cd3	0.910080	0.562660	0.165560
Cd41	Cd4	0.421570	0.369280	0.314120
Cd51	Cd5	0.472740	0.437340	0.665560
Cd61	Cd6	0.790850	0.630720	0.814120
Cd71	Cd7	0.089920	0.437340	0.834440
Cd81	Cd8	0.578430	0.630720	0.685880
H11	H1	0.892100	0.651400	0.464300
H21	H2	0.089200	0.619600	0.385600
H31	H3	0.509000	0.708800	0.192800
H41	H4	0.438400	0.864800	0.162000
H51	H5	0.445800	0.006200	0.150400
H61	H6	0.388900	0.166000	0.125000
H71	H7	0.135100	0.224600	0.320400
H81	H8	0.190300	0.068400	0.352900
H91	H9	0.322700	0.926000	0.393200
H101	H10	0.401500	0.763600	0.417700
H111	H11	0.153000	0.348000	0.027700
H121	H12	0.456500	0.651400	0.035700
H131	H13	0.291200	0.619600	0.114400
H141	H14	0.782200	0.708800	0.307200
H151	H15	0.696800	0.864800	0.338000
H161	H16	0.548000	0.006200	0.349600
H171	H17	0.445100	0.166000	0.375000
H181	H18	0.640300	0.224600	0.179600
H191	H19	0.741300	0.068400	0.147100
H201	H20	0.751300	0.926000	0.106800
H211	H21	0.834900	0.763600	0.082300
H221	H22	0.499000	0.348000	0.472300
H231	H23	0.107900	0.348600	0.535700
H241	H24	0.910800	0.380400	0.614400
H251	H25	0.491000	0.291200	0.807200
H261	H26	0.561600	0.135200	0.838000
H271	H27	0.554200	0.993800	0.849600
H281	H28	0.611100	0.834000	0.875000
H291	H29	0.864900	0.775400	0.679600
H301	H30	0.809700	0.931600	0.647100
H311	H31	0.677300	0.074000	0.606800
H321	H32	0.598500	0.236400	0.582300
H331	H33	0.847000	0.652000	0.972300
H341	H34	0.543500	0.348600	0.964300
H351	H35	0.708800	0.380400	0.885600
H361	H36	0.217800	0.291200	0.692800
H371	H37	0.303200	0.135200	0.662000
H381	H38	0.452000	0.993800	0.650400
H391	H39	0.554900	0.834000	0.625000
H401	H40	0.359700	0.775400	0.820400
H411	H41	0.258700	0.931600	0.852900
H421	H42	0.248700	0.074000	0.893200
H431	H43	0.165100	0.236400	0.917700
H441	H44	0.501000	0.652000	0.527700
C11	C1	0.307200	0.561000	0.424600
C21	C2	0.182200	0.569600	0.473800
C31	C3	0.167600	0.546600	0.553800
C41	C4	0.281000	0.499400	0.588800
C51	C5	0.048900	0.565600	0.602200
C61	C6	0.040300	0.540200	0.688800
C71	C7	0.944900	0.607200	0.567700
C81	C8	0.814900	0.624800	0.615000
C91	C9	0.961300	0.625800	0.487200
C101	C10	0.079300	0.607000	0.439800
C111	C11	0.471200	0.753000	0.233800
C121	C12	0.428200	0.846800	0.215100
C131	C13	0.370700	0.914800	0.272700
C141	C14	0.326100	0.017600	0.254700
C151	C15	0.382900	0.049600	0.186800
C161	C16	0.347600	0.146400	0.171500
C171	C17	0.200300	0.180200	0.286000
C181	C18	0.231900	0.086200	0.305600
C191	C19	0.360300	0.883200	0.351200
C201	C20	0.408100	0.784800	0.365300
C211	C21	0.131800	0.561000	0.075400
C221	C22	0.248200	0.569600	0.026200
C231	C23	0.285800	0.546600	0.946200
C241	C24	0.219600	0.499400	0.911200
C251	C25	0.385500	0.565600	0.897800
C261	C26	0.419500	0.540200	0.811200
C271	C27	0.447900	0.607200	0.932300
C281	C28	0.560300	0.624800	0.885000
C291	C29	0.412900	0.625800	0.012800
C301	C30	0.313700	0.607000	0.060200
C311	C31	0.775800	0.753000	0.266200
C321	C32	0.725000	0.846800	0.284900
C331	C33	0.714500	0.914800	0.227300
C341	C34	0.656300	0.017600	0.245300
C351	C35	0.567500	0.049600	0.313200
C361	C36	0.506000	0.146400	0.328500
C371	C37	0.619500	0.180200	0.214000
C381	C38	0.681900	0.086200	0.194400
C391	C39	0.756500	0.883200	0.148800
C401	C40	0.807100	0.784800	0.134700
C411	C41	0.692800	0.439000	0.575400
C421	C42	0.817800	0.430400	0.526200
C431	C43	0.832400	0.453400	0.446200
C441	C44	0.719000	0.500600	0.411200
C451	C45	0.951100	0.434400	0.397800
C461	C46	0.959700	0.459800	0.311200
C471	C47	0.055100	0.392800	0.432300
C481	C48	0.185100	0.375200	0.385000
C491	C49	0.038700	0.374200	0.512800
C501	C50	0.920700	0.393000	0.560200
C511	C51	0.528800	0.247000	0.766200
C521	C52	0.571800	0.153200	0.784900
C531	C53	0.629300	0.085200	0.727300
C541	C54	0.673900	0.982400	0.745300
C551	C55	0.617100	0.950400	0.813200
C561	C56	0.652400	0.853600	0.828500
C571	C57	0.799700	0.819800	0.714000
C581	C58	0.768100	0.913800	0.694400
C591	C59	0.639700	0.116800	0.648800
C601	C60	0.591900	0.215200	0.634700
C611	C61	0.868200	0.439000	0.924600
C621	C62	0.751800	0.430400	0.973800
C631	C63	0.714200	0.453400	0.053800
C641	C64	0.780400	0.500600	0.088800
C651	C65	0.614500	0.434400	0.102200
C661	C66	0.580500	0.459800	0.188800
C671	C67	0.552100	0.392800	0.067700
C681	C68	0.439700	0.375200	0.115000
C691	C69	0.587100	0.374200	0.987200
C701	C70	0.686300	0.393000	0.939800
C711	C71	0.224200	0.247000	0.733800
C721	C72	0.275000	0.153200	0.715100
C731	C73	0.285500	0.085200	0.772700
C741	C74	0.343700	0.982400	0.754700
C751	C75	0.432500	0.950400	0.686800
C761	C76	0.494000	0.853600	0.671500
C771	C77	0.380500	0.819800	0.786000
C781	C78	0.318100	0.913800	0.805600
C791	C79	0.243500	0.116800	0.851200
C801	C80	0.192900	0.215200	0.865300
N11	N1	0.461400	0.721600	0.308700
N21	N2	0.257200	0.212200	0.220500
N31	N3	0.817000	0.721600	0.191300
N41	N4	0.530600	0.212200	0.279500
N51	N5	0.538600	0.278400	0.691300
N61	N6	0.742800	0.787800	0.779500
N71	N7	0.183000	0.278400	0.808700
N81	N8	0.469400	0.787800	0.720500
O11	O1	0.369700	0.593000	0.452800
O21	O2	0.344050	0.528300	0.354600
O31	O3	0.357980	0.419640	0.564200
O41	O4	0.291200	0.540400	0.644500
O51	O5	0.090100	0.454000	0.704800
O61	O6	0.989180	0.604640	0.740500
O71	O7	0.797790	0.589020	0.683200
O81	O8	0.724800	0.670600	0.584300
O91	O9	0.132300	0.345400	0.080300
O101	O10	0.037300	0.593000	0.047200
O111	O11	0.127650	0.528300	0.145400
O121	O12	0.222380	0.419640	0.935800
O131	O13	0.168400	0.540400	0.855500
O141	O14	0.455900	0.454000	0.795200
O151	O15	0.406180	0.604640	0.759500
O161	O16	0.613190	0.589020	0.816800
O171	O17	0.604600	0.670600	0.915700
O181	O18	0.522300	0.345400	0.419700
O191	O19	0.630300	0.407000	0.547200
O201	O20	0.655950	0.471700	0.645400
O211	O21	0.642020	0.580360	0.435800
O221	O22	0.708800	0.459600	0.355500
O231	O23	0.909900	0.546000	0.295200
O241	O24	0.010820	0.395360	0.259500
O251	O25	0.202210	0.410980	0.316800
O261	O26	0.275200	0.329400	0.415700
O271	O27	0.867700	0.654600	0.919700
O281	O28	0.962700	0.407000	0.952800
O291	O29	0.872350	0.471700	0.854600
O301	O30	0.777620	0.580360	0.064200
O311	O31	0.831600	0.459600	0.144500
O321	O32	0.544100	0.546000	0.204800
O331	O33	0.593820	0.395360	0.240500
O341	O34	0.386810	0.410980	0.183200
O351	O35	0.395400	0.329400	0.084300
O361	O36	0.477700	0.654600	0.580300
