data_ASOHUL_freeONLY_PM
_symmetry_space_group_name_H-M	'P1'
_cell_length_a	17.695600
_cell_length_b	6.874500
_cell_length_c	11.930300
_cell_angle_alpha	90.000000
_cell_angle_beta	90.000000
_cell_angle_gamma	90.000000
_symmetry_Int_Tables_number 1

loop_
_symmetry_equiv_pos_as_xyz
'x,y,z'

loop_
_atom_site_label
_atom_site_type_symbol
_atom_site_fract_x
_atom_site_fract_y
_atom_site_fract_z
O11	O1	0.074070	0.086400	0.883100
O21	O2	0.411470	0.085900	0.591000
C11	C1	0.206800	0.074300	0.760600
C21	C2	0.274300	0.074300	0.702900
O31	O3	0.425930	0.913600	0.383100
O41	O4	0.088530	0.914100	0.091000
C31	C3	0.293200	0.925700	0.260600
C41	C4	0.225700	0.925700	0.202900
O51	O5	0.925930	0.586400	0.116900
O61	O6	0.588530	0.585900	0.409000
C51	C5	0.793200	0.574300	0.239400
C61	C6	0.725700	0.574300	0.297100
O71	O7	0.574070	0.413600	0.616900
O81	O8	0.911470	0.414100	0.909000
C71	C7	0.706800	0.425700	0.739400
C81	C8	0.774300	0.425700	0.797100
O91	O9	0.925930	0.913600	0.116900
O101	O10	0.588530	0.914100	0.409000
C91	C9	0.793200	0.925700	0.239400
C101	C10	0.725700	0.925700	0.297100
O111	O11	0.574070	0.086400	0.616900
O121	O12	0.911470	0.085900	0.909000
C111	C11	0.706800	0.074300	0.739400
C121	C12	0.774300	0.074300	0.797100
O131	O13	0.074070	0.413600	0.883100
O141	O14	0.411470	0.414100	0.591000
C131	C13	0.206800	0.425700	0.760600
C141	C14	0.274300	0.425700	0.702900
O151	O15	0.425930	0.586400	0.383100
O161	O16	0.088530	0.585900	0.091000
C151	C15	0.293200	0.574300	0.260600
C161	C16	0.225700	0.574300	0.202900
V11	V1	0.000000	0.000000	0.000000
V21	V2	0.500000	0.000000	0.500000
V31	V3	0.000000	0.500000	0.000000
V41	V4	0.500000	0.500000	0.500000
O171	O17	0.006400	0.250000	0.073800
C171	C17	0.100900	0.250000	0.857100
C181	C18	0.172600	0.250000	0.789600
C191	C19	0.308300	0.250000	0.674700
C201	C20	0.383600	0.250000	0.613600
O181	O18	0.493600	0.750000	0.573800
C211	C21	0.399100	0.750000	0.357100
C221	C22	0.327400	0.750000	0.289600
C231	C23	0.191700	0.750000	0.174700
C241	C24	0.116400	0.750000	0.113600
O191	O19	0.993600	0.750000	0.926200
C251	C25	0.899100	0.750000	0.142900
C261	C26	0.827400	0.750000	0.210400
C271	C27	0.691700	0.750000	0.325300
C281	C28	0.616400	0.750000	0.386400
O201	O20	0.506400	0.250000	0.426200
C291	C29	0.600900	0.250000	0.642900
C301	C30	0.672600	0.250000	0.710400
C311	C31	0.808300	0.250000	0.825300
C321	C32	0.883600	0.250000	0.886400
