data_ASUKEE01_freeONLY_PM
_symmetry_space_group_name_H-M	'P1'
_cell_length_a	18.747000
_cell_length_b	23.355000
_cell_length_c	30.404000
_cell_angle_alpha	90.000000
_cell_angle_beta	90.000000
_cell_angle_gamma	90.000000
_symmetry_Int_Tables_number 1

loop_
_symmetry_equiv_pos_as_xyz
'x,y,z'

loop_
_atom_site_label
_atom_site_type_symbol
_atom_site_fract_x
_atom_site_fract_y
_atom_site_fract_z
Cu11	Cu1	0.514180	0.389750	0.121430
N11	N1	0.520650	0.473490	0.121700
N21	N2	0.462190	0.344580	0.167320
N31	N3	0.312720	0.161600	0.328370
C11	C1	0.542130	0.502130	0.157390
H11	H1	0.557900	0.481300	0.181600
C21	C2	0.542010	0.561360	0.160070
H21	H2	0.556500	0.579500	0.185800
C31	C3	0.520380	0.593180	0.124400
C41	C4	0.499300	0.563710	0.086950
H31	H3	0.484900	0.583600	0.062000
C51	C5	0.499820	0.504690	0.087050
H41	H4	0.485000	0.485600	0.061800
C61	C6	0.469570	0.355300	0.210290
H51	H5	0.495400	0.387500	0.218800
C71	C7	0.423670	0.298650	0.156250
H61	H6	0.417000	0.291000	0.126500
C81	C8	0.440840	0.321120	0.242580
H71	H7	0.447600	0.330200	0.272100
C91	C9	0.393530	0.262270	0.186310
H81	H8	0.367700	0.230600	0.176900
C101	C10	0.401750	0.272950	0.230940
C111	C11	0.370500	0.234690	0.264580
C121	C12	0.346280	0.255400	0.304530
H91	H9	0.349300	0.294300	0.310800
C131	C13	0.364410	0.176100	0.257360
H101	H10	0.379400	0.160200	0.230900
C141	C14	0.336090	0.141740	0.289740
H111	H11	0.333100	0.102600	0.284500
C151	C15	0.317780	0.218210	0.334900
H121	H12	0.301100	0.233100	0.361300
Cu21	Cu2	0.514180	0.889750	0.621430
N41	N4	0.520650	0.973490	0.621700
N51	N5	0.462190	0.844580	0.667320
N61	N6	0.312720	0.661600	0.828370
C161	C16	0.542130	0.002130	0.657390
H131	H13	0.557900	0.981300	0.681600
C171	C17	0.542010	0.061360	0.660070
H141	H14	0.556500	0.079500	0.685800
C181	C18	0.520380	0.093180	0.624400
C191	C19	0.499300	0.063710	0.586950
H151	H15	0.484900	0.083600	0.562000
C201	C20	0.499820	0.004690	0.587050
H161	H16	0.485000	0.985600	0.561800
C211	C21	0.469570	0.855300	0.710290
H171	H17	0.495400	0.887500	0.718800
C221	C22	0.423670	0.798650	0.656250
H181	H18	0.417000	0.791000	0.626500
C231	C23	0.440840	0.821120	0.742580
H191	H19	0.447600	0.830200	0.772100
C241	C24	0.393530	0.762270	0.686310
H201	H20	0.367700	0.730600	0.676900
C251	C25	0.401750	0.772950	0.730940
C261	C26	0.370500	0.734690	0.764580
C271	C27	0.346280	0.755400	0.804530
H211	H21	0.349300	0.794300	0.810800
C281	C28	0.364410	0.676100	0.757360
H221	H22	0.379400	0.660200	0.730900
C291	C29	0.336090	0.641740	0.789740
H231	H23	0.333100	0.602600	0.784500
C301	C30	0.317780	0.718210	0.834900
H241	H24	0.301100	0.733100	0.861300
Cu31	Cu3	0.014180	0.389750	0.621430
N71	N7	0.020650	0.473490	0.621700
N81	N8	0.962190	0.344580	0.667320
N91	N9	0.812720	0.161600	0.828370
C311	C31	0.042130	0.502130	0.657390
H251	H25	0.057900	0.481300	0.681600
C321	C32	0.042010	0.561360	0.660070
H261	H26	0.056500	0.579500	0.685800
C331	C33	0.020380	0.593180	0.624400
C341	C34	0.999300	0.563710	0.586950
H271	H27	0.984900	0.583600	0.562000
C351	C35	0.999820	0.504690	0.587050
H281	H28	0.985000	0.485600	0.561800
C361	C36	0.969570	0.355300	0.710290
H291	H29	0.995400	0.387500	0.718800
C371	C37	0.923670	0.298650	0.656250
H301	H30	0.917000	0.291000	0.626500
C381	C38	0.940840	0.321120	0.742580
H311	H31	0.947600	0.330200	0.772100
C391	C39	0.893530	0.262270	0.686310
H321	H32	0.867700	0.230600	0.676900
C401	C40	0.901750	0.272950	0.730940
C411	C41	0.870500	0.234690	0.764580
C421	C42	0.846280	0.255400	0.804530
H331	H33	0.849300	0.294300	0.810800
C431	C43	0.864410	0.176100	0.757360
H341	H34	0.879400	0.160200	0.730900
C441	C44	0.836090	0.141740	0.789740
H351	H35	0.833100	0.102600	0.784500
C451	C45	0.817780	0.218210	0.834900
H361	H36	0.801100	0.233100	0.861300
Cu41	Cu4	0.014180	0.889750	0.121430
N101	N10	0.020650	0.973490	0.121700
N111	N11	0.962190	0.844580	0.167320
N121	N12	0.812720	0.661600	0.328370
C461	C46	0.042130	0.002130	0.157390
H371	H37	0.057900	0.981300	0.181600
C471	C47	0.042010	0.061360	0.160070
H381	H38	0.056500	0.079500	0.185800
C481	C48	0.020380	0.093180	0.124400
C491	C49	0.999300	0.063710	0.086950
H391	H39	0.984900	0.083600	0.062000
C501	C50	0.999820	0.004690	0.087050
H401	H40	0.985000	0.985600	0.061800
C511	C51	0.969570	0.855300	0.210290
H411	H41	0.995400	0.887500	0.218800
C521	C52	0.923670	0.798650	0.156250
H421	H42	0.917000	0.791000	0.126500
C531	C53	0.940840	0.821120	0.242580
H431	H43	0.947600	0.830200	0.272100
C541	C54	0.893530	0.762270	0.186310
H441	H44	0.867700	0.730600	0.176900
C551	C55	0.901750	0.772950	0.230940
C561	C56	0.870500	0.734690	0.264580
C571	C57	0.846280	0.755400	0.304530
H451	H45	0.849300	0.794300	0.310800
C581	C58	0.864410	0.676100	0.257360
H461	H46	0.879400	0.660200	0.230900
C591	C59	0.836090	0.641740	0.289740
H471	H47	0.833100	0.602600	0.284500
C601	C60	0.817780	0.718210	0.334900
H481	H48	0.801100	0.733100	0.361300
Cu51	Cu5	0.514180	0.360250	0.628570
N131	N13	0.520650	0.276510	0.628300
N141	N14	0.462190	0.405420	0.582680
N151	N15	0.312720	0.588400	0.421630
C611	C61	0.542130	0.247870	0.592610
H491	H49	0.557900	0.268700	0.568400
C621	C62	0.542010	0.188640	0.589930
H501	H50	0.556500	0.170500	0.564200
C631	C63	0.520380	0.156820	0.625600
C641	C64	0.499300	0.186290	0.663050
H511	H51	0.484900	0.166400	0.688000
C651	C65	0.499820	0.245310	0.662950
H521	H52	0.485000	0.264400	0.688200
C661	C66	0.469570	0.394700	0.539710
H531	H53	0.495400	0.362500	0.531200
C671	C67	0.423670	0.451350	0.593750
H541	H54	0.417000	0.459000	0.623500
C681	C68	0.440840	0.428880	0.507420
H551	H55	0.447600	0.419800	0.477900
C691	C69	0.393530	0.487730	0.563690
H561	H56	0.367700	0.519400	0.573100
C701	C70	0.401750	0.477050	0.519060
C711	C71	0.370500	0.515310	0.485420
C721	C72	0.346280	0.494600	0.445470
H571	H57	0.349300	0.455700	0.439200
C731	C73	0.364410	0.573900	0.492640
H581	H58	0.379400	0.589800	0.519100
C741	C74	0.336090	0.608260	0.460260
H591	H59	0.333100	0.647400	0.465500
C751	C75	0.317780	0.531790	0.415100
H601	H60	0.301100	0.516900	0.388700
Cu61	Cu6	0.514180	0.860250	0.128570
N161	N16	0.520650	0.776510	0.128300
N171	N17	0.462190	0.905420	0.082680
N181	N18	0.312720	0.088400	0.921630
C761	C76	0.542130	0.747870	0.092610
H611	H61	0.557900	0.768700	0.068400
C771	C77	0.542010	0.688640	0.089930
H621	H62	0.556500	0.670500	0.064200
C781	C78	0.520380	0.656820	0.125600
C791	C79	0.499300	0.686290	0.163050
H631	H63	0.484900	0.666400	0.188000
C801	C80	0.499820	0.745310	0.162950
H641	H64	0.485000	0.764400	0.188200
C811	C81	0.469570	0.894700	0.039710
H651	H65	0.495400	0.862500	0.031200
C821	C82	0.423670	0.951350	0.093750
H661	H66	0.417000	0.959000	0.123500
C831	C83	0.440840	0.928880	0.007420
H671	H67	0.447600	0.919800	0.977900
C841	C84	0.393530	0.987730	0.063690
H681	H68	0.367700	0.019400	0.073100
C851	C85	0.401750	0.977050	0.019060
C861	C86	0.370500	0.015310	0.985420
C871	C87	0.346280	0.994600	0.945470
H691	H69	0.349300	0.955700	0.939200
C881	C88	0.364410	0.073900	0.992640
H701	H70	0.379400	0.089800	0.019100
C891	C89	0.336090	0.108260	0.960260
H711	H71	0.333100	0.147400	0.965500
C901	C90	0.317780	0.031790	0.915100
H721	H72	0.301100	0.016900	0.888700
Cu71	Cu7	0.014180	0.360250	0.128570
N191	N19	0.020650	0.276510	0.128300
N201	N20	0.962190	0.405420	0.082680
N211	N21	0.812720	0.588400	0.921630
C911	C91	0.042130	0.247870	0.092610
H731	H73	0.057900	0.268700	0.068400
C921	C92	0.042010	0.188640	0.089930
H741	H74	0.056500	0.170500	0.064200
C931	C93	0.020380	0.156820	0.125600
C941	C94	0.999300	0.186290	0.163050
H751	H75	0.984900	0.166400	0.188000
C951	C95	0.999820	0.245310	0.162950
H761	H76	0.985000	0.264400	0.188200
C961	C96	0.969570	0.394700	0.039710
H771	H77	0.995400	0.362500	0.031200
C971	C97	0.923670	0.451350	0.093750
H781	H78	0.917000	0.459000	0.123500
C981	C98	0.940840	0.428880	0.007420
H791	H79	0.947600	0.419800	0.977900
C991	C99	0.893530	0.487730	0.063690
H801	H80	0.867700	0.519400	0.073100
C1001	C100	0.901750	0.477050	0.019060
C1011	C101	0.870500	0.515310	0.985420
C1021	C102	0.846280	0.494600	0.945470
H811	H81	0.849300	0.455700	0.939200
C1031	C103	0.864410	0.573900	0.992640
H821	H82	0.879400	0.589800	0.019100
C1041	C104	0.836090	0.608260	0.960260
H831	H83	0.833100	0.647400	0.965500
C1051	C105	0.817780	0.531790	0.915100
H841	H84	0.801100	0.516900	0.888700
Cu81	Cu8	0.014180	0.860250	0.628570
N221	N22	0.020650	0.776510	0.628300
N231	N23	0.962190	0.905420	0.582680
N241	N24	0.812720	0.088400	0.421630
C1061	C106	0.042130	0.747870	0.592610
H851	H85	0.057900	0.768700	0.568400
C1071	C107	0.042010	0.688640	0.589930
H861	H86	0.056500	0.670500	0.564200
C1081	C108	0.020380	0.656820	0.625600
C1091	C109	0.999300	0.686290	0.663050
H871	H87	0.984900	0.666400	0.688000
C1101	C110	0.999820	0.745310	0.662950
H881	H88	0.985000	0.764400	0.688200
C1111	C111	0.969570	0.894700	0.539710
H891	H89	0.995400	0.862500	0.531200
C1121	C112	0.923670	0.951350	0.593750
H901	H90	0.917000	0.959000	0.623500
C1131	C113	0.940840	0.928880	0.507420
H911	H91	0.947600	0.919800	0.477900
C1141	C114	0.893530	0.987730	0.563690
H921	H92	0.867700	0.019400	0.573100
C1151	C115	0.901750	0.977050	0.519060
C1161	C116	0.870500	0.015310	0.485420
C1171	C117	0.846280	0.994600	0.445470
H931	H93	0.849300	0.955700	0.439200
C1181	C118	0.864410	0.073900	0.492640
H941	H94	0.879400	0.089800	0.519100
C1191	C119	0.836090	0.108260	0.460260
H951	H95	0.833100	0.147400	0.465500
C1201	C120	0.817780	0.031790	0.415100
H961	H96	0.801100	0.016900	0.388700
Cu91	Cu9	0.764180	0.639750	0.878570
N251	N25	0.770650	0.723490	0.878300
N261	N26	0.712190	0.594580	0.832680
N271	N27	0.562720	0.411600	0.671630
C1211	C121	0.792130	0.752130	0.842610
H971	H97	0.807900	0.731300	0.818400
C1221	C122	0.792010	0.811360	0.839930
H981	H98	0.806500	0.829500	0.814200
C1231	C123	0.770380	0.843180	0.875600
C1241	C124	0.749300	0.813710	0.913050
H991	H99	0.734900	0.833600	0.938000
C1251	C125	0.749820	0.754690	0.912950
H1001	H100	0.735000	0.735600	0.938200
C1261	C126	0.719570	0.605300	0.789710
H1011	H101	0.745400	0.637500	0.781200
C1271	C127	0.673670	0.548650	0.843750
H1021	H102	0.667000	0.541000	0.873500
C1281	C128	0.690840	0.571120	0.757420
H1031	H103	0.697600	0.580200	0.727900
C1291	C129	0.643530	0.512270	0.813690
H1041	H104	0.617700	0.480600	0.823100
C1301	C130	0.651750	0.522950	0.769060
C1311	C131	0.620500	0.484690	0.735420
C1321	C132	0.596280	0.505400	0.695470
H1051	H105	0.599300	0.544300	0.689200
C1331	C133	0.614410	0.426100	0.742640
H1061	H106	0.629400	0.410200	0.769100
C1341	C134	0.586090	0.391740	0.710260
H1071	H107	0.583100	0.352600	0.715500
C1351	C135	0.567780	0.468210	0.665100
H1081	H108	0.551100	0.483100	0.638700
Cu101	Cu10	0.764180	0.139750	0.378570
N281	N28	0.770650	0.223490	0.378300
N291	N29	0.712190	0.094580	0.332680
N301	N30	0.562720	0.911600	0.171630
C1361	C136	0.792130	0.252130	0.342610
H1091	H109	0.807900	0.231300	0.318400
C1371	C137	0.792010	0.311360	0.339930
H1101	H110	0.806500	0.329500	0.314200
C1381	C138	0.770380	0.343180	0.375600
C1391	C139	0.749300	0.313710	0.413050
H1111	H111	0.734900	0.333600	0.438000
C1401	C140	0.749820	0.254690	0.412950
H1121	H112	0.735000	0.235600	0.438200
C1411	C141	0.719570	0.105300	0.289710
H1131	H113	0.745400	0.137500	0.281200
C1421	C142	0.673670	0.048650	0.343750
H1141	H114	0.667000	0.041000	0.373500
C1431	C143	0.690840	0.071120	0.257420
H1151	H115	0.697600	0.080200	0.227900
C1441	C144	0.643530	0.012270	0.313690
H1161	H116	0.617700	0.980600	0.323100
C1451	C145	0.651750	0.022950	0.269060
C1461	C146	0.620500	0.984690	0.235420
C1471	C147	0.596280	0.005400	0.195470
H1171	H117	0.599300	0.044300	0.189200
C1481	C148	0.614410	0.926100	0.242640
H1181	H118	0.629400	0.910200	0.269100
C1491	C149	0.586090	0.891740	0.210260
H1191	H119	0.583100	0.852600	0.215500
C1501	C150	0.567780	0.968210	0.165100
H1201	H120	0.551100	0.983100	0.138700
Cu111	Cu11	0.264180	0.639750	0.378570
N311	N31	0.270650	0.723490	0.378300
N321	N32	0.212190	0.594580	0.332680
N331	N33	0.062720	0.411600	0.171630
C1511	C151	0.292130	0.752130	0.342610
H1211	H121	0.307900	0.731300	0.318400
C1521	C152	0.292010	0.811360	0.339930
H1221	H122	0.306500	0.829500	0.314200
C1531	C153	0.270380	0.843180	0.375600
C1541	C154	0.249300	0.813710	0.413050
H1231	H123	0.234900	0.833600	0.438000
C1551	C155	0.249820	0.754690	0.412950
H1241	H124	0.235000	0.735600	0.438200
C1561	C156	0.219570	0.605300	0.289710
H1251	H125	0.245400	0.637500	0.281200
C1571	C157	0.173670	0.548650	0.343750
H1261	H126	0.167000	0.541000	0.373500
C1581	C158	0.190840	0.571120	0.257420
H1271	H127	0.197600	0.580200	0.227900
C1591	C159	0.143530	0.512270	0.313690
H1281	H128	0.117700	0.480600	0.323100
C1601	C160	0.151750	0.522950	0.269060
C1611	C161	0.120500	0.484690	0.235420
C1621	C162	0.096280	0.505400	0.195470
H1291	H129	0.099300	0.544300	0.189200
C1631	C163	0.114410	0.426100	0.242640
H1301	H130	0.129400	0.410200	0.269100
C1641	C164	0.086090	0.391740	0.210260
H1311	H131	0.083100	0.352600	0.215500
C1651	C165	0.067780	0.468210	0.165100
H1321	H132	0.051100	0.483100	0.138700
Cu121	Cu12	0.264180	0.139750	0.878570
N341	N34	0.270650	0.223490	0.878300
N351	N35	0.212190	0.094580	0.832680
N361	N36	0.062720	0.911600	0.671630
C1661	C166	0.292130	0.252130	0.842610
H1331	H133	0.307900	0.231300	0.818400
C1671	C167	0.292010	0.311360	0.839930
H1341	H134	0.306500	0.329500	0.814200
C1681	C168	0.270380	0.343180	0.875600
C1691	C169	0.249300	0.313710	0.913050
H1351	H135	0.234900	0.333600	0.938000
C1701	C170	0.249820	0.254690	0.912950
H1361	H136	0.235000	0.235600	0.938200
C1711	C171	0.219570	0.105300	0.789710
H1371	H137	0.245400	0.137500	0.781200
C1721	C172	0.173670	0.048650	0.843750
H1381	H138	0.167000	0.041000	0.873500
C1731	C173	0.190840	0.071120	0.757420
H1391	H139	0.197600	0.080200	0.727900
C1741	C174	0.143530	0.012270	0.813690
H1401	H140	0.117700	0.980600	0.823100
C1751	C175	0.151750	0.022950	0.769060
C1761	C176	0.120500	0.984690	0.735420
C1771	C177	0.096280	0.005400	0.695470
H1411	H141	0.099300	0.044300	0.689200
C1781	C178	0.114410	0.926100	0.742640
H1421	H142	0.129400	0.910200	0.769100
C1791	C179	0.086090	0.891740	0.710260
H1431	H143	0.083100	0.852600	0.715500
C1801	C180	0.067780	0.968210	0.665100
H1441	H144	0.051100	0.983100	0.638700
Cu131	Cu13	0.764180	0.610250	0.371430
N371	N37	0.770650	0.526510	0.371700
N381	N38	0.712190	0.655420	0.417320
N391	N39	0.562720	0.838400	0.578370
C1811	C181	0.792130	0.497870	0.407390
H1451	H145	0.807900	0.518700	0.431600
C1821	C182	0.792010	0.438640	0.410070
H1461	H146	0.806500	0.420500	0.435800
C1831	C183	0.770380	0.406820	0.374400
C1841	C184	0.749300	0.436290	0.336950
H1471	H147	0.734900	0.416400	0.312000
C1851	C185	0.749820	0.495310	0.337050
H1481	H148	0.735000	0.514400	0.311800
C1861	C186	0.719570	0.644700	0.460290
H1491	H149	0.745400	0.612500	0.468800
C1871	C187	0.673670	0.701350	0.406250
H1501	H150	0.667000	0.709000	0.376500
C1881	C188	0.690840	0.678880	0.492580
H1511	H151	0.697600	0.669800	0.522100
C1891	C189	0.643530	0.737730	0.436310
H1521	H152	0.617700	0.769400	0.426900
C1901	C190	0.651750	0.727050	0.480940
C1911	C191	0.620500	0.765310	0.514580
C1921	C192	0.596280	0.744600	0.554530
H1531	H153	0.599300	0.705700	0.560800
C1931	C193	0.614410	0.823900	0.507360
H1541	H154	0.629400	0.839800	0.480900
C1941	C194	0.586090	0.858260	0.539740
H1551	H155	0.583100	0.897400	0.534500
C1951	C195	0.567780	0.781790	0.584900
H1561	H156	0.551100	0.766900	0.611300
Cu141	Cu14	0.764180	0.110250	0.871430
N401	N40	0.770650	0.026510	0.871700
N411	N41	0.712190	0.155420	0.917320
N421	N42	0.562720	0.338400	0.078370
C1961	C196	0.792130	0.997870	0.907390
H1571	H157	0.807900	0.018700	0.931600
C1971	C197	0.792010	0.938640	0.910070
H1581	H158	0.806500	0.920500	0.935800
C1981	C198	0.770380	0.906820	0.874400
C1991	C199	0.749300	0.936290	0.836950
H1591	H159	0.734900	0.916400	0.812000
C2001	C200	0.749820	0.995310	0.837050
H1601	H160	0.735000	0.014400	0.811800
C2011	C201	0.719570	0.144700	0.960290
H1611	H161	0.745400	0.112500	0.968800
C2021	C202	0.673670	0.201350	0.906250
H1621	H162	0.667000	0.209000	0.876500
C2031	C203	0.690840	0.178880	0.992580
H1631	H163	0.697600	0.169800	0.022100
C2041	C204	0.643530	0.237730	0.936310
H1641	H164	0.617700	0.269400	0.926900
C2051	C205	0.651750	0.227050	0.980940
C2061	C206	0.620500	0.265310	0.014580
C2071	C207	0.596280	0.244600	0.054530
H1651	H165	0.599300	0.205700	0.060800
C2081	C208	0.614410	0.323900	0.007360
H1661	H166	0.629400	0.339800	0.980900
C2091	C209	0.586090	0.358260	0.039740
H1671	H167	0.583100	0.397400	0.034500
C2101	C210	0.567780	0.281790	0.084900
H1681	H168	0.551100	0.266900	0.111300
Cu151	Cu15	0.264180	0.610250	0.871430
N431	N43	0.270650	0.526510	0.871700
N441	N44	0.212190	0.655420	0.917320
N451	N45	0.062720	0.838400	0.078370
C2111	C211	0.292130	0.497870	0.907390
H1691	H169	0.307900	0.518700	0.931600
C2121	C212	0.292010	0.438640	0.910070
H1701	H170	0.306500	0.420500	0.935800
C2131	C213	0.270380	0.406820	0.874400
C2141	C214	0.249300	0.436290	0.836950
H1711	H171	0.234900	0.416400	0.812000
C2151	C215	0.249820	0.495310	0.837050
H1721	H172	0.235000	0.514400	0.811800
C2161	C216	0.219570	0.644700	0.960290
H1731	H173	0.245400	0.612500	0.968800
C2171	C217	0.173670	0.701350	0.906250
H1741	H174	0.167000	0.709000	0.876500
C2181	C218	0.190840	0.678880	0.992580
H1751	H175	0.197600	0.669800	0.022100
C2191	C219	0.143530	0.737730	0.936310
H1761	H176	0.117700	0.769400	0.926900
C2201	C220	0.151750	0.727050	0.980940
C2211	C221	0.120500	0.765310	0.014580
C2221	C222	0.096280	0.744600	0.054530
H1771	H177	0.099300	0.705700	0.060800
C2231	C223	0.114410	0.823900	0.007360
H1781	H178	0.129400	0.839800	0.980900
C2241	C224	0.086090	0.858260	0.039740
H1791	H179	0.083100	0.897400	0.034500
C2251	C225	0.067780	0.781790	0.084900
H1801	H180	0.051100	0.766900	0.111300
Cu161	Cu16	0.264180	0.110250	0.371430
N461	N46	0.270650	0.026510	0.371700
N471	N47	0.212190	0.155420	0.417320
N481	N48	0.062720	0.338400	0.578370
C2261	C226	0.292130	0.997870	0.407390
H1811	H181	0.307900	0.018700	0.431600
C2271	C227	0.292010	0.938640	0.410070
H1821	H182	0.306500	0.920500	0.435800
C2281	C228	0.270380	0.906820	0.374400
C2291	C229	0.249300	0.936290	0.336950
H1831	H183	0.234900	0.916400	0.312000
C2301	C230	0.249820	0.995310	0.337050
H1841	H184	0.235000	0.014400	0.311800
C2311	C231	0.219570	0.144700	0.460290
H1851	H185	0.245400	0.112500	0.468800
C2321	C232	0.173670	0.201350	0.406250
H1861	H186	0.167000	0.209000	0.376500
C2331	C233	0.190840	0.178880	0.492580
H1871	H187	0.197600	0.169800	0.522100
C2341	C234	0.143530	0.237730	0.436310
H1881	H188	0.117700	0.269400	0.426900
C2351	C235	0.151750	0.227050	0.480940
C2361	C236	0.120500	0.265310	0.514580
C2371	C237	0.096280	0.244600	0.554530
H1891	H189	0.099300	0.205700	0.560800
C2381	C238	0.114410	0.323900	0.507360
H1901	H190	0.129400	0.339800	0.480900
C2391	C239	0.086090	0.358260	0.539740
H1911	H191	0.083100	0.397400	0.534500
C2401	C240	0.067780	0.281790	0.584900
H1921	H192	0.051100	0.266900	0.611300
Cu171	Cu17	0.235820	0.360250	0.121430
N491	N49	0.229350	0.276510	0.121700
N501	N50	0.287810	0.405420	0.167320
N511	N51	0.437280	0.588400	0.328370
C2411	C241	0.207870	0.247870	0.157390
H1931	H193	0.192100	0.268700	0.181600
C2421	C242	0.207990	0.188640	0.160070
H1941	H194	0.193500	0.170500	0.185800
C2431	C243	0.229620	0.156820	0.124400
C2441	C244	0.250700	0.186290	0.086950
H1951	H195	0.265100	0.166400	0.062000
C2451	C245	0.250180	0.245310	0.087050
H1961	H196	0.265000	0.264400	0.061800
C2461	C246	0.280430	0.394700	0.210290
H1971	H197	0.254600	0.362500	0.218800
C2471	C247	0.326330	0.451350	0.156250
H1981	H198	0.333000	0.459000	0.126500
C2481	C248	0.309160	0.428880	0.242580
H1991	H199	0.302400	0.419800	0.272100
C2491	C249	0.356470	0.487730	0.186310
H2001	H200	0.382300	0.519400	0.176900
C2501	C250	0.348250	0.477050	0.230940
C2511	C251	0.379500	0.515310	0.264580
C2521	C252	0.403720	0.494600	0.304530
H2011	H201	0.400700	0.455700	0.310800
C2531	C253	0.385590	0.573900	0.257360
H2021	H202	0.370600	0.589800	0.230900
C2541	C254	0.413910	0.608260	0.289740
H2031	H203	0.416900	0.647400	0.284500
C2551	C255	0.432220	0.531790	0.334900
H2041	H204	0.448900	0.516900	0.361300
Cu181	Cu18	0.235820	0.860250	0.621430
N521	N52	0.229350	0.776510	0.621700
N531	N53	0.287810	0.905420	0.667320
N541	N54	0.437280	0.088400	0.828370
C2561	C256	0.207870	0.747870	0.657390
H2051	H205	0.192100	0.768700	0.681600
C2571	C257	0.207990	0.688640	0.660070
H2061	H206	0.193500	0.670500	0.685800
C2581	C258	0.229620	0.656820	0.624400
C2591	C259	0.250700	0.686290	0.586950
H2071	H207	0.265100	0.666400	0.562000
C2601	C260	0.250180	0.745310	0.587050
H2081	H208	0.265000	0.764400	0.561800
C2611	C261	0.280430	0.894700	0.710290
H2091	H209	0.254600	0.862500	0.718800
C2621	C262	0.326330	0.951350	0.656250
H2101	H210	0.333000	0.959000	0.626500
C2631	C263	0.309160	0.928880	0.742580
H2111	H211	0.302400	0.919800	0.772100
C2641	C264	0.356470	0.987730	0.686310
H2121	H212	0.382300	0.019400	0.676900
C2651	C265	0.348250	0.977050	0.730940
C2661	C266	0.379500	0.015310	0.764580
C2671	C267	0.403720	0.994600	0.804530
H2131	H213	0.400700	0.955700	0.810800
C2681	C268	0.385590	0.073900	0.757360
H2141	H214	0.370600	0.089800	0.730900
C2691	C269	0.413910	0.108260	0.789740
H2151	H215	0.416900	0.147400	0.784500
C2701	C270	0.432220	0.031790	0.834900
H2161	H216	0.448900	0.016900	0.861300
Cu191	Cu19	0.735820	0.360250	0.621430
N551	N55	0.729350	0.276510	0.621700
N561	N56	0.787810	0.405420	0.667320
N571	N57	0.937280	0.588400	0.828370
C2711	C271	0.707870	0.247870	0.657390
H2171	H217	0.692100	0.268700	0.681600
C2721	C272	0.707990	0.188640	0.660070
H2181	H218	0.693500	0.170500	0.685800
C2731	C273	0.729620	0.156820	0.624400
C2741	C274	0.750700	0.186290	0.586950
H2191	H219	0.765100	0.166400	0.562000
C2751	C275	0.750180	0.245310	0.587050
H2201	H220	0.765000	0.264400	0.561800
C2761	C276	0.780430	0.394700	0.710290
H2211	H221	0.754600	0.362500	0.718800
C2771	C277	0.826330	0.451350	0.656250
H2221	H222	0.833000	0.459000	0.626500
C2781	C278	0.809160	0.428880	0.742580
H2231	H223	0.802400	0.419800	0.772100
C2791	C279	0.856470	0.487730	0.686310
H2241	H224	0.882300	0.519400	0.676900
C2801	C280	0.848250	0.477050	0.730940
C2811	C281	0.879500	0.515310	0.764580
C2821	C282	0.903720	0.494600	0.804530
H2251	H225	0.900700	0.455700	0.810800
C2831	C283	0.885590	0.573900	0.757360
H2261	H226	0.870600	0.589800	0.730900
C2841	C284	0.913910	0.608260	0.789740
H2271	H227	0.916900	0.647400	0.784500
C2851	C285	0.932220	0.531790	0.834900
H2281	H228	0.948900	0.516900	0.861300
Cu201	Cu20	0.735820	0.860250	0.121430
N581	N58	0.729350	0.776510	0.121700
N591	N59	0.787810	0.905420	0.167320
N601	N60	0.937280	0.088400	0.328370
C2861	C286	0.707870	0.747870	0.157390
H2291	H229	0.692100	0.768700	0.181600
C2871	C287	0.707990	0.688640	0.160070
H2301	H230	0.693500	0.670500	0.185800
C2881	C288	0.729620	0.656820	0.124400
C2891	C289	0.750700	0.686290	0.086950
H2311	H231	0.765100	0.666400	0.062000
C2901	C290	0.750180	0.745310	0.087050
H2321	H232	0.765000	0.764400	0.061800
C2911	C291	0.780430	0.894700	0.210290
H2331	H233	0.754600	0.862500	0.218800
C2921	C292	0.826330	0.951350	0.156250
H2341	H234	0.833000	0.959000	0.126500
C2931	C293	0.809160	0.928880	0.242580
H2351	H235	0.802400	0.919800	0.272100
C2941	C294	0.856470	0.987730	0.186310
H2361	H236	0.882300	0.019400	0.176900
C2951	C295	0.848250	0.977050	0.230940
C2961	C296	0.879500	0.015310	0.264580
C2971	C297	0.903720	0.994600	0.304530
H2371	H237	0.900700	0.955700	0.310800
C2981	C298	0.885590	0.073900	0.257360
H2381	H238	0.870600	0.089800	0.230900
C2991	C299	0.913910	0.108260	0.289740
H2391	H239	0.916900	0.147400	0.284500
C3001	C300	0.932220	0.031790	0.334900
H2401	H240	0.948900	0.016900	0.361300
Cu211	Cu21	0.235820	0.389750	0.628570
N611	N61	0.229350	0.473490	0.628300
N621	N62	0.287810	0.344580	0.582680
N631	N63	0.437280	0.161600	0.421630
C3011	C301	0.207870	0.502130	0.592610
H2411	H241	0.192100	0.481300	0.568400
C3021	C302	0.207990	0.561360	0.589930
H2421	H242	0.193500	0.579500	0.564200
C3031	C303	0.229620	0.593180	0.625600
C3041	C304	0.250700	0.563710	0.663050
H2431	H243	0.265100	0.583600	0.688000
C3051	C305	0.250180	0.504690	0.662950
H2441	H244	0.265000	0.485600	0.688200
C3061	C306	0.280430	0.355300	0.539710
H2451	H245	0.254600	0.387500	0.531200
C3071	C307	0.326330	0.298650	0.593750
H2461	H246	0.333000	0.291000	0.623500
C3081	C308	0.309160	0.321120	0.507420
H2471	H247	0.302400	0.330200	0.477900
C3091	C309	0.356470	0.262270	0.563690
H2481	H248	0.382300	0.230600	0.573100
C3101	C310	0.348250	0.272950	0.519060
C3111	C311	0.379500	0.234690	0.485420
C3121	C312	0.403720	0.255400	0.445470
H2491	H249	0.400700	0.294300	0.439200
C3131	C313	0.385590	0.176100	0.492640
H2501	H250	0.370600	0.160200	0.519100
C3141	C314	0.413910	0.141740	0.460260
H2511	H251	0.416900	0.102600	0.465500
C3151	C315	0.432220	0.218210	0.415100
H2521	H252	0.448900	0.233100	0.388700
Cu221	Cu22	0.235820	0.889750	0.128570
N641	N64	0.229350	0.973490	0.128300
N651	N65	0.287810	0.844580	0.082680
N661	N66	0.437280	0.661600	0.921630
C3161	C316	0.207870	0.002130	0.092610
H2531	H253	0.192100	0.981300	0.068400
C3171	C317	0.207990	0.061360	0.089930
H2541	H254	0.193500	0.079500	0.064200
C3181	C318	0.229620	0.093180	0.125600
C3191	C319	0.250700	0.063710	0.163050
H2551	H255	0.265100	0.083600	0.188000
C3201	C320	0.250180	0.004690	0.162950
H2561	H256	0.265000	0.985600	0.188200
C3211	C321	0.280430	0.855300	0.039710
H2571	H257	0.254600	0.887500	0.031200
C3221	C322	0.326330	0.798650	0.093750
H2581	H258	0.333000	0.791000	0.123500
C3231	C323	0.309160	0.821120	0.007420
H2591	H259	0.302400	0.830200	0.977900
C3241	C324	0.356470	0.762270	0.063690
H2601	H260	0.382300	0.730600	0.073100
C3251	C325	0.348250	0.772950	0.019060
C3261	C326	0.379500	0.734690	0.985420
C3271	C327	0.403720	0.755400	0.945470
H2611	H261	0.400700	0.794300	0.939200
C3281	C328	0.385590	0.676100	0.992640
H2621	H262	0.370600	0.660200	0.019100
C3291	C329	0.413910	0.641740	0.960260
H2631	H263	0.416900	0.602600	0.965500
C3301	C330	0.432220	0.718210	0.915100
H2641	H264	0.448900	0.733100	0.888700
Cu231	Cu23	0.735820	0.389750	0.128570
N671	N67	0.729350	0.473490	0.128300
N681	N68	0.787810	0.344580	0.082680
N691	N69	0.937280	0.161600	0.921630
C3311	C331	0.707870	0.502130	0.092610
H2651	H265	0.692100	0.481300	0.068400
C3321	C332	0.707990	0.561360	0.089930
H2661	H266	0.693500	0.579500	0.064200
C3331	C333	0.729620	0.593180	0.125600
C3341	C334	0.750700	0.563710	0.163050
H2671	H267	0.765100	0.583600	0.188000
C3351	C335	0.750180	0.504690	0.162950
H2681	H268	0.765000	0.485600	0.188200
C3361	C336	0.780430	0.355300	0.039710
H2691	H269	0.754600	0.387500	0.031200
C3371	C337	0.826330	0.298650	0.093750
H2701	H270	0.833000	0.291000	0.123500
C3381	C338	0.809160	0.321120	0.007420
H2711	H271	0.802400	0.330200	0.977900
C3391	C339	0.856470	0.262270	0.063690
H2721	H272	0.882300	0.230600	0.073100
C3401	C340	0.848250	0.272950	0.019060
C3411	C341	0.879500	0.234690	0.985420
C3421	C342	0.903720	0.255400	0.945470
H2731	H273	0.900700	0.294300	0.939200
C3431	C343	0.885590	0.176100	0.992640
H2741	H274	0.870600	0.160200	0.019100
C3441	C344	0.913910	0.141740	0.960260
H2751	H275	0.916900	0.102600	0.965500
C3451	C345	0.932220	0.218210	0.915100
H2761	H276	0.948900	0.233100	0.888700
Cu241	Cu24	0.735820	0.889750	0.628570
N701	N70	0.729350	0.973490	0.628300
N711	N71	0.787810	0.844580	0.582680
N721	N72	0.937280	0.661600	0.421630
C3461	C346	0.707870	0.002130	0.592610
H2771	H277	0.692100	0.981300	0.568400
C3471	C347	0.707990	0.061360	0.589930
H2781	H278	0.693500	0.079500	0.564200
C3481	C348	0.729620	0.093180	0.625600
C3491	C349	0.750700	0.063710	0.663050
H2791	H279	0.765100	0.083600	0.688000
C3501	C350	0.750180	0.004690	0.662950
H2801	H280	0.765000	0.985600	0.688200
C3511	C351	0.780430	0.855300	0.539710
H2811	H281	0.754600	0.887500	0.531200
C3521	C352	0.826330	0.798650	0.593750
H2821	H282	0.833000	0.791000	0.623500
C3531	C353	0.809160	0.821120	0.507420
H2831	H283	0.802400	0.830200	0.477900
C3541	C354	0.856470	0.762270	0.563690
H2841	H284	0.882300	0.730600	0.573100
C3551	C355	0.848250	0.772950	0.519060
C3561	C356	0.879500	0.734690	0.485420
C3571	C357	0.903720	0.755400	0.445470
H2851	H285	0.900700	0.794300	0.439200
C3581	C358	0.885590	0.676100	0.492640
H2861	H286	0.870600	0.660200	0.519100
C3591	C359	0.913910	0.641740	0.460260
H2871	H287	0.916900	0.602600	0.465500
C3601	C360	0.932220	0.718210	0.415100
H2881	H288	0.948900	0.733100	0.388700
Cu251	Cu25	0.485820	0.610250	0.878570
N731	N73	0.479350	0.526510	0.878300
N741	N74	0.537810	0.655420	0.832680
N751	N75	0.687280	0.838400	0.671630
C3611	C361	0.457870	0.497870	0.842610
H2891	H289	0.442100	0.518700	0.818400
C3621	C362	0.457990	0.438640	0.839930
H2901	H290	0.443500	0.420500	0.814200
C3631	C363	0.479620	0.406820	0.875600
C3641	C364	0.500700	0.436290	0.913050
H2911	H291	0.515100	0.416400	0.938000
C3651	C365	0.500180	0.495310	0.912950
H2921	H292	0.515000	0.514400	0.938200
C3661	C366	0.530430	0.644700	0.789710
H2931	H293	0.504600	0.612500	0.781200
C3671	C367	0.576330	0.701350	0.843750
H2941	H294	0.583000	0.709000	0.873500
C3681	C368	0.559160	0.678880	0.757420
H2951	H295	0.552400	0.669800	0.727900
C3691	C369	0.606470	0.737730	0.813690
H2961	H296	0.632300	0.769400	0.823100
C3701	C370	0.598250	0.727050	0.769060
C3711	C371	0.629500	0.765310	0.735420
C3721	C372	0.653720	0.744600	0.695470
H2971	H297	0.650700	0.705700	0.689200
C3731	C373	0.635590	0.823900	0.742640
H2981	H298	0.620600	0.839800	0.769100
C3741	C374	0.663910	0.858260	0.710260
H2991	H299	0.666900	0.897400	0.715500
C3751	C375	0.682220	0.781790	0.665100
H3001	H300	0.698900	0.766900	0.638700
Cu261	Cu26	0.485820	0.110250	0.378570
N761	N76	0.479350	0.026510	0.378300
N771	N77	0.537810	0.155420	0.332680
N781	N78	0.687280	0.338400	0.171630
C3761	C376	0.457870	0.997870	0.342610
H3011	H301	0.442100	0.018700	0.318400
C3771	C377	0.457990	0.938640	0.339930
H3021	H302	0.443500	0.920500	0.314200
C3781	C378	0.479620	0.906820	0.375600
C3791	C379	0.500700	0.936290	0.413050
H3031	H303	0.515100	0.916400	0.438000
C3801	C380	0.500180	0.995310	0.412950
H3041	H304	0.515000	0.014400	0.438200
C3811	C381	0.530430	0.144700	0.289710
H3051	H305	0.504600	0.112500	0.281200
C3821	C382	0.576330	0.201350	0.343750
H3061	H306	0.583000	0.209000	0.373500
C3831	C383	0.559160	0.178880	0.257420
H3071	H307	0.552400	0.169800	0.227900
C3841	C384	0.606470	0.237730	0.313690
H3081	H308	0.632300	0.269400	0.323100
C3851	C385	0.598250	0.227050	0.269060
C3861	C386	0.629500	0.265310	0.235420
C3871	C387	0.653720	0.244600	0.195470
H3091	H309	0.650700	0.205700	0.189200
C3881	C388	0.635590	0.323900	0.242640
H3101	H310	0.620600	0.339800	0.269100
C3891	C389	0.663910	0.358260	0.210260
H3111	H311	0.666900	0.397400	0.215500
C3901	C390	0.682220	0.281790	0.165100
H3121	H312	0.698900	0.266900	0.138700
Cu271	Cu27	0.985820	0.610250	0.378570
N791	N79	0.979350	0.526510	0.378300
N801	N80	0.037810	0.655420	0.332680
N811	N81	0.187280	0.838400	0.171630
C3911	C391	0.957870	0.497870	0.342610
H3131	H313	0.942100	0.518700	0.318400
C3921	C392	0.957990	0.438640	0.339930
H3141	H314	0.943500	0.420500	0.314200
C3931	C393	0.979620	0.406820	0.375600
C3941	C394	0.000700	0.436290	0.413050
H3151	H315	0.015100	0.416400	0.438000
C3951	C395	0.000180	0.495310	0.412950
H3161	H316	0.015000	0.514400	0.438200
C3961	C396	0.030430	0.644700	0.289710
H3171	H317	0.004600	0.612500	0.281200
C3971	C397	0.076330	0.701350	0.343750
H3181	H318	0.083000	0.709000	0.373500
C3981	C398	0.059160	0.678880	0.257420
H3191	H319	0.052400	0.669800	0.227900
C3991	C399	0.106470	0.737730	0.313690
H3201	H320	0.132300	0.769400	0.323100
C4001	C400	0.098250	0.727050	0.269060
C4011	C401	0.129500	0.765310	0.235420
C4021	C402	0.153720	0.744600	0.195470
H3211	H321	0.150700	0.705700	0.189200
C4031	C403	0.135590	0.823900	0.242640
H3221	H322	0.120600	0.839800	0.269100
C4041	C404	0.163910	0.858260	0.210260
H3231	H323	0.166900	0.897400	0.215500
C4051	C405	0.182220	0.781790	0.165100
H3241	H324	0.198900	0.766900	0.138700
Cu281	Cu28	0.985820	0.110250	0.878570
N821	N82	0.979350	0.026510	0.878300
N831	N83	0.037810	0.155420	0.832680
N841	N84	0.187280	0.338400	0.671630
C4061	C406	0.957870	0.997870	0.842610
H3251	H325	0.942100	0.018700	0.818400
C4071	C407	0.957990	0.938640	0.839930
H3261	H326	0.943500	0.920500	0.814200
C4081	C408	0.979620	0.906820	0.875600
C4091	C409	0.000700	0.936290	0.913050
H3271	H327	0.015100	0.916400	0.938000
C4101	C410	0.000180	0.995310	0.912950
H3281	H328	0.015000	0.014400	0.938200
C4111	C411	0.030430	0.144700	0.789710
H3291	H329	0.004600	0.112500	0.781200
C4121	C412	0.076330	0.201350	0.843750
H3301	H330	0.083000	0.209000	0.873500
C4131	C413	0.059160	0.178880	0.757420
H3311	H331	0.052400	0.169800	0.727900
C4141	C414	0.106470	0.237730	0.813690
H3321	H332	0.132300	0.269400	0.823100
C4151	C415	0.098250	0.227050	0.769060
C4161	C416	0.129500	0.265310	0.735420
C4171	C417	0.153720	0.244600	0.695470
H3331	H333	0.150700	0.205700	0.689200
C4181	C418	0.135590	0.323900	0.742640
H3341	H334	0.120600	0.339800	0.769100
C4191	C419	0.163910	0.358260	0.710260
H3351	H335	0.166900	0.397400	0.715500
C4201	C420	0.182220	0.281790	0.665100
H3361	H336	0.198900	0.266900	0.638700
Cu291	Cu29	0.485820	0.639750	0.371430
N851	N85	0.479350	0.723490	0.371700
N861	N86	0.537810	0.594580	0.417320
N871	N87	0.687280	0.411600	0.578370
C4211	C421	0.457870	0.752130	0.407390
H3371	H337	0.442100	0.731300	0.431600
C4221	C422	0.457990	0.811360	0.410070
H3381	H338	0.443500	0.829500	0.435800
C4231	C423	0.479620	0.843180	0.374400
C4241	C424	0.500700	0.813710	0.336950
H3391	H339	0.515100	0.833600	0.312000
C4251	C425	0.500180	0.754690	0.337050
H3401	H340	0.515000	0.735600	0.311800
C4261	C426	0.530430	0.605300	0.460290
H3411	H341	0.504600	0.637500	0.468800
C4271	C427	0.576330	0.548650	0.406250
H3421	H342	0.583000	0.541000	0.376500
C4281	C428	0.559160	0.571120	0.492580
H3431	H343	0.552400	0.580200	0.522100
C4291	C429	0.606470	0.512270	0.436310
H3441	H344	0.632300	0.480600	0.426900
C4301	C430	0.598250	0.522950	0.480940
C4311	C431	0.629500	0.484690	0.514580
C4321	C432	0.653720	0.505400	0.554530
H3451	H345	0.650700	0.544300	0.560800
C4331	C433	0.635590	0.426100	0.507360
H3461	H346	0.620600	0.410200	0.480900
C4341	C434	0.663910	0.391740	0.539740
H3471	H347	0.666900	0.352600	0.534500
C4351	C435	0.682220	0.468210	0.584900
H3481	H348	0.698900	0.483100	0.611300
Cu301	Cu30	0.485820	0.139750	0.871430
N881	N88	0.479350	0.223490	0.871700
N891	N89	0.537810	0.094580	0.917320
N901	N90	0.687280	0.911600	0.078370
C4361	C436	0.457870	0.252130	0.907390
H3491	H349	0.442100	0.231300	0.931600
C4371	C437	0.457990	0.311360	0.910070
H3501	H350	0.443500	0.329500	0.935800
C4381	C438	0.479620	0.343180	0.874400
C4391	C439	0.500700	0.313710	0.836950
H3511	H351	0.515100	0.333600	0.812000
C4401	C440	0.500180	0.254690	0.837050
H3521	H352	0.515000	0.235600	0.811800
C4411	C441	0.530430	0.105300	0.960290
H3531	H353	0.504600	0.137500	0.968800
C4421	C442	0.576330	0.048650	0.906250
H3541	H354	0.583000	0.041000	0.876500
C4431	C443	0.559160	0.071120	0.992580
H3551	H355	0.552400	0.080200	0.022100
C4441	C444	0.606470	0.012270	0.936310
H3561	H356	0.632300	0.980600	0.926900
C4451	C445	0.598250	0.022950	0.980940
C4461	C446	0.629500	0.984690	0.014580
C4471	C447	0.653720	0.005400	0.054530
H3571	H357	0.650700	0.044300	0.060800
C4481	C448	0.635590	0.926100	0.007360
H3581	H358	0.620600	0.910200	0.980900
C4491	C449	0.663910	0.891740	0.039740
H3591	H359	0.666900	0.852600	0.034500
C4501	C450	0.682220	0.968210	0.084900
H3601	H360	0.698900	0.983100	0.111300
Cu311	Cu31	0.985820	0.639750	0.871430
N911	N91	0.979350	0.723490	0.871700
N921	N92	0.037810	0.594580	0.917320
N931	N93	0.187280	0.411600	0.078370
C4511	C451	0.957870	0.752130	0.907390
H3611	H361	0.942100	0.731300	0.931600
C4521	C452	0.957990	0.811360	0.910070
H3621	H362	0.943500	0.829500	0.935800
C4531	C453	0.979620	0.843180	0.874400
C4541	C454	0.000700	0.813710	0.836950
H3631	H363	0.015100	0.833600	0.812000
C4551	C455	0.000180	0.754690	0.837050
H3641	H364	0.015000	0.735600	0.811800
C4561	C456	0.030430	0.605300	0.960290
H3651	H365	0.004600	0.637500	0.968800
C4571	C457	0.076330	0.548650	0.906250
H3661	H366	0.083000	0.541000	0.876500
C4581	C458	0.059160	0.571120	0.992580
H3671	H367	0.052400	0.580200	0.022100
C4591	C459	0.106470	0.512270	0.936310
H3681	H368	0.132300	0.480600	0.926900
C4601	C460	0.098250	0.522950	0.980940
C4611	C461	0.129500	0.484690	0.014580
C4621	C462	0.153720	0.505400	0.054530
H3691	H369	0.150700	0.544300	0.060800
C4631	C463	0.135590	0.426100	0.007360
H3701	H370	0.120600	0.410200	0.980900
C4641	C464	0.163910	0.391740	0.039740
H3711	H371	0.166900	0.352600	0.034500
C4651	C465	0.182220	0.468210	0.084900
H3721	H372	0.198900	0.483100	0.111300
Cu321	Cu32	0.985820	0.139750	0.371430
N941	N94	0.979350	0.223490	0.371700
N951	N95	0.037810	0.094580	0.417320
N961	N96	0.187280	0.911600	0.578370
C4661	C466	0.957870	0.252130	0.407390
H3731	H373	0.942100	0.231300	0.431600
C4671	C467	0.957990	0.311360	0.410070
H3741	H374	0.943500	0.329500	0.435800
C4681	C468	0.979620	0.343180	0.374400
C4691	C469	0.000700	0.313710	0.336950
H3751	H375	0.015100	0.333600	0.312000
C4701	C470	0.000180	0.254690	0.337050
H3761	H376	0.015000	0.235600	0.311800
C4711	C471	0.030430	0.105300	0.460290
H3771	H377	0.004600	0.137500	0.468800
C4721	C472	0.076330	0.048650	0.406250
H3781	H378	0.083000	0.041000	0.376500
C4731	C473	0.059160	0.071120	0.492580
H3791	H379	0.052400	0.080200	0.522100
C4741	C474	0.106470	0.012270	0.436310
H3801	H380	0.132300	0.980600	0.426900
C4751	C475	0.098250	0.022950	0.480940
C4761	C476	0.129500	0.984690	0.514580
C4771	C477	0.153720	0.005400	0.554530
H3811	H381	0.150700	0.044300	0.560800
C4781	C478	0.135590	0.926100	0.507360
H3821	H382	0.120600	0.910200	0.480900
C4791	C479	0.163910	0.891740	0.539740
H3831	H383	0.166900	0.852600	0.534500
C4801	C480	0.182220	0.968210	0.584900
H3841	H384	0.198900	0.983100	0.611300
