data_ATIBIO_freeONLY_PM
_symmetry_space_group_name_H-M	'P1'
_cell_length_a	11.688000
_cell_length_b	10.243800
_cell_length_c	18.753000
_cell_angle_alpha	90.000000
_cell_angle_beta	127.408000
_cell_angle_gamma	90.000000
_symmetry_Int_Tables_number 1

loop_
_symmetry_equiv_pos_as_xyz
'x,y,z'

loop_
_atom_site_label
_atom_site_type_symbol
_atom_site_fract_x
_atom_site_fract_y
_atom_site_fract_z
Mn11	Mn1	0.375450	0.086430	0.129800
Mn21	Mn2	0.574610	0.899620	0.314880
O11	O1	0.443200	0.208200	0.246170
O21	O2	0.559000	0.077400	0.366200
O31	O3	0.590000	0.998300	0.218700
O41	O4	0.677200	0.001500	0.141600
O51	O5	0.456800	0.262800	0.108200
O61	O6	0.478500	0.206400	0.002300
O71	O7	0.345200	0.928700	0.198000
O81	O8	0.110100	0.901200	0.127400
O91	O9	0.336500	0.972000	0.021700
O101	O10	0.118800	0.896800	0.966600
O111	O11	0.157700	0.161400	0.057800
O121	O12	0.201900	0.373900	0.090800
C11	C1	0.507500	0.185100	0.328900
C21	C2	0.692400	0.990800	0.212100
C31	C3	0.481800	0.285600	0.052200
C41	C4	0.238700	0.881000	0.190400
C51	C5	0.225200	0.900300	0.967800
C61	C6	0.119700	0.280100	0.050400
C71	C7	0.831000	0.985000	0.284000
C81	C8	0.569000	0.400500	0.062400
C91	C9	0.976000	0.330000	0.991000
Mn31	Mn3	0.624550	0.586430	0.370200
Mn41	Mn4	0.425390	0.399620	0.185120
O131	O13	0.556800	0.708200	0.253830
O141	O14	0.441000	0.577400	0.133800
O151	O15	0.410000	0.498300	0.281300
O161	O16	0.322800	0.501500	0.358400
O171	O17	0.543200	0.762800	0.391800
O181	O18	0.521500	0.706400	0.497700
O191	O19	0.654800	0.428700	0.302000
O201	O20	0.889900	0.401200	0.372600
O211	O21	0.663500	0.472000	0.478300
O221	O22	0.881200	0.396800	0.533400
O231	O23	0.842300	0.661400	0.442200
O241	O24	0.798100	0.873900	0.409200
C101	C10	0.492500	0.685100	0.171100
C111	C11	0.307600	0.490800	0.287900
C121	C12	0.518200	0.785600	0.447800
C131	C13	0.761300	0.381000	0.309600
C141	C14	0.774800	0.400300	0.532200
C151	C15	0.880300	0.780100	0.449600
C161	C16	0.169000	0.485000	0.216000
C171	C17	0.431000	0.900500	0.437600
C181	C18	0.024000	0.830000	0.509000
Mn51	Mn5	0.624550	0.913570	0.870200
Mn61	Mn6	0.425390	0.100380	0.685120
O251	O25	0.556800	0.791800	0.753830
O261	O26	0.441000	0.922600	0.633800
O271	O27	0.410000	0.001700	0.781300
O281	O28	0.322800	0.998500	0.858400
O291	O29	0.543200	0.737200	0.891800
O301	O30	0.521500	0.793600	0.997700
O311	O31	0.654800	0.071300	0.802000
O321	O32	0.889900	0.098800	0.872600
O331	O33	0.663500	0.028000	0.978300
O341	O34	0.881200	0.103200	0.033400
O351	O35	0.842300	0.838600	0.942200
O361	O36	0.798100	0.626100	0.909200
C191	C19	0.492500	0.814900	0.671100
C201	C20	0.307600	0.009200	0.787900
C211	C21	0.518200	0.714400	0.947800
C221	C22	0.761300	0.119000	0.809600
C231	C23	0.774800	0.099700	0.032200
C241	C24	0.880300	0.719900	0.949600
C251	C25	0.169000	0.015000	0.716000
C261	C26	0.431000	0.599500	0.937600
C271	C27	0.024000	0.670000	0.009000
Mn71	Mn7	0.375450	0.413570	0.629800
Mn81	Mn8	0.574610	0.600380	0.814880
O371	O37	0.443200	0.291800	0.746170
O381	O38	0.559000	0.422600	0.866200
O391	O39	0.590000	0.501700	0.718700
O401	O40	0.677200	0.498500	0.641600
O411	O41	0.456800	0.237200	0.608200
O421	O42	0.478500	0.293600	0.502300
O431	O43	0.345200	0.571300	0.698000
O441	O44	0.110100	0.598800	0.627400
O451	O45	0.336500	0.528000	0.521700
O461	O46	0.118800	0.603200	0.466600
O471	O47	0.157700	0.338600	0.557800
O481	O48	0.201900	0.126100	0.590800
C281	C28	0.507500	0.314900	0.828900
C291	C29	0.692400	0.509200	0.712100
C301	C30	0.481800	0.214400	0.552200
C311	C31	0.238700	0.619000	0.690400
C321	C32	0.225200	0.599700	0.467800
C331	C33	0.119700	0.219900	0.550400
C341	C34	0.831000	0.515000	0.784000
C351	C35	0.569000	0.099500	0.562400
C361	C36	0.976000	0.170000	0.491000
Mn91	Mn9	0.500000	0.000000	0.000000
Mn101	Mn10	0.500000	0.500000	0.500000
Mn111	Mn11	0.000000	0.000000	0.000000
Mn121	Mn12	0.000000	0.500000	0.500000
