data_ATIBAG_freeONLY_PM
_symmetry_space_group_name_H-M	'P1'
_cell_length_a	10.127900
_cell_length_b	11.649500
_cell_length_c	14.860800
_cell_angle_alpha	91.670000
_cell_angle_beta	90.000000
_cell_angle_gamma	90.000000
_symmetry_Int_Tables_number 1

loop_
_symmetry_equiv_pos_as_xyz
'x,y,z'

loop_
_atom_site_label
_atom_site_type_symbol
_atom_site_fract_x
_atom_site_fract_y
_atom_site_fract_z
Mn11	Mn1	0.915590	0.756830	0.131150
Mn21	Mn2	0.100290	0.739550	0.315080
Mn31	Mn3	0.415590	0.743170	0.368850
Mn41	Mn4	0.600290	0.760450	0.184920
Mn51	Mn5	0.084410	0.243170	0.868850
Mn61	Mn6	0.899710	0.260450	0.684920
Mn71	Mn7	0.584410	0.256830	0.631150
Mn81	Mn8	0.399710	0.239550	0.815080
Mn91	Mn9	0.000000	0.500000	0.000000
Mn101	Mn10	0.500000	0.000000	0.500000
Mn111	Mn11	0.000000	0.000000	0.000000
Mn121	Mn12	0.500000	0.500000	0.500000
H11	H1	0.749400	0.863900	0.364600
H21	H2	0.023400	0.478500	0.265000
H31	H3	0.618800	0.554000	0.042600
H41	H4	0.187700	0.975500	0.232300
H51	H5	0.157600	0.698900	0.928800
H61	H6	0.702100	0.994200	0.013000
H71	H7	0.249400	0.636100	0.135400
H81	H8	0.523400	0.021500	0.235000
H91	H9	0.118800	0.946000	0.457400
H101	H10	0.687700	0.524500	0.267700
H111	H11	0.657600	0.801100	0.571200
H121	H12	0.202100	0.505800	0.487000
H131	H13	0.250600	0.136100	0.635400
H141	H14	0.976600	0.521500	0.735000
H151	H15	0.381200	0.446000	0.957400
H161	H16	0.812300	0.024500	0.767700
H171	H17	0.842400	0.301100	0.071200
H181	H18	0.297900	0.005800	0.987000
H191	H19	0.750600	0.363900	0.864600
H201	H20	0.476600	0.978500	0.765000
H211	H21	0.881200	0.054000	0.542600
H221	H22	0.312300	0.475500	0.732300
H231	H23	0.342400	0.198900	0.428800
H241	H24	0.797900	0.494200	0.513000
C11	C1	0.818600	0.831150	0.329150
C21	C2	0.007300	0.519000	0.211500
C31	C3	0.709300	0.573780	0.049080
C41	C4	0.127400	0.949470	0.187170
C51	C5	0.101700	0.742690	0.968090
C61	C6	0.718400	0.932820	0.052220
C71	C7	0.318600	0.668850	0.170850
C81	C8	0.507300	0.981000	0.288500
C91	C9	0.209300	0.926220	0.450920
C101	C10	0.627400	0.550530	0.312830
C111	C11	0.601700	0.757310	0.531910
C121	C12	0.218400	0.567180	0.447780
C131	C13	0.181400	0.168850	0.670850
C141	C14	0.992700	0.481000	0.788500
C151	C15	0.290700	0.426220	0.950920
C161	C16	0.872600	0.050530	0.812830
C171	C17	0.898300	0.257310	0.031910
C181	C18	0.281600	0.067180	0.947780
C191	C19	0.681400	0.331150	0.829150
C201	C20	0.492700	0.019000	0.711500
C211	C21	0.790700	0.073780	0.549080
C221	C22	0.372600	0.449470	0.687170
C231	C23	0.398300	0.242690	0.468090
C241	C24	0.781600	0.432820	0.552220
O11	O1	0.792720	0.808110	0.247280
O21	O2	0.925480	0.814930	0.367670
O31	O3	0.999500	0.627370	0.219300
O41	O4	0.996270	0.461690	0.141750
O51	O5	0.737320	0.653640	0.106090
O61	O6	0.789080	0.519690	0.001440
O71	O7	0.076010	0.851560	0.197470
O81	O8	0.107240	0.013970	0.124880
O91	O9	0.028820	0.686460	0.021150
O101	O10	0.106950	0.846400	0.962610
O111	O11	0.837680	0.900780	0.059820
O121	O12	0.621730	0.892580	0.090460
O131	O13	0.292720	0.691890	0.252720
O141	O14	0.425480	0.685070	0.132330
O151	O15	0.499500	0.872630	0.280700
O161	O16	0.496270	0.038310	0.358250
O171	O17	0.237320	0.846360	0.393910
O181	O18	0.289080	0.980310	0.498560
O191	O19	0.576010	0.648440	0.302530
O201	O20	0.607240	0.486030	0.375120
O211	O21	0.528820	0.813540	0.478850
O221	O22	0.606950	0.653600	0.537390
O231	O23	0.337680	0.599220	0.440180
O241	O24	0.121730	0.607420	0.409540
O251	O25	0.207280	0.191890	0.752720
O261	O26	0.074520	0.185070	0.632330
O271	O27	0.000500	0.372630	0.780700
O281	O28	0.003730	0.538310	0.858250
O291	O29	0.262680	0.346360	0.893910
O301	O30	0.210920	0.480310	0.998560
O311	O31	0.923990	0.148440	0.802530
O321	O32	0.892760	0.986030	0.875120
O331	O33	0.971180	0.313540	0.978850
O341	O34	0.893050	0.153600	0.037390
O351	O35	0.162320	0.099220	0.940180
O361	O36	0.378270	0.107420	0.909540
O371	O37	0.707280	0.308110	0.747280
O381	O38	0.574520	0.314930	0.867670
O391	O39	0.500500	0.127370	0.719300
O401	O40	0.503730	0.961690	0.641750
O411	O41	0.762680	0.153640	0.606090
O421	O42	0.710920	0.019690	0.501440
O431	O43	0.423990	0.351560	0.697470
O441	O44	0.392760	0.513970	0.624880
O451	O45	0.471180	0.186460	0.521150
O461	O46	0.393050	0.346400	0.462610
O471	O47	0.662320	0.400780	0.559820
O481	O48	0.878270	0.392580	0.590460
