data_ATIBOU02_freeONLY_PM
_symmetry_space_group_name_H-M	'P1'
_cell_length_a	11.697600
_cell_length_b	10.245500
_cell_length_c	15.172400
_cell_angle_alpha	90.000000
_cell_angle_beta	91.621000
_cell_angle_gamma	90.000000
_symmetry_Int_Tables_number 1

loop_
_symmetry_equiv_pos_as_xyz
'x,y,z'

loop_
_atom_site_label
_atom_site_type_symbol
_atom_site_fract_x
_atom_site_fract_y
_atom_site_fract_z
Mn11	Mn1	0.756060	0.423900	0.131330
Mn21	Mn2	0.739550	0.613250	0.308940
O11	O1	0.686240	0.529300	0.020620
O21	O2	0.844700	0.595700	0.957430
O31	O3	0.477500	0.707700	0.992520
O41	O4	0.343600	0.754700	0.890340
O51	O5	0.626500	0.512800	0.214790
O61	O6	0.462200	0.507400	0.138800
O71	O7	0.807800	0.440600	0.365150
O81	O8	0.803400	0.305700	0.250080
O91	O9	0.002800	0.624300	0.114860
O101	O10	0.850030	0.584600	0.193920
O111	O11	0.595560	0.844800	0.432720
O121	O12	0.600000	0.634800	0.395250
C11	C1	0.741200	0.595700	0.965500
H11	H1	0.698700	0.649400	0.927600
C21	C2	0.423200	0.784600	0.944700
H21	H2	0.442600	0.872400	0.949100
C31	C3	0.519200	0.522300	0.205900
H31	H3	0.479600	0.543100	0.256300
C41	C4	0.822200	0.332700	0.330500
H41	H4	0.849200	0.265600	0.366700
C51	C5	0.941000	0.644200	0.176600
H51	H5	0.963300	0.710600	0.215200
C61	C6	0.558600	0.729700	0.433100
H61	H6	0.493300	0.714300	0.465200
Mn31	Mn3	0.743940	0.923900	0.368670
Mn41	Mn4	0.760450	0.113250	0.191060
O131	O13	0.813760	0.029300	0.479380
O141	O14	0.655300	0.095700	0.542570
O151	O15	0.022500	0.207700	0.507480
O161	O16	0.156400	0.254700	0.609660
O171	O17	0.873500	0.012800	0.285210
O181	O18	0.037800	0.007400	0.361200
O191	O19	0.692200	0.940600	0.134850
O201	O20	0.696600	0.805700	0.249920
O211	O21	0.497200	0.124300	0.385140
O221	O22	0.649970	0.084600	0.306080
O231	O23	0.904440	0.344800	0.067280
O241	O24	0.900000	0.134800	0.104750
C71	C7	0.758800	0.095700	0.534500
H71	H7	0.801300	0.149400	0.572400
C81	C8	0.076800	0.284600	0.555300
H81	H8	0.057400	0.372400	0.550900
C91	C9	0.980800	0.022300	0.294100
H91	H9	0.020400	0.043100	0.243700
C101	C10	0.677800	0.832700	0.169500
H101	H10	0.650800	0.765600	0.133300
C111	C11	0.559000	0.144200	0.323400
H111	H11	0.536700	0.210600	0.284800
C121	C12	0.941400	0.229700	0.066900
H121	H12	0.006700	0.214300	0.034800
Mn51	Mn5	0.243940	0.576100	0.868670
Mn61	Mn6	0.260450	0.386750	0.691060
O251	O25	0.313760	0.470700	0.979380
O261	O26	0.155300	0.404300	0.042570
O271	O27	0.522500	0.292300	0.007480
O281	O28	0.656400	0.245300	0.109660
O291	O29	0.373500	0.487200	0.785210
O301	O30	0.537800	0.492600	0.861200
O311	O31	0.192200	0.559400	0.634850
O321	O32	0.196600	0.694300	0.749920
O331	O33	0.997200	0.375700	0.885140
O341	O34	0.149970	0.415400	0.806080
O351	O35	0.404440	0.155200	0.567280
O361	O36	0.400000	0.365200	0.604750
C131	C13	0.258800	0.404300	0.034500
H131	H13	0.301300	0.350600	0.072400
C141	C14	0.576800	0.215400	0.055300
H141	H14	0.557400	0.127600	0.050900
C151	C15	0.480800	0.477700	0.794100
H151	H15	0.520400	0.456900	0.743700
C161	C16	0.177800	0.667300	0.669500
H161	H16	0.150800	0.734400	0.633300
C171	C17	0.059000	0.355800	0.823400
H171	H17	0.036700	0.289400	0.784800
C181	C18	0.441400	0.270300	0.566900
H181	H18	0.506700	0.285700	0.534800
Mn71	Mn7	0.256060	0.076100	0.631330
Mn81	Mn8	0.239550	0.886750	0.808940
O371	O37	0.186240	0.970700	0.520620
O381	O38	0.344700	0.904300	0.457430
O391	O39	0.977500	0.792300	0.492520
O401	O40	0.843600	0.745300	0.390340
O411	O41	0.126500	0.987200	0.714790
O421	O42	0.962200	0.992600	0.638800
O431	O43	0.307800	0.059400	0.865150
O441	O44	0.303400	0.194300	0.750080
O451	O45	0.502800	0.875700	0.614860
O461	O46	0.350030	0.915400	0.693920
O471	O47	0.095560	0.655200	0.932720
O481	O48	0.100000	0.865200	0.895250
C191	C19	0.241200	0.904300	0.465500
H191	H19	0.198700	0.850600	0.427600
C201	C20	0.923200	0.715400	0.444700
H201	H20	0.942600	0.627600	0.449100
C211	C21	0.019200	0.977700	0.705900
H211	H21	0.979600	0.956900	0.756300
C221	C22	0.322200	0.167300	0.830500
H221	H22	0.349200	0.234400	0.866700
C231	C23	0.441000	0.855800	0.676600
H231	H23	0.463300	0.789400	0.715200
C241	C24	0.058600	0.770300	0.933100
H241	H24	0.993300	0.785700	0.965200
Mn91	Mn9	0.500000	0.500000	0.000000
Mn101	Mn10	0.000000	0.000000	0.500000
Mn111	Mn11	0.000000	0.500000	0.000000
Mn121	Mn12	0.500000	0.000000	0.500000
