data_ATICEL_freeONLY_PM
_symmetry_space_group_name_H-M	'P1'
_cell_length_a	10.195600
_cell_length_b	11.834100
_cell_length_c	14.873800
_cell_angle_alpha	90.981400
_cell_angle_beta	90.000000
_cell_angle_gamma	90.000000
_symmetry_Int_Tables_number 1

loop_
_symmetry_equiv_pos_as_xyz
'x,y,z'

loop_
_atom_site_label
_atom_site_type_symbol
_atom_site_fract_x
_atom_site_fract_y
_atom_site_fract_z
Mn11	Mn1	0.916970	0.753900	0.130120
Mn21	Mn2	0.104550	0.737190	0.314180
Mn31	Mn3	0.416970	0.746100	0.369880
Mn41	Mn4	0.604550	0.762810	0.185820
Mn51	Mn5	0.083030	0.246100	0.869880
Mn61	Mn6	0.895450	0.262810	0.685820
Mn71	Mn7	0.583030	0.253900	0.630120
Mn81	Mn8	0.395450	0.237190	0.814180
Mn91	Mn9	0.000000	0.500000	0.000000
Mn101	Mn10	0.500000	0.000000	0.500000
Mn111	Mn11	0.000000	0.000000	0.000000
Mn121	Mn12	0.500000	0.500000	0.500000
H11	H1	0.743000	0.838000	0.378000
H21	H2	0.041000	0.478000	0.271000
H31	H3	0.614000	0.559000	0.048000
H41	H4	0.221000	0.952000	0.229000
H51	H5	0.149000	0.697000	0.913000
H61	H6	0.717000	0.020000	0.028000
H71	H7	0.243000	0.662000	0.122000
H81	H8	0.541000	0.022000	0.229000
H91	H9	0.114000	0.941000	0.452000
H101	H10	0.721000	0.548000	0.271000
H111	H11	0.649000	0.803000	0.587000
H121	H12	0.217000	0.480000	0.472000
H131	H13	0.257000	0.162000	0.622000
H141	H14	0.959000	0.522000	0.729000
H151	H15	0.386000	0.441000	0.952000
H161	H16	0.779000	0.048000	0.771000
H171	H17	0.851000	0.303000	0.087000
H181	H18	0.283000	0.980000	0.972000
H191	H19	0.757000	0.338000	0.878000
H201	H20	0.459000	0.978000	0.771000
H211	H21	0.886000	0.059000	0.548000
H221	H22	0.279000	0.452000	0.729000
H231	H23	0.351000	0.197000	0.413000
H241	H24	0.783000	0.520000	0.528000
C11	C1	0.822100	0.819300	0.331600
C21	C2	0.017200	0.520700	0.210100
C31	C3	0.709900	0.576200	0.050900
C41	C4	0.141800	0.938700	0.181800
C51	C5	0.091000	0.742900	0.963200
C61	C6	0.726200	0.941700	0.061700
C71	C7	0.322100	0.680700	0.168400
C81	C8	0.517200	0.979300	0.289900
C91	C9	0.209900	0.923800	0.449100
C101	C10	0.641800	0.561300	0.318200
C111	C11	0.591000	0.757100	0.536800
C121	C12	0.226200	0.558300	0.438300
C131	C13	0.177900	0.180700	0.668400
C141	C14	0.982800	0.479300	0.789900
C151	C15	0.290100	0.423800	0.949100
C161	C16	0.858200	0.061300	0.818200
C171	C17	0.909000	0.257100	0.036800
C181	C18	0.273800	0.058300	0.938300
C191	C19	0.677900	0.319300	0.831600
C201	C20	0.482800	0.020700	0.710100
C211	C21	0.790100	0.076200	0.550900
C221	C22	0.358200	0.438700	0.681800
C231	C23	0.409000	0.242900	0.463200
C241	C24	0.773800	0.441700	0.561700
O11	O1	0.796800	0.798300	0.249100
O21	O2	0.931000	0.807400	0.368400
O31	O3	0.006900	0.628000	0.217100
O41	O4	0.003300	0.464600	0.140900
O51	O5	0.738100	0.656200	0.106600
O61	O6	0.789300	0.518500	0.007800
O71	O7	0.076700	0.850200	0.195600
O81	O8	0.123300	0.006100	0.119900
O91	O9	0.024700	0.684700	0.019500
O101	O10	0.096600	0.846700	0.962200
O111	O11	0.843600	0.904200	0.065400
O121	O12	0.629200	0.900200	0.098400
O131	O13	0.296800	0.701700	0.250900
O141	O14	0.431000	0.692600	0.131600
O151	O15	0.506900	0.872000	0.282900
O161	O16	0.503300	0.035400	0.359100
O171	O17	0.238100	0.843800	0.393400
O181	O18	0.289300	0.981500	0.492200
O191	O19	0.576700	0.649800	0.304400
O201	O20	0.623300	0.493900	0.380100
O211	O21	0.524700	0.815300	0.480500
O221	O22	0.596600	0.653300	0.537800
O231	O23	0.343600	0.595800	0.434600
O241	O24	0.129200	0.599800	0.401600
O251	O25	0.203200	0.201700	0.750900
O261	O26	0.069000	0.192600	0.631600
O271	O27	0.993100	0.372000	0.782900
O281	O28	0.996700	0.535400	0.859100
O291	O29	0.261900	0.343800	0.893400
O301	O30	0.210700	0.481500	0.992200
O311	O31	0.923300	0.149800	0.804400
O321	O32	0.876700	0.993900	0.880100
O331	O33	0.975300	0.315300	0.980500
O341	O34	0.903400	0.153300	0.037800
O351	O35	0.156400	0.095800	0.934600
O361	O36	0.370800	0.099800	0.901600
O371	O37	0.703200	0.298300	0.749100
O381	O38	0.569000	0.307400	0.868400
O391	O39	0.493100	0.128000	0.717100
O401	O40	0.496700	0.964600	0.640900
O411	O41	0.761900	0.156200	0.606600
O421	O42	0.710700	0.018500	0.507800
O431	O43	0.423300	0.350200	0.695600
O441	O44	0.376700	0.506100	0.619900
O451	O45	0.475300	0.184700	0.519500
O461	O46	0.403400	0.346700	0.462200
O471	O47	0.656400	0.404200	0.565400
O481	O48	0.870800	0.400200	0.598400
