data_AVAGOV_freeONLY_PM
_symmetry_space_group_name_H-M	'P1'
_cell_length_a	31.065000
_cell_length_b	31.065000
_cell_length_c	8.000300
_cell_angle_alpha	90.000000
_cell_angle_beta	90.000000
_cell_angle_gamma	90.000000
_symmetry_Int_Tables_number 1

loop_
_symmetry_equiv_pos_as_xyz
'x,y,z'

loop_
_atom_site_label
_atom_site_type_symbol
_atom_site_fract_x
_atom_site_fract_y
_atom_site_fract_z
Ag11	Ag1	0.186300	0.305620	0.089310
O11	O1	0.163590	0.377810	0.230000
O21	O2	0.227020	0.358690	0.257700
N11	N1	0.989630	0.385740	0.060100
N21	N2	0.067450	0.255580	0.834600
N31	N3	0.102680	0.234720	0.767900
N41	N4	0.116140	0.304110	0.770500
N51	N5	0.250210	0.226210	0.512800
N61	N6	0.170850	0.351190	0.849500
N71	N7	0.199910	0.387050	0.281300
C11	C1	0.061680	0.364920	0.995000
H11	H1	0.091000	0.370500	0.003400
C21	C2	0.032020	0.392430	0.067300
H21	H2	0.042100	0.416600	0.123500
C31	C3	0.976050	0.350630	0.978100
H31	H3	0.946600	0.345600	0.972000
C41	C4	0.002990	0.321870	0.903400
H41	H4	0.992000	0.297800	0.848800
C51	C5	0.047140	0.328990	0.910100
C61	C6	0.076100	0.296730	0.836800
C71	C7	0.131460	0.264120	0.730500
C81	C8	0.173110	0.253390	0.656000
C91	C9	0.192500	0.215330	0.704300
H51	H5	0.179900	0.198200	0.786200
C101	C10	0.230190	0.203100	0.631200
H61	H6	0.242700	0.177300	0.665200
C111	C11	0.231880	0.263360	0.468600
H71	H7	0.245500	0.280100	0.388200
C121	C12	0.193600	0.278190	0.536600
H81	H8	0.181900	0.304300	0.502400
C131	C13	0.137740	0.344790	0.750000
C141	C14	0.190880	0.389040	0.834800
H91	H9	0.214200	0.394600	0.904100
C151	C15	0.178650	0.420070	0.722300
H101	H10	0.193500	0.446000	0.715700
C161	C16	0.144350	0.412280	0.620200
H111	H11	0.135600	0.432800	0.542800
C171	C17	0.122850	0.373580	0.633300
H121	H12	0.099300	0.367300	0.565900
Ag21	Ag2	0.686300	0.805620	0.589310
O31	O3	0.663590	0.877810	0.730000
O41	O4	0.727020	0.858690	0.757700
N81	N8	0.489630	0.885740	0.560100
N91	N9	0.567450	0.755580	0.334600
N101	N10	0.602680	0.734720	0.267900
N111	N11	0.616140	0.804110	0.270500
N121	N12	0.750210	0.726210	0.012800
N131	N13	0.670850	0.851190	0.349500
N141	N14	0.699910	0.887050	0.781300
C181	C18	0.561680	0.864920	0.495000
H131	H13	0.591000	0.870500	0.503400
C191	C19	0.532020	0.892430	0.567300
H141	H14	0.542100	0.916600	0.623500
C201	C20	0.476050	0.850630	0.478100
H151	H15	0.446600	0.845600	0.472000
C211	C21	0.502990	0.821870	0.403400
H161	H16	0.492000	0.797800	0.348800
C221	C22	0.547140	0.828990	0.410100
C231	C23	0.576100	0.796730	0.336800
C241	C24	0.631460	0.764120	0.230500
C251	C25	0.673110	0.753390	0.156000
C261	C26	0.692500	0.715330	0.204300
H171	H17	0.679900	0.698200	0.286200
C271	C27	0.730190	0.703100	0.131200
H181	H18	0.742700	0.677300	0.165200
C281	C28	0.731880	0.763360	0.968600
H191	H19	0.745500	0.780100	0.888200
C291	C29	0.693600	0.778190	0.036600
H201	H20	0.681900	0.804300	0.002400
C301	C30	0.637740	0.844790	0.250000
C311	C31	0.690880	0.889040	0.334800
H211	H21	0.714200	0.894600	0.404100
C321	C32	0.678650	0.920070	0.222300
H221	H22	0.693500	0.946000	0.215700
C331	C33	0.644350	0.912280	0.120200
H231	H23	0.635600	0.932800	0.042800
C341	C34	0.622850	0.873580	0.133300
H241	H24	0.599300	0.867300	0.065900
Ag31	Ag3	0.313700	0.694380	0.589310
O51	O5	0.336410	0.622190	0.730000
O61	O6	0.272980	0.641310	0.757700
N151	N15	0.510370	0.614260	0.560100
N161	N16	0.432550	0.744420	0.334600
N171	N17	0.397320	0.765280	0.267900
N181	N18	0.383860	0.695890	0.270500
N191	N19	0.249790	0.773790	0.012800
N201	N20	0.329150	0.648810	0.349500
N211	N21	0.300090	0.612950	0.781300
C351	C35	0.438320	0.635080	0.495000
H251	H25	0.409000	0.629500	0.503400
C361	C36	0.467980	0.607570	0.567300
H261	H26	0.457900	0.583400	0.623500
C371	C37	0.523950	0.649370	0.478100
H271	H27	0.553400	0.654400	0.472000
C381	C38	0.497010	0.678130	0.403400
H281	H28	0.508000	0.702200	0.348800
C391	C39	0.452860	0.671010	0.410100
C401	C40	0.423900	0.703270	0.336800
C411	C41	0.368540	0.735880	0.230500
C421	C42	0.326890	0.746610	0.156000
C431	C43	0.307500	0.784670	0.204300
H291	H29	0.320100	0.801800	0.286200
C441	C44	0.269810	0.796900	0.131200
H301	H30	0.257300	0.822700	0.165200
C451	C45	0.268120	0.736640	0.968600
H311	H31	0.254500	0.719900	0.888200
C461	C46	0.306400	0.721810	0.036600
H321	H32	0.318100	0.695700	0.002400
C471	C47	0.362260	0.655210	0.250000
C481	C48	0.309120	0.610960	0.334800
H331	H33	0.285800	0.605400	0.404100
C491	C49	0.321350	0.579930	0.222300
H341	H34	0.306500	0.554000	0.215700
C501	C50	0.355650	0.587720	0.120200
H351	H35	0.364400	0.567200	0.042800
C511	C51	0.377150	0.626420	0.133300
H361	H36	0.400700	0.632700	0.065900
Ag41	Ag4	0.813700	0.194380	0.089310
O71	O7	0.836410	0.122190	0.230000
O81	O8	0.772980	0.141310	0.257700
N221	N22	0.010370	0.114260	0.060100
N231	N23	0.932550	0.244420	0.834600
N241	N24	0.897320	0.265280	0.767900
N251	N25	0.883860	0.195890	0.770500
N261	N26	0.749790	0.273790	0.512800
N271	N27	0.829150	0.148810	0.849500
N281	N28	0.800090	0.112950	0.281300
C521	C52	0.938320	0.135080	0.995000
H371	H37	0.909000	0.129500	0.003400
C531	C53	0.967980	0.107570	0.067300
H381	H38	0.957900	0.083400	0.123500
C541	C54	0.023950	0.149370	0.978100
H391	H39	0.053400	0.154400	0.972000
C551	C55	0.997010	0.178130	0.903400
H401	H40	0.008000	0.202200	0.848800
C561	C56	0.952860	0.171010	0.910100
C571	C57	0.923900	0.203270	0.836800
C581	C58	0.868540	0.235880	0.730500
C591	C59	0.826890	0.246610	0.656000
C601	C60	0.807500	0.284670	0.704300
H411	H41	0.820100	0.301800	0.786200
C611	C61	0.769810	0.296900	0.631200
H421	H42	0.757300	0.322700	0.665200
C621	C62	0.768120	0.236640	0.468600
H431	H43	0.754500	0.219900	0.388200
C631	C63	0.806400	0.221810	0.536600
H441	H44	0.818100	0.195700	0.502400
C641	C64	0.862260	0.155210	0.750000
C651	C65	0.809120	0.110960	0.834800
H451	H45	0.785800	0.105400	0.904100
C661	C66	0.821350	0.079930	0.722300
H461	H46	0.806500	0.054000	0.715700
C671	C67	0.855650	0.087720	0.620200
H471	H47	0.864400	0.067200	0.542800
C681	C68	0.877150	0.126420	0.633300
H481	H48	0.900700	0.132700	0.565900
Ag51	Ag5	0.444380	0.436300	0.339310
O91	O9	0.372190	0.413590	0.480000
O101	O10	0.391310	0.477020	0.507700
N291	N29	0.364260	0.239630	0.310100
N301	N30	0.494420	0.317450	0.084600
N311	N31	0.515280	0.352680	0.017900
N321	N32	0.445890	0.366140	0.020500
N331	N33	0.523790	0.500210	0.762800
N341	N34	0.398810	0.420850	0.099500
N351	N35	0.362950	0.449910	0.531300
C691	C69	0.385080	0.311680	0.245000
H491	H49	0.379500	0.341000	0.253400
C701	C70	0.357570	0.282020	0.317300
H501	H50	0.333400	0.292100	0.373500
C711	C71	0.399370	0.226050	0.228100
H511	H51	0.404400	0.196600	0.222000
C721	C72	0.428130	0.252990	0.153400
H521	H52	0.452200	0.242000	0.098800
C731	C73	0.421010	0.297140	0.160100
C741	C74	0.453270	0.326100	0.086800
C751	C75	0.485880	0.381460	0.980500
C761	C76	0.496610	0.423110	0.906000
C771	C77	0.534670	0.442500	0.954300
H531	H53	0.551800	0.429900	0.036200
C781	C78	0.546900	0.480190	0.881200
H541	H54	0.572700	0.492700	0.915200
C791	C79	0.486640	0.481880	0.718600
H551	H55	0.469900	0.495500	0.638200
C801	C80	0.471810	0.443600	0.786600
H561	H56	0.445700	0.431900	0.752400
C811	C81	0.405210	0.387740	0.000000
C821	C82	0.360960	0.440880	0.084800
H571	H57	0.355400	0.464200	0.154100
C831	C83	0.329930	0.428650	0.972300
H581	H58	0.304000	0.443500	0.965700
C841	C84	0.337720	0.394350	0.870200
H591	H59	0.317200	0.385600	0.792800
C851	C85	0.376420	0.372850	0.883300
H601	H60	0.382700	0.349300	0.815900
Ag61	Ag6	0.944380	0.936300	0.839310
O111	O11	0.872190	0.913590	0.980000
O121	O12	0.891310	0.977020	0.007700
N361	N36	0.864260	0.739630	0.810100
N371	N37	0.994420	0.817450	0.584600
N381	N38	0.015280	0.852680	0.517900
N391	N39	0.945890	0.866140	0.520500
N401	N40	0.023790	0.000210	0.262800
N411	N41	0.898810	0.920850	0.599500
N421	N42	0.862950	0.949910	0.031300
C861	C86	0.885080	0.811680	0.745000
H611	H61	0.879500	0.841000	0.753400
C871	C87	0.857570	0.782020	0.817300
H621	H62	0.833400	0.792100	0.873500
C881	C88	0.899370	0.726050	0.728100
H631	H63	0.904400	0.696600	0.722000
C891	C89	0.928130	0.752990	0.653400
H641	H64	0.952200	0.742000	0.598800
C901	C90	0.921010	0.797140	0.660100
C911	C91	0.953270	0.826100	0.586800
C921	C92	0.985880	0.881460	0.480500
C931	C93	0.996610	0.923110	0.406000
C941	C94	0.034670	0.942500	0.454300
H651	H65	0.051800	0.929900	0.536200
C951	C95	0.046900	0.980190	0.381200
H661	H66	0.072700	0.992700	0.415200
C961	C96	0.986640	0.981880	0.218600
H671	H67	0.969900	0.995500	0.138200
C971	C97	0.971810	0.943600	0.286600
H681	H68	0.945700	0.931900	0.252400
C981	C98	0.905210	0.887740	0.500000
C991	C99	0.860960	0.940880	0.584800
H691	H69	0.855400	0.964200	0.654100
C1001	C100	0.829930	0.928650	0.472300
H701	H70	0.804000	0.943500	0.465700
C1011	C101	0.837720	0.894350	0.370200
H711	H71	0.817200	0.885600	0.292800
C1021	C102	0.876420	0.872850	0.383300
H721	H72	0.882700	0.849300	0.315900
Ag71	Ag7	0.055620	0.563700	0.839310
O131	O13	0.127810	0.586410	0.980000
O141	O14	0.108690	0.522980	0.007700
N431	N43	0.135740	0.760370	0.810100
N441	N44	0.005580	0.682550	0.584600
N451	N45	0.984720	0.647320	0.517900
N461	N46	0.054110	0.633860	0.520500
N471	N47	0.976210	0.499790	0.262800
N481	N48	0.101190	0.579150	0.599500
N491	N49	0.137050	0.550090	0.031300
C1031	C103	0.114920	0.688320	0.745000
H731	H73	0.120500	0.659000	0.753400
C1041	C104	0.142430	0.717980	0.817300
H741	H74	0.166600	0.707900	0.873500
C1051	C105	0.100630	0.773950	0.728100
H751	H75	0.095600	0.803400	0.722000
C1061	C106	0.071870	0.747010	0.653400
H761	H76	0.047800	0.758000	0.598800
C1071	C107	0.078990	0.702860	0.660100
C1081	C108	0.046730	0.673900	0.586800
C1091	C109	0.014120	0.618540	0.480500
C1101	C110	0.003390	0.576890	0.406000
C1111	C111	0.965330	0.557500	0.454300
H771	H77	0.948200	0.570100	0.536200
C1121	C112	0.953100	0.519810	0.381200
H781	H78	0.927300	0.507300	0.415200
C1131	C113	0.013360	0.518120	0.218600
H791	H79	0.030100	0.504500	0.138200
C1141	C114	0.028190	0.556400	0.286600
H801	H80	0.054300	0.568100	0.252400
C1151	C115	0.094790	0.612260	0.500000
C1161	C116	0.139040	0.559120	0.584800
H811	H81	0.144600	0.535800	0.654100
C1171	C117	0.170070	0.571350	0.472300
H821	H82	0.196000	0.556500	0.465700
C1181	C118	0.162280	0.605650	0.370200
H831	H83	0.182800	0.614400	0.292800
C1191	C119	0.123580	0.627150	0.383300
H841	H84	0.117300	0.650700	0.315900
Ag81	Ag8	0.555620	0.063700	0.339310
O151	O15	0.627810	0.086410	0.480000
O161	O16	0.608690	0.022980	0.507700
N501	N50	0.635740	0.260370	0.310100
N511	N51	0.505580	0.182550	0.084600
N521	N52	0.484720	0.147320	0.017900
N531	N53	0.554110	0.133860	0.020500
N541	N54	0.476210	0.999790	0.762800
N551	N55	0.601190	0.079150	0.099500
N561	N56	0.637050	0.050090	0.531300
C1201	C120	0.614920	0.188320	0.245000
H851	H85	0.620500	0.159000	0.253400
C1211	C121	0.642430	0.217980	0.317300
H861	H86	0.666600	0.207900	0.373500
C1221	C122	0.600630	0.273950	0.228100
H871	H87	0.595600	0.303400	0.222000
C1231	C123	0.571870	0.247010	0.153400
H881	H88	0.547800	0.258000	0.098800
C1241	C124	0.578990	0.202860	0.160100
C1251	C125	0.546730	0.173900	0.086800
C1261	C126	0.514120	0.118540	0.980500
C1271	C127	0.503390	0.076890	0.906000
C1281	C128	0.465330	0.057500	0.954300
H891	H89	0.448200	0.070100	0.036200
C1291	C129	0.453100	0.019810	0.881200
H901	H90	0.427300	0.007300	0.915200
C1301	C130	0.513360	0.018120	0.718600
H911	H91	0.530100	0.004500	0.638200
C1311	C131	0.528190	0.056400	0.786600
H921	H92	0.554300	0.068100	0.752400
C1321	C132	0.594790	0.112260	0.000000
C1331	C133	0.639040	0.059120	0.084800
H931	H93	0.644600	0.035800	0.154100
C1341	C134	0.670070	0.071350	0.972300
H941	H94	0.696000	0.056500	0.965700
C1351	C135	0.662280	0.105650	0.870200
H951	H95	0.682800	0.114400	0.792800
C1361	C136	0.623580	0.127150	0.883300
H961	H96	0.617300	0.150700	0.815900
Ag91	Ag9	0.813700	0.694380	0.910690
O171	O17	0.836410	0.622190	0.770000
O181	O18	0.772980	0.641310	0.742300
N571	N57	0.010370	0.614260	0.939900
N581	N58	0.932550	0.744420	0.165400
N591	N59	0.897320	0.765280	0.232100
N601	N60	0.883860	0.695890	0.229500
N611	N61	0.749790	0.773790	0.487200
N621	N62	0.829150	0.648810	0.150500
N631	N63	0.800090	0.612950	0.718700
C1371	C137	0.938320	0.635080	0.005000
H971	H97	0.909000	0.629500	0.996600
C1381	C138	0.967980	0.607570	0.932700
H981	H98	0.957900	0.583400	0.876500
C1391	C139	0.023950	0.649370	0.021900
H991	H99	0.053400	0.654400	0.028000
C1401	C140	0.997010	0.678130	0.096600
H1001	H100	0.008000	0.702200	0.151200
C1411	C141	0.952860	0.671010	0.089900
C1421	C142	0.923900	0.703270	0.163200
C1431	C143	0.868540	0.735880	0.269500
C1441	C144	0.826890	0.746610	0.344000
C1451	C145	0.807500	0.784670	0.295700
H1011	H101	0.820100	0.801800	0.213800
C1461	C146	0.769810	0.796900	0.368800
H1021	H102	0.757300	0.822700	0.334800
C1471	C147	0.768120	0.736640	0.531400
H1031	H103	0.754500	0.719900	0.611800
C1481	C148	0.806400	0.721810	0.463400
H1041	H104	0.818100	0.695700	0.497600
C1491	C149	0.862260	0.655210	0.250000
C1501	C150	0.809120	0.610960	0.165200
H1051	H105	0.785800	0.605400	0.095900
C1511	C151	0.821350	0.579930	0.277700
H1061	H106	0.806500	0.554000	0.284300
C1521	C152	0.855650	0.587720	0.379800
H1071	H107	0.864400	0.567200	0.457200
C1531	C153	0.877150	0.626420	0.366700
H1081	H108	0.900700	0.632700	0.434100
Ag101	Ag10	0.313700	0.194380	0.410690
O191	O19	0.336410	0.122190	0.270000
O201	O20	0.272980	0.141310	0.242300
N641	N64	0.510370	0.114260	0.439900
N651	N65	0.432550	0.244420	0.665400
N661	N66	0.397320	0.265280	0.732100
N671	N67	0.383860	0.195890	0.729500
N681	N68	0.249790	0.273790	0.987200
N691	N69	0.329150	0.148810	0.650500
N701	N70	0.300090	0.112950	0.218700
C1541	C154	0.438320	0.135080	0.505000
H1091	H109	0.409000	0.129500	0.496600
C1551	C155	0.467980	0.107570	0.432700
H1101	H110	0.457900	0.083400	0.376500
C1561	C156	0.523950	0.149370	0.521900
H1111	H111	0.553400	0.154400	0.528000
C1571	C157	0.497010	0.178130	0.596600
H1121	H112	0.508000	0.202200	0.651200
C1581	C158	0.452860	0.171010	0.589900
C1591	C159	0.423900	0.203270	0.663200
C1601	C160	0.368540	0.235880	0.769500
C1611	C161	0.326890	0.246610	0.844000
C1621	C162	0.307500	0.284670	0.795700
H1131	H113	0.320100	0.301800	0.713800
C1631	C163	0.269810	0.296900	0.868800
H1141	H114	0.257300	0.322700	0.834800
C1641	C164	0.268120	0.236640	0.031400
H1151	H115	0.254500	0.219900	0.111800
C1651	C165	0.306400	0.221810	0.963400
H1161	H116	0.318100	0.195700	0.997600
C1661	C166	0.362260	0.155210	0.750000
C1671	C167	0.309120	0.110960	0.665200
H1171	H117	0.285800	0.105400	0.595900
C1681	C168	0.321350	0.079930	0.777700
H1181	H118	0.306500	0.054000	0.784300
C1691	C169	0.355650	0.087720	0.879800
H1191	H119	0.364400	0.067200	0.957200
C1701	C170	0.377150	0.126420	0.866700
H1201	H120	0.400700	0.132700	0.934100
Ag111	Ag11	0.686300	0.305620	0.410690
O211	O21	0.663590	0.377810	0.270000
O221	O22	0.727020	0.358690	0.242300
N711	N71	0.489630	0.385740	0.439900
N721	N72	0.567450	0.255580	0.665400
N731	N73	0.602680	0.234720	0.732100
N741	N74	0.616140	0.304110	0.729500
N751	N75	0.750210	0.226210	0.987200
N761	N76	0.670850	0.351190	0.650500
N771	N77	0.699910	0.387050	0.218700
C1711	C171	0.561680	0.364920	0.505000
H1211	H121	0.591000	0.370500	0.496600
C1721	C172	0.532020	0.392430	0.432700
H1221	H122	0.542100	0.416600	0.376500
C1731	C173	0.476050	0.350630	0.521900
H1231	H123	0.446600	0.345600	0.528000
C1741	C174	0.502990	0.321870	0.596600
H1241	H124	0.492000	0.297800	0.651200
C1751	C175	0.547140	0.328990	0.589900
C1761	C176	0.576100	0.296730	0.663200
C1771	C177	0.631460	0.264120	0.769500
C1781	C178	0.673110	0.253390	0.844000
C1791	C179	0.692500	0.215330	0.795700
H1251	H125	0.679900	0.198200	0.713800
C1801	C180	0.730190	0.203100	0.868800
H1261	H126	0.742700	0.177300	0.834800
C1811	C181	0.731880	0.263360	0.031400
H1271	H127	0.745500	0.280100	0.111800
C1821	C182	0.693600	0.278190	0.963400
H1281	H128	0.681900	0.304300	0.997600
C1831	C183	0.637740	0.344790	0.750000
C1841	C184	0.690880	0.389040	0.665200
H1291	H129	0.714200	0.394600	0.595900
C1851	C185	0.678650	0.420070	0.777700
H1301	H130	0.693500	0.446000	0.784300
C1861	C186	0.644350	0.412280	0.879800
H1311	H131	0.635600	0.432800	0.957200
C1871	C187	0.622850	0.373580	0.866700
H1321	H132	0.599300	0.367300	0.934100
Ag121	Ag12	0.186300	0.805620	0.910690
O231	O23	0.163590	0.877810	0.770000
O241	O24	0.227020	0.858690	0.742300
N781	N78	0.989630	0.885740	0.939900
N791	N79	0.067450	0.755580	0.165400
N801	N80	0.102680	0.734720	0.232100
N811	N81	0.116140	0.804110	0.229500
N821	N82	0.250210	0.726210	0.487200
N831	N83	0.170850	0.851190	0.150500
N841	N84	0.199910	0.887050	0.718700
C1881	C188	0.061680	0.864920	0.005000
H1331	H133	0.091000	0.870500	0.996600
C1891	C189	0.032020	0.892430	0.932700
H1341	H134	0.042100	0.916600	0.876500
C1901	C190	0.976050	0.850630	0.021900
H1351	H135	0.946600	0.845600	0.028000
C1911	C191	0.002990	0.821870	0.096600
H1361	H136	0.992000	0.797800	0.151200
C1921	C192	0.047140	0.828990	0.089900
C1931	C193	0.076100	0.796730	0.163200
C1941	C194	0.131460	0.764120	0.269500
C1951	C195	0.173110	0.753390	0.344000
C1961	C196	0.192500	0.715330	0.295700
H1371	H137	0.179900	0.698200	0.213800
C1971	C197	0.230190	0.703100	0.368800
H1381	H138	0.242700	0.677300	0.334800
C1981	C198	0.231880	0.763360	0.531400
H1391	H139	0.245500	0.780100	0.611800
C1991	C199	0.193600	0.778190	0.463400
H1401	H140	0.181900	0.804300	0.497600
C2001	C200	0.137740	0.844790	0.250000
C2011	C201	0.190880	0.889040	0.165200
H1411	H141	0.214200	0.894600	0.095900
C2021	C202	0.178650	0.920070	0.277700
H1421	H142	0.193500	0.946000	0.284300
C2031	C203	0.144350	0.912280	0.379800
H1431	H143	0.135600	0.932800	0.457200
C2041	C204	0.122850	0.873580	0.366700
H1441	H144	0.099300	0.867300	0.434100
Ag131	Ag13	0.555620	0.563700	0.660690
O251	O25	0.627810	0.586410	0.520000
O261	O26	0.608690	0.522980	0.492300
N851	N85	0.635740	0.760370	0.689900
N861	N86	0.505580	0.682550	0.915400
N871	N87	0.484720	0.647320	0.982100
N881	N88	0.554110	0.633860	0.979500
N891	N89	0.476210	0.499790	0.237200
N901	N90	0.601190	0.579150	0.900500
N911	N91	0.637050	0.550090	0.468700
C2051	C205	0.614920	0.688320	0.755000
H1451	H145	0.620500	0.659000	0.746600
C2061	C206	0.642430	0.717980	0.682700
H1461	H146	0.666600	0.707900	0.626500
C2071	C207	0.600630	0.773950	0.771900
H1471	H147	0.595600	0.803400	0.778000
C2081	C208	0.571870	0.747010	0.846600
H1481	H148	0.547800	0.758000	0.901200
C2091	C209	0.578990	0.702860	0.839900
C2101	C210	0.546730	0.673900	0.913200
C2111	C211	0.514120	0.618540	0.019500
C2121	C212	0.503390	0.576890	0.094000
C2131	C213	0.465330	0.557500	0.045700
H1491	H149	0.448200	0.570100	0.963800
C2141	C214	0.453100	0.519810	0.118800
H1501	H150	0.427300	0.507300	0.084800
C2151	C215	0.513360	0.518120	0.281400
H1511	H151	0.530100	0.504500	0.361800
C2161	C216	0.528190	0.556400	0.213400
H1521	H152	0.554300	0.568100	0.247600
C2171	C217	0.594790	0.612260	0.000000
C2181	C218	0.639040	0.559120	0.915200
H1531	H153	0.644600	0.535800	0.845900
C2191	C219	0.670070	0.571350	0.027700
H1541	H154	0.696000	0.556500	0.034300
C2201	C220	0.662280	0.605650	0.129800
H1551	H155	0.682800	0.614400	0.207200
C2211	C221	0.623580	0.627150	0.116700
H1561	H156	0.617300	0.650700	0.184100
Ag141	Ag14	0.055620	0.063700	0.160690
O271	O27	0.127810	0.086410	0.020000
O281	O28	0.108690	0.022980	0.992300
N921	N92	0.135740	0.260370	0.189900
N931	N93	0.005580	0.182550	0.415400
N941	N94	0.984720	0.147320	0.482100
N951	N95	0.054110	0.133860	0.479500
N961	N96	0.976210	0.999790	0.737200
N971	N97	0.101190	0.079150	0.400500
N981	N98	0.137050	0.050090	0.968700
C2221	C222	0.114920	0.188320	0.255000
H1571	H157	0.120500	0.159000	0.246600
C2231	C223	0.142430	0.217980	0.182700
H1581	H158	0.166600	0.207900	0.126500
C2241	C224	0.100630	0.273950	0.271900
H1591	H159	0.095600	0.303400	0.278000
C2251	C225	0.071870	0.247010	0.346600
H1601	H160	0.047800	0.258000	0.401200
C2261	C226	0.078990	0.202860	0.339900
C2271	C227	0.046730	0.173900	0.413200
C2281	C228	0.014120	0.118540	0.519500
C2291	C229	0.003390	0.076890	0.594000
C2301	C230	0.965330	0.057500	0.545700
H1611	H161	0.948200	0.070100	0.463800
C2311	C231	0.953100	0.019810	0.618800
H1621	H162	0.927300	0.007300	0.584800
C2321	C232	0.013360	0.018120	0.781400
H1631	H163	0.030100	0.004500	0.861800
C2331	C233	0.028190	0.056400	0.713400
H1641	H164	0.054300	0.068100	0.747600
C2341	C234	0.094790	0.112260	0.500000
C2351	C235	0.139040	0.059120	0.415200
H1651	H165	0.144600	0.035800	0.345900
C2361	C236	0.170070	0.071350	0.527700
H1661	H166	0.196000	0.056500	0.534300
C2371	C237	0.162280	0.105650	0.629800
H1671	H167	0.182800	0.114400	0.707200
C2381	C238	0.123580	0.127150	0.616700
H1681	H168	0.117300	0.150700	0.684100
Ag151	Ag15	0.944380	0.436300	0.160690
O291	O29	0.872190	0.413590	0.020000
O301	O30	0.891310	0.477020	0.992300
N991	N99	0.864260	0.239630	0.189900
N1001	N100	0.994420	0.317450	0.415400
N1011	N101	0.015280	0.352680	0.482100
N1021	N102	0.945890	0.366140	0.479500
N1031	N103	0.023790	0.500210	0.737200
N1041	N104	0.898810	0.420850	0.400500
N1051	N105	0.862950	0.449910	0.968700
C2391	C239	0.885080	0.311680	0.255000
H1691	H169	0.879500	0.341000	0.246600
C2401	C240	0.857570	0.282020	0.182700
H1701	H170	0.833400	0.292100	0.126500
C2411	C241	0.899370	0.226050	0.271900
H1711	H171	0.904400	0.196600	0.278000
C2421	C242	0.928130	0.252990	0.346600
H1721	H172	0.952200	0.242000	0.401200
C2431	C243	0.921010	0.297140	0.339900
C2441	C244	0.953270	0.326100	0.413200
C2451	C245	0.985880	0.381460	0.519500
C2461	C246	0.996610	0.423110	0.594000
C2471	C247	0.034670	0.442500	0.545700
H1731	H173	0.051800	0.429900	0.463800
C2481	C248	0.046900	0.480190	0.618800
H1741	H174	0.072700	0.492700	0.584800
C2491	C249	0.986640	0.481880	0.781400
H1751	H175	0.969900	0.495500	0.861800
C2501	C250	0.971810	0.443600	0.713400
H1761	H176	0.945700	0.431900	0.747600
C2511	C251	0.905210	0.387740	0.500000
C2521	C252	0.860960	0.440880	0.415200
H1771	H177	0.855400	0.464200	0.345900
C2531	C253	0.829930	0.428650	0.527700
H1781	H178	0.804000	0.443500	0.534300
C2541	C254	0.837720	0.394350	0.629800
H1791	H179	0.817200	0.385600	0.707200
C2551	C255	0.876420	0.372850	0.616700
H1801	H180	0.882700	0.349300	0.684100
Ag161	Ag16	0.444380	0.936300	0.660690
O311	O31	0.372190	0.913590	0.520000
O321	O32	0.391310	0.977020	0.492300
N1061	N106	0.364260	0.739630	0.689900
N1071	N107	0.494420	0.817450	0.915400
N1081	N108	0.515280	0.852680	0.982100
N1091	N109	0.445890	0.866140	0.979500
N1101	N110	0.523790	0.000210	0.237200
N1111	N111	0.398810	0.920850	0.900500
N1121	N112	0.362950	0.949910	0.468700
C2561	C256	0.385080	0.811680	0.755000
H1811	H181	0.379500	0.841000	0.746600
C2571	C257	0.357570	0.782020	0.682700
H1821	H182	0.333400	0.792100	0.626500
C2581	C258	0.399370	0.726050	0.771900
H1831	H183	0.404400	0.696600	0.778000
C2591	C259	0.428130	0.752990	0.846600
H1841	H184	0.452200	0.742000	0.901200
C2601	C260	0.421010	0.797140	0.839900
C2611	C261	0.453270	0.826100	0.913200
C2621	C262	0.485880	0.881460	0.019500
C2631	C263	0.496610	0.923110	0.094000
C2641	C264	0.534670	0.942500	0.045700
H1851	H185	0.551800	0.929900	0.963800
C2651	C265	0.546900	0.980190	0.118800
H1861	H186	0.572700	0.992700	0.084800
C2661	C266	0.486640	0.981880	0.281400
H1871	H187	0.469900	0.995500	0.361800
C2671	C267	0.471810	0.943600	0.213400
H1881	H188	0.445700	0.931900	0.247600
C2681	C268	0.405210	0.887740	0.000000
C2691	C269	0.360960	0.940880	0.915200
H1891	H189	0.355400	0.964200	0.845900
C2701	C270	0.329930	0.928650	0.027700
H1901	H190	0.304000	0.943500	0.034300
C2711	C271	0.337720	0.894350	0.129800
H1911	H191	0.317200	0.885600	0.207200
C2721	C272	0.376420	0.872850	0.116700
H1921	H192	0.382700	0.849300	0.184100
