data_AVEHAM_freeONLY_PM
_symmetry_space_group_name_H-M	'P1'
_cell_length_a	12.656000
_cell_length_b	9.240800
_cell_length_c	25.544000
_cell_angle_alpha	90.000000
_cell_angle_beta	96.158000
_cell_angle_gamma	90.000000
_symmetry_Int_Tables_number 1

loop_
_symmetry_equiv_pos_as_xyz
'x,y,z'

loop_
_atom_site_label
_atom_site_type_symbol
_atom_site_fract_x
_atom_site_fract_y
_atom_site_fract_z
C11	C1	0.881500	0.061300	0.417200
C21	C2	0.817300	0.089600	0.366400
C31	C3	0.736800	0.998300	0.347100
H11	H1	0.721700	0.917500	0.366700
C41	C4	0.840400	0.206600	0.335700
H21	H2	0.895700	0.268500	0.347600
C51	C5	0.678400	0.023600	0.299900
H31	H3	0.623400	0.961100	0.288000
C61	C6	0.783300	0.232300	0.288400
H41	H4	0.800000	0.311800	0.268600
C71	C7	0.700800	0.141900	0.269500
C81	C8	0.324100	0.074000	0.183900
H51	H5	0.252600	0.051200	0.175600
C91	C9	0.359800	0.127300	0.233500
H61	H6	0.312400	0.144600	0.258200
C101	C10	0.393400	0.055000	0.147800
H71	H7	0.369600	0.020300	0.114400
C111	C11	0.469100	0.154600	0.245700
H81	H8	0.494700	0.186100	0.279200
C121	C12	0.499400	0.087000	0.160500
H91	H9	0.546200	0.075000	0.135200
C131	C13	0.537200	0.135400	0.208900
C141	C14	0.702100	0.222800	0.179200
C151	C15	0.793500	0.157200	0.167400
H101	H10	0.817900	0.075300	0.186100
C161	C16	0.665600	0.346500	0.151700
H111	H11	0.604000	0.392900	0.159600
C171	C17	0.721400	0.398200	0.113200
H121	H12	0.697400	0.480700	0.094700
C181	C18	0.849700	0.210100	0.128500
H131	H13	0.911900	0.164500	0.121100
C191	C19	0.813800	0.330400	0.100800
C201	C20	0.877600	0.392400	0.060700
C211	C21	0.117700	0.070600	0.032400
H141	H14	0.057100	0.086900	0.049200
C221	C22	0.169200	0.949700	0.044900
H151	H15	0.150600	0.888200	0.071300
C231	C23	0.221300	0.152700	0.973000
H161	H16	0.240700	0.221900	0.949400
C241	C24	0.284900	0.012500	0.981600
H171	H17	0.343400	0.990800	0.963900
C251	C25	0.248000	0.922400	0.017700
C261	C26	0.310000	0.772100	0.028500
H181	H18	0.332900	0.763500	0.065900
H191	H19	0.262000	0.692600	0.018600
C271	C27	0.443700	0.627000	0.002700
C281	C28	0.412400	0.505500	0.026600
H201	H20	0.352900	0.508200	0.045000
C291	C29	0.531400	0.622600	0.976200
H211	H21	0.553700	0.705600	0.959900
N11	N1	0.645400	0.169000	0.220200
N21	N2	0.141900	0.173800	0.998400
O11	O1	0.862000	0.944800	0.440760
O21	O2	0.951000	0.151800	0.433720
O31	O3	0.858500	0.521900	0.047150
O41	O4	0.945600	0.313500	0.043310
O51	O5	0.394200	0.762300	0.001800
Cu11	Cu1	0.051550	0.374450	0.996950
C301	C30	0.118500	0.561300	0.082800
C311	C31	0.182700	0.589600	0.133600
C321	C32	0.263200	0.498300	0.152900
H221	H22	0.278300	0.417500	0.133300
C331	C33	0.159600	0.706600	0.164300
H231	H23	0.104300	0.768500	0.152400
C341	C34	0.321600	0.523600	0.200100
H241	H24	0.376600	0.461100	0.212000
C351	C35	0.216700	0.732300	0.211600
H251	H25	0.200000	0.811800	0.231400
C361	C36	0.299200	0.641900	0.230500
C371	C37	0.675900	0.574000	0.316100
H261	H26	0.747400	0.551200	0.324400
C381	C38	0.640200	0.627300	0.266500
H271	H27	0.687600	0.644600	0.241800
C391	C39	0.606600	0.555000	0.352200
H281	H28	0.630400	0.520300	0.385600
C401	C40	0.530900	0.654600	0.254300
H291	H29	0.505300	0.686100	0.220800
C411	C41	0.500600	0.587000	0.339500
H301	H30	0.453800	0.575000	0.364800
C421	C42	0.462800	0.635400	0.291100
C431	C43	0.297900	0.722800	0.320800
C441	C44	0.206500	0.657200	0.332600
H311	H31	0.182100	0.575300	0.313900
C451	C45	0.334400	0.846500	0.348300
H321	H32	0.396000	0.892900	0.340400
C461	C46	0.278600	0.898200	0.386800
H331	H33	0.302600	0.980700	0.405300
C471	C47	0.150300	0.710100	0.371500
H341	H34	0.088100	0.664500	0.378900
C481	C48	0.186200	0.830400	0.399200
C491	C49	0.122400	0.892400	0.439300
C501	C50	0.882300	0.570600	0.467600
H351	H35	0.942900	0.586900	0.450800
C511	C51	0.830800	0.449700	0.455100
H361	H36	0.849400	0.388200	0.428700
C521	C52	0.778700	0.652700	0.527000
H371	H37	0.759300	0.721900	0.550600
C531	C53	0.715100	0.512500	0.518400
H381	H38	0.656600	0.490800	0.536100
C541	C54	0.752000	0.422400	0.482300
C551	C55	0.690000	0.272100	0.471500
H391	H39	0.667100	0.263500	0.434100
H401	H40	0.738000	0.192600	0.481400
C561	C56	0.556300	0.127000	0.497300
C571	C57	0.587600	0.005500	0.473400
H411	H41	0.647100	0.008200	0.455000
C581	C58	0.468600	0.122600	0.523800
H421	H42	0.446300	0.205600	0.540100
N31	N3	0.354600	0.669000	0.279800
N41	N4	0.858100	0.673800	0.501600
O61	O6	0.138000	0.444800	0.059240
O71	O7	0.049000	0.651800	0.066280
O81	O8	0.141500	0.021900	0.452850
O91	O9	0.054400	0.813500	0.456690
O101	O10	0.605800	0.262300	0.498200
Cu21	Cu2	0.948450	0.874450	0.503050
C591	C59	0.118500	0.938700	0.582800
C601	C60	0.182700	0.910400	0.633600
C611	C61	0.263200	0.001700	0.652900
H431	H43	0.278300	0.082500	0.633300
C621	C62	0.159600	0.793400	0.664300
H441	H44	0.104300	0.731500	0.652400
C631	C63	0.321600	0.976400	0.700100
H451	H45	0.376600	0.038900	0.712000
C641	C64	0.216700	0.767700	0.711600
H461	H46	0.200000	0.688200	0.731400
C651	C65	0.299200	0.858100	0.730500
C661	C66	0.675900	0.926000	0.816100
H471	H47	0.747400	0.948800	0.824400
C671	C67	0.640200	0.872700	0.766500
H481	H48	0.687600	0.855400	0.741800
C681	C68	0.606600	0.945000	0.852200
H491	H49	0.630400	0.979700	0.885600
C691	C69	0.530900	0.845400	0.754300
H501	H50	0.505300	0.813900	0.720800
C701	C70	0.500600	0.913000	0.839500
H511	H51	0.453800	0.925000	0.864800
C711	C71	0.462800	0.864600	0.791100
C721	C72	0.297900	0.777200	0.820800
C731	C73	0.206500	0.842800	0.832600
H521	H52	0.182100	0.924700	0.813900
C741	C74	0.334400	0.653500	0.848300
H531	H53	0.396000	0.607100	0.840400
C751	C75	0.278600	0.601800	0.886800
H541	H54	0.302600	0.519300	0.905300
C761	C76	0.150300	0.789900	0.871500
H551	H55	0.088100	0.835500	0.878900
C771	C77	0.186200	0.669600	0.899200
C781	C78	0.122400	0.607600	0.939300
C791	C79	0.882300	0.929400	0.967600
H561	H56	0.942900	0.913100	0.950800
C801	C80	0.830800	0.050300	0.955100
H571	H57	0.849400	0.111800	0.928700
C811	C81	0.778700	0.847300	0.027000
H581	H58	0.759300	0.778100	0.050600
C821	C82	0.715100	0.987500	0.018400
H591	H59	0.656600	0.009200	0.036100
C831	C83	0.752000	0.077600	0.982300
C841	C84	0.690000	0.227900	0.971500
H601	H60	0.667100	0.236500	0.934100
H611	H61	0.738000	0.307400	0.981400
C851	C85	0.556300	0.373000	0.997300
C861	C86	0.587600	0.494500	0.973400
H621	H62	0.647100	0.491800	0.955000
C871	C87	0.468600	0.377400	0.023800
H631	H63	0.446300	0.294400	0.040100
N51	N5	0.354600	0.831000	0.779800
N61	N6	0.858100	0.826200	0.001600
O111	O11	0.138000	0.055200	0.559240
O121	O12	0.049000	0.848200	0.566280
O131	O13	0.141500	0.478100	0.952850
O141	O14	0.054400	0.686500	0.956690
O151	O15	0.605800	0.237700	0.998200
Cu31	Cu3	0.948450	0.625550	0.003050
C881	C88	0.881500	0.438700	0.917200
C891	C89	0.817300	0.410400	0.866400
C901	C90	0.736800	0.501700	0.847100
H641	H64	0.721700	0.582500	0.866700
C911	C91	0.840400	0.293400	0.835700
H651	H65	0.895700	0.231500	0.847600
C921	C92	0.678400	0.476400	0.799900
H661	H66	0.623400	0.538900	0.788000
C931	C93	0.783300	0.267700	0.788400
H671	H67	0.800000	0.188200	0.768600
C941	C94	0.700800	0.358100	0.769500
C951	C95	0.324100	0.426000	0.683900
H681	H68	0.252600	0.448800	0.675600
C961	C96	0.359800	0.372700	0.733500
H691	H69	0.312400	0.355400	0.758200
C971	C97	0.393400	0.445000	0.647800
H701	H70	0.369600	0.479700	0.614400
C981	C98	0.469100	0.345400	0.745700
H711	H71	0.494700	0.313900	0.779200
C991	C99	0.499400	0.413000	0.660500
H721	H72	0.546200	0.425000	0.635200
C1001	C100	0.537200	0.364600	0.708900
C1011	C101	0.702100	0.277200	0.679200
C1021	C102	0.793500	0.342800	0.667400
H731	H73	0.817900	0.424700	0.686100
C1031	C103	0.665600	0.153500	0.651700
H741	H74	0.604000	0.107100	0.659600
C1041	C104	0.721400	0.101800	0.613200
H751	H75	0.697400	0.019300	0.594700
C1051	C105	0.849700	0.289900	0.628500
H761	H76	0.911900	0.335500	0.621100
C1061	C106	0.813800	0.169600	0.600800
C1071	C107	0.877600	0.107600	0.560700
C1081	C108	0.117700	0.429400	0.532400
H771	H77	0.057100	0.413100	0.549200
C1091	C109	0.169200	0.550300	0.544900
H781	H78	0.150600	0.611800	0.571300
C1101	C110	0.221300	0.347300	0.473000
H791	H79	0.240700	0.278100	0.449400
C1111	C111	0.284900	0.487500	0.481600
H801	H80	0.343400	0.509200	0.463900
C1121	C112	0.248000	0.577600	0.517700
C1131	C113	0.310000	0.727900	0.528500
H811	H81	0.332900	0.736500	0.565900
H821	H82	0.262000	0.807400	0.518600
C1141	C114	0.443700	0.873000	0.502700
C1151	C115	0.412400	0.994500	0.526600
H831	H83	0.352900	0.991800	0.545000
C1161	C116	0.531400	0.877400	0.476200
H841	H84	0.553700	0.794400	0.459900
N71	N7	0.645400	0.331000	0.720200
N81	N8	0.141900	0.326200	0.498400
O161	O16	0.862000	0.555200	0.940760
O171	O17	0.951000	0.348200	0.933720
O181	O18	0.858500	0.978100	0.547150
O191	O19	0.945600	0.186500	0.543310
O201	O20	0.394200	0.737700	0.501800
Cu41	Cu4	0.051550	0.125550	0.496950
