data_AVEMAQ_freeONLY_PM
_symmetry_space_group_name_H-M	'P1'
_cell_length_a	13.732700
_cell_length_b	13.732700
_cell_length_c	25.466000
_cell_angle_alpha	90.000000
_cell_angle_beta	90.000000
_cell_angle_gamma	90.000000
_symmetry_Int_Tables_number 1

loop_
_symmetry_equiv_pos_as_xyz
'x,y,z'

loop_
_atom_site_label
_atom_site_type_symbol
_atom_site_fract_x
_atom_site_fract_y
_atom_site_fract_z
Ni11	Ni1	0.252310	0.405850	0.523720
Ni21	Ni2	0.747690	0.594150	0.523720
Ni31	Ni3	0.905850	0.752310	0.976280
Ni41	Ni4	0.094150	0.247690	0.976280
H11	H1	0.294700	0.301000	0.442900
H21	H2	0.248600	0.455100	0.413600
H31	H3	0.327700	0.505000	0.357200
H41	H4	0.404500	0.422200	0.366100
H51	H5	0.296200	0.395600	0.352900
H61	H6	0.117000	0.568300	0.551600
H71	H7	0.074300	0.653200	0.626600
H81	H8	0.193600	0.442000	0.714600
H91	H9	0.248500	0.380000	0.635700
H101	H10	0.040600	0.652500	0.719400
H111	H11	0.054400	0.331900	0.538500
H121	H12	0.971600	0.184200	0.567600
H131	H13	0.235100	0.047000	0.562400
H141	H14	0.306400	0.196700	0.545800
H151	H15	0.088700	0.946600	0.565100
H161	H16	0.705300	0.699000	0.442900
H171	H17	0.751400	0.544900	0.413600
H181	H18	0.672300	0.495000	0.357200
H191	H19	0.595500	0.577800	0.366100
H201	H20	0.703800	0.604400	0.352900
H211	H21	0.883000	0.431700	0.551600
H221	H22	0.925700	0.346800	0.626600
H231	H23	0.806400	0.558000	0.714600
H241	H24	0.751500	0.620000	0.635700
H251	H25	0.959400	0.347500	0.719400
H261	H26	0.945600	0.668100	0.538500
H271	H27	0.028400	0.815800	0.567600
H281	H28	0.764900	0.953000	0.562400
H291	H29	0.693600	0.803300	0.545800
H301	H30	0.911300	0.053400	0.565100
H311	H31	0.801000	0.794700	0.057100
H321	H32	0.955100	0.748600	0.086400
H331	H33	0.005000	0.827700	0.142800
H341	H34	0.922200	0.904500	0.133900
H351	H35	0.895600	0.796200	0.147100
H361	H36	0.068300	0.617000	0.948400
H371	H37	0.153200	0.574300	0.873400
H381	H38	0.942000	0.693600	0.785400
H391	H39	0.880000	0.748500	0.864300
H401	H40	0.152500	0.540600	0.780600
H411	H41	0.831900	0.554400	0.961500
H421	H42	0.684200	0.471600	0.932400
H431	H43	0.547000	0.735100	0.937600
H441	H44	0.696700	0.806400	0.954200
H451	H45	0.446600	0.588700	0.934900
H461	H46	0.199000	0.205300	0.057100
H471	H47	0.044900	0.251400	0.086400
H481	H48	0.995000	0.172300	0.142800
H491	H49	0.077800	0.095500	0.133900
H501	H50	0.104400	0.203800	0.147100
H511	H51	0.931700	0.383000	0.948400
H521	H52	0.846800	0.425700	0.873400
H531	H53	0.058000	0.306400	0.785400
H541	H54	0.120000	0.251500	0.864300
H551	H55	0.847500	0.459400	0.780600
H561	H56	0.168100	0.445600	0.961500
H571	H57	0.315800	0.528400	0.932400
H581	H58	0.453000	0.264900	0.937600
H591	H59	0.303300	0.193600	0.954200
H601	H60	0.553400	0.411300	0.934900
C11	C1	0.333500	0.534900	0.450800
C21	C2	0.317000	0.440000	0.420100
C31	C3	0.338000	0.441000	0.371000
C41	C4	0.137900	0.547100	0.584400
C51	C5	0.107200	0.594300	0.629800
C61	C6	0.123500	0.557400	0.678900
C71	C7	0.179300	0.472300	0.682800
C81	C8	0.211900	0.436900	0.633600
C91	C9	0.085100	0.602700	0.725500
C101	C10	0.090900	0.276400	0.545500
C111	C11	0.037900	0.184700	0.560300
C121	C12	0.092000	0.103800	0.562300
C131	C13	0.198100	0.103200	0.558500
C141	C14	0.238900	0.194200	0.548500
C151	C15	0.047100	0.001700	0.566900
C161	C16	0.666500	0.465100	0.450800
C171	C17	0.683000	0.560000	0.420100
C181	C18	0.662000	0.559000	0.371000
C191	C19	0.862100	0.452900	0.584400
C201	C20	0.892800	0.405700	0.629800
C211	C21	0.876500	0.442600	0.678900
C221	C22	0.820700	0.527700	0.682800
C231	C23	0.788100	0.563100	0.633600
C241	C24	0.914900	0.397300	0.725500
C251	C25	0.909100	0.723600	0.545500
C261	C26	0.962100	0.815300	0.560300
C271	C27	0.908000	0.896200	0.562300
C281	C28	0.801900	0.896800	0.558500
C291	C29	0.761100	0.805800	0.548500
C301	C30	0.952900	0.998300	0.566900
C311	C31	0.034900	0.833500	0.049200
C321	C32	0.940000	0.817000	0.079900
C331	C33	0.941000	0.838000	0.129000
C341	C34	0.047100	0.637900	0.915600
C351	C35	0.094300	0.607200	0.870200
C361	C36	0.057400	0.623500	0.821100
C371	C37	0.972300	0.679300	0.817200
C381	C38	0.936900	0.711900	0.866400
C391	C39	0.102700	0.585100	0.774500
C401	C40	0.776400	0.590900	0.954500
C411	C41	0.684700	0.537900	0.939700
C421	C42	0.603800	0.592000	0.937700
C431	C43	0.603200	0.698100	0.941500
C441	C44	0.694200	0.738900	0.951500
C451	C45	0.501700	0.547100	0.933100
C461	C46	0.965100	0.166500	0.049200
C471	C47	0.060000	0.183000	0.079900
C481	C48	0.059000	0.162000	0.129000
C491	C49	0.952900	0.362100	0.915600
C501	C50	0.905700	0.392800	0.870200
C511	C51	0.942600	0.376500	0.821100
C521	C52	0.027700	0.320700	0.817200
C531	C53	0.063100	0.288100	0.866400
C541	C54	0.897300	0.414900	0.774500
C551	C55	0.223600	0.409100	0.954500
C561	C56	0.315300	0.462100	0.939700
C571	C57	0.396200	0.408000	0.937700
C581	C58	0.396800	0.301900	0.941500
C591	C59	0.305800	0.261100	0.951500
C601	C60	0.498300	0.452900	0.933100
N11	N1	0.294000	0.360900	0.452800
N21	N2	0.200400	0.467800	0.588700
N31	N3	0.188800	0.282400	0.541900
N41	N4	0.706000	0.639100	0.452800
N51	N5	0.799600	0.532200	0.588700
N61	N6	0.811200	0.717600	0.541900
N71	N7	0.860900	0.794000	0.047200
N81	N8	0.967800	0.700400	0.911300
N91	N9	0.782400	0.688800	0.958100
N101	N10	0.139100	0.206000	0.047200
N111	N11	0.032200	0.299600	0.911300
N121	N12	0.217600	0.311200	0.958100
O11	O1	0.295200	0.533000	0.497600
O21	O2	0.371500	0.606600	0.434400
O31	O3	0.704800	0.467000	0.497600
O41	O4	0.628500	0.393400	0.434400
O51	O5	0.033000	0.795200	0.002400
O61	O6	0.106600	0.871500	0.065600
O71	O7	0.967000	0.204800	0.002400
O81	O8	0.893400	0.128500	0.065600
Ni51	Ni5	0.405850	0.747690	0.476280
Ni61	Ni6	0.594150	0.252310	0.476280
Ni71	Ni7	0.752310	0.094150	0.023720
Ni81	Ni8	0.247690	0.905850	0.023720
H611	H61	0.301000	0.705300	0.557100
H621	H62	0.455100	0.751400	0.586400
H631	H63	0.505000	0.672300	0.642800
H641	H64	0.422200	0.595500	0.633900
H651	H65	0.395600	0.703800	0.647100
H661	H66	0.568300	0.883000	0.448400
H671	H67	0.653200	0.925700	0.373400
H681	H68	0.442000	0.806400	0.285400
H691	H69	0.380000	0.751500	0.364300
H701	H70	0.652500	0.959400	0.280600
H711	H71	0.331900	0.945600	0.461500
H721	H72	0.184200	0.028400	0.432400
H731	H73	0.047000	0.764900	0.437600
H741	H74	0.196700	0.693600	0.454200
H751	H75	0.946600	0.911300	0.434900
H761	H76	0.699000	0.294700	0.557100
H771	H77	0.544900	0.248600	0.586400
H781	H78	0.495000	0.327700	0.642800
H791	H79	0.577800	0.404500	0.633900
H801	H80	0.604400	0.296200	0.647100
H811	H81	0.431700	0.117000	0.448400
H821	H82	0.346800	0.074300	0.373400
H831	H83	0.558000	0.193600	0.285400
H841	H84	0.620000	0.248500	0.364300
H851	H85	0.347500	0.040600	0.280600
H861	H86	0.668100	0.054400	0.461500
H871	H87	0.815800	0.971600	0.432400
H881	H88	0.953000	0.235100	0.437600
H891	H89	0.803300	0.306400	0.454200
H901	H90	0.053400	0.088700	0.434900
H911	H91	0.794700	0.199000	0.942900
H921	H92	0.748600	0.044900	0.913600
H931	H93	0.827700	0.995000	0.857200
H941	H94	0.904500	0.077800	0.866100
H951	H95	0.796200	0.104400	0.852900
H961	H96	0.617000	0.931700	0.051600
H971	H97	0.574300	0.846800	0.126600
H981	H98	0.693600	0.058000	0.214600
H991	H99	0.748500	0.120000	0.135700
H1001	H100	0.540600	0.847500	0.219400
H1011	H101	0.554400	0.168100	0.038500
H1021	H102	0.471600	0.315800	0.067600
H1031	H103	0.735100	0.453000	0.062400
H1041	H104	0.806400	0.303300	0.045800
H1051	H105	0.588700	0.553400	0.065100
H1061	H106	0.205300	0.801000	0.942900
H1071	H107	0.251400	0.955100	0.913600
H1081	H108	0.172300	0.005000	0.857200
H1091	H109	0.095500	0.922200	0.866100
H1101	H110	0.203800	0.895600	0.852900
H1111	H111	0.383000	0.068300	0.051600
H1121	H112	0.425700	0.153200	0.126600
H1131	H113	0.306400	0.942000	0.214600
H1141	H114	0.251500	0.880000	0.135700
H1151	H115	0.459400	0.152500	0.219400
H1161	H116	0.445600	0.831900	0.038500
H1171	H117	0.528400	0.684200	0.067600
H1181	H118	0.264900	0.547000	0.062400
H1191	H119	0.193600	0.696700	0.045800
H1201	H120	0.411300	0.446600	0.065100
C611	C61	0.534900	0.666500	0.549200
C621	C62	0.440000	0.683000	0.579900
C631	C63	0.441000	0.662000	0.629000
C641	C64	0.547100	0.862100	0.415600
C651	C65	0.594300	0.892800	0.370200
C661	C66	0.557400	0.876500	0.321100
C671	C67	0.472300	0.820700	0.317200
C681	C68	0.436900	0.788100	0.366400
C691	C69	0.602700	0.914900	0.274500
C701	C70	0.276400	0.909100	0.454500
C711	C71	0.184700	0.962100	0.439700
C721	C72	0.103800	0.908000	0.437700
C731	C73	0.103200	0.801900	0.441500
C741	C74	0.194200	0.761100	0.451500
C751	C75	0.001700	0.952900	0.433100
C761	C76	0.465100	0.333500	0.549200
C771	C77	0.560000	0.317000	0.579900
C781	C78	0.559000	0.338000	0.629000
C791	C79	0.452900	0.137900	0.415600
C801	C80	0.405700	0.107200	0.370200
C811	C81	0.442600	0.123500	0.321100
C821	C82	0.527700	0.179300	0.317200
C831	C83	0.563100	0.211900	0.366400
C841	C84	0.397300	0.085100	0.274500
C851	C85	0.723600	0.090900	0.454500
C861	C86	0.815300	0.037900	0.439700
C871	C87	0.896200	0.092000	0.437700
C881	C88	0.896800	0.198100	0.441500
C891	C89	0.805800	0.238900	0.451500
C901	C90	0.998300	0.047100	0.433100
C911	C91	0.833500	0.965100	0.950800
C921	C92	0.817000	0.060000	0.920100
C931	C93	0.838000	0.059000	0.871000
C941	C94	0.637900	0.952900	0.084400
C951	C95	0.607200	0.905700	0.129800
C961	C96	0.623500	0.942600	0.178900
C971	C97	0.679300	0.027700	0.182800
C981	C98	0.711900	0.063100	0.133600
C991	C99	0.585100	0.897300	0.225500
C1001	C100	0.590900	0.223600	0.045500
C1011	C101	0.537900	0.315300	0.060300
C1021	C102	0.592000	0.396200	0.062300
C1031	C103	0.698100	0.396800	0.058500
C1041	C104	0.738900	0.305800	0.048500
C1051	C105	0.547100	0.498300	0.066900
C1061	C106	0.166500	0.034900	0.950800
C1071	C107	0.183000	0.940000	0.920100
C1081	C108	0.162000	0.941000	0.871000
C1091	C109	0.362100	0.047100	0.084400
C1101	C110	0.392800	0.094300	0.129800
C1111	C111	0.376500	0.057400	0.178900
C1121	C112	0.320700	0.972300	0.182800
C1131	C113	0.288100	0.936900	0.133600
C1141	C114	0.414900	0.102700	0.225500
C1151	C115	0.409100	0.776400	0.045500
C1161	C116	0.462100	0.684700	0.060300
C1171	C117	0.408000	0.603800	0.062300
C1181	C118	0.301900	0.603200	0.058500
C1191	C119	0.261100	0.694200	0.048500
C1201	C120	0.452900	0.501700	0.066900
N131	N13	0.360900	0.706000	0.547200
N141	N14	0.467800	0.799600	0.411300
N151	N15	0.282400	0.811200	0.458100
N161	N16	0.639100	0.294000	0.547200
N171	N17	0.532200	0.200400	0.411300
N181	N18	0.717600	0.188800	0.458100
N191	N19	0.794000	0.139100	0.952800
N201	N20	0.700400	0.032200	0.088700
N211	N21	0.688800	0.217600	0.041900
N221	N22	0.206000	0.860900	0.952800
N231	N23	0.299600	0.967800	0.088700
N241	N24	0.311200	0.782400	0.041900
O91	O9	0.533000	0.704800	0.502400
O101	O10	0.606600	0.628500	0.565600
O111	O11	0.467000	0.295200	0.502400
O121	O12	0.393400	0.371500	0.565600
O131	O13	0.795200	0.967000	0.997600
O141	O14	0.871500	0.893400	0.934400
O151	O15	0.204800	0.033000	0.997600
O161	O16	0.128500	0.106600	0.934400
