data_AVESAW_freeONLY_PM
_symmetry_space_group_name_H-M	'P1'
_cell_length_a	10.341700
_cell_length_b	13.414800
_cell_length_c	17.567700
_cell_angle_alpha	90.000000
_cell_angle_beta	107.118000
_cell_angle_gamma	90.000000
_symmetry_Int_Tables_number 1

loop_
_symmetry_equiv_pos_as_xyz
'x,y,z'

loop_
_atom_site_label
_atom_site_type_symbol
_atom_site_fract_x
_atom_site_fract_y
_atom_site_fract_z
Cd11	Cd1	0.434680	0.527530	0.869360
Cd21	Cd2	0.356580	0.752080	0.713160
Cd31	Cd3	0.313610	0.012460	0.627220
Cd41	Cd4	0.268360	0.276140	0.536720
Cd51	Cd5	0.565320	0.027530	0.130640
Cd61	Cd6	0.643420	0.252080	0.286840
Cd71	Cd7	0.686390	0.512460	0.372780
Cd81	Cd8	0.731640	0.776140	0.463280
Cd91	Cd9	0.894370	0.247160	0.788740
Cd101	Cd10	0.105630	0.747160	0.211250
Cd111	Cd11	0.984920	0.789340	0.969840
Cd121	Cd12	0.015080	0.289340	0.030160
H11	H1	0.204900	0.622400	0.954200
H21	H2	0.098500	0.826900	0.793000
H31	H3	0.581000	0.693300	0.597600
H41	H4	0.547700	0.965400	0.523800
H51	H5	0.015300	0.322100	0.634000
H61	H6	0.092000	0.067100	0.738600
H71	H7	0.621200	0.397700	0.781200
H81	H8	0.698900	0.393800	0.008600
H91	H9	0.795100	0.122400	0.045800
H101	H10	0.901500	0.326900	0.207000
H111	H11	0.419000	0.193300	0.402400
H121	H12	0.452300	0.465400	0.476200
H131	H13	0.984700	0.822100	0.366000
H141	H14	0.908000	0.567100	0.261400
H151	H15	0.378800	0.897700	0.218800
H161	H16	0.301100	0.893800	0.991400
H171	H17	0.250700	0.122400	0.045800
H181	H18	0.305500	0.326900	0.207000
H191	H19	0.983400	0.193300	0.402400
H201	H20	0.023900	0.465400	0.476200
H211	H21	0.381300	0.822100	0.366000
H221	H22	0.353400	0.567100	0.261400
H231	H23	0.840000	0.897700	0.218800
H241	H24	0.690300	0.893800	0.991400
H251	H25	0.749300	0.622400	0.954200
H261	H26	0.694500	0.826900	0.793000
H271	H27	0.016600	0.693300	0.597600
H281	H28	0.976100	0.965400	0.523800
H291	H29	0.618700	0.322100	0.634000
H301	H30	0.646600	0.067100	0.738600
H311	H31	0.160000	0.397700	0.781200
H321	H32	0.309700	0.393800	0.008600
H331	H33	0.356900	0.358900	0.713800
H341	H34	0.278100	0.566500	0.556200
H351	H35	0.643100	0.858900	0.286200
H361	H36	0.721900	0.066500	0.443800
H371	H37	0.020200	0.021000	0.040400
H381	H38	0.907300	0.985800	0.814600
H391	H39	0.979800	0.521000	0.959600
H401	H40	0.092700	0.485800	0.185400
C11	C1	0.198270	0.661800	0.909540
C21	C2	0.140980	0.772300	0.822560
C31	C3	0.555010	0.759700	0.589620
C41	C4	0.537040	0.906800	0.549680
C51	C5	0.053010	0.259900	0.650620
C61	C6	0.094160	0.122400	0.707120
C71	C7	0.662630	0.385100	0.834860
C81	C8	0.704250	0.383300	0.957300
C91	C9	0.801730	0.161800	0.090460
C101	C10	0.859020	0.272300	0.177440
C111	C11	0.444990	0.259700	0.410380
C121	C12	0.462960	0.406800	0.450320
C131	C13	0.946990	0.759900	0.349380
C141	C14	0.905840	0.622400	0.292880
C151	C15	0.337370	0.885100	0.165140
C161	C16	0.295750	0.883300	0.042700
C171	C17	0.288730	0.161800	0.090460
C181	C18	0.318420	0.272300	0.177440
C191	C19	0.965390	0.259700	0.410380
C201	C20	0.987360	0.406800	0.450320
C211	C21	0.402390	0.759900	0.349380
C221	C22	0.387040	0.622400	0.292880
C231	C23	0.827770	0.885100	0.165140
C241	C24	0.746950	0.883300	0.042700
C251	C25	0.711270	0.661800	0.909540
C261	C26	0.681580	0.772300	0.822560
C271	C27	0.034610	0.759700	0.589620
C281	C28	0.012640	0.906800	0.549680
C291	C29	0.597610	0.259900	0.650620
C301	C30	0.612960	0.122400	0.707120
C311	C31	0.172230	0.385100	0.834860
C321	C32	0.253050	0.383300	0.957300
C331	C33	0.344870	0.421300	0.689740
C341	C34	0.302470	0.533300	0.604940
C351	C35	0.655130	0.921300	0.310260
C361	C36	0.697530	0.033300	0.395060
C371	C37	0.993090	0.034900	0.986180
C381	C38	0.932480	0.014700	0.864960
C391	C39	0.006910	0.534900	0.013820
C401	C40	0.067520	0.514700	0.135040
N11	N1	0.273330	0.648400	0.861460
N21	N2	0.237110	0.720500	0.804620
N31	N3	0.110540	0.739000	0.887280
N41	N4	0.468050	0.802200	0.621700
N51	N5	0.456320	0.899000	0.595240
N61	N6	0.601840	0.821900	0.544480
N71	N7	0.149780	0.219400	0.625160
N81	N8	0.176420	0.130000	0.661840
N91	N9	0.014840	0.201900	0.703080
N101	N10	0.776300	0.335400	0.860600
N111	N11	0.804620	0.334400	0.941640
N121	N12	0.611580	0.416000	0.891960
N131	N13	0.726670	0.148400	0.138540
N141	N14	0.762890	0.220500	0.195380
N151	N15	0.889460	0.239000	0.112720
N161	N16	0.531950	0.302200	0.378300
N171	N17	0.543680	0.399000	0.404760
N181	N18	0.398160	0.321900	0.455520
N191	N19	0.850220	0.719400	0.374840
N201	N20	0.823580	0.630000	0.338160
N211	N21	0.985160	0.701900	0.296920
N221	N22	0.223700	0.835400	0.139400
N231	N23	0.195380	0.834400	0.058360
N241	N24	0.388420	0.916000	0.108040
N251	N25	0.411870	0.148400	0.138540
N261	N26	0.432490	0.220500	0.195380
N271	N27	0.223260	0.239000	0.112720
N281	N28	0.846350	0.302200	0.378300
N291	N29	0.861080	0.399000	0.404760
N301	N30	0.057360	0.321900	0.455520
N311	N31	0.524620	0.719400	0.374840
N321	N32	0.514580	0.630000	0.338160
N331	N33	0.311760	0.701900	0.296920
N341	N34	0.915700	0.835400	0.139400
N351	N35	0.862980	0.834400	0.058360
N361	N36	0.719620	0.916000	0.108040
N371	N37	0.588130	0.648400	0.861460
N381	N38	0.567510	0.720500	0.804620
N391	N39	0.776740	0.739000	0.887280
N401	N40	0.153650	0.802200	0.621700
N411	N41	0.138920	0.899000	0.595240
N421	N42	0.942640	0.821900	0.544480
N431	N43	0.475380	0.219400	0.625160
N441	N44	0.485420	0.130000	0.661840
N451	N45	0.688240	0.201900	0.703080
N461	N46	0.084300	0.335400	0.860600
N471	N47	0.137020	0.334400	0.941640
N481	N48	0.280380	0.416000	0.891960
N491	N49	0.365400	0.505100	0.730800
N501	N50	0.337130	0.580400	0.674260
N511	N51	0.305490	0.433000	0.610980
N521	N52	0.634600	0.005100	0.269200
N531	N53	0.662870	0.080400	0.325740
N541	N54	0.694510	0.933000	0.389020
N551	N55	0.938190	0.114300	0.876380
N561	N56	0.979270	0.125400	0.958540
N571	N57	0.965210	0.962600	0.930420
N581	N58	0.061810	0.614300	0.123620
N591	N59	0.020730	0.625400	0.041460
N601	N60	0.034790	0.462600	0.069580
Cl11	Cl1	0.386420	0.938340	0.772840
Cl21	Cl2	0.239790	0.090070	0.479580
Cl31	Cl3	0.613580	0.438340	0.227160
Cl41	Cl4	0.760210	0.590070	0.520420
