data_AVIPAX_freeONLY_PM
_symmetry_space_group_name_H-M	'P1'
_cell_length_a	11.192900
_cell_length_b	12.347500
_cell_length_c	28.673400
_cell_angle_alpha	98.816000
_cell_angle_beta	90.000000
_cell_angle_gamma	90.000000
_symmetry_Int_Tables_number 1

loop_
_symmetry_equiv_pos_as_xyz
'x,y,z'

loop_
_atom_site_label
_atom_site_type_symbol
_atom_site_fract_x
_atom_site_fract_y
_atom_site_fract_z
Mg11	Mg1	0.173270	0.337070	0.859880
Mg21	Mg2	0.457750	0.553410	0.833910
Mg31	Mg3	0.289800	0.272600	0.141580
Mg41	Mg4	0.673270	0.162930	0.640120
Mg51	Mg5	0.957750	0.946590	0.666090
Mg61	Mg6	0.789800	0.227400	0.358420
Mg71	Mg7	0.826730	0.662930	0.140120
Mg81	Mg8	0.542250	0.446590	0.166090
Mg91	Mg9	0.710200	0.727400	0.858420
Mg101	Mg10	0.326730	0.837070	0.359880
Mg111	Mg11	0.042250	0.053410	0.333910
Mg121	Mg12	0.210200	0.772600	0.641580
H11	H1	0.516000	0.332000	0.715900
H21	H2	0.194100	0.195600	0.733600
H31	H3	0.432700	0.050800	0.638700
H41	H4	0.343600	0.315600	0.985400
H51	H5	0.649600	0.424900	0.935200
H61	H6	0.644900	0.352000	0.063500
H71	H7	0.966100	0.647600	0.883800
H81	H8	0.200500	0.680100	0.780200
H91	H9	0.872000	0.817500	0.784300
H101	H10	0.164000	0.452000	0.955600
H111	H11	0.144000	0.536000	0.035800
H121	H12	0.176000	0.416000	0.059400
H131	H13	0.036000	0.473000	0.061000
H141	H14	0.933000	0.307000	0.021100
H151	H15	0.045000	0.239000	0.038100
H161	H16	0.997000	0.216000	0.978900
H171	H17	0.369100	0.197300	0.830400
H181	H18	0.467300	0.944300	0.772100
H191	H19	0.520400	0.039000	0.810900
H201	H20	0.474300	0.067600	0.761400
H211	H21	0.303600	0.887900	0.781600
H221	H22	0.196000	0.970500	0.776400
H231	H23	0.227200	0.938000	0.826900
H241	H24	0.153000	0.054200	0.106100
H251	H25	0.368200	0.802700	0.094700
H261	H26	0.423000	0.914200	0.081900
H271	H27	0.401500	0.900700	0.135900
H281	H28	0.192100	0.774400	0.077600
H291	H29	0.094200	0.852500	0.106200
H301	H30	0.128900	0.868000	0.053500
H311	H31	0.016000	0.168000	0.784100
H321	H32	0.694100	0.304400	0.766400
H331	H33	0.932700	0.449200	0.861300
H341	H34	0.843600	0.184400	0.514600
H351	H35	0.149600	0.075100	0.564800
H361	H36	0.144900	0.148000	0.436500
H371	H37	0.466100	0.852400	0.616200
H381	H38	0.700500	0.819900	0.719800
H391	H39	0.372000	0.682500	0.715700
H401	H40	0.664000	0.048000	0.544400
H411	H41	0.644000	0.964000	0.464200
H421	H42	0.676000	0.084000	0.440600
H431	H43	0.536000	0.027000	0.439000
H441	H44	0.433000	0.193000	0.478900
H451	H45	0.545000	0.261000	0.461900
H461	H46	0.497000	0.284000	0.521100
H471	H47	0.869100	0.302700	0.669600
H481	H48	0.967300	0.555700	0.727900
H491	H49	0.020400	0.461000	0.689100
H501	H50	0.974300	0.432400	0.738600
H511	H51	0.803600	0.612100	0.718400
H521	H52	0.696000	0.529500	0.723600
H531	H53	0.727200	0.562000	0.673100
H541	H54	0.653000	0.445800	0.393900
H551	H55	0.868200	0.697300	0.405300
H561	H56	0.923000	0.585800	0.418100
H571	H57	0.901500	0.599300	0.364100
H581	H58	0.692100	0.725600	0.422400
H591	H59	0.594200	0.647500	0.393800
H601	H60	0.628900	0.632000	0.446500
H611	H61	0.484000	0.668000	0.284100
H621	H62	0.805900	0.804400	0.266400
H631	H63	0.567300	0.949200	0.361300
H641	H64	0.656400	0.684400	0.014600
H651	H65	0.350400	0.575100	0.064800
H661	H66	0.355100	0.648000	0.936500
H671	H67	0.033900	0.352400	0.116200
H681	H68	0.799500	0.319900	0.219800
H691	H69	0.128000	0.182500	0.215700
H701	H70	0.836000	0.548000	0.044400
H711	H71	0.856000	0.464000	0.964200
H721	H72	0.824000	0.584000	0.940600
H731	H73	0.964000	0.527000	0.939000
H741	H74	0.067000	0.693000	0.978900
H751	H75	0.955000	0.761000	0.961900
H761	H76	0.003000	0.784000	0.021100
H771	H77	0.630900	0.802700	0.169600
H781	H78	0.532700	0.055700	0.227900
H791	H79	0.479600	0.961000	0.189100
H801	H80	0.525700	0.932400	0.238600
H811	H81	0.696400	0.112100	0.218400
H821	H82	0.804000	0.029500	0.223600
H831	H83	0.772800	0.062000	0.173100
H841	H84	0.847000	0.945800	0.893900
H851	H85	0.631800	0.197300	0.905300
H861	H86	0.577000	0.085800	0.918100
H871	H87	0.598500	0.099300	0.864100
H881	H88	0.807900	0.225600	0.922400
H891	H89	0.905800	0.147500	0.893800
H901	H90	0.871100	0.132000	0.946500
H911	H91	0.984000	0.832000	0.215900
H921	H92	0.305900	0.695600	0.233600
H931	H93	0.067300	0.550800	0.138700
H941	H94	0.156400	0.815600	0.485400
H951	H95	0.850400	0.924900	0.435200
H961	H96	0.855100	0.852000	0.563500
H971	H97	0.533900	0.147600	0.383800
H981	H98	0.299500	0.180100	0.280200
H991	H99	0.628000	0.317500	0.284300
H1001	H100	0.336000	0.952000	0.455600
H1011	H101	0.356000	0.036000	0.535800
H1021	H102	0.324000	0.916000	0.559400
H1031	H103	0.464000	0.973000	0.561000
H1041	H104	0.567000	0.807000	0.521100
H1051	H105	0.455000	0.739000	0.538100
H1061	H106	0.503000	0.716000	0.478900
H1071	H107	0.130900	0.697300	0.330400
H1081	H108	0.032700	0.444300	0.272100
H1091	H109	0.979600	0.539000	0.310900
H1101	H110	0.025700	0.567600	0.261400
H1111	H111	0.196400	0.387900	0.281600
H1121	H112	0.304000	0.470500	0.276400
H1131	H113	0.272800	0.438000	0.326900
H1141	H114	0.347000	0.554200	0.606100
H1151	H115	0.131800	0.302700	0.594700
H1161	H116	0.077000	0.414200	0.581900
H1171	H117	0.098500	0.400700	0.635900
H1181	H118	0.307900	0.274400	0.577600
H1191	H119	0.405800	0.352500	0.606200
H1201	H120	0.371100	0.368000	0.553500
C11	C1	0.460700	0.273900	0.707620
C21	C2	0.350600	0.278900	0.730910
C31	C3	0.269700	0.194400	0.718470
C41	C4	0.300410	0.107780	0.683580
C51	C5	0.411900	0.109900	0.662550
C61	C6	0.324400	0.369140	0.771290
C71	C7	0.184360	0.582440	0.857370
C81	C8	0.424600	0.390960	0.907620
C91	C9	0.414600	0.302600	0.073100
C101	C10	0.483700	0.331200	0.031540
C111	C11	0.425000	0.336790	0.989280
C121	C12	0.486500	0.373590	0.952750
C131	C13	0.607100	0.398900	0.959900
C141	C14	0.604500	0.357100	0.034740
C151	C15	0.218460	0.011250	0.671100
C161	C16	0.055490	0.789450	0.727030
C171	C17	0.037680	0.752310	0.774250
C181	C18	0.985190	0.676480	0.855890
C191	C19	0.096620	0.653700	0.835950
C201	C20	0.124230	0.693190	0.794450
C211	C21	0.929300	0.774290	0.797570
C221	C22	0.113500	0.381400	0.957530
C231	C23	0.116400	0.450800	0.040800
C241	C24	0.010900	0.277900	0.010610
C251	C25	0.309700	0.141700	0.826600
C261	C26	0.460600	0.021700	0.785900
C271	C27	0.260700	0.952800	0.797000
C281	C28	0.231500	0.031600	0.112700
C291	C29	0.370600	0.882500	0.103700
C301	C30	0.159400	0.848900	0.083200
C311	C31	0.960700	0.226100	0.792380
C321	C32	0.850600	0.221100	0.769090
C331	C33	0.769700	0.305600	0.781530
C341	C34	0.800410	0.392220	0.816420
C351	C35	0.911900	0.390100	0.837450
C361	C36	0.824400	0.130860	0.728710
C371	C37	0.684360	0.917560	0.642630
C381	C38	0.924600	0.109040	0.592380
C391	C39	0.914600	0.197400	0.426900
C401	C40	0.983700	0.168800	0.468460
C411	C41	0.925000	0.163210	0.510720
C421	C42	0.986500	0.126410	0.547250
C431	C43	0.107100	0.101100	0.540100
C441	C44	0.104500	0.142900	0.465260
C451	C45	0.718460	0.488750	0.828900
C461	C46	0.555490	0.710550	0.772970
C471	C47	0.537680	0.747690	0.725750
C481	C48	0.485190	0.823520	0.644110
C491	C49	0.596620	0.846300	0.664050
C501	C50	0.624230	0.806810	0.705550
C511	C51	0.429300	0.725710	0.702430
C521	C52	0.613500	0.118600	0.542470
C531	C53	0.616400	0.049200	0.459200
C541	C54	0.510900	0.222100	0.489390
C551	C55	0.809700	0.358300	0.673400
C561	C56	0.960600	0.478300	0.714100
C571	C57	0.760700	0.547200	0.703000
C581	C58	0.731500	0.468400	0.387300
C591	C59	0.870600	0.617500	0.396300
C601	C60	0.659400	0.651100	0.416800
C611	C61	0.539300	0.726100	0.292380
C621	C62	0.649400	0.721100	0.269090
C631	C63	0.730300	0.805600	0.281530
C641	C64	0.699590	0.892220	0.316420
C651	C65	0.588100	0.890100	0.337450
C661	C66	0.675600	0.630860	0.228710
C671	C67	0.815640	0.417560	0.142630
C681	C68	0.575400	0.609040	0.092380
C691	C69	0.585400	0.697400	0.926900
C701	C70	0.516300	0.668800	0.968460
C711	C71	0.575000	0.663210	0.010720
C721	C72	0.513500	0.626410	0.047250
C731	C73	0.392900	0.601100	0.040100
C741	C74	0.395500	0.642900	0.965260
C751	C75	0.781540	0.988750	0.328900
C761	C76	0.944510	0.210550	0.272970
C771	C77	0.962320	0.247690	0.225750
C781	C78	0.014810	0.323520	0.144110
C791	C79	0.903380	0.346300	0.164050
C801	C80	0.875770	0.306810	0.205550
C811	C81	0.070700	0.225710	0.202430
C821	C82	0.886500	0.618600	0.042470
C831	C83	0.883600	0.549200	0.959200
C841	C84	0.989100	0.722100	0.989390
C851	C85	0.690300	0.858300	0.173400
C861	C86	0.539400	0.978300	0.214100
C871	C87	0.739300	0.047200	0.203000
C881	C88	0.768500	0.968400	0.887300
C891	C89	0.629400	0.117500	0.896300
C901	C90	0.840600	0.151100	0.916800
C911	C91	0.039300	0.773900	0.207620
C921	C92	0.149400	0.778900	0.230910
C931	C93	0.230300	0.694400	0.218470
C941	C94	0.199590	0.607780	0.183580
C951	C95	0.088100	0.609900	0.162550
C961	C96	0.175600	0.869140	0.271290
C971	C97	0.315640	0.082440	0.357370
C981	C98	0.075400	0.890960	0.407620
C991	C99	0.085400	0.802600	0.573100
C1001	C100	0.016300	0.831200	0.531540
C1011	C101	0.075000	0.836790	0.489280
C1021	C102	0.013500	0.873590	0.452750
C1031	C103	0.892900	0.898900	0.459900
C1041	C104	0.895500	0.857100	0.534740
C1051	C105	0.281540	0.511250	0.171100
C1061	C106	0.444510	0.289450	0.227030
C1071	C107	0.462320	0.252310	0.274250
C1081	C108	0.514810	0.176480	0.355890
C1091	C109	0.403380	0.153700	0.335950
C1101	C110	0.375770	0.193190	0.294450
C1111	C111	0.570700	0.274290	0.297570
C1121	C112	0.386500	0.881400	0.457530
C1131	C113	0.383600	0.950800	0.540800
C1141	C114	0.489100	0.777900	0.510610
C1151	C115	0.190300	0.641700	0.326600
C1161	C116	0.039400	0.521700	0.285900
C1171	C117	0.239300	0.452800	0.297000
C1181	C118	0.268500	0.531600	0.612700
C1191	C119	0.129400	0.382500	0.603700
C1201	C120	0.340600	0.348900	0.583200
N11	N1	0.491840	0.190500	0.674000
N21	N2	0.902130	0.737410	0.837800
N31	N3	0.666790	0.388800	0.999500
N41	N4	0.081400	0.370580	0.001060
N51	N5	0.341000	0.043000	0.805800
N61	N6	0.253400	0.926000	0.101500
N71	N7	0.991840	0.309500	0.826000
N81	N8	0.402130	0.762590	0.662200
N91	N9	0.166790	0.111200	0.500500
N101	N10	0.581400	0.129420	0.498940
N111	N11	0.841000	0.457000	0.694200
N121	N12	0.753400	0.574000	0.398500
N131	N13	0.508160	0.809500	0.326000
N141	N14	0.097870	0.262590	0.162200
N151	N15	0.333210	0.611200	0.000500
N161	N16	0.918600	0.629420	0.998940
N171	N17	0.659000	0.957000	0.194200
N181	N18	0.746600	0.074000	0.898500
N191	N19	0.008160	0.690500	0.174000
N201	N20	0.597870	0.237410	0.337800
N211	N21	0.833210	0.888800	0.499500
N221	N22	0.418600	0.870580	0.501060
N231	N23	0.159000	0.543000	0.305800
N241	N24	0.246600	0.426000	0.601500
O11	O1	0.292010	0.607350	0.854420
O21	O2	0.142250	0.505470	0.876350
O31	O3	0.476390	0.451880	0.883170
O41	O4	0.327010	0.342420	0.898900
O51	O5	0.394410	0.447970	0.777340
O61	O6	0.234610	0.355400	0.795800
O71	O7	0.462110	0.316830	0.114060
O81	O8	0.310390	0.265210	0.066980
O91	O9	0.258950	0.932020	0.642550
O101	O10	0.119300	0.014990	0.690770
O111	O11	0.156930	0.771960	0.708250
O121	O12	0.968010	0.832060	0.710310
O131	O13	0.085850	0.317660	0.921690
O141	O14	0.206700	0.166850	0.841630
O151	O15	0.299080	0.104800	0.130450
O161	O16	0.792010	0.892650	0.645580
O171	O17	0.642250	0.994530	0.623650
O181	O18	0.976390	0.048120	0.616830
O191	O19	0.827010	0.157580	0.601100
O201	O20	0.894410	0.052030	0.722660
O211	O21	0.734610	0.144600	0.704200
O221	O22	0.962110	0.183170	0.385940
O231	O23	0.810390	0.234790	0.433020
O241	O24	0.758950	0.567980	0.857450
O251	O25	0.619300	0.485010	0.809230
O261	O26	0.656930	0.728040	0.791750
O271	O27	0.468010	0.667940	0.789690
O281	O28	0.585850	0.182340	0.578310
O291	O29	0.706700	0.333150	0.658370
O301	O30	0.799080	0.395200	0.369550
O311	O31	0.707990	0.392650	0.145580
O321	O32	0.857750	0.494530	0.123650
O331	O33	0.523610	0.548120	0.116830
O341	O34	0.672990	0.657580	0.101100
O351	O35	0.605590	0.552030	0.222660
O361	O36	0.765390	0.644600	0.204200
O371	O37	0.537890	0.683170	0.885940
O381	O38	0.689610	0.734790	0.933020
O391	O39	0.741050	0.067980	0.357450
O401	O40	0.880700	0.985010	0.309230
O411	O41	0.843070	0.228040	0.291750
O421	O42	0.031990	0.167940	0.289690
O431	O43	0.914150	0.682340	0.078310
O441	O44	0.793300	0.833150	0.158370
O451	O45	0.700920	0.895200	0.869550
O461	O46	0.207990	0.107350	0.354420
O471	O47	0.357750	0.005470	0.376350
O481	O48	0.023610	0.951880	0.383170
O491	O49	0.172990	0.842420	0.398900
O501	O50	0.105590	0.947970	0.277340
O511	O51	0.265390	0.855400	0.295800
O521	O52	0.037890	0.816830	0.614060
O531	O53	0.189610	0.765210	0.566980
O541	O54	0.241050	0.432020	0.142550
O551	O55	0.380700	0.514990	0.190770
O561	O56	0.343070	0.271960	0.208250
O571	O57	0.531990	0.332060	0.210310
O581	O58	0.414150	0.817660	0.421690
O591	O59	0.293300	0.666850	0.341630
O601	O60	0.200920	0.604800	0.630450
