data_AVITUU_freeONLY_PM
_symmetry_space_group_name_H-M	'P1'
_cell_length_a	22.522000
_cell_length_b	22.522000
_cell_length_c	33.600000
_cell_angle_alpha	90.000000
_cell_angle_beta	90.000000
_cell_angle_gamma	90.000000
_symmetry_Int_Tables_number 1

loop_
_symmetry_equiv_pos_as_xyz
'x,y,z'

loop_
_atom_site_label
_atom_site_type_symbol
_atom_site_fract_x
_atom_site_fract_y
_atom_site_fract_z
N11	N1	0.236880	0.081350	0.642430
C11	C1	0.220200	0.113900	0.673550
H11	H1	0.250500	0.133500	0.688100
C21	C2	0.163300	0.121300	0.686130
H21	H2	0.154800	0.146100	0.708300
C31	C3	0.117700	0.092000	0.666100
C41	C4	0.134300	0.057600	0.633690
H31	H3	0.104800	0.037500	0.618700
C51	C5	0.192820	0.052400	0.623120
H41	H4	0.202900	0.027500	0.601300
C61	C6	0.055200	0.096000	0.678300
C71	C7	0.032070	0.100500	0.715670
C81	C8	0.067000	0.096500	0.753130
C91	C9	0.090900	0.044000	0.765070
H51	H5	0.087600	0.009900	0.748600
C101	C10	0.120300	0.040400	0.801510
H61	H6	0.135500	0.002900	0.809500
N21	N2	0.128030	0.085570	0.825410
C111	C11	0.104100	0.136900	0.813970
H71	H7	0.107300	0.170100	0.831200
C121	C12	0.074400	0.144100	0.777750
H81	H8	0.059500	0.182000	0.770300
N31	N3	0.736880	0.581350	0.142430
C131	C13	0.720200	0.613900	0.173550
H91	H9	0.750500	0.633500	0.188100
C141	C14	0.663300	0.621300	0.186130
H101	H10	0.654800	0.646100	0.208300
C151	C15	0.617700	0.592000	0.166100
C161	C16	0.634300	0.557600	0.133690
H111	H11	0.604800	0.537500	0.118700
C171	C17	0.692820	0.552400	0.123120
H121	H12	0.702900	0.527500	0.101300
C181	C18	0.555200	0.596000	0.178300
C191	C19	0.532070	0.600500	0.215670
C201	C20	0.567000	0.596500	0.253130
C211	C21	0.590900	0.544000	0.265070
H131	H13	0.587600	0.509900	0.248600
C221	C22	0.620300	0.540400	0.301510
H141	H14	0.635500	0.502900	0.309500
N41	N4	0.628030	0.585570	0.325410
C231	C23	0.604100	0.636900	0.313970
H151	H15	0.607300	0.670100	0.331200
C241	C24	0.574400	0.644100	0.277750
H161	H16	0.559500	0.682000	0.270300
N51	N5	0.263120	0.918650	0.142430
C251	C25	0.279800	0.886100	0.173550
H171	H17	0.249500	0.866500	0.188100
C261	C26	0.336700	0.878700	0.186130
H181	H18	0.345200	0.853900	0.208300
C271	C27	0.382300	0.908000	0.166100
C281	C28	0.365700	0.942400	0.133690
H191	H19	0.395200	0.962500	0.118700
C291	C29	0.307180	0.947600	0.123120
H201	H20	0.297100	0.972500	0.101300
C301	C30	0.444800	0.904000	0.178300
C311	C31	0.467930	0.899500	0.215670
C321	C32	0.433000	0.903500	0.253130
C331	C33	0.409100	0.956000	0.265070
H211	H21	0.412400	0.990100	0.248600
C341	C34	0.379700	0.959600	0.301510
H221	H22	0.364500	0.997100	0.309500
N61	N6	0.371970	0.914430	0.325410
C351	C35	0.395900	0.863100	0.313970
H231	H23	0.392700	0.829900	0.331200
C361	C36	0.425600	0.855900	0.277750
H241	H24	0.440500	0.818000	0.270300
N71	N7	0.763120	0.418650	0.642430
C371	C37	0.779800	0.386100	0.673550
H251	H25	0.749500	0.366500	0.688100
C381	C38	0.836700	0.378700	0.686130
H261	H26	0.845200	0.353900	0.708300
C391	C39	0.882300	0.408000	0.666100
C401	C40	0.865700	0.442400	0.633690
H271	H27	0.895200	0.462500	0.618700
C411	C41	0.807180	0.447600	0.623120
H281	H28	0.797100	0.472500	0.601300
C421	C42	0.944800	0.404000	0.678300
C431	C43	0.967930	0.399500	0.715670
C441	C44	0.933000	0.403500	0.753130
C451	C45	0.909100	0.456000	0.765070
H291	H29	0.912400	0.490100	0.748600
C461	C46	0.879700	0.459600	0.801510
H301	H30	0.864500	0.497100	0.809500
N81	N8	0.871970	0.414430	0.825410
C471	C47	0.895900	0.363100	0.813970
H311	H31	0.892700	0.329900	0.831200
C481	C48	0.925600	0.355900	0.777750
H321	H32	0.940500	0.318000	0.770300
N91	N9	0.168650	0.986880	0.892430
C491	C49	0.136100	0.970200	0.923550
H331	H33	0.116500	0.000500	0.938100
C501	C50	0.128700	0.913300	0.936130
H341	H34	0.103900	0.904800	0.958300
C511	C51	0.158000	0.867700	0.916100
C521	C52	0.192400	0.884300	0.883690
H351	H35	0.212500	0.854800	0.868700
C531	C53	0.197600	0.942820	0.873120
H361	H36	0.222500	0.952900	0.851300
C541	C54	0.154000	0.805200	0.928300
C551	C55	0.149500	0.782070	0.965670
C561	C56	0.153500	0.817000	0.003130
C571	C57	0.206000	0.840900	0.015070
H371	H37	0.240100	0.837600	0.998600
C581	C58	0.209600	0.870300	0.051510
H381	H38	0.247100	0.885500	0.059500
N101	N10	0.164430	0.878030	0.075410
C591	C59	0.113100	0.854100	0.063970
H391	H39	0.079900	0.857300	0.081200
C601	C60	0.105900	0.824400	0.027750
H401	H40	0.068000	0.809500	0.020300
N111	N11	0.668650	0.486880	0.392430
C611	C61	0.636100	0.470200	0.423550
H411	H41	0.616500	0.500500	0.438100
C621	C62	0.628700	0.413300	0.436130
H421	H42	0.603900	0.404800	0.458300
C631	C63	0.658000	0.367700	0.416100
C641	C64	0.692400	0.384300	0.383690
H431	H43	0.712500	0.354800	0.368700
C651	C65	0.697600	0.442820	0.373120
H441	H44	0.722500	0.452900	0.351300
C661	C66	0.654000	0.305200	0.428300
C671	C67	0.649500	0.282070	0.465670
C681	C68	0.653500	0.317000	0.503130
C691	C69	0.706000	0.340900	0.515070
H451	H45	0.740100	0.337600	0.498600
C701	C70	0.709600	0.370300	0.551510
H461	H46	0.747100	0.385500	0.559500
N121	N12	0.664430	0.378030	0.575410
C711	C71	0.613100	0.354100	0.563970
H471	H47	0.579900	0.357300	0.581200
C721	C72	0.605900	0.324400	0.527750
H481	H48	0.568000	0.309500	0.520300
N131	N13	0.331350	0.013120	0.392430
C731	C73	0.363900	0.029800	0.423550
H491	H49	0.383500	0.999500	0.438100
C741	C74	0.371300	0.086700	0.436130
H501	H50	0.396100	0.095200	0.458300
C751	C75	0.342000	0.132300	0.416100
C761	C76	0.307600	0.115700	0.383690
H511	H51	0.287500	0.145200	0.368700
C771	C77	0.302400	0.057180	0.373120
H521	H52	0.277500	0.047100	0.351300
C781	C78	0.346000	0.194800	0.428300
C791	C79	0.350500	0.217930	0.465670
C801	C80	0.346500	0.183000	0.503130
C811	C81	0.294000	0.159100	0.515070
H531	H53	0.259900	0.162400	0.498600
C821	C82	0.290400	0.129700	0.551510
H541	H54	0.252900	0.114500	0.559500
N141	N14	0.335570	0.121970	0.575410
C831	C83	0.386900	0.145900	0.563970
H551	H55	0.420100	0.142700	0.581200
C841	C84	0.394100	0.175600	0.527750
H561	H56	0.432000	0.190500	0.520300
N151	N15	0.831350	0.513120	0.892430
C851	C85	0.863900	0.529800	0.923550
H571	H57	0.883500	0.499500	0.938100
C861	C86	0.871300	0.586700	0.936130
H581	H58	0.896100	0.595200	0.958300
C871	C87	0.842000	0.632300	0.916100
C881	C88	0.807600	0.615700	0.883690
H591	H59	0.787500	0.645200	0.868700
C891	C89	0.802400	0.557180	0.873120
H601	H60	0.777500	0.547100	0.851300
C901	C90	0.846000	0.694800	0.928300
C911	C91	0.850500	0.717930	0.965670
C921	C92	0.846500	0.683000	0.003130
C931	C93	0.794000	0.659100	0.015070
H611	H61	0.759900	0.662400	0.998600
C941	C94	0.790400	0.629700	0.051510
H621	H62	0.752900	0.614500	0.059500
N161	N16	0.835570	0.621970	0.075410
C951	C95	0.886900	0.645900	0.063970
H631	H63	0.920100	0.642700	0.081200
C961	C96	0.894100	0.675600	0.027750
H641	H64	0.932000	0.690500	0.020300
N171	N17	0.263120	0.081350	0.857570
C971	C97	0.279800	0.113900	0.826450
H651	H65	0.249500	0.133500	0.811900
C981	C98	0.336700	0.121300	0.813870
H661	H66	0.345200	0.146100	0.791700
C991	C99	0.382300	0.092000	0.833900
C1001	C100	0.365700	0.057600	0.866310
H671	H67	0.395200	0.037500	0.881300
C1011	C101	0.307180	0.052400	0.876880
H681	H68	0.297100	0.027500	0.898700
C1021	C102	0.444800	0.096000	0.821700
C1031	C103	0.467930	0.100500	0.784330
C1041	C104	0.433000	0.096500	0.746870
C1051	C105	0.409100	0.044000	0.734930
H691	H69	0.412400	0.009900	0.751400
C1061	C106	0.379700	0.040400	0.698490
H701	H70	0.364500	0.002900	0.690500
N181	N18	0.371970	0.085570	0.674590
C1071	C107	0.395900	0.136900	0.686030
H711	H71	0.392700	0.170100	0.668800
C1081	C108	0.425600	0.144100	0.722250
H721	H72	0.440500	0.182000	0.729700
N191	N19	0.763120	0.581350	0.357570
C1091	C109	0.779800	0.613900	0.326450
H731	H73	0.749500	0.633500	0.311900
C1101	C110	0.836700	0.621300	0.313870
H741	H74	0.845200	0.646100	0.291700
C1111	C111	0.882300	0.592000	0.333900
C1121	C112	0.865700	0.557600	0.366310
H751	H75	0.895200	0.537500	0.381300
C1131	C113	0.807180	0.552400	0.376880
H761	H76	0.797100	0.527500	0.398700
C1141	C114	0.944800	0.596000	0.321700
C1151	C115	0.967930	0.600500	0.284330
C1161	C116	0.933000	0.596500	0.246870
C1171	C117	0.909100	0.544000	0.234930
H771	H77	0.912400	0.509900	0.251400
C1181	C118	0.879700	0.540400	0.198490
H781	H78	0.864500	0.502900	0.190500
N201	N20	0.871970	0.585570	0.174590
C1191	C119	0.895900	0.636900	0.186030
H791	H79	0.892700	0.670100	0.168800
C1201	C120	0.925600	0.644100	0.222250
H801	H80	0.940500	0.682000	0.229700
N211	N21	0.236880	0.918650	0.357570
C1211	C121	0.220200	0.886100	0.326450
H811	H81	0.250500	0.866500	0.311900
C1221	C122	0.163300	0.878700	0.313870
H821	H82	0.154800	0.853900	0.291700
C1231	C123	0.117700	0.908000	0.333900
C1241	C124	0.134300	0.942400	0.366310
H831	H83	0.104800	0.962500	0.381300
C1251	C125	0.192820	0.947600	0.376880
H841	H84	0.202900	0.972500	0.398700
C1261	C126	0.055200	0.904000	0.321700
C1271	C127	0.032070	0.899500	0.284330
C1281	C128	0.067000	0.903500	0.246870
C1291	C129	0.090900	0.956000	0.234930
H851	H85	0.087600	0.990100	0.251400
C1301	C130	0.120300	0.959600	0.198490
H861	H86	0.135500	0.997100	0.190500
N221	N22	0.128030	0.914430	0.174590
C1311	C131	0.104100	0.863100	0.186030
H871	H87	0.107300	0.829900	0.168800
C1321	C132	0.074400	0.855900	0.222250
H881	H88	0.059500	0.818000	0.229700
N231	N23	0.736880	0.418650	0.857570
C1331	C133	0.720200	0.386100	0.826450
H891	H89	0.750500	0.366500	0.811900
C1341	C134	0.663300	0.378700	0.813870
H901	H90	0.654800	0.353900	0.791700
C1351	C135	0.617700	0.408000	0.833900
C1361	C136	0.634300	0.442400	0.866310
H911	H91	0.604800	0.462500	0.881300
C1371	C137	0.692820	0.447600	0.876880
H921	H92	0.702900	0.472500	0.898700
C1381	C138	0.555200	0.404000	0.821700
C1391	C139	0.532070	0.399500	0.784330
C1401	C140	0.567000	0.403500	0.746870
C1411	C141	0.590900	0.456000	0.734930
H931	H93	0.587600	0.490100	0.751400
C1421	C142	0.620300	0.459600	0.698490
H941	H94	0.635500	0.497100	0.690500
N241	N24	0.628030	0.414430	0.674590
C1431	C143	0.604100	0.363100	0.686030
H951	H95	0.607300	0.329900	0.668800
C1441	C144	0.574400	0.355900	0.722250
H961	H96	0.559500	0.318000	0.729700
N251	N25	0.331350	0.986880	0.607570
C1451	C145	0.363900	0.970200	0.576450
H971	H97	0.383500	0.000500	0.561900
C1461	C146	0.371300	0.913300	0.563870
H981	H98	0.396100	0.904800	0.541700
C1471	C147	0.342000	0.867700	0.583900
C1481	C148	0.307600	0.884300	0.616310
H991	H99	0.287500	0.854800	0.631300
C1491	C149	0.302400	0.942820	0.626880
H1001	H100	0.277500	0.952900	0.648700
C1501	C150	0.346000	0.805200	0.571700
C1511	C151	0.350500	0.782070	0.534330
C1521	C152	0.346500	0.817000	0.496870
C1531	C153	0.294000	0.840900	0.484930
H1011	H101	0.259900	0.837600	0.501400
C1541	C154	0.290400	0.870300	0.448490
H1021	H102	0.252900	0.885500	0.440500
N261	N26	0.335570	0.878030	0.424590
C1551	C155	0.386900	0.854100	0.436030
H1031	H103	0.420100	0.857300	0.418800
C1561	C156	0.394100	0.824400	0.472250
H1041	H104	0.432000	0.809500	0.479700
N271	N27	0.831350	0.486880	0.107570
C1571	C157	0.863900	0.470200	0.076450
H1051	H105	0.883500	0.500500	0.061900
C1581	C158	0.871300	0.413300	0.063870
H1061	H106	0.896100	0.404800	0.041700
C1591	C159	0.842000	0.367700	0.083900
C1601	C160	0.807600	0.384300	0.116310
H1071	H107	0.787500	0.354800	0.131300
C1611	C161	0.802400	0.442820	0.126880
H1081	H108	0.777500	0.452900	0.148700
C1621	C162	0.846000	0.305200	0.071700
C1631	C163	0.850500	0.282070	0.034330
C1641	C164	0.846500	0.317000	0.996870
C1651	C165	0.794000	0.340900	0.984930
H1091	H109	0.759900	0.337600	0.001400
C1661	C166	0.790400	0.370300	0.948490
H1101	H110	0.752900	0.385500	0.940500
N281	N28	0.835570	0.378030	0.924590
C1671	C167	0.886900	0.354100	0.936030
H1111	H111	0.920100	0.357300	0.918800
C1681	C168	0.894100	0.324400	0.972250
H1121	H112	0.932000	0.309500	0.979700
N291	N29	0.168650	0.013120	0.107570
C1691	C169	0.136100	0.029800	0.076450
H1131	H113	0.116500	0.999500	0.061900
C1701	C170	0.128700	0.086700	0.063870
H1141	H114	0.103900	0.095200	0.041700
C1711	C171	0.158000	0.132300	0.083900
C1721	C172	0.192400	0.115700	0.116310
H1151	H115	0.212500	0.145200	0.131300
C1731	C173	0.197600	0.057180	0.126880
H1161	H116	0.222500	0.047100	0.148700
C1741	C174	0.154000	0.194800	0.071700
C1751	C175	0.149500	0.217930	0.034330
C1761	C176	0.153500	0.183000	0.996870
C1771	C177	0.206000	0.159100	0.984930
H1171	H117	0.240100	0.162400	0.001400
C1781	C178	0.209600	0.129700	0.948490
H1181	H118	0.247100	0.114500	0.940500
N301	N30	0.164430	0.121970	0.924590
C1791	C179	0.113100	0.145900	0.936030
H1191	H119	0.079900	0.142700	0.918800
C1801	C180	0.105900	0.175600	0.972250
H1201	H120	0.068000	0.190500	0.979700
N311	N31	0.668650	0.513120	0.607570
C1811	C181	0.636100	0.529800	0.576450
H1211	H121	0.616500	0.499500	0.561900
C1821	C182	0.628700	0.586700	0.563870
H1221	H122	0.603900	0.595200	0.541700
C1831	C183	0.658000	0.632300	0.583900
C1841	C184	0.692400	0.615700	0.616310
H1231	H123	0.712500	0.645200	0.631300
C1851	C185	0.697600	0.557180	0.626880
H1241	H124	0.722500	0.547100	0.648700
C1861	C186	0.654000	0.694800	0.571700
C1871	C187	0.649500	0.717930	0.534330
C1881	C188	0.653500	0.683000	0.496870
C1891	C189	0.706000	0.659100	0.484930
H1251	H125	0.740100	0.662400	0.501400
C1901	C190	0.709600	0.629700	0.448490
H1261	H126	0.747100	0.614500	0.440500
N321	N32	0.664430	0.621970	0.424590
C1911	C191	0.613100	0.645900	0.436030
H1271	H127	0.579900	0.642700	0.418800
C1921	C192	0.605900	0.675600	0.472250
H1281	H128	0.568000	0.690500	0.479700
N331	N33	0.763120	0.918650	0.357570
C1931	C193	0.779800	0.886100	0.326450
H1291	H129	0.749500	0.866500	0.311900
C1941	C194	0.836700	0.878700	0.313870
H1301	H130	0.845200	0.853900	0.291700
C1951	C195	0.882300	0.908000	0.333900
C1961	C196	0.865700	0.942400	0.366310
H1311	H131	0.895200	0.962500	0.381300
C1971	C197	0.807180	0.947600	0.376880
H1321	H132	0.797100	0.972500	0.398700
C1981	C198	0.944800	0.904000	0.321700
C1991	C199	0.967930	0.899500	0.284330
C2001	C200	0.933000	0.903500	0.246870
C2011	C201	0.909100	0.956000	0.234930
H1331	H133	0.912400	0.990100	0.251400
C2021	C202	0.879700	0.959600	0.198490
H1341	H134	0.864500	0.997100	0.190500
N341	N34	0.871970	0.914430	0.174590
C2031	C203	0.895900	0.863100	0.186030
H1351	H135	0.892700	0.829900	0.168800
C2041	C204	0.925600	0.855900	0.222250
H1361	H136	0.940500	0.818000	0.229700
N351	N35	0.263120	0.418650	0.857570
C2051	C205	0.279800	0.386100	0.826450
H1371	H137	0.249500	0.366500	0.811900
C2061	C206	0.336700	0.378700	0.813870
H1381	H138	0.345200	0.353900	0.791700
C2071	C207	0.382300	0.408000	0.833900
C2081	C208	0.365700	0.442400	0.866310
H1391	H139	0.395200	0.462500	0.881300
C2091	C209	0.307180	0.447600	0.876880
H1401	H140	0.297100	0.472500	0.898700
C2101	C210	0.444800	0.404000	0.821700
C2111	C211	0.467930	0.399500	0.784330
C2121	C212	0.433000	0.403500	0.746870
C2131	C213	0.409100	0.456000	0.734930
H1411	H141	0.412400	0.490100	0.751400
C2141	C214	0.379700	0.459600	0.698490
H1421	H142	0.364500	0.497100	0.690500
N361	N36	0.371970	0.414430	0.674590
C2151	C215	0.395900	0.363100	0.686030
H1431	H143	0.392700	0.329900	0.668800
C2161	C216	0.425600	0.355900	0.722250
H1441	H144	0.440500	0.318000	0.729700
N371	N37	0.736880	0.081350	0.857570
C2171	C217	0.720200	0.113900	0.826450
H1451	H145	0.750500	0.133500	0.811900
C2181	C218	0.663300	0.121300	0.813870
H1461	H146	0.654800	0.146100	0.791700
C2191	C219	0.617700	0.092000	0.833900
C2201	C220	0.634300	0.057600	0.866310
H1471	H147	0.604800	0.037500	0.881300
C2211	C221	0.692820	0.052400	0.876880
H1481	H148	0.702900	0.027500	0.898700
C2221	C222	0.555200	0.096000	0.821700
C2231	C223	0.532070	0.100500	0.784330
C2241	C224	0.567000	0.096500	0.746870
C2251	C225	0.590900	0.044000	0.734930
H1491	H149	0.587600	0.009900	0.751400
C2261	C226	0.620300	0.040400	0.698490
H1501	H150	0.635500	0.002900	0.690500
N381	N38	0.628030	0.085570	0.674590
C2271	C227	0.604100	0.136900	0.686030
H1511	H151	0.607300	0.170100	0.668800
C2281	C228	0.574400	0.144100	0.722250
H1521	H152	0.559500	0.182000	0.729700
N391	N39	0.236880	0.581350	0.357570
C2291	C229	0.220200	0.613900	0.326450
H1531	H153	0.250500	0.633500	0.311900
C2301	C230	0.163300	0.621300	0.313870
H1541	H154	0.154800	0.646100	0.291700
C2311	C231	0.117700	0.592000	0.333900
C2321	C232	0.134300	0.557600	0.366310
H1551	H155	0.104800	0.537500	0.381300
C2331	C233	0.192820	0.552400	0.376880
H1561	H156	0.202900	0.527500	0.398700
C2341	C234	0.055200	0.596000	0.321700
C2351	C235	0.032070	0.600500	0.284330
C2361	C236	0.067000	0.596500	0.246870
C2371	C237	0.090900	0.544000	0.234930
H1571	H157	0.087600	0.509900	0.251400
C2381	C238	0.120300	0.540400	0.198490
H1581	H158	0.135500	0.502900	0.190500
N401	N40	0.128030	0.585570	0.174590
C2391	C239	0.104100	0.636900	0.186030
H1591	H159	0.107300	0.670100	0.168800
C2401	C240	0.074400	0.644100	0.222250
H1601	H160	0.059500	0.682000	0.229700
N411	N41	0.831350	0.013120	0.107570
C2411	C241	0.863900	0.029800	0.076450
H1611	H161	0.883500	0.999500	0.061900
C2421	C242	0.871300	0.086700	0.063870
H1621	H162	0.896100	0.095200	0.041700
C2431	C243	0.842000	0.132300	0.083900
C2441	C244	0.807600	0.115700	0.116310
H1631	H163	0.787500	0.145200	0.131300
C2451	C245	0.802400	0.057180	0.126880
H1641	H164	0.777500	0.047100	0.148700
C2461	C246	0.846000	0.194800	0.071700
C2471	C247	0.850500	0.217930	0.034330
C2481	C248	0.846500	0.183000	0.996870
C2491	C249	0.794000	0.159100	0.984930
H1651	H165	0.759900	0.162400	0.001400
C2501	C250	0.790400	0.129700	0.948490
H1661	H166	0.752900	0.114500	0.940500
N421	N42	0.835570	0.121970	0.924590
C2511	C251	0.886900	0.145900	0.936030
H1671	H167	0.920100	0.142700	0.918800
C2521	C252	0.894100	0.175600	0.972250
H1681	H168	0.932000	0.190500	0.979700
N431	N43	0.331350	0.513120	0.607570
C2531	C253	0.363900	0.529800	0.576450
H1691	H169	0.383500	0.499500	0.561900
C2541	C254	0.371300	0.586700	0.563870
H1701	H170	0.396100	0.595200	0.541700
C2551	C255	0.342000	0.632300	0.583900
C2561	C256	0.307600	0.615700	0.616310
H1711	H171	0.287500	0.645200	0.631300
C2571	C257	0.302400	0.557180	0.626880
H1721	H172	0.277500	0.547100	0.648700
C2581	C258	0.346000	0.694800	0.571700
C2591	C259	0.350500	0.717930	0.534330
C2601	C260	0.346500	0.683000	0.496870
C2611	C261	0.294000	0.659100	0.484930
H1731	H173	0.259900	0.662400	0.501400
C2621	C262	0.290400	0.629700	0.448490
H1741	H174	0.252900	0.614500	0.440500
N441	N44	0.335570	0.621970	0.424590
C2631	C263	0.386900	0.645900	0.436030
H1751	H175	0.420100	0.642700	0.418800
C2641	C264	0.394100	0.675600	0.472250
H1761	H176	0.432000	0.690500	0.479700
N451	N45	0.668650	0.986880	0.607570
C2651	C265	0.636100	0.970200	0.576450
H1771	H177	0.616500	0.000500	0.561900
C2661	C266	0.628700	0.913300	0.563870
H1781	H178	0.603900	0.904800	0.541700
C2671	C267	0.658000	0.867700	0.583900
C2681	C268	0.692400	0.884300	0.616310
H1791	H179	0.712500	0.854800	0.631300
C2691	C269	0.697600	0.942820	0.626880
H1801	H180	0.722500	0.952900	0.648700
C2701	C270	0.654000	0.805200	0.571700
C2711	C271	0.649500	0.782070	0.534330
C2721	C272	0.653500	0.817000	0.496870
C2731	C273	0.706000	0.840900	0.484930
H1811	H181	0.740100	0.837600	0.501400
C2741	C274	0.709600	0.870300	0.448490
H1821	H182	0.747100	0.885500	0.440500
N461	N46	0.664430	0.878030	0.424590
C2751	C275	0.613100	0.854100	0.436030
H1831	H183	0.579900	0.857300	0.418800
C2761	C276	0.605900	0.824400	0.472250
H1841	H184	0.568000	0.809500	0.479700
N471	N47	0.168650	0.486880	0.107570
C2771	C277	0.136100	0.470200	0.076450
H1851	H185	0.116500	0.500500	0.061900
C2781	C278	0.128700	0.413300	0.063870
H1861	H186	0.103900	0.404800	0.041700
C2791	C279	0.158000	0.367700	0.083900
C2801	C280	0.192400	0.384300	0.116310
H1871	H187	0.212500	0.354800	0.131300
C2811	C281	0.197600	0.442820	0.126880
H1881	H188	0.222500	0.452900	0.148700
C2821	C282	0.154000	0.305200	0.071700
C2831	C283	0.149500	0.282070	0.034330
C2841	C284	0.153500	0.317000	0.996870
C2851	C285	0.206000	0.340900	0.984930
H1891	H189	0.240100	0.337600	0.001400
C2861	C286	0.209600	0.370300	0.948490
H1901	H190	0.247100	0.385500	0.940500
N481	N48	0.164430	0.378030	0.924590
C2871	C287	0.113100	0.354100	0.936030
H1911	H191	0.079900	0.357300	0.918800
C2881	C288	0.105900	0.324400	0.972250
H1921	H192	0.068000	0.309500	0.979700
N491	N49	0.736880	0.918650	0.142430
C2891	C289	0.720200	0.886100	0.173550
H1931	H193	0.750500	0.866500	0.188100
C2901	C290	0.663300	0.878700	0.186130
H1941	H194	0.654800	0.853900	0.208300
C2911	C291	0.617700	0.908000	0.166100
C2921	C292	0.634300	0.942400	0.133690
H1951	H195	0.604800	0.962500	0.118700
C2931	C293	0.692820	0.947600	0.123120
H1961	H196	0.702900	0.972500	0.101300
C2941	C294	0.555200	0.904000	0.178300
C2951	C295	0.532070	0.899500	0.215670
C2961	C296	0.567000	0.903500	0.253130
C2971	C297	0.590900	0.956000	0.265070
H1971	H197	0.587600	0.990100	0.248600
C2981	C298	0.620300	0.959600	0.301510
H1981	H198	0.635500	0.997100	0.309500
N501	N50	0.628030	0.914430	0.325410
C2991	C299	0.604100	0.863100	0.313970
H1991	H199	0.607300	0.829900	0.331200
C3001	C300	0.574400	0.855900	0.277750
H2001	H200	0.559500	0.818000	0.270300
N511	N51	0.236880	0.418650	0.642430
C3011	C301	0.220200	0.386100	0.673550
H2011	H201	0.250500	0.366500	0.688100
C3021	C302	0.163300	0.378700	0.686130
H2021	H202	0.154800	0.353900	0.708300
C3031	C303	0.117700	0.408000	0.666100
C3041	C304	0.134300	0.442400	0.633690
H2031	H203	0.104800	0.462500	0.618700
C3051	C305	0.192820	0.447600	0.623120
H2041	H204	0.202900	0.472500	0.601300
C3061	C306	0.055200	0.404000	0.678300
C3071	C307	0.032070	0.399500	0.715670
C3081	C308	0.067000	0.403500	0.753130
C3091	C309	0.090900	0.456000	0.765070
H2051	H205	0.087600	0.490100	0.748600
C3101	C310	0.120300	0.459600	0.801510
H2061	H206	0.135500	0.497100	0.809500
N521	N52	0.128030	0.414430	0.825410
C3111	C311	0.104100	0.363100	0.813970
H2071	H207	0.107300	0.329900	0.831200
C3121	C312	0.074400	0.355900	0.777750
H2081	H208	0.059500	0.318000	0.770300
N531	N53	0.763120	0.081350	0.642430
C3131	C313	0.779800	0.113900	0.673550
H2091	H209	0.749500	0.133500	0.688100
C3141	C314	0.836700	0.121300	0.686130
H2101	H210	0.845200	0.146100	0.708300
C3151	C315	0.882300	0.092000	0.666100
C3161	C316	0.865700	0.057600	0.633690
H2111	H211	0.895200	0.037500	0.618700
C3171	C317	0.807180	0.052400	0.623120
H2121	H212	0.797100	0.027500	0.601300
C3181	C318	0.944800	0.096000	0.678300
C3191	C319	0.967930	0.100500	0.715670
C3201	C320	0.933000	0.096500	0.753130
C3211	C321	0.909100	0.044000	0.765070
H2131	H213	0.912400	0.009900	0.748600
C3221	C322	0.879700	0.040400	0.801510
H2141	H214	0.864500	0.002900	0.809500
N541	N54	0.871970	0.085570	0.825410
C3231	C323	0.895900	0.136900	0.813970
H2151	H215	0.892700	0.170100	0.831200
C3241	C324	0.925600	0.144100	0.777750
H2161	H216	0.940500	0.182000	0.770300
N551	N55	0.263120	0.581350	0.142430
C3251	C325	0.279800	0.613900	0.173550
H2171	H217	0.249500	0.633500	0.188100
C3261	C326	0.336700	0.621300	0.186130
H2181	H218	0.345200	0.646100	0.208300
C3271	C327	0.382300	0.592000	0.166100
C3281	C328	0.365700	0.557600	0.133690
H2191	H219	0.395200	0.537500	0.118700
C3291	C329	0.307180	0.552400	0.123120
H2201	H220	0.297100	0.527500	0.101300
C3301	C330	0.444800	0.596000	0.178300
C3311	C331	0.467930	0.600500	0.215670
C3321	C332	0.433000	0.596500	0.253130
C3331	C333	0.409100	0.544000	0.265070
H2211	H221	0.412400	0.509900	0.248600
C3341	C334	0.379700	0.540400	0.301510
H2221	H222	0.364500	0.502900	0.309500
N561	N56	0.371970	0.585570	0.325410
C3351	C335	0.395900	0.636900	0.313970
H2231	H223	0.392700	0.670100	0.331200
C3361	C336	0.425600	0.644100	0.277750
H2241	H224	0.440500	0.682000	0.270300
N571	N57	0.668650	0.013120	0.392430
C3371	C337	0.636100	0.029800	0.423550
H2251	H225	0.616500	0.999500	0.438100
C3381	C338	0.628700	0.086700	0.436130
H2261	H226	0.603900	0.095200	0.458300
C3391	C339	0.658000	0.132300	0.416100
C3401	C340	0.692400	0.115700	0.383690
H2271	H227	0.712500	0.145200	0.368700
C3411	C341	0.697600	0.057180	0.373120
H2281	H228	0.722500	0.047100	0.351300
C3421	C342	0.654000	0.194800	0.428300
C3431	C343	0.649500	0.217930	0.465670
C3441	C344	0.653500	0.183000	0.503130
C3451	C345	0.706000	0.159100	0.515070
H2291	H229	0.740100	0.162400	0.498600
C3461	C346	0.709600	0.129700	0.551510
H2301	H230	0.747100	0.114500	0.559500
N581	N58	0.664430	0.121970	0.575410
C3471	C347	0.613100	0.145900	0.563970
H2311	H231	0.579900	0.142700	0.581200
C3481	C348	0.605900	0.175600	0.527750
H2321	H232	0.568000	0.190500	0.520300
N591	N59	0.168650	0.513120	0.892430
C3491	C349	0.136100	0.529800	0.923550
H2331	H233	0.116500	0.499500	0.938100
C3501	C350	0.128700	0.586700	0.936130
H2341	H234	0.103900	0.595200	0.958300
C3511	C351	0.158000	0.632300	0.916100
C3521	C352	0.192400	0.615700	0.883690
H2351	H235	0.212500	0.645200	0.868700
C3531	C353	0.197600	0.557180	0.873120
H2361	H236	0.222500	0.547100	0.851300
C3541	C354	0.154000	0.694800	0.928300
C3551	C355	0.149500	0.717930	0.965670
C3561	C356	0.153500	0.683000	0.003130
C3571	C357	0.206000	0.659100	0.015070
H2371	H237	0.240100	0.662400	0.998600
C3581	C358	0.209600	0.629700	0.051510
H2381	H238	0.247100	0.614500	0.059500
N601	N60	0.164430	0.621970	0.075410
C3591	C359	0.113100	0.645900	0.063970
H2391	H239	0.079900	0.642700	0.081200
C3601	C360	0.105900	0.675600	0.027750
H2401	H240	0.068000	0.690500	0.020300
N611	N61	0.831350	0.986880	0.892430
C3611	C361	0.863900	0.970200	0.923550
H2411	H241	0.883500	0.000500	0.938100
C3621	C362	0.871300	0.913300	0.936130
H2421	H242	0.896100	0.904800	0.958300
C3631	C363	0.842000	0.867700	0.916100
C3641	C364	0.807600	0.884300	0.883690
H2431	H243	0.787500	0.854800	0.868700
C3651	C365	0.802400	0.942820	0.873120
H2441	H244	0.777500	0.952900	0.851300
C3661	C366	0.846000	0.805200	0.928300
C3671	C367	0.850500	0.782070	0.965670
C3681	C368	0.846500	0.817000	0.003130
C3691	C369	0.794000	0.840900	0.015070
H2451	H245	0.759900	0.837600	0.998600
C3701	C370	0.790400	0.870300	0.051510
H2461	H246	0.752900	0.885500	0.059500
N621	N62	0.835570	0.878030	0.075410
C3711	C371	0.886900	0.854100	0.063970
H2471	H247	0.920100	0.857300	0.081200
C3721	C372	0.894100	0.824400	0.027750
H2481	H248	0.932000	0.809500	0.020300
N631	N63	0.331350	0.486880	0.392430
C3731	C373	0.363900	0.470200	0.423550
H2491	H249	0.383500	0.500500	0.438100
C3741	C374	0.371300	0.413300	0.436130
H2501	H250	0.396100	0.404800	0.458300
C3751	C375	0.342000	0.367700	0.416100
C3761	C376	0.307600	0.384300	0.383690
H2511	H251	0.287500	0.354800	0.368700
C3771	C377	0.302400	0.442820	0.373120
H2521	H252	0.277500	0.452900	0.351300
C3781	C378	0.346000	0.305200	0.428300
C3791	C379	0.350500	0.282070	0.465670
C3801	C380	0.346500	0.317000	0.503130
C3811	C381	0.294000	0.340900	0.515070
H2531	H253	0.259900	0.337600	0.498600
C3821	C382	0.290400	0.370300	0.551510
H2541	H254	0.252900	0.385500	0.559500
N641	N64	0.335570	0.378030	0.575410
C3831	C383	0.386900	0.354100	0.563970
H2551	H255	0.420100	0.357300	0.581200
C3841	C384	0.394100	0.324400	0.527750
H2561	H256	0.432000	0.309500	0.520300
Cu11	Cu1	0.323920	0.073920	0.625000
Cu21	Cu2	0.823920	0.573920	0.125000
Cu31	Cu3	0.176080	0.926080	0.125000
Cu41	Cu4	0.676080	0.426080	0.625000
Cu51	Cu5	0.176080	0.073920	0.875000
Cu61	Cu6	0.676080	0.573920	0.375000
Cu71	Cu7	0.323920	0.926080	0.375000
Cu81	Cu8	0.823920	0.426080	0.875000
Cu91	Cu9	0.676080	0.926080	0.375000
Cu101	Cu10	0.176080	0.426080	0.875000
Cu111	Cu11	0.823920	0.073920	0.875000
Cu121	Cu12	0.323920	0.573920	0.375000
Cu131	Cu13	0.823920	0.926080	0.125000
Cu141	Cu14	0.323920	0.426080	0.625000
Cu151	Cu15	0.676080	0.073920	0.625000
Cu161	Cu16	0.176080	0.573920	0.125000
S11	S1	0.000000	0.093210	0.642750
S21	S2	0.500000	0.593210	0.142750
S31	S3	0.500000	0.906790	0.142750
S41	S4	0.000000	0.406790	0.642750
S51	S5	0.156790	0.750000	0.892750
S61	S6	0.343210	0.250000	0.392750
S71	S7	0.500000	0.093210	0.857250
S81	S8	0.000000	0.593210	0.357250
S91	S9	0.000000	0.906790	0.357250
S101	S10	0.500000	0.406790	0.857250
S111	S11	0.343210	0.750000	0.607250
S121	S12	0.156790	0.250000	0.107250
S131	S13	0.843210	0.250000	0.107250
S141	S14	0.656790	0.750000	0.607250
S151	S15	0.656790	0.250000	0.392750
S161	S16	0.843210	0.750000	0.892750
