data_AVIVOQ_freeONLY_PM
_symmetry_space_group_name_H-M	'P1'
_cell_length_a	23.166000
_cell_length_b	23.166000
_cell_length_c	34.931000
_cell_angle_alpha	90.000000
_cell_angle_beta	90.000000
_cell_angle_gamma	90.000000
_symmetry_Int_Tables_number 1

loop_
_symmetry_equiv_pos_as_xyz
'x,y,z'

loop_
_atom_site_label
_atom_site_type_symbol
_atom_site_fract_x
_atom_site_fract_y
_atom_site_fract_z
N11	N1	0.230460	0.085970	0.639740
C11	C1	0.213400	0.119200	0.668560
H11	H1	0.241100	0.141100	0.681300
C21	C2	0.156700	0.123200	0.680690
H21	H2	0.146800	0.148000	0.700600
C31	C3	0.114870	0.090060	0.663130
C41	C4	0.133020	0.055600	0.632950
H31	H3	0.106600	0.032600	0.619900
C51	C5	0.190300	0.055600	0.622310
H41	H4	0.201200	0.032800	0.601600
C61	C6	0.053760	0.091570	0.675410
C71	C7	0.030830	0.096480	0.711430
C81	C8	0.064400	0.094570	0.747820
C91	C9	0.085000	0.044500	0.761740
H51	H5	0.078800	0.010200	0.748600
C101	C10	0.115900	0.044600	0.796280
H61	H6	0.131400	0.009800	0.804600
N21	N2	0.124400	0.090430	0.817810
C111	C11	0.103600	0.138000	0.804230
H71	H7	0.108900	0.171400	0.818500
C121	C12	0.073900	0.142800	0.769590
H81	H8	0.060600	0.178600	0.761400
N31	N3	0.730460	0.585970	0.139740
C131	C13	0.713400	0.619200	0.168560
H91	H9	0.741100	0.641100	0.181300
C141	C14	0.656700	0.623200	0.180690
H101	H10	0.646800	0.648000	0.200600
C151	C15	0.614870	0.590060	0.163130
C161	C16	0.633020	0.555600	0.132950
H111	H11	0.606600	0.532600	0.119900
C171	C17	0.690300	0.555600	0.122310
H121	H12	0.701200	0.532800	0.101600
C181	C18	0.553760	0.591570	0.175410
C191	C19	0.530830	0.596480	0.211430
C201	C20	0.564400	0.594570	0.247820
C211	C21	0.585000	0.544500	0.261740
H131	H13	0.578800	0.510200	0.248600
C221	C22	0.615900	0.544600	0.296280
H141	H14	0.631400	0.509800	0.304600
N41	N4	0.624400	0.590430	0.317810
C231	C23	0.603600	0.638000	0.304230
H151	H15	0.608900	0.671400	0.318500
C241	C24	0.573900	0.642800	0.269590
H161	H16	0.560600	0.678600	0.261400
N51	N5	0.269540	0.914030	0.139740
C251	C25	0.286600	0.880800	0.168560
H171	H17	0.258900	0.858900	0.181300
C261	C26	0.343300	0.876800	0.180690
H181	H18	0.353200	0.852000	0.200600
C271	C27	0.385130	0.909940	0.163130
C281	C28	0.366980	0.944400	0.132950
H191	H19	0.393400	0.967400	0.119900
C291	C29	0.309700	0.944400	0.122310
H201	H20	0.298800	0.967200	0.101600
C301	C30	0.446240	0.908430	0.175410
C311	C31	0.469170	0.903520	0.211430
C321	C32	0.435600	0.905430	0.247820
C331	C33	0.415000	0.955500	0.261740
H211	H21	0.421200	0.989800	0.248600
C341	C34	0.384100	0.955400	0.296280
H221	H22	0.368600	0.990200	0.304600
N61	N6	0.375600	0.909570	0.317810
C351	C35	0.396400	0.862000	0.304230
H231	H23	0.391100	0.828600	0.318500
C361	C36	0.426100	0.857200	0.269590
H241	H24	0.439400	0.821400	0.261400
N71	N7	0.769540	0.414030	0.639740
C371	C37	0.786600	0.380800	0.668560
H251	H25	0.758900	0.358900	0.681300
C381	C38	0.843300	0.376800	0.680690
H261	H26	0.853200	0.352000	0.700600
C391	C39	0.885130	0.409940	0.663130
C401	C40	0.866980	0.444400	0.632950
H271	H27	0.893400	0.467400	0.619900
C411	C41	0.809700	0.444400	0.622310
H281	H28	0.798800	0.467200	0.601600
C421	C42	0.946240	0.408430	0.675410
C431	C43	0.969170	0.403520	0.711430
C441	C44	0.935600	0.405430	0.747820
C451	C45	0.915000	0.455500	0.761740
H291	H29	0.921200	0.489800	0.748600
C461	C46	0.884100	0.455400	0.796280
H301	H30	0.868600	0.490200	0.804600
N81	N8	0.875600	0.409570	0.817810
C471	C47	0.896400	0.362000	0.804230
H311	H31	0.891100	0.328600	0.818500
C481	C48	0.926100	0.357200	0.769590
H321	H32	0.939400	0.321400	0.761400
N91	N9	0.164030	0.980460	0.889740
C491	C49	0.130800	0.963400	0.918560
H331	H33	0.108900	0.991100	0.931300
C501	C50	0.126800	0.906700	0.930690
H341	H34	0.102000	0.896800	0.950600
C511	C51	0.159940	0.864870	0.913130
C521	C52	0.194400	0.883020	0.882950
H351	H35	0.217400	0.856600	0.869900
C531	C53	0.194400	0.940300	0.872310
H361	H36	0.217200	0.951200	0.851600
C541	C54	0.158430	0.803760	0.925410
C551	C55	0.153520	0.780830	0.961430
C561	C56	0.155430	0.814400	0.997820
C571	C57	0.205500	0.835000	0.011740
H371	H37	0.239800	0.828800	0.998600
C581	C58	0.205400	0.865900	0.046280
H381	H38	0.240200	0.881400	0.054600
N101	N10	0.159570	0.874400	0.067810
C591	C59	0.112000	0.853600	0.054230
H391	H39	0.078600	0.858900	0.068500
C601	C60	0.107200	0.823900	0.019590
H401	H40	0.071400	0.810600	0.011400
N111	N11	0.664030	0.480460	0.389740
C611	C61	0.630800	0.463400	0.418560
H411	H41	0.608900	0.491100	0.431300
C621	C62	0.626800	0.406700	0.430690
H421	H42	0.602000	0.396800	0.450600
C631	C63	0.659940	0.364870	0.413130
C641	C64	0.694400	0.383020	0.382950
H431	H43	0.717400	0.356600	0.369900
C651	C65	0.694400	0.440300	0.372310
H441	H44	0.717200	0.451200	0.351600
C661	C66	0.658430	0.303760	0.425410
C671	C67	0.653520	0.280830	0.461430
C681	C68	0.655430	0.314400	0.497820
C691	C69	0.705500	0.335000	0.511740
H451	H45	0.739800	0.328800	0.498600
C701	C70	0.705400	0.365900	0.546280
H461	H46	0.740200	0.381400	0.554600
N121	N12	0.659570	0.374400	0.567810
C711	C71	0.612000	0.353600	0.554230
H471	H47	0.578600	0.358900	0.568500
C721	C72	0.607200	0.323900	0.519590
H481	H48	0.571400	0.310600	0.511400
N131	N13	0.335970	0.019540	0.389740
C731	C73	0.369200	0.036600	0.418560
H491	H49	0.391100	0.008900	0.431300
C741	C74	0.373200	0.093300	0.430690
H501	H50	0.398000	0.103200	0.450600
C751	C75	0.340060	0.135130	0.413130
C761	C76	0.305600	0.116980	0.382950
H511	H51	0.282600	0.143400	0.369900
C771	C77	0.305600	0.059700	0.372310
H521	H52	0.282800	0.048800	0.351600
C781	C78	0.341570	0.196240	0.425410
C791	C79	0.346480	0.219170	0.461430
C801	C80	0.344570	0.185600	0.497820
C811	C81	0.294500	0.165000	0.511740
H531	H53	0.260200	0.171200	0.498600
C821	C82	0.294600	0.134100	0.546280
H541	H54	0.259800	0.118600	0.554600
N141	N14	0.340430	0.125600	0.567810
C831	C83	0.388000	0.146400	0.554230
H551	H55	0.421400	0.141100	0.568500
C841	C84	0.392800	0.176100	0.519590
H561	H56	0.428600	0.189400	0.511400
N151	N15	0.835970	0.519540	0.889740
C851	C85	0.869200	0.536600	0.918560
H571	H57	0.891100	0.508900	0.931300
C861	C86	0.873200	0.593300	0.930690
H581	H58	0.898000	0.603200	0.950600
C871	C87	0.840060	0.635130	0.913130
C881	C88	0.805600	0.616980	0.882950
H591	H59	0.782600	0.643400	0.869900
C891	C89	0.805600	0.559700	0.872310
H601	H60	0.782800	0.548800	0.851600
C901	C90	0.841570	0.696240	0.925410
C911	C91	0.846480	0.719170	0.961430
C921	C92	0.844570	0.685600	0.997820
C931	C93	0.794500	0.665000	0.011740
H611	H61	0.760200	0.671200	0.998600
C941	C94	0.794600	0.634100	0.046280
H621	H62	0.759800	0.618600	0.054600
N161	N16	0.840430	0.625600	0.067810
C951	C95	0.888000	0.646400	0.054230
H631	H63	0.921400	0.641100	0.068500
C961	C96	0.892800	0.676100	0.019590
H641	H64	0.928600	0.689400	0.011400
N171	N17	0.269540	0.085970	0.860260
C971	C97	0.286600	0.119200	0.831440
H651	H65	0.258900	0.141100	0.818700
C981	C98	0.343300	0.123200	0.819310
H661	H66	0.353200	0.148000	0.799400
C991	C99	0.385130	0.090060	0.836870
C1001	C100	0.366980	0.055600	0.867050
H671	H67	0.393400	0.032600	0.880100
C1011	C101	0.309700	0.055600	0.877690
H681	H68	0.298800	0.032800	0.898400
C1021	C102	0.446240	0.091570	0.824590
C1031	C103	0.469170	0.096480	0.788570
C1041	C104	0.435600	0.094570	0.752180
C1051	C105	0.415000	0.044500	0.738260
H691	H69	0.421200	0.010200	0.751400
C1061	C106	0.384100	0.044600	0.703720
H701	H70	0.368600	0.009800	0.695400
N181	N18	0.375600	0.090430	0.682190
C1071	C107	0.396400	0.138000	0.695770
H711	H71	0.391100	0.171400	0.681500
C1081	C108	0.426100	0.142800	0.730410
H721	H72	0.439400	0.178600	0.738600
N191	N19	0.769540	0.585970	0.360260
C1091	C109	0.786600	0.619200	0.331440
H731	H73	0.758900	0.641100	0.318700
C1101	C110	0.843300	0.623200	0.319310
H741	H74	0.853200	0.648000	0.299400
C1111	C111	0.885130	0.590060	0.336870
C1121	C112	0.866980	0.555600	0.367050
H751	H75	0.893400	0.532600	0.380100
C1131	C113	0.809700	0.555600	0.377690
H761	H76	0.798800	0.532800	0.398400
C1141	C114	0.946240	0.591570	0.324590
C1151	C115	0.969170	0.596480	0.288570
C1161	C116	0.935600	0.594570	0.252180
C1171	C117	0.915000	0.544500	0.238260
H771	H77	0.921200	0.510200	0.251400
C1181	C118	0.884100	0.544600	0.203720
H781	H78	0.868600	0.509800	0.195400
N201	N20	0.875600	0.590430	0.182190
C1191	C119	0.896400	0.638000	0.195770
H791	H79	0.891100	0.671400	0.181500
C1201	C120	0.926100	0.642800	0.230410
H801	H80	0.939400	0.678600	0.238600
N211	N21	0.230460	0.914030	0.360260
C1211	C121	0.213400	0.880800	0.331440
H811	H81	0.241100	0.858900	0.318700
C1221	C122	0.156700	0.876800	0.319310
H821	H82	0.146800	0.852000	0.299400
C1231	C123	0.114870	0.909940	0.336870
C1241	C124	0.133020	0.944400	0.367050
H831	H83	0.106600	0.967400	0.380100
C1251	C125	0.190300	0.944400	0.377690
H841	H84	0.201200	0.967200	0.398400
C1261	C126	0.053760	0.908430	0.324590
C1271	C127	0.030830	0.903520	0.288570
C1281	C128	0.064400	0.905430	0.252180
C1291	C129	0.085000	0.955500	0.238260
H851	H85	0.078800	0.989800	0.251400
C1301	C130	0.115900	0.955400	0.203720
H861	H86	0.131400	0.990200	0.195400
N221	N22	0.124400	0.909570	0.182190
C1311	C131	0.103600	0.862000	0.195770
H871	H87	0.108900	0.828600	0.181500
C1321	C132	0.073900	0.857200	0.230410
H881	H88	0.060600	0.821400	0.238600
N231	N23	0.730460	0.414030	0.860260
C1331	C133	0.713400	0.380800	0.831440
H891	H89	0.741100	0.358900	0.818700
C1341	C134	0.656700	0.376800	0.819310
H901	H90	0.646800	0.352000	0.799400
C1351	C135	0.614870	0.409940	0.836870
C1361	C136	0.633020	0.444400	0.867050
H911	H91	0.606600	0.467400	0.880100
C1371	C137	0.690300	0.444400	0.877690
H921	H92	0.701200	0.467200	0.898400
C1381	C138	0.553760	0.408430	0.824590
C1391	C139	0.530830	0.403520	0.788570
C1401	C140	0.564400	0.405430	0.752180
C1411	C141	0.585000	0.455500	0.738260
H931	H93	0.578800	0.489800	0.751400
C1421	C142	0.615900	0.455400	0.703720
H941	H94	0.631400	0.490200	0.695400
N241	N24	0.624400	0.409570	0.682190
C1431	C143	0.603600	0.362000	0.695770
H951	H95	0.608900	0.328600	0.681500
C1441	C144	0.573900	0.357200	0.730410
H961	H96	0.560600	0.321400	0.738600
N251	N25	0.335970	0.980460	0.610260
C1451	C145	0.369200	0.963400	0.581440
H971	H97	0.391100	0.991100	0.568700
C1461	C146	0.373200	0.906700	0.569310
H981	H98	0.398000	0.896800	0.549400
C1471	C147	0.340060	0.864870	0.586870
C1481	C148	0.305600	0.883020	0.617050
H991	H99	0.282600	0.856600	0.630100
C1491	C149	0.305600	0.940300	0.627690
H1001	H100	0.282800	0.951200	0.648400
C1501	C150	0.341570	0.803760	0.574590
C1511	C151	0.346480	0.780830	0.538570
C1521	C152	0.344570	0.814400	0.502180
C1531	C153	0.294500	0.835000	0.488260
H1011	H101	0.260200	0.828800	0.501400
C1541	C154	0.294600	0.865900	0.453720
H1021	H102	0.259800	0.881400	0.445400
N261	N26	0.340430	0.874400	0.432190
C1551	C155	0.388000	0.853600	0.445770
H1031	H103	0.421400	0.858900	0.431500
C1561	C156	0.392800	0.823900	0.480410
H1041	H104	0.428600	0.810600	0.488600
N271	N27	0.835970	0.480460	0.110260
C1571	C157	0.869200	0.463400	0.081440
H1051	H105	0.891100	0.491100	0.068700
C1581	C158	0.873200	0.406700	0.069310
H1061	H106	0.898000	0.396800	0.049400
C1591	C159	0.840060	0.364870	0.086870
C1601	C160	0.805600	0.383020	0.117050
H1071	H107	0.782600	0.356600	0.130100
C1611	C161	0.805600	0.440300	0.127690
H1081	H108	0.782800	0.451200	0.148400
C1621	C162	0.841570	0.303760	0.074590
C1631	C163	0.846480	0.280830	0.038570
C1641	C164	0.844570	0.314400	0.002180
C1651	C165	0.794500	0.335000	0.988260
H1091	H109	0.760200	0.328800	0.001400
C1661	C166	0.794600	0.365900	0.953720
H1101	H110	0.759800	0.381400	0.945400
N281	N28	0.840430	0.374400	0.932190
C1671	C167	0.888000	0.353600	0.945770
H1111	H111	0.921400	0.358900	0.931500
C1681	C168	0.892800	0.323900	0.980410
H1121	H112	0.928600	0.310600	0.988600
N291	N29	0.164030	0.019540	0.110260
C1691	C169	0.130800	0.036600	0.081440
H1131	H113	0.108900	0.008900	0.068700
C1701	C170	0.126800	0.093300	0.069310
H1141	H114	0.102000	0.103200	0.049400
C1711	C171	0.159940	0.135130	0.086870
C1721	C172	0.194400	0.116980	0.117050
H1151	H115	0.217400	0.143400	0.130100
C1731	C173	0.194400	0.059700	0.127690
H1161	H116	0.217200	0.048800	0.148400
C1741	C174	0.158430	0.196240	0.074590
C1751	C175	0.153520	0.219170	0.038570
C1761	C176	0.155430	0.185600	0.002180
C1771	C177	0.205500	0.165000	0.988260
H1171	H117	0.239800	0.171200	0.001400
C1781	C178	0.205400	0.134100	0.953720
H1181	H118	0.240200	0.118600	0.945400
N301	N30	0.159570	0.125600	0.932190
C1791	C179	0.112000	0.146400	0.945770
H1191	H119	0.078600	0.141100	0.931500
C1801	C180	0.107200	0.176100	0.980410
H1201	H120	0.071400	0.189400	0.988600
N311	N31	0.664030	0.519540	0.610260
C1811	C181	0.630800	0.536600	0.581440
H1211	H121	0.608900	0.508900	0.568700
C1821	C182	0.626800	0.593300	0.569310
H1221	H122	0.602000	0.603200	0.549400
C1831	C183	0.659940	0.635130	0.586870
C1841	C184	0.694400	0.616980	0.617050
H1231	H123	0.717400	0.643400	0.630100
C1851	C185	0.694400	0.559700	0.627690
H1241	H124	0.717200	0.548800	0.648400
C1861	C186	0.658430	0.696240	0.574590
C1871	C187	0.653520	0.719170	0.538570
C1881	C188	0.655430	0.685600	0.502180
C1891	C189	0.705500	0.665000	0.488260
H1251	H125	0.739800	0.671200	0.501400
C1901	C190	0.705400	0.634100	0.453720
H1261	H126	0.740200	0.618600	0.445400
N321	N32	0.659570	0.625600	0.432190
C1911	C191	0.612000	0.646400	0.445770
H1271	H127	0.578600	0.641100	0.431500
C1921	C192	0.607200	0.676100	0.480410
H1281	H128	0.571400	0.689400	0.488600
N331	N33	0.769540	0.914030	0.360260
C1931	C193	0.786600	0.880800	0.331440
H1291	H129	0.758900	0.858900	0.318700
C1941	C194	0.843300	0.876800	0.319310
H1301	H130	0.853200	0.852000	0.299400
C1951	C195	0.885130	0.909940	0.336870
C1961	C196	0.866980	0.944400	0.367050
H1311	H131	0.893400	0.967400	0.380100
C1971	C197	0.809700	0.944400	0.377690
H1321	H132	0.798800	0.967200	0.398400
C1981	C198	0.946240	0.908430	0.324590
C1991	C199	0.969170	0.903520	0.288570
C2001	C200	0.935600	0.905430	0.252180
C2011	C201	0.915000	0.955500	0.238260
H1331	H133	0.921200	0.989800	0.251400
C2021	C202	0.884100	0.955400	0.203720
H1341	H134	0.868600	0.990200	0.195400
N341	N34	0.875600	0.909570	0.182190
C2031	C203	0.896400	0.862000	0.195770
H1351	H135	0.891100	0.828600	0.181500
C2041	C204	0.926100	0.857200	0.230410
H1361	H136	0.939400	0.821400	0.238600
N351	N35	0.269540	0.414030	0.860260
C2051	C205	0.286600	0.380800	0.831440
H1371	H137	0.258900	0.358900	0.818700
C2061	C206	0.343300	0.376800	0.819310
H1381	H138	0.353200	0.352000	0.799400
C2071	C207	0.385130	0.409940	0.836870
C2081	C208	0.366980	0.444400	0.867050
H1391	H139	0.393400	0.467400	0.880100
C2091	C209	0.309700	0.444400	0.877690
H1401	H140	0.298800	0.467200	0.898400
C2101	C210	0.446240	0.408430	0.824590
C2111	C211	0.469170	0.403520	0.788570
C2121	C212	0.435600	0.405430	0.752180
C2131	C213	0.415000	0.455500	0.738260
H1411	H141	0.421200	0.489800	0.751400
C2141	C214	0.384100	0.455400	0.703720
H1421	H142	0.368600	0.490200	0.695400
N361	N36	0.375600	0.409570	0.682190
C2151	C215	0.396400	0.362000	0.695770
H1431	H143	0.391100	0.328600	0.681500
C2161	C216	0.426100	0.357200	0.730410
H1441	H144	0.439400	0.321400	0.738600
N371	N37	0.730460	0.085970	0.860260
C2171	C217	0.713400	0.119200	0.831440
H1451	H145	0.741100	0.141100	0.818700
C2181	C218	0.656700	0.123200	0.819310
H1461	H146	0.646800	0.148000	0.799400
C2191	C219	0.614870	0.090060	0.836870
C2201	C220	0.633020	0.055600	0.867050
H1471	H147	0.606600	0.032600	0.880100
C2211	C221	0.690300	0.055600	0.877690
H1481	H148	0.701200	0.032800	0.898400
C2221	C222	0.553760	0.091570	0.824590
C2231	C223	0.530830	0.096480	0.788570
C2241	C224	0.564400	0.094570	0.752180
C2251	C225	0.585000	0.044500	0.738260
H1491	H149	0.578800	0.010200	0.751400
C2261	C226	0.615900	0.044600	0.703720
H1501	H150	0.631400	0.009800	0.695400
N381	N38	0.624400	0.090430	0.682190
C2271	C227	0.603600	0.138000	0.695770
H1511	H151	0.608900	0.171400	0.681500
C2281	C228	0.573900	0.142800	0.730410
H1521	H152	0.560600	0.178600	0.738600
N391	N39	0.230460	0.585970	0.360260
C2291	C229	0.213400	0.619200	0.331440
H1531	H153	0.241100	0.641100	0.318700
C2301	C230	0.156700	0.623200	0.319310
H1541	H154	0.146800	0.648000	0.299400
C2311	C231	0.114870	0.590060	0.336870
C2321	C232	0.133020	0.555600	0.367050
H1551	H155	0.106600	0.532600	0.380100
C2331	C233	0.190300	0.555600	0.377690
H1561	H156	0.201200	0.532800	0.398400
C2341	C234	0.053760	0.591570	0.324590
C2351	C235	0.030830	0.596480	0.288570
C2361	C236	0.064400	0.594570	0.252180
C2371	C237	0.085000	0.544500	0.238260
H1571	H157	0.078800	0.510200	0.251400
C2381	C238	0.115900	0.544600	0.203720
H1581	H158	0.131400	0.509800	0.195400
N401	N40	0.124400	0.590430	0.182190
C2391	C239	0.103600	0.638000	0.195770
H1591	H159	0.108900	0.671400	0.181500
C2401	C240	0.073900	0.642800	0.230410
H1601	H160	0.060600	0.678600	0.238600
N411	N41	0.835970	0.019540	0.110260
C2411	C241	0.869200	0.036600	0.081440
H1611	H161	0.891100	0.008900	0.068700
C2421	C242	0.873200	0.093300	0.069310
H1621	H162	0.898000	0.103200	0.049400
C2431	C243	0.840060	0.135130	0.086870
C2441	C244	0.805600	0.116980	0.117050
H1631	H163	0.782600	0.143400	0.130100
C2451	C245	0.805600	0.059700	0.127690
H1641	H164	0.782800	0.048800	0.148400
C2461	C246	0.841570	0.196240	0.074590
C2471	C247	0.846480	0.219170	0.038570
C2481	C248	0.844570	0.185600	0.002180
C2491	C249	0.794500	0.165000	0.988260
H1651	H165	0.760200	0.171200	0.001400
C2501	C250	0.794600	0.134100	0.953720
H1661	H166	0.759800	0.118600	0.945400
N421	N42	0.840430	0.125600	0.932190
C2511	C251	0.888000	0.146400	0.945770
H1671	H167	0.921400	0.141100	0.931500
C2521	C252	0.892800	0.176100	0.980410
H1681	H168	0.928600	0.189400	0.988600
N431	N43	0.335970	0.519540	0.610260
C2531	C253	0.369200	0.536600	0.581440
H1691	H169	0.391100	0.508900	0.568700
C2541	C254	0.373200	0.593300	0.569310
H1701	H170	0.398000	0.603200	0.549400
C2551	C255	0.340060	0.635130	0.586870
C2561	C256	0.305600	0.616980	0.617050
H1711	H171	0.282600	0.643400	0.630100
C2571	C257	0.305600	0.559700	0.627690
H1721	H172	0.282800	0.548800	0.648400
C2581	C258	0.341570	0.696240	0.574590
C2591	C259	0.346480	0.719170	0.538570
C2601	C260	0.344570	0.685600	0.502180
C2611	C261	0.294500	0.665000	0.488260
H1731	H173	0.260200	0.671200	0.501400
C2621	C262	0.294600	0.634100	0.453720
H1741	H174	0.259800	0.618600	0.445400
N441	N44	0.340430	0.625600	0.432190
C2631	C263	0.388000	0.646400	0.445770
H1751	H175	0.421400	0.641100	0.431500
C2641	C264	0.392800	0.676100	0.480410
H1761	H176	0.428600	0.689400	0.488600
N451	N45	0.664030	0.980460	0.610260
C2651	C265	0.630800	0.963400	0.581440
H1771	H177	0.608900	0.991100	0.568700
C2661	C266	0.626800	0.906700	0.569310
H1781	H178	0.602000	0.896800	0.549400
C2671	C267	0.659940	0.864870	0.586870
C2681	C268	0.694400	0.883020	0.617050
H1791	H179	0.717400	0.856600	0.630100
C2691	C269	0.694400	0.940300	0.627690
H1801	H180	0.717200	0.951200	0.648400
C2701	C270	0.658430	0.803760	0.574590
C2711	C271	0.653520	0.780830	0.538570
C2721	C272	0.655430	0.814400	0.502180
C2731	C273	0.705500	0.835000	0.488260
H1811	H181	0.739800	0.828800	0.501400
C2741	C274	0.705400	0.865900	0.453720
H1821	H182	0.740200	0.881400	0.445400
N461	N46	0.659570	0.874400	0.432190
C2751	C275	0.612000	0.853600	0.445770
H1831	H183	0.578600	0.858900	0.431500
C2761	C276	0.607200	0.823900	0.480410
H1841	H184	0.571400	0.810600	0.488600
N471	N47	0.164030	0.480460	0.110260
C2771	C277	0.130800	0.463400	0.081440
H1851	H185	0.108900	0.491100	0.068700
C2781	C278	0.126800	0.406700	0.069310
H1861	H186	0.102000	0.396800	0.049400
C2791	C279	0.159940	0.364870	0.086870
C2801	C280	0.194400	0.383020	0.117050
H1871	H187	0.217400	0.356600	0.130100
C2811	C281	0.194400	0.440300	0.127690
H1881	H188	0.217200	0.451200	0.148400
C2821	C282	0.158430	0.303760	0.074590
C2831	C283	0.153520	0.280830	0.038570
C2841	C284	0.155430	0.314400	0.002180
C2851	C285	0.205500	0.335000	0.988260
H1891	H189	0.239800	0.328800	0.001400
C2861	C286	0.205400	0.365900	0.953720
H1901	H190	0.240200	0.381400	0.945400
N481	N48	0.159570	0.374400	0.932190
C2871	C287	0.112000	0.353600	0.945770
H1911	H191	0.078600	0.358900	0.931500
C2881	C288	0.107200	0.323900	0.980410
H1921	H192	0.071400	0.310600	0.988600
N491	N49	0.730460	0.914030	0.139740
C2891	C289	0.713400	0.880800	0.168560
H1931	H193	0.741100	0.858900	0.181300
C2901	C290	0.656700	0.876800	0.180690
H1941	H194	0.646800	0.852000	0.200600
C2911	C291	0.614870	0.909940	0.163130
C2921	C292	0.633020	0.944400	0.132950
H1951	H195	0.606600	0.967400	0.119900
C2931	C293	0.690300	0.944400	0.122310
H1961	H196	0.701200	0.967200	0.101600
C2941	C294	0.553760	0.908430	0.175410
C2951	C295	0.530830	0.903520	0.211430
C2961	C296	0.564400	0.905430	0.247820
C2971	C297	0.585000	0.955500	0.261740
H1971	H197	0.578800	0.989800	0.248600
C2981	C298	0.615900	0.955400	0.296280
H1981	H198	0.631400	0.990200	0.304600
N501	N50	0.624400	0.909570	0.317810
C2991	C299	0.603600	0.862000	0.304230
H1991	H199	0.608900	0.828600	0.318500
C3001	C300	0.573900	0.857200	0.269590
H2001	H200	0.560600	0.821400	0.261400
N511	N51	0.230460	0.414030	0.639740
C3011	C301	0.213400	0.380800	0.668560
H2011	H201	0.241100	0.358900	0.681300
C3021	C302	0.156700	0.376800	0.680690
H2021	H202	0.146800	0.352000	0.700600
C3031	C303	0.114870	0.409940	0.663130
C3041	C304	0.133020	0.444400	0.632950
H2031	H203	0.106600	0.467400	0.619900
C3051	C305	0.190300	0.444400	0.622310
H2041	H204	0.201200	0.467200	0.601600
C3061	C306	0.053760	0.408430	0.675410
C3071	C307	0.030830	0.403520	0.711430
C3081	C308	0.064400	0.405430	0.747820
C3091	C309	0.085000	0.455500	0.761740
H2051	H205	0.078800	0.489800	0.748600
C3101	C310	0.115900	0.455400	0.796280
H2061	H206	0.131400	0.490200	0.804600
N521	N52	0.124400	0.409570	0.817810
C3111	C311	0.103600	0.362000	0.804230
H2071	H207	0.108900	0.328600	0.818500
C3121	C312	0.073900	0.357200	0.769590
H2081	H208	0.060600	0.321400	0.761400
N531	N53	0.769540	0.085970	0.639740
C3131	C313	0.786600	0.119200	0.668560
H2091	H209	0.758900	0.141100	0.681300
C3141	C314	0.843300	0.123200	0.680690
H2101	H210	0.853200	0.148000	0.700600
C3151	C315	0.885130	0.090060	0.663130
C3161	C316	0.866980	0.055600	0.632950
H2111	H211	0.893400	0.032600	0.619900
C3171	C317	0.809700	0.055600	0.622310
H2121	H212	0.798800	0.032800	0.601600
C3181	C318	0.946240	0.091570	0.675410
C3191	C319	0.969170	0.096480	0.711430
C3201	C320	0.935600	0.094570	0.747820
C3211	C321	0.915000	0.044500	0.761740
H2131	H213	0.921200	0.010200	0.748600
C3221	C322	0.884100	0.044600	0.796280
H2141	H214	0.868600	0.009800	0.804600
N541	N54	0.875600	0.090430	0.817810
C3231	C323	0.896400	0.138000	0.804230
H2151	H215	0.891100	0.171400	0.818500
C3241	C324	0.926100	0.142800	0.769590
H2161	H216	0.939400	0.178600	0.761400
N551	N55	0.269540	0.585970	0.139740
C3251	C325	0.286600	0.619200	0.168560
H2171	H217	0.258900	0.641100	0.181300
C3261	C326	0.343300	0.623200	0.180690
H2181	H218	0.353200	0.648000	0.200600
C3271	C327	0.385130	0.590060	0.163130
C3281	C328	0.366980	0.555600	0.132950
H2191	H219	0.393400	0.532600	0.119900
C3291	C329	0.309700	0.555600	0.122310
H2201	H220	0.298800	0.532800	0.101600
C3301	C330	0.446240	0.591570	0.175410
C3311	C331	0.469170	0.596480	0.211430
C3321	C332	0.435600	0.594570	0.247820
C3331	C333	0.415000	0.544500	0.261740
H2211	H221	0.421200	0.510200	0.248600
C3341	C334	0.384100	0.544600	0.296280
H2221	H222	0.368600	0.509800	0.304600
N561	N56	0.375600	0.590430	0.317810
C3351	C335	0.396400	0.638000	0.304230
H2231	H223	0.391100	0.671400	0.318500
C3361	C336	0.426100	0.642800	0.269590
H2241	H224	0.439400	0.678600	0.261400
N571	N57	0.664030	0.019540	0.389740
C3371	C337	0.630800	0.036600	0.418560
H2251	H225	0.608900	0.008900	0.431300
C3381	C338	0.626800	0.093300	0.430690
H2261	H226	0.602000	0.103200	0.450600
C3391	C339	0.659940	0.135130	0.413130
C3401	C340	0.694400	0.116980	0.382950
H2271	H227	0.717400	0.143400	0.369900
C3411	C341	0.694400	0.059700	0.372310
H2281	H228	0.717200	0.048800	0.351600
C3421	C342	0.658430	0.196240	0.425410
C3431	C343	0.653520	0.219170	0.461430
C3441	C344	0.655430	0.185600	0.497820
C3451	C345	0.705500	0.165000	0.511740
H2291	H229	0.739800	0.171200	0.498600
C3461	C346	0.705400	0.134100	0.546280
H2301	H230	0.740200	0.118600	0.554600
N581	N58	0.659570	0.125600	0.567810
C3471	C347	0.612000	0.146400	0.554230
H2311	H231	0.578600	0.141100	0.568500
C3481	C348	0.607200	0.176100	0.519590
H2321	H232	0.571400	0.189400	0.511400
N591	N59	0.164030	0.519540	0.889740
C3491	C349	0.130800	0.536600	0.918560
H2331	H233	0.108900	0.508900	0.931300
C3501	C350	0.126800	0.593300	0.930690
H2341	H234	0.102000	0.603200	0.950600
C3511	C351	0.159940	0.635130	0.913130
C3521	C352	0.194400	0.616980	0.882950
H2351	H235	0.217400	0.643400	0.869900
C3531	C353	0.194400	0.559700	0.872310
H2361	H236	0.217200	0.548800	0.851600
C3541	C354	0.158430	0.696240	0.925410
C3551	C355	0.153520	0.719170	0.961430
C3561	C356	0.155430	0.685600	0.997820
C3571	C357	0.205500	0.665000	0.011740
H2371	H237	0.239800	0.671200	0.998600
C3581	C358	0.205400	0.634100	0.046280
H2381	H238	0.240200	0.618600	0.054600
N601	N60	0.159570	0.625600	0.067810
C3591	C359	0.112000	0.646400	0.054230
H2391	H239	0.078600	0.641100	0.068500
C3601	C360	0.107200	0.676100	0.019590
H2401	H240	0.071400	0.689400	0.011400
N611	N61	0.835970	0.980460	0.889740
C3611	C361	0.869200	0.963400	0.918560
H2411	H241	0.891100	0.991100	0.931300
C3621	C362	0.873200	0.906700	0.930690
H2421	H242	0.898000	0.896800	0.950600
C3631	C363	0.840060	0.864870	0.913130
C3641	C364	0.805600	0.883020	0.882950
H2431	H243	0.782600	0.856600	0.869900
C3651	C365	0.805600	0.940300	0.872310
H2441	H244	0.782800	0.951200	0.851600
C3661	C366	0.841570	0.803760	0.925410
C3671	C367	0.846480	0.780830	0.961430
C3681	C368	0.844570	0.814400	0.997820
C3691	C369	0.794500	0.835000	0.011740
H2451	H245	0.760200	0.828800	0.998600
C3701	C370	0.794600	0.865900	0.046280
H2461	H246	0.759800	0.881400	0.054600
N621	N62	0.840430	0.874400	0.067810
C3711	C371	0.888000	0.853600	0.054230
H2471	H247	0.921400	0.858900	0.068500
C3721	C372	0.892800	0.823900	0.019590
H2481	H248	0.928600	0.810600	0.011400
N631	N63	0.335970	0.480460	0.389740
C3731	C373	0.369200	0.463400	0.418560
H2491	H249	0.391100	0.491100	0.431300
C3741	C374	0.373200	0.406700	0.430690
H2501	H250	0.398000	0.396800	0.450600
C3751	C375	0.340060	0.364870	0.413130
C3761	C376	0.305600	0.383020	0.382950
H2511	H251	0.282600	0.356600	0.369900
C3771	C377	0.305600	0.440300	0.372310
H2521	H252	0.282800	0.451200	0.351600
C3781	C378	0.341570	0.303760	0.425410
C3791	C379	0.346480	0.280830	0.461430
C3801	C380	0.344570	0.314400	0.497820
C3811	C381	0.294500	0.335000	0.511740
H2531	H253	0.260200	0.328800	0.498600
C3821	C382	0.294600	0.365900	0.546280
H2541	H254	0.259800	0.381400	0.554600
N641	N64	0.340430	0.374400	0.567810
C3831	C383	0.388000	0.353600	0.554230
H2551	H255	0.421400	0.358900	0.568500
C3841	C384	0.392800	0.323900	0.519590
H2561	H256	0.428600	0.310600	0.511400
Ag11	Ag1	0.330500	0.080500	0.625000
Ag21	Ag2	0.830500	0.580500	0.125000
Ag31	Ag3	0.169500	0.919500	0.125000
Ag41	Ag4	0.669500	0.419500	0.625000
Ag51	Ag5	0.169500	0.080500	0.875000
Ag61	Ag6	0.669500	0.580500	0.375000
Ag71	Ag7	0.330500	0.919500	0.375000
Ag81	Ag8	0.830500	0.419500	0.875000
Ag91	Ag9	0.669500	0.919500	0.375000
Ag101	Ag10	0.169500	0.419500	0.875000
Ag111	Ag11	0.830500	0.080500	0.875000
Ag121	Ag12	0.330500	0.580500	0.375000
Ag131	Ag13	0.830500	0.919500	0.125000
Ag141	Ag14	0.330500	0.419500	0.625000
Ag151	Ag15	0.669500	0.080500	0.625000
Ag161	Ag16	0.169500	0.580500	0.125000
S11	S1	0.000000	0.087960	0.640760
S21	S2	0.500000	0.587960	0.140760
S31	S3	0.500000	0.912040	0.140760
S41	S4	0.000000	0.412040	0.640760
S51	S5	0.162040	0.750000	0.890760
S61	S6	0.337960	0.250000	0.390760
S71	S7	0.500000	0.087960	0.859240
S81	S8	0.000000	0.587960	0.359240
S91	S9	0.000000	0.912040	0.359240
S101	S10	0.500000	0.412040	0.859240
S111	S11	0.337960	0.750000	0.609240
S121	S12	0.162040	0.250000	0.109240
S131	S13	0.837960	0.250000	0.109240
S141	S14	0.662040	0.750000	0.609240
S151	S15	0.662040	0.250000	0.390760
S161	S16	0.837960	0.750000	0.890760
