data_AVIVEG_freeONLY_PM
_symmetry_space_group_name_H-M	'P1'
_cell_length_a	22.636000
_cell_length_b	22.636000
_cell_length_c	35.393000
_cell_angle_alpha	90.000000
_cell_angle_beta	90.000000
_cell_angle_gamma	90.000000
_symmetry_Int_Tables_number 1

loop_
_symmetry_equiv_pos_as_xyz
'x,y,z'

loop_
_atom_site_label
_atom_site_type_symbol
_atom_site_fract_x
_atom_site_fract_y
_atom_site_fract_z
N11	N1	0.235120	0.091940	0.640490
C11	C1	0.217330	0.124850	0.669540
H11	H1	0.245500	0.147300	0.682200
C21	C2	0.160350	0.127730	0.681930
H21	H2	0.150500	0.151700	0.702300
C31	C3	0.117300	0.094690	0.663910
C41	C4	0.134780	0.060160	0.633800
H31	H3	0.107400	0.037400	0.620800
C51	C5	0.194110	0.059890	0.623170
H41	H4	0.205500	0.036100	0.603000
C61	C6	0.054780	0.095830	0.675990
C71	C7	0.031440	0.100070	0.711440
C81	C8	0.065190	0.099510	0.747340
C91	C9	0.083240	0.047640	0.763050
H51	H5	0.076600	0.012100	0.750600
C101	C10	0.111620	0.048340	0.797820
H61	H6	0.122800	0.012300	0.808200
N21	N2	0.123800	0.096210	0.817050
C111	C11	0.107590	0.146060	0.801300
H71	H7	0.116500	0.181200	0.813700
C121	C12	0.077820	0.149060	0.767190
H81	H8	0.066300	0.185700	0.757800
N31	N3	0.735120	0.591940	0.140490
C131	C13	0.717330	0.624850	0.169540
H91	H9	0.745500	0.647300	0.182200
C141	C14	0.660350	0.627730	0.181930
H101	H10	0.650500	0.651700	0.202300
C151	C15	0.617300	0.594690	0.163910
C161	C16	0.634780	0.560160	0.133800
H111	H11	0.607400	0.537400	0.120800
C171	C17	0.694110	0.559890	0.123170
H121	H12	0.705500	0.536100	0.103000
C181	C18	0.554780	0.595830	0.175990
C191	C19	0.531440	0.600070	0.211440
C201	C20	0.565190	0.599510	0.247340
C211	C21	0.583240	0.547640	0.263050
H131	H13	0.576600	0.512100	0.250600
C221	C22	0.611620	0.548340	0.297820
H141	H14	0.622800	0.512300	0.308200
N41	N4	0.623800	0.596210	0.317050
C231	C23	0.607590	0.646060	0.301300
H151	H15	0.616500	0.681200	0.313700
C241	C24	0.577820	0.649060	0.267190
H161	H16	0.566300	0.685700	0.257800
N51	N5	0.264880	0.908060	0.140490
C251	C25	0.282670	0.875150	0.169540
H171	H17	0.254500	0.852700	0.182200
C261	C26	0.339650	0.872270	0.181930
H181	H18	0.349500	0.848300	0.202300
C271	C27	0.382700	0.905310	0.163910
C281	C28	0.365220	0.939840	0.133800
H191	H19	0.392600	0.962600	0.120800
C291	C29	0.305890	0.940110	0.123170
H201	H20	0.294500	0.963900	0.103000
C301	C30	0.445220	0.904170	0.175990
C311	C31	0.468560	0.899930	0.211440
C321	C32	0.434810	0.900490	0.247340
C331	C33	0.416760	0.952360	0.263050
H211	H21	0.423400	0.987900	0.250600
C341	C34	0.388380	0.951660	0.297820
H221	H22	0.377200	0.987700	0.308200
N61	N6	0.376200	0.903790	0.317050
C351	C35	0.392410	0.853940	0.301300
H231	H23	0.383500	0.818800	0.313700
C361	C36	0.422180	0.850940	0.267190
H241	H24	0.433700	0.814300	0.257800
N71	N7	0.764880	0.408060	0.640490
C371	C37	0.782670	0.375150	0.669540
H251	H25	0.754500	0.352700	0.682200
C381	C38	0.839650	0.372270	0.681930
H261	H26	0.849500	0.348300	0.702300
C391	C39	0.882700	0.405310	0.663910
C401	C40	0.865220	0.439840	0.633800
H271	H27	0.892600	0.462600	0.620800
C411	C41	0.805890	0.440110	0.623170
H281	H28	0.794500	0.463900	0.603000
C421	C42	0.945220	0.404170	0.675990
C431	C43	0.968560	0.399930	0.711440
C441	C44	0.934810	0.400490	0.747340
C451	C45	0.916760	0.452360	0.763050
H291	H29	0.923400	0.487900	0.750600
C461	C46	0.888380	0.451660	0.797820
H301	H30	0.877200	0.487700	0.808200
N81	N8	0.876200	0.403790	0.817050
C471	C47	0.892410	0.353940	0.801300
H311	H31	0.883500	0.318800	0.813700
C481	C48	0.922180	0.350940	0.767190
H321	H32	0.933700	0.314300	0.757800
N91	N9	0.158060	0.985120	0.890490
C491	C49	0.125150	0.967330	0.919540
H331	H33	0.102700	0.995500	0.932200
C501	C50	0.122270	0.910350	0.931930
H341	H34	0.098300	0.900500	0.952300
C511	C51	0.155310	0.867300	0.913910
C521	C52	0.189840	0.884780	0.883800
H351	H35	0.212600	0.857400	0.870800
C531	C53	0.190110	0.944110	0.873170
H361	H36	0.213900	0.955500	0.853000
C541	C54	0.154170	0.804780	0.925990
C551	C55	0.149930	0.781440	0.961440
C561	C56	0.150490	0.815190	0.997340
C571	C57	0.202360	0.833240	0.013050
H371	H37	0.237900	0.826600	0.000600
C581	C58	0.201660	0.861620	0.047820
H381	H38	0.237700	0.872800	0.058200
N101	N10	0.153790	0.873800	0.067050
C591	C59	0.103940	0.857590	0.051300
H391	H39	0.068800	0.866500	0.063700
C601	C60	0.100940	0.827820	0.017190
H401	H40	0.064300	0.816300	0.007800
N111	N11	0.658060	0.485120	0.390490
C611	C61	0.625150	0.467330	0.419540
H411	H41	0.602700	0.495500	0.432200
C621	C62	0.622270	0.410350	0.431930
H421	H42	0.598300	0.400500	0.452300
C631	C63	0.655310	0.367300	0.413910
C641	C64	0.689840	0.384780	0.383800
H431	H43	0.712600	0.357400	0.370800
C651	C65	0.690110	0.444110	0.373170
H441	H44	0.713900	0.455500	0.353000
C661	C66	0.654170	0.304780	0.425990
C671	C67	0.649930	0.281440	0.461440
C681	C68	0.650490	0.315190	0.497340
C691	C69	0.702360	0.333240	0.513050
H451	H45	0.737900	0.326600	0.500600
C701	C70	0.701660	0.361620	0.547820
H461	H46	0.737700	0.372800	0.558200
N121	N12	0.653790	0.373800	0.567050
C711	C71	0.603940	0.357590	0.551300
H471	H47	0.568800	0.366500	0.563700
C721	C72	0.600940	0.327820	0.517190
H481	H48	0.564300	0.316300	0.507800
N131	N13	0.341940	0.014880	0.390490
C731	C73	0.374850	0.032670	0.419540
H491	H49	0.397300	0.004500	0.432200
C741	C74	0.377730	0.089650	0.431930
H501	H50	0.401700	0.099500	0.452300
C751	C75	0.344690	0.132700	0.413910
C761	C76	0.310160	0.115220	0.383800
H511	H51	0.287400	0.142600	0.370800
C771	C77	0.309890	0.055890	0.373170
H521	H52	0.286100	0.044500	0.353000
C781	C78	0.345830	0.195220	0.425990
C791	C79	0.350070	0.218560	0.461440
C801	C80	0.349510	0.184810	0.497340
C811	C81	0.297640	0.166760	0.513050
H531	H53	0.262100	0.173400	0.500600
C821	C82	0.298340	0.138380	0.547820
H541	H54	0.262300	0.127200	0.558200
N141	N14	0.346210	0.126200	0.567050
C831	C83	0.396060	0.142410	0.551300
H551	H55	0.431200	0.133500	0.563700
C841	C84	0.399060	0.172180	0.517190
H561	H56	0.435700	0.183700	0.507800
N151	N15	0.841940	0.514880	0.890490
C851	C85	0.874850	0.532670	0.919540
H571	H57	0.897300	0.504500	0.932200
C861	C86	0.877730	0.589650	0.931930
H581	H58	0.901700	0.599500	0.952300
C871	C87	0.844690	0.632700	0.913910
C881	C88	0.810160	0.615220	0.883800
H591	H59	0.787400	0.642600	0.870800
C891	C89	0.809890	0.555890	0.873170
H601	H60	0.786100	0.544500	0.853000
C901	C90	0.845830	0.695220	0.925990
C911	C91	0.850070	0.718560	0.961440
C921	C92	0.849510	0.684810	0.997340
C931	C93	0.797640	0.666760	0.013050
H611	H61	0.762100	0.673400	0.000600
C941	C94	0.798340	0.638380	0.047820
H621	H62	0.762300	0.627200	0.058200
N161	N16	0.846210	0.626200	0.067050
C951	C95	0.896060	0.642410	0.051300
H631	H63	0.931200	0.633500	0.063700
C961	C96	0.899060	0.672180	0.017190
H641	H64	0.935700	0.683700	0.007800
N171	N17	0.264880	0.091940	0.859510
C971	C97	0.282670	0.124850	0.830460
H651	H65	0.254500	0.147300	0.817800
C981	C98	0.339650	0.127730	0.818070
H661	H66	0.349500	0.151700	0.797700
C991	C99	0.382700	0.094690	0.836090
C1001	C100	0.365220	0.060160	0.866200
H671	H67	0.392600	0.037400	0.879200
C1011	C101	0.305890	0.059890	0.876830
H681	H68	0.294500	0.036100	0.897000
C1021	C102	0.445220	0.095830	0.824010
C1031	C103	0.468560	0.100070	0.788560
C1041	C104	0.434810	0.099510	0.752660
C1051	C105	0.416760	0.047640	0.736950
H691	H69	0.423400	0.012100	0.749400
C1061	C106	0.388380	0.048340	0.702180
H701	H70	0.377200	0.012300	0.691800
N181	N18	0.376200	0.096210	0.682950
C1071	C107	0.392410	0.146060	0.698700
H711	H71	0.383500	0.181200	0.686300
C1081	C108	0.422180	0.149060	0.732810
H721	H72	0.433700	0.185700	0.742200
N191	N19	0.764880	0.591940	0.359510
C1091	C109	0.782670	0.624850	0.330460
H731	H73	0.754500	0.647300	0.317800
C1101	C110	0.839650	0.627730	0.318070
H741	H74	0.849500	0.651700	0.297700
C1111	C111	0.882700	0.594690	0.336090
C1121	C112	0.865220	0.560160	0.366200
H751	H75	0.892600	0.537400	0.379200
C1131	C113	0.805890	0.559890	0.376830
H761	H76	0.794500	0.536100	0.397000
C1141	C114	0.945220	0.595830	0.324010
C1151	C115	0.968560	0.600070	0.288560
C1161	C116	0.934810	0.599510	0.252660
C1171	C117	0.916760	0.547640	0.236950
H771	H77	0.923400	0.512100	0.249400
C1181	C118	0.888380	0.548340	0.202180
H781	H78	0.877200	0.512300	0.191800
N201	N20	0.876200	0.596210	0.182950
C1191	C119	0.892410	0.646060	0.198700
H791	H79	0.883500	0.681200	0.186300
C1201	C120	0.922180	0.649060	0.232810
H801	H80	0.933700	0.685700	0.242200
N211	N21	0.235120	0.908060	0.359510
C1211	C121	0.217330	0.875150	0.330460
H811	H81	0.245500	0.852700	0.317800
C1221	C122	0.160350	0.872270	0.318070
H821	H82	0.150500	0.848300	0.297700
C1231	C123	0.117300	0.905310	0.336090
C1241	C124	0.134780	0.939840	0.366200
H831	H83	0.107400	0.962600	0.379200
C1251	C125	0.194110	0.940110	0.376830
H841	H84	0.205500	0.963900	0.397000
C1261	C126	0.054780	0.904170	0.324010
C1271	C127	0.031440	0.899930	0.288560
C1281	C128	0.065190	0.900490	0.252660
C1291	C129	0.083240	0.952360	0.236950
H851	H85	0.076600	0.987900	0.249400
C1301	C130	0.111620	0.951660	0.202180
H861	H86	0.122800	0.987700	0.191800
N221	N22	0.123800	0.903790	0.182950
C1311	C131	0.107590	0.853940	0.198700
H871	H87	0.116500	0.818800	0.186300
C1321	C132	0.077820	0.850940	0.232810
H881	H88	0.066300	0.814300	0.242200
N231	N23	0.735120	0.408060	0.859510
C1331	C133	0.717330	0.375150	0.830460
H891	H89	0.745500	0.352700	0.817800
C1341	C134	0.660350	0.372270	0.818070
H901	H90	0.650500	0.348300	0.797700
C1351	C135	0.617300	0.405310	0.836090
C1361	C136	0.634780	0.439840	0.866200
H911	H91	0.607400	0.462600	0.879200
C1371	C137	0.694110	0.440110	0.876830
H921	H92	0.705500	0.463900	0.897000
C1381	C138	0.554780	0.404170	0.824010
C1391	C139	0.531440	0.399930	0.788560
C1401	C140	0.565190	0.400490	0.752660
C1411	C141	0.583240	0.452360	0.736950
H931	H93	0.576600	0.487900	0.749400
C1421	C142	0.611620	0.451660	0.702180
H941	H94	0.622800	0.487700	0.691800
N241	N24	0.623800	0.403790	0.682950
C1431	C143	0.607590	0.353940	0.698700
H951	H95	0.616500	0.318800	0.686300
C1441	C144	0.577820	0.350940	0.732810
H961	H96	0.566300	0.314300	0.742200
N251	N25	0.341940	0.985120	0.609510
C1451	C145	0.374850	0.967330	0.580460
H971	H97	0.397300	0.995500	0.567800
C1461	C146	0.377730	0.910350	0.568070
H981	H98	0.401700	0.900500	0.547700
C1471	C147	0.344690	0.867300	0.586090
C1481	C148	0.310160	0.884780	0.616200
H991	H99	0.287400	0.857400	0.629200
C1491	C149	0.309890	0.944110	0.626830
H1001	H100	0.286100	0.955500	0.647000
C1501	C150	0.345830	0.804780	0.574010
C1511	C151	0.350070	0.781440	0.538560
C1521	C152	0.349510	0.815190	0.502660
C1531	C153	0.297640	0.833240	0.486950
H1011	H101	0.262100	0.826600	0.499400
C1541	C154	0.298340	0.861620	0.452180
H1021	H102	0.262300	0.872800	0.441800
N261	N26	0.346210	0.873800	0.432950
C1551	C155	0.396060	0.857590	0.448700
H1031	H103	0.431200	0.866500	0.436300
C1561	C156	0.399060	0.827820	0.482810
H1041	H104	0.435700	0.816300	0.492200
N271	N27	0.841940	0.485120	0.109510
C1571	C157	0.874850	0.467330	0.080460
H1051	H105	0.897300	0.495500	0.067800
C1581	C158	0.877730	0.410350	0.068070
H1061	H106	0.901700	0.400500	0.047700
C1591	C159	0.844690	0.367300	0.086090
C1601	C160	0.810160	0.384780	0.116200
H1071	H107	0.787400	0.357400	0.129200
C1611	C161	0.809890	0.444110	0.126830
H1081	H108	0.786100	0.455500	0.147000
C1621	C162	0.845830	0.304780	0.074010
C1631	C163	0.850070	0.281440	0.038560
C1641	C164	0.849510	0.315190	0.002660
C1651	C165	0.797640	0.333240	0.986950
H1091	H109	0.762100	0.326600	0.999400
C1661	C166	0.798340	0.361620	0.952180
H1101	H110	0.762300	0.372800	0.941800
N281	N28	0.846210	0.373800	0.932950
C1671	C167	0.896060	0.357590	0.948700
H1111	H111	0.931200	0.366500	0.936300
C1681	C168	0.899060	0.327820	0.982810
H1121	H112	0.935700	0.316300	0.992200
N291	N29	0.158060	0.014880	0.109510
C1691	C169	0.125150	0.032670	0.080460
H1131	H113	0.102700	0.004500	0.067800
C1701	C170	0.122270	0.089650	0.068070
H1141	H114	0.098300	0.099500	0.047700
C1711	C171	0.155310	0.132700	0.086090
C1721	C172	0.189840	0.115220	0.116200
H1151	H115	0.212600	0.142600	0.129200
C1731	C173	0.190110	0.055890	0.126830
H1161	H116	0.213900	0.044500	0.147000
C1741	C174	0.154170	0.195220	0.074010
C1751	C175	0.149930	0.218560	0.038560
C1761	C176	0.150490	0.184810	0.002660
C1771	C177	0.202360	0.166760	0.986950
H1171	H117	0.237900	0.173400	0.999400
C1781	C178	0.201660	0.138380	0.952180
H1181	H118	0.237700	0.127200	0.941800
N301	N30	0.153790	0.126200	0.932950
C1791	C179	0.103940	0.142410	0.948700
H1191	H119	0.068800	0.133500	0.936300
C1801	C180	0.100940	0.172180	0.982810
H1201	H120	0.064300	0.183700	0.992200
N311	N31	0.658060	0.514880	0.609510
C1811	C181	0.625150	0.532670	0.580460
H1211	H121	0.602700	0.504500	0.567800
C1821	C182	0.622270	0.589650	0.568070
H1221	H122	0.598300	0.599500	0.547700
C1831	C183	0.655310	0.632700	0.586090
C1841	C184	0.689840	0.615220	0.616200
H1231	H123	0.712600	0.642600	0.629200
C1851	C185	0.690110	0.555890	0.626830
H1241	H124	0.713900	0.544500	0.647000
C1861	C186	0.654170	0.695220	0.574010
C1871	C187	0.649930	0.718560	0.538560
C1881	C188	0.650490	0.684810	0.502660
C1891	C189	0.702360	0.666760	0.486950
H1251	H125	0.737900	0.673400	0.499400
C1901	C190	0.701660	0.638380	0.452180
H1261	H126	0.737700	0.627200	0.441800
N321	N32	0.653790	0.626200	0.432950
C1911	C191	0.603940	0.642410	0.448700
H1271	H127	0.568800	0.633500	0.436300
C1921	C192	0.600940	0.672180	0.482810
H1281	H128	0.564300	0.683700	0.492200
N331	N33	0.764880	0.908060	0.359510
C1931	C193	0.782670	0.875150	0.330460
H1291	H129	0.754500	0.852700	0.317800
C1941	C194	0.839650	0.872270	0.318070
H1301	H130	0.849500	0.848300	0.297700
C1951	C195	0.882700	0.905310	0.336090
C1961	C196	0.865220	0.939840	0.366200
H1311	H131	0.892600	0.962600	0.379200
C1971	C197	0.805890	0.940110	0.376830
H1321	H132	0.794500	0.963900	0.397000
C1981	C198	0.945220	0.904170	0.324010
C1991	C199	0.968560	0.899930	0.288560
C2001	C200	0.934810	0.900490	0.252660
C2011	C201	0.916760	0.952360	0.236950
H1331	H133	0.923400	0.987900	0.249400
C2021	C202	0.888380	0.951660	0.202180
H1341	H134	0.877200	0.987700	0.191800
N341	N34	0.876200	0.903790	0.182950
C2031	C203	0.892410	0.853940	0.198700
H1351	H135	0.883500	0.818800	0.186300
C2041	C204	0.922180	0.850940	0.232810
H1361	H136	0.933700	0.814300	0.242200
N351	N35	0.264880	0.408060	0.859510
C2051	C205	0.282670	0.375150	0.830460
H1371	H137	0.254500	0.352700	0.817800
C2061	C206	0.339650	0.372270	0.818070
H1381	H138	0.349500	0.348300	0.797700
C2071	C207	0.382700	0.405310	0.836090
C2081	C208	0.365220	0.439840	0.866200
H1391	H139	0.392600	0.462600	0.879200
C2091	C209	0.305890	0.440110	0.876830
H1401	H140	0.294500	0.463900	0.897000
C2101	C210	0.445220	0.404170	0.824010
C2111	C211	0.468560	0.399930	0.788560
C2121	C212	0.434810	0.400490	0.752660
C2131	C213	0.416760	0.452360	0.736950
H1411	H141	0.423400	0.487900	0.749400
C2141	C214	0.388380	0.451660	0.702180
H1421	H142	0.377200	0.487700	0.691800
N361	N36	0.376200	0.403790	0.682950
C2151	C215	0.392410	0.353940	0.698700
H1431	H143	0.383500	0.318800	0.686300
C2161	C216	0.422180	0.350940	0.732810
H1441	H144	0.433700	0.314300	0.742200
N371	N37	0.735120	0.091940	0.859510
C2171	C217	0.717330	0.124850	0.830460
H1451	H145	0.745500	0.147300	0.817800
C2181	C218	0.660350	0.127730	0.818070
H1461	H146	0.650500	0.151700	0.797700
C2191	C219	0.617300	0.094690	0.836090
C2201	C220	0.634780	0.060160	0.866200
H1471	H147	0.607400	0.037400	0.879200
C2211	C221	0.694110	0.059890	0.876830
H1481	H148	0.705500	0.036100	0.897000
C2221	C222	0.554780	0.095830	0.824010
C2231	C223	0.531440	0.100070	0.788560
C2241	C224	0.565190	0.099510	0.752660
C2251	C225	0.583240	0.047640	0.736950
H1491	H149	0.576600	0.012100	0.749400
C2261	C226	0.611620	0.048340	0.702180
H1501	H150	0.622800	0.012300	0.691800
N381	N38	0.623800	0.096210	0.682950
C2271	C227	0.607590	0.146060	0.698700
H1511	H151	0.616500	0.181200	0.686300
C2281	C228	0.577820	0.149060	0.732810
H1521	H152	0.566300	0.185700	0.742200
N391	N39	0.235120	0.591940	0.359510
C2291	C229	0.217330	0.624850	0.330460
H1531	H153	0.245500	0.647300	0.317800
C2301	C230	0.160350	0.627730	0.318070
H1541	H154	0.150500	0.651700	0.297700
C2311	C231	0.117300	0.594690	0.336090
C2321	C232	0.134780	0.560160	0.366200
H1551	H155	0.107400	0.537400	0.379200
C2331	C233	0.194110	0.559890	0.376830
H1561	H156	0.205500	0.536100	0.397000
C2341	C234	0.054780	0.595830	0.324010
C2351	C235	0.031440	0.600070	0.288560
C2361	C236	0.065190	0.599510	0.252660
C2371	C237	0.083240	0.547640	0.236950
H1571	H157	0.076600	0.512100	0.249400
C2381	C238	0.111620	0.548340	0.202180
H1581	H158	0.122800	0.512300	0.191800
N401	N40	0.123800	0.596210	0.182950
C2391	C239	0.107590	0.646060	0.198700
H1591	H159	0.116500	0.681200	0.186300
C2401	C240	0.077820	0.649060	0.232810
H1601	H160	0.066300	0.685700	0.242200
N411	N41	0.841940	0.014880	0.109510
C2411	C241	0.874850	0.032670	0.080460
H1611	H161	0.897300	0.004500	0.067800
C2421	C242	0.877730	0.089650	0.068070
H1621	H162	0.901700	0.099500	0.047700
C2431	C243	0.844690	0.132700	0.086090
C2441	C244	0.810160	0.115220	0.116200
H1631	H163	0.787400	0.142600	0.129200
C2451	C245	0.809890	0.055890	0.126830
H1641	H164	0.786100	0.044500	0.147000
C2461	C246	0.845830	0.195220	0.074010
C2471	C247	0.850070	0.218560	0.038560
C2481	C248	0.849510	0.184810	0.002660
C2491	C249	0.797640	0.166760	0.986950
H1651	H165	0.762100	0.173400	0.999400
C2501	C250	0.798340	0.138380	0.952180
H1661	H166	0.762300	0.127200	0.941800
N421	N42	0.846210	0.126200	0.932950
C2511	C251	0.896060	0.142410	0.948700
H1671	H167	0.931200	0.133500	0.936300
C2521	C252	0.899060	0.172180	0.982810
H1681	H168	0.935700	0.183700	0.992200
N431	N43	0.341940	0.514880	0.609510
C2531	C253	0.374850	0.532670	0.580460
H1691	H169	0.397300	0.504500	0.567800
C2541	C254	0.377730	0.589650	0.568070
H1701	H170	0.401700	0.599500	0.547700
C2551	C255	0.344690	0.632700	0.586090
C2561	C256	0.310160	0.615220	0.616200
H1711	H171	0.287400	0.642600	0.629200
C2571	C257	0.309890	0.555890	0.626830
H1721	H172	0.286100	0.544500	0.647000
C2581	C258	0.345830	0.695220	0.574010
C2591	C259	0.350070	0.718560	0.538560
C2601	C260	0.349510	0.684810	0.502660
C2611	C261	0.297640	0.666760	0.486950
H1731	H173	0.262100	0.673400	0.499400
C2621	C262	0.298340	0.638380	0.452180
H1741	H174	0.262300	0.627200	0.441800
N441	N44	0.346210	0.626200	0.432950
C2631	C263	0.396060	0.642410	0.448700
H1751	H175	0.431200	0.633500	0.436300
C2641	C264	0.399060	0.672180	0.482810
H1761	H176	0.435700	0.683700	0.492200
N451	N45	0.658060	0.985120	0.609510
C2651	C265	0.625150	0.967330	0.580460
H1771	H177	0.602700	0.995500	0.567800
C2661	C266	0.622270	0.910350	0.568070
H1781	H178	0.598300	0.900500	0.547700
C2671	C267	0.655310	0.867300	0.586090
C2681	C268	0.689840	0.884780	0.616200
H1791	H179	0.712600	0.857400	0.629200
C2691	C269	0.690110	0.944110	0.626830
H1801	H180	0.713900	0.955500	0.647000
C2701	C270	0.654170	0.804780	0.574010
C2711	C271	0.649930	0.781440	0.538560
C2721	C272	0.650490	0.815190	0.502660
C2731	C273	0.702360	0.833240	0.486950
H1811	H181	0.737900	0.826600	0.499400
C2741	C274	0.701660	0.861620	0.452180
H1821	H182	0.737700	0.872800	0.441800
N461	N46	0.653790	0.873800	0.432950
C2751	C275	0.603940	0.857590	0.448700
H1831	H183	0.568800	0.866500	0.436300
C2761	C276	0.600940	0.827820	0.482810
H1841	H184	0.564300	0.816300	0.492200
N471	N47	0.158060	0.485120	0.109510
C2771	C277	0.125150	0.467330	0.080460
H1851	H185	0.102700	0.495500	0.067800
C2781	C278	0.122270	0.410350	0.068070
H1861	H186	0.098300	0.400500	0.047700
C2791	C279	0.155310	0.367300	0.086090
C2801	C280	0.189840	0.384780	0.116200
H1871	H187	0.212600	0.357400	0.129200
C2811	C281	0.190110	0.444110	0.126830
H1881	H188	0.213900	0.455500	0.147000
C2821	C282	0.154170	0.304780	0.074010
C2831	C283	0.149930	0.281440	0.038560
C2841	C284	0.150490	0.315190	0.002660
C2851	C285	0.202360	0.333240	0.986950
H1891	H189	0.237900	0.326600	0.999400
C2861	C286	0.201660	0.361620	0.952180
H1901	H190	0.237700	0.372800	0.941800
N481	N48	0.153790	0.373800	0.932950
C2871	C287	0.103940	0.357590	0.948700
H1911	H191	0.068800	0.366500	0.936300
C2881	C288	0.100940	0.327820	0.982810
H1921	H192	0.064300	0.316300	0.992200
N491	N49	0.735120	0.908060	0.140490
C2891	C289	0.717330	0.875150	0.169540
H1931	H193	0.745500	0.852700	0.182200
C2901	C290	0.660350	0.872270	0.181930
H1941	H194	0.650500	0.848300	0.202300
C2911	C291	0.617300	0.905310	0.163910
C2921	C292	0.634780	0.939840	0.133800
H1951	H195	0.607400	0.962600	0.120800
C2931	C293	0.694110	0.940110	0.123170
H1961	H196	0.705500	0.963900	0.103000
C2941	C294	0.554780	0.904170	0.175990
C2951	C295	0.531440	0.899930	0.211440
C2961	C296	0.565190	0.900490	0.247340
C2971	C297	0.583240	0.952360	0.263050
H1971	H197	0.576600	0.987900	0.250600
C2981	C298	0.611620	0.951660	0.297820
H1981	H198	0.622800	0.987700	0.308200
N501	N50	0.623800	0.903790	0.317050
C2991	C299	0.607590	0.853940	0.301300
H1991	H199	0.616500	0.818800	0.313700
C3001	C300	0.577820	0.850940	0.267190
H2001	H200	0.566300	0.814300	0.257800
N511	N51	0.235120	0.408060	0.640490
C3011	C301	0.217330	0.375150	0.669540
H2011	H201	0.245500	0.352700	0.682200
C3021	C302	0.160350	0.372270	0.681930
H2021	H202	0.150500	0.348300	0.702300
C3031	C303	0.117300	0.405310	0.663910
C3041	C304	0.134780	0.439840	0.633800
H2031	H203	0.107400	0.462600	0.620800
C3051	C305	0.194110	0.440110	0.623170
H2041	H204	0.205500	0.463900	0.603000
C3061	C306	0.054780	0.404170	0.675990
C3071	C307	0.031440	0.399930	0.711440
C3081	C308	0.065190	0.400490	0.747340
C3091	C309	0.083240	0.452360	0.763050
H2051	H205	0.076600	0.487900	0.750600
C3101	C310	0.111620	0.451660	0.797820
H2061	H206	0.122800	0.487700	0.808200
N521	N52	0.123800	0.403790	0.817050
C3111	C311	0.107590	0.353940	0.801300
H2071	H207	0.116500	0.318800	0.813700
C3121	C312	0.077820	0.350940	0.767190
H2081	H208	0.066300	0.314300	0.757800
N531	N53	0.764880	0.091940	0.640490
C3131	C313	0.782670	0.124850	0.669540
H2091	H209	0.754500	0.147300	0.682200
C3141	C314	0.839650	0.127730	0.681930
H2101	H210	0.849500	0.151700	0.702300
C3151	C315	0.882700	0.094690	0.663910
C3161	C316	0.865220	0.060160	0.633800
H2111	H211	0.892600	0.037400	0.620800
C3171	C317	0.805890	0.059890	0.623170
H2121	H212	0.794500	0.036100	0.603000
C3181	C318	0.945220	0.095830	0.675990
C3191	C319	0.968560	0.100070	0.711440
C3201	C320	0.934810	0.099510	0.747340
C3211	C321	0.916760	0.047640	0.763050
H2131	H213	0.923400	0.012100	0.750600
C3221	C322	0.888380	0.048340	0.797820
H2141	H214	0.877200	0.012300	0.808200
N541	N54	0.876200	0.096210	0.817050
C3231	C323	0.892410	0.146060	0.801300
H2151	H215	0.883500	0.181200	0.813700
C3241	C324	0.922180	0.149060	0.767190
H2161	H216	0.933700	0.185700	0.757800
N551	N55	0.264880	0.591940	0.140490
C3251	C325	0.282670	0.624850	0.169540
H2171	H217	0.254500	0.647300	0.182200
C3261	C326	0.339650	0.627730	0.181930
H2181	H218	0.349500	0.651700	0.202300
C3271	C327	0.382700	0.594690	0.163910
C3281	C328	0.365220	0.560160	0.133800
H2191	H219	0.392600	0.537400	0.120800
C3291	C329	0.305890	0.559890	0.123170
H2201	H220	0.294500	0.536100	0.103000
C3301	C330	0.445220	0.595830	0.175990
C3311	C331	0.468560	0.600070	0.211440
C3321	C332	0.434810	0.599510	0.247340
C3331	C333	0.416760	0.547640	0.263050
H2211	H221	0.423400	0.512100	0.250600
C3341	C334	0.388380	0.548340	0.297820
H2221	H222	0.377200	0.512300	0.308200
N561	N56	0.376200	0.596210	0.317050
C3351	C335	0.392410	0.646060	0.301300
H2231	H223	0.383500	0.681200	0.313700
C3361	C336	0.422180	0.649060	0.267190
H2241	H224	0.433700	0.685700	0.257800
N571	N57	0.658060	0.014880	0.390490
C3371	C337	0.625150	0.032670	0.419540
H2251	H225	0.602700	0.004500	0.432200
C3381	C338	0.622270	0.089650	0.431930
H2261	H226	0.598300	0.099500	0.452300
C3391	C339	0.655310	0.132700	0.413910
C3401	C340	0.689840	0.115220	0.383800
H2271	H227	0.712600	0.142600	0.370800
C3411	C341	0.690110	0.055890	0.373170
H2281	H228	0.713900	0.044500	0.353000
C3421	C342	0.654170	0.195220	0.425990
C3431	C343	0.649930	0.218560	0.461440
C3441	C344	0.650490	0.184810	0.497340
C3451	C345	0.702360	0.166760	0.513050
H2291	H229	0.737900	0.173400	0.500600
C3461	C346	0.701660	0.138380	0.547820
H2301	H230	0.737700	0.127200	0.558200
N581	N58	0.653790	0.126200	0.567050
C3471	C347	0.603940	0.142410	0.551300
H2311	H231	0.568800	0.133500	0.563700
C3481	C348	0.600940	0.172180	0.517190
H2321	H232	0.564300	0.183700	0.507800
N591	N59	0.158060	0.514880	0.890490
C3491	C349	0.125150	0.532670	0.919540
H2331	H233	0.102700	0.504500	0.932200
C3501	C350	0.122270	0.589650	0.931930
H2341	H234	0.098300	0.599500	0.952300
C3511	C351	0.155310	0.632700	0.913910
C3521	C352	0.189840	0.615220	0.883800
H2351	H235	0.212600	0.642600	0.870800
C3531	C353	0.190110	0.555890	0.873170
H2361	H236	0.213900	0.544500	0.853000
C3541	C354	0.154170	0.695220	0.925990
C3551	C355	0.149930	0.718560	0.961440
C3561	C356	0.150490	0.684810	0.997340
C3571	C357	0.202360	0.666760	0.013050
H2371	H237	0.237900	0.673400	0.000600
C3581	C358	0.201660	0.638380	0.047820
H2381	H238	0.237700	0.627200	0.058200
N601	N60	0.153790	0.626200	0.067050
C3591	C359	0.103940	0.642410	0.051300
H2391	H239	0.068800	0.633500	0.063700
C3601	C360	0.100940	0.672180	0.017190
H2401	H240	0.064300	0.683700	0.007800
N611	N61	0.841940	0.985120	0.890490
C3611	C361	0.874850	0.967330	0.919540
H2411	H241	0.897300	0.995500	0.932200
C3621	C362	0.877730	0.910350	0.931930
H2421	H242	0.901700	0.900500	0.952300
C3631	C363	0.844690	0.867300	0.913910
C3641	C364	0.810160	0.884780	0.883800
H2431	H243	0.787400	0.857400	0.870800
C3651	C365	0.809890	0.944110	0.873170
H2441	H244	0.786100	0.955500	0.853000
C3661	C366	0.845830	0.804780	0.925990
C3671	C367	0.850070	0.781440	0.961440
C3681	C368	0.849510	0.815190	0.997340
C3691	C369	0.797640	0.833240	0.013050
H2451	H245	0.762100	0.826600	0.000600
C3701	C370	0.798340	0.861620	0.047820
H2461	H246	0.762300	0.872800	0.058200
N621	N62	0.846210	0.873800	0.067050
C3711	C371	0.896060	0.857590	0.051300
H2471	H247	0.931200	0.866500	0.063700
C3721	C372	0.899060	0.827820	0.017190
H2481	H248	0.935700	0.816300	0.007800
N631	N63	0.341940	0.485120	0.390490
C3731	C373	0.374850	0.467330	0.419540
H2491	H249	0.397300	0.495500	0.432200
C3741	C374	0.377730	0.410350	0.431930
H2501	H250	0.401700	0.400500	0.452300
C3751	C375	0.344690	0.367300	0.413910
C3761	C376	0.310160	0.384780	0.383800
H2511	H251	0.287400	0.357400	0.370800
C3771	C377	0.309890	0.444110	0.373170
H2521	H252	0.286100	0.455500	0.353000
C3781	C378	0.345830	0.304780	0.425990
C3791	C379	0.350070	0.281440	0.461440
C3801	C380	0.349510	0.315190	0.497340
C3811	C381	0.297640	0.333240	0.513050
H2531	H253	0.262100	0.326600	0.500600
C3821	C382	0.298340	0.361620	0.547820
H2541	H254	0.262300	0.372800	0.558200
N641	N64	0.346210	0.373800	0.567050
C3831	C383	0.396060	0.357590	0.551300
H2551	H255	0.431200	0.366500	0.563700
C3841	C384	0.399060	0.327820	0.517190
H2561	H256	0.435700	0.316300	0.507800
Ag11	Ag1	0.336710	0.086710	0.625000
Ag21	Ag2	0.836710	0.586710	0.125000
Ag31	Ag3	0.163290	0.913290	0.125000
Ag41	Ag4	0.663290	0.413290	0.625000
Ag51	Ag5	0.163290	0.086710	0.875000
Ag61	Ag6	0.663290	0.586710	0.375000
Ag71	Ag7	0.336710	0.913290	0.375000
Ag81	Ag8	0.836710	0.413290	0.875000
Ag91	Ag9	0.663290	0.913290	0.375000
Ag101	Ag10	0.163290	0.413290	0.875000
Ag111	Ag11	0.836710	0.086710	0.875000
Ag121	Ag12	0.336710	0.586710	0.375000
Ag131	Ag13	0.836710	0.913290	0.125000
Ag141	Ag14	0.336710	0.413290	0.625000
Ag151	Ag15	0.663290	0.086710	0.625000
Ag161	Ag16	0.163290	0.586710	0.125000
S11	S1	0.000000	0.092230	0.642060
S21	S2	0.500000	0.592230	0.142060
S31	S3	0.500000	0.907770	0.142060
S41	S4	0.000000	0.407770	0.642060
S51	S5	0.157770	0.750000	0.892060
S61	S6	0.342230	0.250000	0.392060
S71	S7	0.500000	0.092230	0.857940
S81	S8	0.000000	0.592230	0.357940
S91	S9	0.000000	0.907770	0.357940
S101	S10	0.500000	0.407770	0.857940
S111	S11	0.342230	0.750000	0.607940
S121	S12	0.157770	0.250000	0.107940
S131	S13	0.842230	0.250000	0.107940
S141	S14	0.657770	0.750000	0.607940
S151	S15	0.657770	0.250000	0.392060
S161	S16	0.842230	0.750000	0.892060
