data_AVIVIK_freeONLY_PM
_symmetry_space_group_name_H-M	'P1'
_cell_length_a	22.975000
_cell_length_b	22.975000
_cell_length_c	34.298000
_cell_angle_alpha	90.000000
_cell_angle_beta	90.000000
_cell_angle_gamma	90.000000
_symmetry_Int_Tables_number 1

loop_
_symmetry_equiv_pos_as_xyz
'x,y,z'

loop_
_atom_site_label
_atom_site_type_symbol
_atom_site_fract_x
_atom_site_fract_y
_atom_site_fract_z
N11	N1	0.232600	0.087700	0.636220
C11	C1	0.214300	0.120700	0.665300
H11	H1	0.242500	0.143600	0.678500
C21	C2	0.158500	0.124500	0.677900
H21	H2	0.148600	0.149000	0.699200
C31	C3	0.115800	0.091700	0.658900
C41	C4	0.134700	0.055900	0.628900
H31	H3	0.107700	0.031900	0.615500
C51	C5	0.192700	0.055100	0.618700
H41	H4	0.204800	0.030100	0.598200
C61	C6	0.054800	0.093700	0.670880
C71	C7	0.032100	0.098700	0.707680
C81	C8	0.065800	0.098900	0.745140
C91	C9	0.088800	0.049000	0.758600
H51	H5	0.084800	0.014000	0.744200
C101	C10	0.117700	0.049200	0.793100
H61	H6	0.133800	0.013400	0.801800
N21	N2	0.125400	0.096500	0.816020
C111	C11	0.103600	0.145100	0.801520
H71	H7	0.108700	0.180100	0.815900
C121	C12	0.073800	0.147800	0.766800
H81	H8	0.058900	0.184000	0.757800
N31	N3	0.732600	0.587700	0.136220
C131	C13	0.714300	0.620700	0.165300
H91	H9	0.742500	0.643600	0.178500
C141	C14	0.658500	0.624500	0.177900
H101	H10	0.648600	0.649000	0.199200
C151	C15	0.615800	0.591700	0.158900
C161	C16	0.634700	0.555900	0.128900
H111	H11	0.607700	0.531900	0.115500
C171	C17	0.692700	0.555100	0.118700
H121	H12	0.704800	0.530100	0.098200
C181	C18	0.554800	0.593700	0.170880
C191	C19	0.532100	0.598700	0.207680
C201	C20	0.565800	0.598900	0.245140
C211	C21	0.588800	0.549000	0.258600
H131	H13	0.584800	0.514000	0.244200
C221	C22	0.617700	0.549200	0.293100
H141	H14	0.633800	0.513400	0.301800
N41	N4	0.625400	0.596500	0.316020
C231	C23	0.603600	0.645100	0.301520
H151	H15	0.608700	0.680100	0.315900
C241	C24	0.573800	0.647800	0.266800
H161	H16	0.558900	0.684000	0.257800
N51	N5	0.267400	0.912300	0.136220
C251	C25	0.285700	0.879300	0.165300
H171	H17	0.257500	0.856400	0.178500
C261	C26	0.341500	0.875500	0.177900
H181	H18	0.351400	0.851000	0.199200
C271	C27	0.384200	0.908300	0.158900
C281	C28	0.365300	0.944100	0.128900
H191	H19	0.392300	0.968100	0.115500
C291	C29	0.307300	0.944900	0.118700
H201	H20	0.295200	0.969900	0.098200
C301	C30	0.445200	0.906300	0.170880
C311	C31	0.467900	0.901300	0.207680
C321	C32	0.434200	0.901100	0.245140
C331	C33	0.411200	0.951000	0.258600
H211	H21	0.415200	0.986000	0.244200
C341	C34	0.382300	0.950800	0.293100
H221	H22	0.366200	0.986600	0.301800
N61	N6	0.374600	0.903500	0.316020
C351	C35	0.396400	0.854900	0.301520
H231	H23	0.391300	0.819900	0.315900
C361	C36	0.426200	0.852200	0.266800
H241	H24	0.441100	0.816000	0.257800
N71	N7	0.767400	0.412300	0.636220
C371	C37	0.785700	0.379300	0.665300
H251	H25	0.757500	0.356400	0.678500
C381	C38	0.841500	0.375500	0.677900
H261	H26	0.851400	0.351000	0.699200
C391	C39	0.884200	0.408300	0.658900
C401	C40	0.865300	0.444100	0.628900
H271	H27	0.892300	0.468100	0.615500
C411	C41	0.807300	0.444900	0.618700
H281	H28	0.795200	0.469900	0.598200
C421	C42	0.945200	0.406300	0.670880
C431	C43	0.967900	0.401300	0.707680
C441	C44	0.934200	0.401100	0.745140
C451	C45	0.911200	0.451000	0.758600
H291	H29	0.915200	0.486000	0.744200
C461	C46	0.882300	0.450800	0.793100
H301	H30	0.866200	0.486600	0.801800
N81	N8	0.874600	0.403500	0.816020
C471	C47	0.896400	0.354900	0.801520
H311	H31	0.891300	0.319900	0.815900
C481	C48	0.926200	0.352200	0.766800
H321	H32	0.941100	0.316000	0.757800
N91	N9	0.162300	0.982600	0.886220
C491	C49	0.129300	0.964300	0.915300
H331	H33	0.106400	0.992500	0.928500
C501	C50	0.125500	0.908500	0.927900
H341	H34	0.101000	0.898600	0.949200
C511	C51	0.158300	0.865800	0.908900
C521	C52	0.194100	0.884700	0.878900
H351	H35	0.218100	0.857700	0.865500
C531	C53	0.194900	0.942700	0.868700
H361	H36	0.219900	0.954800	0.848200
C541	C54	0.156300	0.804800	0.920880
C551	C55	0.151300	0.782100	0.957680
C561	C56	0.151100	0.815800	0.995140
C571	C57	0.201000	0.838800	0.008600
H371	H37	0.236000	0.834800	0.994200
C581	C58	0.200800	0.867700	0.043100
H381	H38	0.236600	0.883800	0.051800
N101	N10	0.153500	0.875400	0.066020
C591	C59	0.104900	0.853600	0.051520
H391	H39	0.069900	0.858700	0.065900
C601	C60	0.102200	0.823800	0.016800
H401	H40	0.066000	0.808900	0.007800
N111	N11	0.662300	0.482600	0.386220
C611	C61	0.629300	0.464300	0.415300
H411	H41	0.606400	0.492500	0.428500
C621	C62	0.625500	0.408500	0.427900
H421	H42	0.601000	0.398600	0.449200
C631	C63	0.658300	0.365800	0.408900
C641	C64	0.694100	0.384700	0.378900
H431	H43	0.718100	0.357700	0.365500
C651	C65	0.694900	0.442700	0.368700
H441	H44	0.719900	0.454800	0.348200
C661	C66	0.656300	0.304800	0.420880
C671	C67	0.651300	0.282100	0.457680
C681	C68	0.651100	0.315800	0.495140
C691	C69	0.701000	0.338800	0.508600
H451	H45	0.736000	0.334800	0.494200
C701	C70	0.700800	0.367700	0.543100
H461	H46	0.736600	0.383800	0.551800
N121	N12	0.653500	0.375400	0.566020
C711	C71	0.604900	0.353600	0.551520
H471	H47	0.569900	0.358700	0.565900
C721	C72	0.602200	0.323800	0.516800
H481	H48	0.566000	0.308900	0.507800
N131	N13	0.337700	0.017400	0.386220
C731	C73	0.370700	0.035700	0.415300
H491	H49	0.393600	0.007500	0.428500
C741	C74	0.374500	0.091500	0.427900
H501	H50	0.399000	0.101400	0.449200
C751	C75	0.341700	0.134200	0.408900
C761	C76	0.305900	0.115300	0.378900
H511	H51	0.281900	0.142300	0.365500
C771	C77	0.305100	0.057300	0.368700
H521	H52	0.280100	0.045200	0.348200
C781	C78	0.343700	0.195200	0.420880
C791	C79	0.348700	0.217900	0.457680
C801	C80	0.348900	0.184200	0.495140
C811	C81	0.299000	0.161200	0.508600
H531	H53	0.264000	0.165200	0.494200
C821	C82	0.299200	0.132300	0.543100
H541	H54	0.263400	0.116200	0.551800
N141	N14	0.346500	0.124600	0.566020
C831	C83	0.395100	0.146400	0.551520
H551	H55	0.430100	0.141300	0.565900
C841	C84	0.397800	0.176200	0.516800
H561	H56	0.434000	0.191100	0.507800
N151	N15	0.837700	0.517400	0.886220
C851	C85	0.870700	0.535700	0.915300
H571	H57	0.893600	0.507500	0.928500
C861	C86	0.874500	0.591500	0.927900
H581	H58	0.899000	0.601400	0.949200
C871	C87	0.841700	0.634200	0.908900
C881	C88	0.805900	0.615300	0.878900
H591	H59	0.781900	0.642300	0.865500
C891	C89	0.805100	0.557300	0.868700
H601	H60	0.780100	0.545200	0.848200
C901	C90	0.843700	0.695200	0.920880
C911	C91	0.848700	0.717900	0.957680
C921	C92	0.848900	0.684200	0.995140
C931	C93	0.799000	0.661200	0.008600
H611	H61	0.764000	0.665200	0.994200
C941	C94	0.799200	0.632300	0.043100
H621	H62	0.763400	0.616200	0.051800
N161	N16	0.846500	0.624600	0.066020
C951	C95	0.895100	0.646400	0.051520
H631	H63	0.930100	0.641300	0.065900
C961	C96	0.897800	0.676200	0.016800
H641	H64	0.934000	0.691100	0.007800
N171	N17	0.267400	0.087700	0.863780
C971	C97	0.285700	0.120700	0.834700
H651	H65	0.257500	0.143600	0.821500
C981	C98	0.341500	0.124500	0.822100
H661	H66	0.351400	0.149000	0.800800
C991	C99	0.384200	0.091700	0.841100
C1001	C100	0.365300	0.055900	0.871100
H671	H67	0.392300	0.031900	0.884500
C1011	C101	0.307300	0.055100	0.881300
H681	H68	0.295200	0.030100	0.901800
C1021	C102	0.445200	0.093700	0.829120
C1031	C103	0.467900	0.098700	0.792320
C1041	C104	0.434200	0.098900	0.754860
C1051	C105	0.411200	0.049000	0.741400
H691	H69	0.415200	0.014000	0.755800
C1061	C106	0.382300	0.049200	0.706900
H701	H70	0.366200	0.013400	0.698200
N181	N18	0.374600	0.096500	0.683980
C1071	C107	0.396400	0.145100	0.698480
H711	H71	0.391300	0.180100	0.684100
C1081	C108	0.426200	0.147800	0.733200
H721	H72	0.441100	0.184000	0.742200
N191	N19	0.767400	0.587700	0.363780
C1091	C109	0.785700	0.620700	0.334700
H731	H73	0.757500	0.643600	0.321500
C1101	C110	0.841500	0.624500	0.322100
H741	H74	0.851400	0.649000	0.300800
C1111	C111	0.884200	0.591700	0.341100
C1121	C112	0.865300	0.555900	0.371100
H751	H75	0.892300	0.531900	0.384500
C1131	C113	0.807300	0.555100	0.381300
H761	H76	0.795200	0.530100	0.401800
C1141	C114	0.945200	0.593700	0.329120
C1151	C115	0.967900	0.598700	0.292320
C1161	C116	0.934200	0.598900	0.254860
C1171	C117	0.911200	0.549000	0.241400
H771	H77	0.915200	0.514000	0.255800
C1181	C118	0.882300	0.549200	0.206900
H781	H78	0.866200	0.513400	0.198200
N201	N20	0.874600	0.596500	0.183980
C1191	C119	0.896400	0.645100	0.198480
H791	H79	0.891300	0.680100	0.184100
C1201	C120	0.926200	0.647800	0.233200
H801	H80	0.941100	0.684000	0.242200
N211	N21	0.232600	0.912300	0.363780
C1211	C121	0.214300	0.879300	0.334700
H811	H81	0.242500	0.856400	0.321500
C1221	C122	0.158500	0.875500	0.322100
H821	H82	0.148600	0.851000	0.300800
C1231	C123	0.115800	0.908300	0.341100
C1241	C124	0.134700	0.944100	0.371100
H831	H83	0.107700	0.968100	0.384500
C1251	C125	0.192700	0.944900	0.381300
H841	H84	0.204800	0.969900	0.401800
C1261	C126	0.054800	0.906300	0.329120
C1271	C127	0.032100	0.901300	0.292320
C1281	C128	0.065800	0.901100	0.254860
C1291	C129	0.088800	0.951000	0.241400
H851	H85	0.084800	0.986000	0.255800
C1301	C130	0.117700	0.950800	0.206900
H861	H86	0.133800	0.986600	0.198200
N221	N22	0.125400	0.903500	0.183980
C1311	C131	0.103600	0.854900	0.198480
H871	H87	0.108700	0.819900	0.184100
C1321	C132	0.073800	0.852200	0.233200
H881	H88	0.058900	0.816000	0.242200
N231	N23	0.732600	0.412300	0.863780
C1331	C133	0.714300	0.379300	0.834700
H891	H89	0.742500	0.356400	0.821500
C1341	C134	0.658500	0.375500	0.822100
H901	H90	0.648600	0.351000	0.800800
C1351	C135	0.615800	0.408300	0.841100
C1361	C136	0.634700	0.444100	0.871100
H911	H91	0.607700	0.468100	0.884500
C1371	C137	0.692700	0.444900	0.881300
H921	H92	0.704800	0.469900	0.901800
C1381	C138	0.554800	0.406300	0.829120
C1391	C139	0.532100	0.401300	0.792320
C1401	C140	0.565800	0.401100	0.754860
C1411	C141	0.588800	0.451000	0.741400
H931	H93	0.584800	0.486000	0.755800
C1421	C142	0.617700	0.450800	0.706900
H941	H94	0.633800	0.486600	0.698200
N241	N24	0.625400	0.403500	0.683980
C1431	C143	0.603600	0.354900	0.698480
H951	H95	0.608700	0.319900	0.684100
C1441	C144	0.573800	0.352200	0.733200
H961	H96	0.558900	0.316000	0.742200
N251	N25	0.337700	0.982600	0.613780
C1451	C145	0.370700	0.964300	0.584700
H971	H97	0.393600	0.992500	0.571500
C1461	C146	0.374500	0.908500	0.572100
H981	H98	0.399000	0.898600	0.550800
C1471	C147	0.341700	0.865800	0.591100
C1481	C148	0.305900	0.884700	0.621100
H991	H99	0.281900	0.857700	0.634500
C1491	C149	0.305100	0.942700	0.631300
H1001	H100	0.280100	0.954800	0.651800
C1501	C150	0.343700	0.804800	0.579120
C1511	C151	0.348700	0.782100	0.542320
C1521	C152	0.348900	0.815800	0.504860
C1531	C153	0.299000	0.838800	0.491400
H1011	H101	0.264000	0.834800	0.505800
C1541	C154	0.299200	0.867700	0.456900
H1021	H102	0.263400	0.883800	0.448200
N261	N26	0.346500	0.875400	0.433980
C1551	C155	0.395100	0.853600	0.448480
H1031	H103	0.430100	0.858700	0.434100
C1561	C156	0.397800	0.823800	0.483200
H1041	H104	0.434000	0.808900	0.492200
N271	N27	0.837700	0.482600	0.113780
C1571	C157	0.870700	0.464300	0.084700
H1051	H105	0.893600	0.492500	0.071500
C1581	C158	0.874500	0.408500	0.072100
H1061	H106	0.899000	0.398600	0.050800
C1591	C159	0.841700	0.365800	0.091100
C1601	C160	0.805900	0.384700	0.121100
H1071	H107	0.781900	0.357700	0.134500
C1611	C161	0.805100	0.442700	0.131300
H1081	H108	0.780100	0.454800	0.151800
C1621	C162	0.843700	0.304800	0.079120
C1631	C163	0.848700	0.282100	0.042320
C1641	C164	0.848900	0.315800	0.004860
C1651	C165	0.799000	0.338800	0.991400
H1091	H109	0.764000	0.334800	0.005800
C1661	C166	0.799200	0.367700	0.956900
H1101	H110	0.763400	0.383800	0.948200
N281	N28	0.846500	0.375400	0.933980
C1671	C167	0.895100	0.353600	0.948480
H1111	H111	0.930100	0.358700	0.934100
C1681	C168	0.897800	0.323800	0.983200
H1121	H112	0.934000	0.308900	0.992200
N291	N29	0.162300	0.017400	0.113780
C1691	C169	0.129300	0.035700	0.084700
H1131	H113	0.106400	0.007500	0.071500
C1701	C170	0.125500	0.091500	0.072100
H1141	H114	0.101000	0.101400	0.050800
C1711	C171	0.158300	0.134200	0.091100
C1721	C172	0.194100	0.115300	0.121100
H1151	H115	0.218100	0.142300	0.134500
C1731	C173	0.194900	0.057300	0.131300
H1161	H116	0.219900	0.045200	0.151800
C1741	C174	0.156300	0.195200	0.079120
C1751	C175	0.151300	0.217900	0.042320
C1761	C176	0.151100	0.184200	0.004860
C1771	C177	0.201000	0.161200	0.991400
H1171	H117	0.236000	0.165200	0.005800
C1781	C178	0.200800	0.132300	0.956900
H1181	H118	0.236600	0.116200	0.948200
N301	N30	0.153500	0.124600	0.933980
C1791	C179	0.104900	0.146400	0.948480
H1191	H119	0.069900	0.141300	0.934100
C1801	C180	0.102200	0.176200	0.983200
H1201	H120	0.066000	0.191100	0.992200
N311	N31	0.662300	0.517400	0.613780
C1811	C181	0.629300	0.535700	0.584700
H1211	H121	0.606400	0.507500	0.571500
C1821	C182	0.625500	0.591500	0.572100
H1221	H122	0.601000	0.601400	0.550800
C1831	C183	0.658300	0.634200	0.591100
C1841	C184	0.694100	0.615300	0.621100
H1231	H123	0.718100	0.642300	0.634500
C1851	C185	0.694900	0.557300	0.631300
H1241	H124	0.719900	0.545200	0.651800
C1861	C186	0.656300	0.695200	0.579120
C1871	C187	0.651300	0.717900	0.542320
C1881	C188	0.651100	0.684200	0.504860
C1891	C189	0.701000	0.661200	0.491400
H1251	H125	0.736000	0.665200	0.505800
C1901	C190	0.700800	0.632300	0.456900
H1261	H126	0.736600	0.616200	0.448200
N321	N32	0.653500	0.624600	0.433980
C1911	C191	0.604900	0.646400	0.448480
H1271	H127	0.569900	0.641300	0.434100
C1921	C192	0.602200	0.676200	0.483200
H1281	H128	0.566000	0.691100	0.492200
N331	N33	0.767400	0.912300	0.363780
C1931	C193	0.785700	0.879300	0.334700
H1291	H129	0.757500	0.856400	0.321500
C1941	C194	0.841500	0.875500	0.322100
H1301	H130	0.851400	0.851000	0.300800
C1951	C195	0.884200	0.908300	0.341100
C1961	C196	0.865300	0.944100	0.371100
H1311	H131	0.892300	0.968100	0.384500
C1971	C197	0.807300	0.944900	0.381300
H1321	H132	0.795200	0.969900	0.401800
C1981	C198	0.945200	0.906300	0.329120
C1991	C199	0.967900	0.901300	0.292320
C2001	C200	0.934200	0.901100	0.254860
C2011	C201	0.911200	0.951000	0.241400
H1331	H133	0.915200	0.986000	0.255800
C2021	C202	0.882300	0.950800	0.206900
H1341	H134	0.866200	0.986600	0.198200
N341	N34	0.874600	0.903500	0.183980
C2031	C203	0.896400	0.854900	0.198480
H1351	H135	0.891300	0.819900	0.184100
C2041	C204	0.926200	0.852200	0.233200
H1361	H136	0.941100	0.816000	0.242200
N351	N35	0.267400	0.412300	0.863780
C2051	C205	0.285700	0.379300	0.834700
H1371	H137	0.257500	0.356400	0.821500
C2061	C206	0.341500	0.375500	0.822100
H1381	H138	0.351400	0.351000	0.800800
C2071	C207	0.384200	0.408300	0.841100
C2081	C208	0.365300	0.444100	0.871100
H1391	H139	0.392300	0.468100	0.884500
C2091	C209	0.307300	0.444900	0.881300
H1401	H140	0.295200	0.469900	0.901800
C2101	C210	0.445200	0.406300	0.829120
C2111	C211	0.467900	0.401300	0.792320
C2121	C212	0.434200	0.401100	0.754860
C2131	C213	0.411200	0.451000	0.741400
H1411	H141	0.415200	0.486000	0.755800
C2141	C214	0.382300	0.450800	0.706900
H1421	H142	0.366200	0.486600	0.698200
N361	N36	0.374600	0.403500	0.683980
C2151	C215	0.396400	0.354900	0.698480
H1431	H143	0.391300	0.319900	0.684100
C2161	C216	0.426200	0.352200	0.733200
H1441	H144	0.441100	0.316000	0.742200
N371	N37	0.732600	0.087700	0.863780
C2171	C217	0.714300	0.120700	0.834700
H1451	H145	0.742500	0.143600	0.821500
C2181	C218	0.658500	0.124500	0.822100
H1461	H146	0.648600	0.149000	0.800800
C2191	C219	0.615800	0.091700	0.841100
C2201	C220	0.634700	0.055900	0.871100
H1471	H147	0.607700	0.031900	0.884500
C2211	C221	0.692700	0.055100	0.881300
H1481	H148	0.704800	0.030100	0.901800
C2221	C222	0.554800	0.093700	0.829120
C2231	C223	0.532100	0.098700	0.792320
C2241	C224	0.565800	0.098900	0.754860
C2251	C225	0.588800	0.049000	0.741400
H1491	H149	0.584800	0.014000	0.755800
C2261	C226	0.617700	0.049200	0.706900
H1501	H150	0.633800	0.013400	0.698200
N381	N38	0.625400	0.096500	0.683980
C2271	C227	0.603600	0.145100	0.698480
H1511	H151	0.608700	0.180100	0.684100
C2281	C228	0.573800	0.147800	0.733200
H1521	H152	0.558900	0.184000	0.742200
N391	N39	0.232600	0.587700	0.363780
C2291	C229	0.214300	0.620700	0.334700
H1531	H153	0.242500	0.643600	0.321500
C2301	C230	0.158500	0.624500	0.322100
H1541	H154	0.148600	0.649000	0.300800
C2311	C231	0.115800	0.591700	0.341100
C2321	C232	0.134700	0.555900	0.371100
H1551	H155	0.107700	0.531900	0.384500
C2331	C233	0.192700	0.555100	0.381300
H1561	H156	0.204800	0.530100	0.401800
C2341	C234	0.054800	0.593700	0.329120
C2351	C235	0.032100	0.598700	0.292320
C2361	C236	0.065800	0.598900	0.254860
C2371	C237	0.088800	0.549000	0.241400
H1571	H157	0.084800	0.514000	0.255800
C2381	C238	0.117700	0.549200	0.206900
H1581	H158	0.133800	0.513400	0.198200
N401	N40	0.125400	0.596500	0.183980
C2391	C239	0.103600	0.645100	0.198480
H1591	H159	0.108700	0.680100	0.184100
C2401	C240	0.073800	0.647800	0.233200
H1601	H160	0.058900	0.684000	0.242200
N411	N41	0.837700	0.017400	0.113780
C2411	C241	0.870700	0.035700	0.084700
H1611	H161	0.893600	0.007500	0.071500
C2421	C242	0.874500	0.091500	0.072100
H1621	H162	0.899000	0.101400	0.050800
C2431	C243	0.841700	0.134200	0.091100
C2441	C244	0.805900	0.115300	0.121100
H1631	H163	0.781900	0.142300	0.134500
C2451	C245	0.805100	0.057300	0.131300
H1641	H164	0.780100	0.045200	0.151800
C2461	C246	0.843700	0.195200	0.079120
C2471	C247	0.848700	0.217900	0.042320
C2481	C248	0.848900	0.184200	0.004860
C2491	C249	0.799000	0.161200	0.991400
H1651	H165	0.764000	0.165200	0.005800
C2501	C250	0.799200	0.132300	0.956900
H1661	H166	0.763400	0.116200	0.948200
N421	N42	0.846500	0.124600	0.933980
C2511	C251	0.895100	0.146400	0.948480
H1671	H167	0.930100	0.141300	0.934100
C2521	C252	0.897800	0.176200	0.983200
H1681	H168	0.934000	0.191100	0.992200
N431	N43	0.337700	0.517400	0.613780
C2531	C253	0.370700	0.535700	0.584700
H1691	H169	0.393600	0.507500	0.571500
C2541	C254	0.374500	0.591500	0.572100
H1701	H170	0.399000	0.601400	0.550800
C2551	C255	0.341700	0.634200	0.591100
C2561	C256	0.305900	0.615300	0.621100
H1711	H171	0.281900	0.642300	0.634500
C2571	C257	0.305100	0.557300	0.631300
H1721	H172	0.280100	0.545200	0.651800
C2581	C258	0.343700	0.695200	0.579120
C2591	C259	0.348700	0.717900	0.542320
C2601	C260	0.348900	0.684200	0.504860
C2611	C261	0.299000	0.661200	0.491400
H1731	H173	0.264000	0.665200	0.505800
C2621	C262	0.299200	0.632300	0.456900
H1741	H174	0.263400	0.616200	0.448200
N441	N44	0.346500	0.624600	0.433980
C2631	C263	0.395100	0.646400	0.448480
H1751	H175	0.430100	0.641300	0.434100
C2641	C264	0.397800	0.676200	0.483200
H1761	H176	0.434000	0.691100	0.492200
N451	N45	0.662300	0.982600	0.613780
C2651	C265	0.629300	0.964300	0.584700
H1771	H177	0.606400	0.992500	0.571500
C2661	C266	0.625500	0.908500	0.572100
H1781	H178	0.601000	0.898600	0.550800
C2671	C267	0.658300	0.865800	0.591100
C2681	C268	0.694100	0.884700	0.621100
H1791	H179	0.718100	0.857700	0.634500
C2691	C269	0.694900	0.942700	0.631300
H1801	H180	0.719900	0.954800	0.651800
C2701	C270	0.656300	0.804800	0.579120
C2711	C271	0.651300	0.782100	0.542320
C2721	C272	0.651100	0.815800	0.504860
C2731	C273	0.701000	0.838800	0.491400
H1811	H181	0.736000	0.834800	0.505800
C2741	C274	0.700800	0.867700	0.456900
H1821	H182	0.736600	0.883800	0.448200
N461	N46	0.653500	0.875400	0.433980
C2751	C275	0.604900	0.853600	0.448480
H1831	H183	0.569900	0.858700	0.434100
C2761	C276	0.602200	0.823800	0.483200
H1841	H184	0.566000	0.808900	0.492200
N471	N47	0.162300	0.482600	0.113780
C2771	C277	0.129300	0.464300	0.084700
H1851	H185	0.106400	0.492500	0.071500
C2781	C278	0.125500	0.408500	0.072100
H1861	H186	0.101000	0.398600	0.050800
C2791	C279	0.158300	0.365800	0.091100
C2801	C280	0.194100	0.384700	0.121100
H1871	H187	0.218100	0.357700	0.134500
C2811	C281	0.194900	0.442700	0.131300
H1881	H188	0.219900	0.454800	0.151800
C2821	C282	0.156300	0.304800	0.079120
C2831	C283	0.151300	0.282100	0.042320
C2841	C284	0.151100	0.315800	0.004860
C2851	C285	0.201000	0.338800	0.991400
H1891	H189	0.236000	0.334800	0.005800
C2861	C286	0.200800	0.367700	0.956900
H1901	H190	0.236600	0.383800	0.948200
N481	N48	0.153500	0.375400	0.933980
C2871	C287	0.104900	0.353600	0.948480
H1911	H191	0.069900	0.358700	0.934100
C2881	C288	0.102200	0.323800	0.983200
H1921	H192	0.066000	0.308900	0.992200
N491	N49	0.732600	0.912300	0.136220
C2891	C289	0.714300	0.879300	0.165300
H1931	H193	0.742500	0.856400	0.178500
C2901	C290	0.658500	0.875500	0.177900
H1941	H194	0.648600	0.851000	0.199200
C2911	C291	0.615800	0.908300	0.158900
C2921	C292	0.634700	0.944100	0.128900
H1951	H195	0.607700	0.968100	0.115500
C2931	C293	0.692700	0.944900	0.118700
H1961	H196	0.704800	0.969900	0.098200
C2941	C294	0.554800	0.906300	0.170880
C2951	C295	0.532100	0.901300	0.207680
C2961	C296	0.565800	0.901100	0.245140
C2971	C297	0.588800	0.951000	0.258600
H1971	H197	0.584800	0.986000	0.244200
C2981	C298	0.617700	0.950800	0.293100
H1981	H198	0.633800	0.986600	0.301800
N501	N50	0.625400	0.903500	0.316020
C2991	C299	0.603600	0.854900	0.301520
H1991	H199	0.608700	0.819900	0.315900
C3001	C300	0.573800	0.852200	0.266800
H2001	H200	0.558900	0.816000	0.257800
N511	N51	0.232600	0.412300	0.636220
C3011	C301	0.214300	0.379300	0.665300
H2011	H201	0.242500	0.356400	0.678500
C3021	C302	0.158500	0.375500	0.677900
H2021	H202	0.148600	0.351000	0.699200
C3031	C303	0.115800	0.408300	0.658900
C3041	C304	0.134700	0.444100	0.628900
H2031	H203	0.107700	0.468100	0.615500
C3051	C305	0.192700	0.444900	0.618700
H2041	H204	0.204800	0.469900	0.598200
C3061	C306	0.054800	0.406300	0.670880
C3071	C307	0.032100	0.401300	0.707680
C3081	C308	0.065800	0.401100	0.745140
C3091	C309	0.088800	0.451000	0.758600
H2051	H205	0.084800	0.486000	0.744200
C3101	C310	0.117700	0.450800	0.793100
H2061	H206	0.133800	0.486600	0.801800
N521	N52	0.125400	0.403500	0.816020
C3111	C311	0.103600	0.354900	0.801520
H2071	H207	0.108700	0.319900	0.815900
C3121	C312	0.073800	0.352200	0.766800
H2081	H208	0.058900	0.316000	0.757800
N531	N53	0.767400	0.087700	0.636220
C3131	C313	0.785700	0.120700	0.665300
H2091	H209	0.757500	0.143600	0.678500
C3141	C314	0.841500	0.124500	0.677900
H2101	H210	0.851400	0.149000	0.699200
C3151	C315	0.884200	0.091700	0.658900
C3161	C316	0.865300	0.055900	0.628900
H2111	H211	0.892300	0.031900	0.615500
C3171	C317	0.807300	0.055100	0.618700
H2121	H212	0.795200	0.030100	0.598200
C3181	C318	0.945200	0.093700	0.670880
C3191	C319	0.967900	0.098700	0.707680
C3201	C320	0.934200	0.098900	0.745140
C3211	C321	0.911200	0.049000	0.758600
H2131	H213	0.915200	0.014000	0.744200
C3221	C322	0.882300	0.049200	0.793100
H2141	H214	0.866200	0.013400	0.801800
N541	N54	0.874600	0.096500	0.816020
C3231	C323	0.896400	0.145100	0.801520
H2151	H215	0.891300	0.180100	0.815900
C3241	C324	0.926200	0.147800	0.766800
H2161	H216	0.941100	0.184000	0.757800
N551	N55	0.267400	0.587700	0.136220
C3251	C325	0.285700	0.620700	0.165300
H2171	H217	0.257500	0.643600	0.178500
C3261	C326	0.341500	0.624500	0.177900
H2181	H218	0.351400	0.649000	0.199200
C3271	C327	0.384200	0.591700	0.158900
C3281	C328	0.365300	0.555900	0.128900
H2191	H219	0.392300	0.531900	0.115500
C3291	C329	0.307300	0.555100	0.118700
H2201	H220	0.295200	0.530100	0.098200
C3301	C330	0.445200	0.593700	0.170880
C3311	C331	0.467900	0.598700	0.207680
C3321	C332	0.434200	0.598900	0.245140
C3331	C333	0.411200	0.549000	0.258600
H2211	H221	0.415200	0.514000	0.244200
C3341	C334	0.382300	0.549200	0.293100
H2221	H222	0.366200	0.513400	0.301800
N561	N56	0.374600	0.596500	0.316020
C3351	C335	0.396400	0.645100	0.301520
H2231	H223	0.391300	0.680100	0.315900
C3361	C336	0.426200	0.647800	0.266800
H2241	H224	0.441100	0.684000	0.257800
N571	N57	0.662300	0.017400	0.386220
C3371	C337	0.629300	0.035700	0.415300
H2251	H225	0.606400	0.007500	0.428500
C3381	C338	0.625500	0.091500	0.427900
H2261	H226	0.601000	0.101400	0.449200
C3391	C339	0.658300	0.134200	0.408900
C3401	C340	0.694100	0.115300	0.378900
H2271	H227	0.718100	0.142300	0.365500
C3411	C341	0.694900	0.057300	0.368700
H2281	H228	0.719900	0.045200	0.348200
C3421	C342	0.656300	0.195200	0.420880
C3431	C343	0.651300	0.217900	0.457680
C3441	C344	0.651100	0.184200	0.495140
C3451	C345	0.701000	0.161200	0.508600
H2291	H229	0.736000	0.165200	0.494200
C3461	C346	0.700800	0.132300	0.543100
H2301	H230	0.736600	0.116200	0.551800
N581	N58	0.653500	0.124600	0.566020
C3471	C347	0.604900	0.146400	0.551520
H2311	H231	0.569900	0.141300	0.565900
C3481	C348	0.602200	0.176200	0.516800
H2321	H232	0.566000	0.191100	0.507800
N591	N59	0.162300	0.517400	0.886220
C3491	C349	0.129300	0.535700	0.915300
H2331	H233	0.106400	0.507500	0.928500
C3501	C350	0.125500	0.591500	0.927900
H2341	H234	0.101000	0.601400	0.949200
C3511	C351	0.158300	0.634200	0.908900
C3521	C352	0.194100	0.615300	0.878900
H2351	H235	0.218100	0.642300	0.865500
C3531	C353	0.194900	0.557300	0.868700
H2361	H236	0.219900	0.545200	0.848200
C3541	C354	0.156300	0.695200	0.920880
C3551	C355	0.151300	0.717900	0.957680
C3561	C356	0.151100	0.684200	0.995140
C3571	C357	0.201000	0.661200	0.008600
H2371	H237	0.236000	0.665200	0.994200
C3581	C358	0.200800	0.632300	0.043100
H2381	H238	0.236600	0.616200	0.051800
N601	N60	0.153500	0.624600	0.066020
C3591	C359	0.104900	0.646400	0.051520
H2391	H239	0.069900	0.641300	0.065900
C3601	C360	0.102200	0.676200	0.016800
H2401	H240	0.066000	0.691100	0.007800
N611	N61	0.837700	0.982600	0.886220
C3611	C361	0.870700	0.964300	0.915300
H2411	H241	0.893600	0.992500	0.928500
C3621	C362	0.874500	0.908500	0.927900
H2421	H242	0.899000	0.898600	0.949200
C3631	C363	0.841700	0.865800	0.908900
C3641	C364	0.805900	0.884700	0.878900
H2431	H243	0.781900	0.857700	0.865500
C3651	C365	0.805100	0.942700	0.868700
H2441	H244	0.780100	0.954800	0.848200
C3661	C366	0.843700	0.804800	0.920880
C3671	C367	0.848700	0.782100	0.957680
C3681	C368	0.848900	0.815800	0.995140
C3691	C369	0.799000	0.838800	0.008600
H2451	H245	0.764000	0.834800	0.994200
C3701	C370	0.799200	0.867700	0.043100
H2461	H246	0.763400	0.883800	0.051800
N621	N62	0.846500	0.875400	0.066020
C3711	C371	0.895100	0.853600	0.051520
H2471	H247	0.930100	0.858700	0.065900
C3721	C372	0.897800	0.823800	0.016800
H2481	H248	0.934000	0.808900	0.007800
N631	N63	0.337700	0.482600	0.386220
C3731	C373	0.370700	0.464300	0.415300
H2491	H249	0.393600	0.492500	0.428500
C3741	C374	0.374500	0.408500	0.427900
H2501	H250	0.399000	0.398600	0.449200
C3751	C375	0.341700	0.365800	0.408900
C3761	C376	0.305900	0.384700	0.378900
H2511	H251	0.281900	0.357700	0.365500
C3771	C377	0.305100	0.442700	0.368700
H2521	H252	0.280100	0.454800	0.348200
C3781	C378	0.343700	0.304800	0.420880
C3791	C379	0.348700	0.282100	0.457680
C3801	C380	0.348900	0.315800	0.495140
C3811	C381	0.299000	0.338800	0.508600
H2531	H253	0.264000	0.334800	0.494200
C3821	C382	0.299200	0.367700	0.543100
H2541	H254	0.263400	0.383800	0.551800
N641	N64	0.346500	0.375400	0.566020
C3831	C383	0.395100	0.353600	0.551520
H2551	H255	0.430100	0.358700	0.565900
C3841	C384	0.397800	0.323800	0.516800
H2561	H256	0.434000	0.308900	0.507800
Ag11	Ag1	0.334740	0.084740	0.625000
Ag21	Ag2	0.834740	0.584740	0.125000
Ag31	Ag3	0.165260	0.915260	0.125000
Ag41	Ag4	0.665260	0.415260	0.625000
Ag51	Ag5	0.165260	0.084740	0.875000
Ag61	Ag6	0.665260	0.584740	0.375000
Ag71	Ag7	0.334740	0.915260	0.375000
Ag81	Ag8	0.834740	0.415260	0.875000
Ag91	Ag9	0.665260	0.915260	0.375000
Ag101	Ag10	0.165260	0.415260	0.875000
Ag111	Ag11	0.834740	0.084740	0.875000
Ag121	Ag12	0.334740	0.584740	0.375000
Ag131	Ag13	0.834740	0.915260	0.125000
Ag141	Ag14	0.334740	0.415260	0.625000
Ag151	Ag15	0.665260	0.084740	0.625000
Ag161	Ag16	0.165260	0.584740	0.125000
S11	S1	0.000000	0.089120	0.636230
S21	S2	0.500000	0.589120	0.136230
S31	S3	0.500000	0.910880	0.136230
S41	S4	0.000000	0.410880	0.636230
S51	S5	0.160880	0.750000	0.886230
S61	S6	0.339120	0.250000	0.386230
S71	S7	0.500000	0.089120	0.863770
S81	S8	0.000000	0.589120	0.363770
S91	S9	0.000000	0.910880	0.363770
S101	S10	0.500000	0.410880	0.863770
S111	S11	0.339120	0.750000	0.613770
S121	S12	0.160880	0.250000	0.113770
S131	S13	0.839120	0.250000	0.113770
S141	S14	0.660880	0.750000	0.613770
S151	S15	0.660880	0.250000	0.386230
S161	S16	0.839120	0.750000	0.886230
