data_AVUCEA_freeONLY_PM
_symmetry_space_group_name_H-M	'P1'
_cell_length_a	32.819500
_cell_length_b	32.819500
_cell_length_c	19.079300
_cell_angle_alpha	90.000000
_cell_angle_beta	90.000000
_cell_angle_gamma	120.000000
_symmetry_Int_Tables_number 1

loop_
_symmetry_equiv_pos_as_xyz
'x,y,z'

loop_
_atom_site_label
_atom_site_type_symbol
_atom_site_fract_x
_atom_site_fract_y
_atom_site_fract_z
Co11	Co1	0.518480	0.048720	0.192880
Co21	Co2	0.482620	0.021700	0.674250
O11	O1	0.519890	0.072420	0.093910
O21	O2	0.544100	0.147820	0.111300
O31	O3	0.511870	0.018090	0.847060
O41	O4	0.493250	0.056200	0.766600
O51	O5	0.592500	0.256510	0.916600
O61	O6	0.570500	0.230370	0.809100
O71	O7	0.582910	0.053660	0.198720
O81	O8	0.586500	0.027920	0.306290
O91	O9	0.794290	0.138760	0.102840
O101	O10	0.727300	0.120470	0.053090
O111	O11	0.548420	0.119140	0.232450
O121	O12	0.551590	0.071710	0.643910
C11	C1	0.532700	0.120750	0.995500
C21	C2	0.519660	0.083990	0.948600
C31	C3	0.520990	0.091900	0.876700
C41	C4	0.536660	0.137290	0.851900
C51	C5	0.551740	0.174950	0.898100
C61	C6	0.549000	0.166300	0.969700
C71	C7	0.532000	0.113140	0.073400
C81	C8	0.573200	0.224740	0.872700
C91	C9	0.507500	0.052070	0.825900
C101	C10	0.657290	0.077280	0.248100
C111	C11	0.679230	0.091100	0.182900
C121	C12	0.728100	0.113300	0.177700
C131	C13	0.755140	0.125960	0.238600
C141	C14	0.733500	0.114400	0.304100
C151	C15	0.684360	0.088200	0.307970
C161	C16	0.604250	0.050870	0.251660
C171	C17	0.751010	0.124880	0.107470
C181	C18	0.592000	0.105700	0.683600
H11	H1	0.581200	0.115600	0.724100
H21	H2	0.610700	0.133200	0.654700
C191	C19	0.620900	0.086800	0.706700
H31	H3	0.644200	0.092600	0.671700
H41	H4	0.636100	0.101600	0.749900
H51	H5	0.601600	0.053500	0.713900
C201	C20	0.588100	0.145500	0.272300
H61	H6	0.615600	0.153300	0.244100
H71	H7	0.587900	0.126600	0.311500
C211	C21	0.591700	0.188300	0.298600
H81	H8	0.608300	0.213200	0.265300
H91	H9	0.608600	0.196600	0.342300
H101	H10	0.560800	0.183800	0.305900
H111	H11	0.508900	0.051500	0.972000
H121	H12	0.538900	0.141800	0.809000
H131	H13	0.558000	0.191000	0.005000
H141	H14	0.660900	0.084700	0.142000
H151	H15	0.788300	0.142800	0.235000
H161	H16	0.669700	0.079800	0.353000
C221	C22	0.761620	0.132700	0.369800
O131	O13	0.742640	0.119650	0.428030
O141	O14	0.804360	0.165590	0.365520
Co31	Co3	0.185140	0.382050	0.526210
Co41	Co4	0.149290	0.355030	0.007580
O151	O15	0.186560	0.405750	0.427240
O161	O16	0.210770	0.481150	0.444630
O171	O17	0.178540	0.351420	0.180390
O181	O18	0.159920	0.389530	0.099930
O191	O19	0.259170	0.589840	0.249930
O201	O20	0.237170	0.563700	0.142430
O211	O21	0.249580	0.386990	0.532050
O221	O22	0.253170	0.361250	0.639620
O231	O23	0.460960	0.472090	0.436170
O241	O24	0.393970	0.453800	0.386420
O251	O25	0.215090	0.452470	0.565780
O261	O26	0.218260	0.405040	0.977240
C231	C23	0.199370	0.454080	0.328830
C241	C24	0.186330	0.417320	0.281930
C251	C25	0.187660	0.425230	0.210030
C261	C26	0.203330	0.470620	0.185230
C271	C27	0.218410	0.508280	0.231430
C281	C28	0.215670	0.499630	0.303030
C291	C29	0.198670	0.446470	0.406730
C301	C30	0.239870	0.558070	0.206030
C311	C31	0.174170	0.385400	0.159230
C321	C32	0.323960	0.410610	0.581430
C331	C33	0.345900	0.424430	0.516230
C341	C34	0.394770	0.446630	0.511030
C351	C35	0.421810	0.459290	0.571930
C361	C36	0.400170	0.447730	0.637430
C371	C37	0.351030	0.421530	0.641300
C381	C38	0.270920	0.384200	0.584990
C391	C39	0.417680	0.458210	0.440800
C401	C40	0.258670	0.439030	0.016930
H171	H17	0.247870	0.448930	0.057430
H181	H18	0.277370	0.466530	0.988030
C411	C41	0.287570	0.420130	0.040030
H191	H19	0.310870	0.425930	0.005030
H201	H20	0.302770	0.434930	0.083230
H211	H21	0.268270	0.386830	0.047230
C421	C42	0.254770	0.478830	0.605630
H221	H22	0.282270	0.486630	0.577430
H231	H23	0.254570	0.459930	0.644830
C431	C43	0.258370	0.521630	0.631930
H241	H24	0.274970	0.546530	0.598630
H251	H25	0.275270	0.529930	0.675630
H261	H26	0.227470	0.517130	0.639230
H271	H27	0.175570	0.384830	0.305330
H281	H28	0.205570	0.475130	0.142330
H291	H29	0.224670	0.524330	0.338330
H301	H30	0.327570	0.418030	0.475330
H311	H31	0.454970	0.476130	0.568330
H321	H32	0.336370	0.413130	0.686330
C441	C44	0.428290	0.466030	0.703130
O271	O27	0.409310	0.452980	0.761360
O281	O28	0.471030	0.498920	0.698850
Co51	Co5	0.851810	0.715390	0.859550
Co61	Co6	0.815950	0.688370	0.340920
O291	O29	0.853220	0.739090	0.760580
O301	O30	0.877430	0.814490	0.777970
O311	O31	0.845200	0.684760	0.513730
O321	O32	0.826580	0.722870	0.433270
O331	O33	0.925830	0.923180	0.583270
O341	O34	0.903830	0.897040	0.475770
O351	O35	0.916240	0.720330	0.865390
O361	O36	0.919830	0.694590	0.972960
O371	O37	0.127620	0.805430	0.769510
O381	O38	0.060630	0.787140	0.719760
O391	O39	0.881750	0.785810	0.899120
O401	O40	0.884920	0.738380	0.310580
C451	C45	0.866030	0.787420	0.662170
C461	C46	0.852990	0.750660	0.615270
C471	C47	0.854320	0.758570	0.543370
C481	C48	0.869990	0.803960	0.518570
C491	C49	0.885070	0.841620	0.564770
C501	C50	0.882330	0.832970	0.636370
C511	C51	0.865330	0.779810	0.740070
C521	C52	0.906530	0.891410	0.539370
C531	C53	0.840830	0.718740	0.492570
C541	C54	0.990620	0.743950	0.914770
C551	C55	0.012560	0.757770	0.849570
C561	C56	0.061430	0.779970	0.844370
C571	C57	0.088470	0.792630	0.905270
C581	C58	0.066830	0.781070	0.970770
C591	C59	0.017690	0.754870	0.974640
C601	C60	0.937580	0.717540	0.918330
C611	C61	0.084340	0.791550	0.774140
C621	C62	0.925330	0.772370	0.350270
H331	H33	0.914530	0.782270	0.390770
H341	H34	0.944030	0.799870	0.321370
C631	C63	0.954230	0.753470	0.373370
H351	H35	0.977530	0.759270	0.338370
H361	H36	0.969430	0.768270	0.416570
H371	H37	0.934930	0.720170	0.380570
C641	C64	0.921430	0.812170	0.938970
H381	H38	0.948930	0.819970	0.910770
H391	H39	0.921230	0.793270	0.978170
C651	C65	0.925030	0.854970	0.965270
H401	H40	0.941630	0.879870	0.931970
H411	H41	0.941930	0.863270	0.008970
H421	H42	0.894130	0.850470	0.972570
H431	H43	0.842230	0.718170	0.638670
H441	H44	0.872230	0.808470	0.475670
H451	H45	0.891330	0.857670	0.671670
H461	H46	0.994230	0.751370	0.808670
H471	H47	0.121630	0.809470	0.901670
H481	H48	0.003030	0.746470	0.019670
C661	C66	0.094950	0.799370	0.036470
O411	O41	0.075970	0.786320	0.094700
O421	O42	0.137690	0.832260	0.032190
Co71	Co7	0.951280	0.469760	0.192880
Co81	Co8	0.978300	0.460920	0.674250
O431	O43	0.927580	0.447470	0.093910
O441	O44	0.852180	0.396280	0.111300
O451	O45	0.981910	0.493780	0.847060
O461	O46	0.943800	0.437050	0.766600
O471	O47	0.743490	0.335990	0.916600
O481	O48	0.769630	0.340130	0.809100
O491	O49	0.946340	0.529250	0.198720
O501	O50	0.972080	0.558580	0.306290
O511	O51	0.861240	0.655530	0.102840
O521	O52	0.879530	0.606830	0.053090
O531	O53	0.880860	0.429280	0.232450
O541	O54	0.928290	0.479880	0.643910
C671	C67	0.879250	0.411950	0.995500
C681	C68	0.916010	0.435670	0.948600
C691	C69	0.908100	0.429090	0.876700
C701	C70	0.862710	0.399370	0.851900
C711	C71	0.825050	0.376790	0.898100
C721	C72	0.833700	0.382700	0.969700
C731	C73	0.886860	0.418860	0.073400
C741	C74	0.775260	0.348460	0.872700
C751	C75	0.947930	0.455430	0.825900
C761	C76	0.922720	0.580010	0.248100
C771	C77	0.908900	0.588130	0.182900
C781	C78	0.886700	0.614800	0.177700
C791	C79	0.874040	0.629180	0.238600
C801	C80	0.885600	0.619100	0.304100
C811	C81	0.911800	0.596160	0.307970
C821	C82	0.949130	0.553380	0.251660
C831	C83	0.875120	0.626130	0.107470
C841	C84	0.894300	0.486300	0.683600
H491	H49	0.884400	0.465600	0.724100
H501	H50	0.866800	0.477500	0.654700
C851	C85	0.913200	0.534100	0.706700
H511	H51	0.907400	0.551600	0.671700
H521	H52	0.898400	0.534500	0.749900
H531	H53	0.946500	0.548100	0.713900
C861	C86	0.854500	0.442600	0.272300
H541	H54	0.846700	0.462300	0.244100
H551	H55	0.873400	0.461300	0.311500
C871	C87	0.811700	0.403400	0.298600
H561	H56	0.786800	0.395100	0.265300
H571	H57	0.803400	0.412000	0.342300
H581	H58	0.816200	0.377000	0.305900
H591	H59	0.948500	0.457400	0.972000
H601	H60	0.858200	0.397100	0.809000
H611	H61	0.809000	0.367000	0.005000
H621	H62	0.915300	0.576200	0.142000
H631	H63	0.857200	0.645500	0.235000
H641	H64	0.920200	0.589900	0.353000
C881	C88	0.867300	0.628920	0.369800
O551	O55	0.880350	0.622990	0.428030
O561	O56	0.834410	0.638770	0.365520
Co91	Co9	0.617950	0.803090	0.526210
Co101	Co10	0.644970	0.794250	0.007580
O571	O57	0.594250	0.780800	0.427240
O581	O58	0.518850	0.729610	0.444630
O591	O59	0.648580	0.827110	0.180390
O601	O60	0.610470	0.770380	0.099930
O611	O61	0.410160	0.669320	0.249930
O621	O62	0.436300	0.673460	0.142430
O631	O63	0.613010	0.862580	0.532050
O641	O64	0.638750	0.891910	0.639620
O651	O65	0.527910	0.988860	0.436170
O661	O66	0.546200	0.940160	0.386420
O671	O67	0.547530	0.762610	0.565780
O681	O68	0.594960	0.813210	0.977240
C891	C89	0.545920	0.745280	0.328830
C901	C90	0.582680	0.769000	0.281930
C911	C91	0.574770	0.762420	0.210030
C921	C92	0.529380	0.732700	0.185230
C931	C93	0.491720	0.710120	0.231430
C941	C94	0.500370	0.716030	0.303030
C951	C95	0.553530	0.752190	0.406730
C961	C96	0.441930	0.681790	0.206030
C971	C97	0.614600	0.788760	0.159230
C981	C98	0.589390	0.913340	0.581430
C991	C99	0.575570	0.921460	0.516230
C1001	C100	0.553370	0.948130	0.511030
C1011	C101	0.540710	0.962510	0.571930
C1021	C102	0.552270	0.952430	0.637430
C1031	C103	0.578470	0.929490	0.641300
C1041	C104	0.615800	0.886710	0.584990
C1051	C105	0.541790	0.959460	0.440800
C1061	C106	0.560970	0.819630	0.016930
H651	H65	0.551070	0.798930	0.057430
H661	H66	0.533470	0.810830	0.988030
C1071	C107	0.579870	0.867430	0.040030
H671	H67	0.574070	0.884930	0.005030
H681	H68	0.565070	0.867830	0.083230
H691	H69	0.613170	0.881430	0.047230
C1081	C108	0.521170	0.775930	0.605630
H701	H70	0.513370	0.795630	0.577430
H711	H71	0.540070	0.794630	0.644830
C1091	C109	0.478370	0.736730	0.631930
H721	H72	0.453470	0.728430	0.598630
H731	H73	0.470070	0.745330	0.675630
H741	H74	0.482870	0.710330	0.639230
H751	H75	0.615170	0.790730	0.305330
H761	H76	0.524870	0.730430	0.142330
H771	H77	0.475670	0.700330	0.338330
H781	H78	0.581970	0.909530	0.475330
H791	H79	0.523870	0.978830	0.568330
H801	H80	0.586870	0.923230	0.686330
C1101	C110	0.533970	0.962250	0.703130
O691	O69	0.547020	0.956320	0.761360
O701	O70	0.501080	0.972100	0.698850
Co111	Co11	0.284610	0.136420	0.859550
Co121	Co12	0.311630	0.127590	0.340920
O711	O71	0.260910	0.114140	0.760580
O721	O72	0.185510	0.062950	0.777970
O731	O73	0.315240	0.160450	0.513730
O741	O74	0.277130	0.103720	0.433270
O751	O75	0.076820	0.002660	0.583270
O761	O76	0.102960	0.006800	0.475770
O771	O77	0.279670	0.195920	0.865390
O781	O78	0.305410	0.225250	0.972960
O791	O79	0.194570	0.322200	0.769510
O801	O80	0.212860	0.273500	0.719760
O811	O81	0.214190	0.095950	0.899120
O821	O82	0.261620	0.146550	0.310580
C1111	C111	0.212580	0.078620	0.662170
C1121	C112	0.249340	0.102340	0.615270
C1131	C113	0.241430	0.095760	0.543370
C1141	C114	0.196040	0.066040	0.518570
C1151	C115	0.158380	0.043460	0.564770
C1161	C116	0.167030	0.049370	0.636370
C1171	C117	0.220190	0.085530	0.740070
C1181	C118	0.108590	0.015130	0.539370
C1191	C119	0.281260	0.122100	0.492570
C1201	C120	0.256050	0.246680	0.914770
C1211	C121	0.242230	0.254800	0.849570
C1221	C122	0.220030	0.281470	0.844370
C1231	C123	0.207370	0.295850	0.905270
C1241	C124	0.218930	0.285770	0.970770
C1251	C125	0.245130	0.262830	0.974640
C1261	C126	0.282460	0.220050	0.918330
C1271	C127	0.208450	0.292800	0.774140
C1281	C128	0.227630	0.152970	0.350270
H811	H81	0.217730	0.132270	0.390770
H821	H82	0.200130	0.144170	0.321370
C1291	C129	0.246530	0.200770	0.373370
H831	H83	0.240730	0.218270	0.338370
H841	H84	0.231730	0.201170	0.416570
H851	H85	0.279830	0.214770	0.380570
C1301	C130	0.187830	0.109270	0.938970
H861	H86	0.180030	0.128970	0.910770
H871	H87	0.206730	0.127970	0.978170
C1311	C131	0.145030	0.070070	0.965270
H881	H88	0.120130	0.061770	0.931970
H891	H89	0.136730	0.078670	0.008970
H901	H90	0.149530	0.043670	0.972570
H911	H91	0.281830	0.124070	0.638670
H921	H92	0.191530	0.063770	0.475670
H931	H93	0.142330	0.033670	0.671670
H941	H94	0.248630	0.242870	0.808670
H951	H95	0.190530	0.312170	0.901670
H961	H96	0.253530	0.256570	0.019670
C1321	C132	0.200630	0.295590	0.036470
O831	O83	0.213680	0.289660	0.094700
O841	O84	0.167740	0.305440	0.032190
Co131	Co13	0.530240	0.481520	0.192880
Co141	Co14	0.539080	0.517380	0.674250
O851	O85	0.552530	0.480110	0.093910
O861	O86	0.603720	0.455900	0.111300
O871	O87	0.506220	0.488130	0.847060
O881	O88	0.562950	0.506750	0.766600
O891	O89	0.664010	0.407500	0.916600
O901	O90	0.659870	0.429500	0.809100
O911	O91	0.470750	0.417090	0.198720
O921	O92	0.441420	0.413500	0.306290
O931	O93	0.344470	0.205710	0.102840
O941	O94	0.393170	0.272700	0.053090
O951	O95	0.570720	0.451580	0.232450
O961	O96	0.520120	0.448410	0.643910
C1331	C133	0.588050	0.467300	0.995500
C1341	C134	0.564330	0.480340	0.948600
C1351	C135	0.570910	0.479010	0.876700
C1361	C136	0.600630	0.463340	0.851900
C1371	C137	0.623210	0.448260	0.898100
C1381	C138	0.617300	0.451000	0.969700
C1391	C139	0.581140	0.468000	0.073400
C1401	C140	0.651540	0.426800	0.872700
C1411	C141	0.544570	0.492500	0.825900
C1421	C142	0.419990	0.342710	0.248100
C1431	C143	0.411870	0.320770	0.182900
C1441	C144	0.385200	0.271900	0.177700
C1451	C145	0.370820	0.244860	0.238600
C1461	C146	0.380900	0.266500	0.304100
C1471	C147	0.403840	0.315640	0.307970
C1481	C148	0.446620	0.395750	0.251660
C1491	C149	0.373870	0.248990	0.107470
C1501	C150	0.513700	0.408000	0.683600
H971	H97	0.534400	0.418800	0.724100
H981	H98	0.522500	0.389300	0.654700
C1511	C151	0.465900	0.379100	0.706700
H991	H99	0.448400	0.355800	0.671700
H1001	H100	0.465500	0.363900	0.749900
H1011	H101	0.451900	0.398400	0.713900
C1521	C152	0.557400	0.411900	0.272300
H1021	H102	0.537700	0.384400	0.244100
H1031	H103	0.538700	0.412100	0.311500
C1531	C153	0.596600	0.408300	0.298600
H1041	H104	0.604900	0.391700	0.265300
H1051	H105	0.588000	0.391400	0.342300
H1061	H106	0.623000	0.439200	0.305900
H1071	H107	0.542600	0.491100	0.972000
H1081	H108	0.602900	0.461100	0.809000
H1091	H109	0.633000	0.442000	0.005000
H1101	H110	0.423800	0.339100	0.142000
H1111	H111	0.354500	0.211700	0.235000
H1121	H112	0.410100	0.330300	0.353000
C1541	C154	0.371080	0.238380	0.369800
O971	O97	0.377010	0.257360	0.428030
O981	O98	0.361230	0.195640	0.365520
Co151	Co15	0.196910	0.814860	0.526210
Co161	Co16	0.205750	0.850710	0.007580
O991	O99	0.219200	0.813440	0.427240
O1001	O100	0.270390	0.789230	0.444630
O1011	O101	0.172890	0.821460	0.180390
O1021	O102	0.229620	0.840080	0.099930
O1031	O103	0.330680	0.740830	0.249930
O1041	O104	0.326540	0.762830	0.142430
O1051	O105	0.137420	0.750420	0.532050
O1061	O106	0.108090	0.746830	0.639620
O1071	O107	0.011140	0.539040	0.436170
O1081	O108	0.059840	0.606030	0.386420
O1091	O109	0.237390	0.784910	0.565780
O1101	O110	0.186790	0.781740	0.977240
C1551	C155	0.254720	0.800630	0.328830
C1561	C156	0.231000	0.813670	0.281930
C1571	C157	0.237580	0.812340	0.210030
C1581	C158	0.267300	0.796670	0.185230
C1591	C159	0.289880	0.781590	0.231430
C1601	C160	0.283970	0.784330	0.303030
C1611	C161	0.247810	0.801330	0.406730
C1621	C162	0.318210	0.760130	0.206030
C1631	C163	0.211240	0.825830	0.159230
C1641	C164	0.086660	0.676040	0.581430
C1651	C165	0.078540	0.654100	0.516230
C1661	C166	0.051870	0.605230	0.511030
C1671	C167	0.037490	0.578190	0.571930
C1681	C168	0.047570	0.599830	0.637430
C1691	C169	0.070510	0.648970	0.641300
C1701	C170	0.113290	0.729080	0.584990
C1711	C171	0.040540	0.582320	0.440800
C1721	C172	0.180370	0.741330	0.016930
H1131	H113	0.201070	0.752130	0.057430
H1141	H114	0.189170	0.722630	0.988030
C1731	C173	0.132570	0.712430	0.040030
H1151	H115	0.115070	0.689130	0.005030
H1161	H116	0.132170	0.697230	0.083230
H1171	H117	0.118570	0.731730	0.047230
C1741	C174	0.224070	0.745230	0.605630
H1181	H118	0.204370	0.717730	0.577430
H1191	H119	0.205370	0.745430	0.644830
C1751	C175	0.263270	0.741630	0.631930
H1201	H120	0.271570	0.725030	0.598630
H1211	H121	0.254670	0.724730	0.675630
H1221	H122	0.289670	0.772530	0.639230
H1231	H123	0.209270	0.824430	0.305330
H1241	H124	0.269570	0.794430	0.142330
H1251	H125	0.299670	0.775330	0.338330
H1261	H126	0.090470	0.672430	0.475330
H1271	H127	0.021170	0.545030	0.568330
H1281	H128	0.076770	0.663630	0.686330
C1761	C176	0.037750	0.571710	0.703130
O1111	O111	0.043680	0.590690	0.761360
O1121	O112	0.027900	0.528970	0.698850
Co171	Co17	0.863580	0.148190	0.859550
Co181	Co18	0.872410	0.184050	0.340920
O1131	O113	0.885860	0.146780	0.760580
O1141	O114	0.937050	0.122570	0.777970
O1151	O115	0.839550	0.154800	0.513730
O1161	O116	0.896280	0.173420	0.433270
O1171	O117	0.997340	0.074170	0.583270
O1181	O118	0.993200	0.096170	0.475770
O1191	O119	0.804080	0.083760	0.865390
O1201	O120	0.774750	0.080170	0.972960
O1211	O121	0.677800	0.872380	0.769510
O1221	O122	0.726500	0.939370	0.719760
O1231	O123	0.904050	0.118250	0.899120
O1241	O124	0.853450	0.115080	0.310580
C1771	C177	0.921380	0.133970	0.662170
C1781	C178	0.897660	0.147010	0.615270
C1791	C179	0.904240	0.145680	0.543370
C1801	C180	0.933960	0.130010	0.518570
C1811	C181	0.956540	0.114930	0.564770
C1821	C182	0.950630	0.117670	0.636370
C1831	C183	0.914470	0.134670	0.740070
C1841	C184	0.984870	0.093470	0.539370
C1851	C185	0.877900	0.159170	0.492570
C1861	C186	0.753320	0.009380	0.914770
C1871	C187	0.745200	0.987440	0.849570
C1881	C188	0.718530	0.938570	0.844370
C1891	C189	0.704150	0.911530	0.905270
C1901	C190	0.714230	0.933170	0.970770
C1911	C191	0.737170	0.982310	0.974640
C1921	C192	0.779950	0.062420	0.918330
C1931	C193	0.707200	0.915660	0.774140
C1941	C194	0.847030	0.074670	0.350270
H1291	H129	0.867730	0.085470	0.390770
H1301	H130	0.855830	0.055970	0.321370
C1951	C195	0.799230	0.045770	0.373370
H1311	H131	0.781730	0.022470	0.338370
H1321	H132	0.798830	0.030570	0.416570
H1331	H133	0.785230	0.065070	0.380570
C1961	C196	0.890730	0.078570	0.938970
H1341	H134	0.871030	0.051070	0.910770
H1351	H135	0.872030	0.078770	0.978170
C1971	C197	0.929930	0.074970	0.965270
H1361	H136	0.938230	0.058370	0.931970
H1371	H137	0.921330	0.058070	0.008970
H1381	H138	0.956330	0.105870	0.972570
H1391	H139	0.875930	0.157770	0.638670
H1401	H140	0.936230	0.127770	0.475670
H1411	H141	0.966330	0.108670	0.671670
H1421	H142	0.757130	0.005770	0.808670
H1431	H143	0.687830	0.878370	0.901670
H1441	H144	0.743430	0.996970	0.019670
C1981	C198	0.704410	0.905050	0.036470
O1251	O125	0.710340	0.924030	0.094700
O1261	O126	0.694560	0.862310	0.032190
Co191	Co19	0.481520	0.951280	0.807120
Co201	Co20	0.517380	0.978300	0.325750
O1271	O127	0.480110	0.927580	0.906090
O1281	O128	0.455900	0.852180	0.888700
O1291	O129	0.488130	0.981910	0.152940
O1301	O130	0.506750	0.943800	0.233400
O1311	O131	0.407500	0.743490	0.083400
O1321	O132	0.429500	0.769630	0.190900
O1331	O133	0.417090	0.946340	0.801280
O1341	O134	0.413500	0.972080	0.693710
O1351	O135	0.205710	0.861240	0.897160
O1361	O136	0.272700	0.879530	0.946910
O1371	O137	0.451580	0.880860	0.767550
O1381	O138	0.448410	0.928290	0.356090
C1991	C199	0.467300	0.879250	0.004500
C2001	C200	0.480340	0.916010	0.051400
C2011	C201	0.479010	0.908100	0.123300
C2021	C202	0.463340	0.862710	0.148100
C2031	C203	0.448260	0.825050	0.101900
C2041	C204	0.451000	0.833700	0.030300
C2051	C205	0.468000	0.886860	0.926600
C2061	C206	0.426800	0.775260	0.127300
C2071	C207	0.492500	0.947930	0.174100
C2081	C208	0.342710	0.922720	0.751900
C2091	C209	0.320770	0.908900	0.817100
C2101	C210	0.271900	0.886700	0.822300
C2111	C211	0.244860	0.874040	0.761400
C2121	C212	0.266500	0.885600	0.695900
C2131	C213	0.315640	0.911800	0.692030
C2141	C214	0.395750	0.949130	0.748340
C2151	C215	0.248990	0.875120	0.892530
C2161	C216	0.408000	0.894300	0.316400
H1451	H145	0.418800	0.884400	0.275900
H1461	H146	0.389300	0.866800	0.345300
C2171	C217	0.379100	0.913200	0.293300
H1471	H147	0.355800	0.907400	0.328300
H1481	H148	0.363900	0.898400	0.250100
H1491	H149	0.398400	0.946500	0.286100
C2181	C218	0.411900	0.854500	0.727700
H1501	H150	0.384400	0.846700	0.755900
H1511	H151	0.412100	0.873400	0.688500
C2191	C219	0.408300	0.811700	0.701400
H1521	H152	0.391700	0.786800	0.734700
H1531	H153	0.391400	0.803400	0.657700
H1541	H154	0.439200	0.816200	0.694100
H1551	H155	0.491100	0.948500	0.028000
H1561	H156	0.461100	0.858200	0.191000
H1571	H157	0.442000	0.809000	0.995000
H1581	H158	0.339100	0.915300	0.858000
H1591	H159	0.211700	0.857200	0.765000
H1601	H160	0.330300	0.920200	0.647000
C2201	C220	0.238380	0.867300	0.630200
O1391	O139	0.257360	0.880350	0.571970
O1401	O140	0.195640	0.834410	0.634480
Co211	Co21	0.148190	0.284610	0.140450
Co221	Co22	0.184050	0.311630	0.659080
O1411	O141	0.146780	0.260910	0.239420
O1421	O142	0.122570	0.185510	0.222030
O1431	O143	0.154800	0.315240	0.486270
O1441	O144	0.173420	0.277130	0.566730
O1451	O145	0.074170	0.076820	0.416730
O1461	O146	0.096170	0.102960	0.524230
O1471	O147	0.083760	0.279670	0.134610
O1481	O148	0.080170	0.305410	0.027040
O1491	O149	0.872380	0.194570	0.230490
O1501	O150	0.939370	0.212860	0.280240
O1511	O151	0.118250	0.214190	0.100880
O1521	O152	0.115080	0.261620	0.689420
C2211	C221	0.133970	0.212580	0.337830
C2221	C222	0.147010	0.249340	0.384730
C2231	C223	0.145680	0.241430	0.456630
C2241	C224	0.130010	0.196040	0.481430
C2251	C225	0.114930	0.158380	0.435230
C2261	C226	0.117670	0.167030	0.363630
C2271	C227	0.134670	0.220190	0.259930
C2281	C228	0.093470	0.108590	0.460630
C2291	C229	0.159170	0.281260	0.507430
C2301	C230	0.009380	0.256050	0.085230
C2311	C231	0.987440	0.242230	0.150430
C2321	C232	0.938570	0.220030	0.155630
C2331	C233	0.911530	0.207370	0.094730
C2341	C234	0.933170	0.218930	0.029230
C2351	C235	0.982310	0.245130	0.025360
C2361	C236	0.062420	0.282460	0.081670
C2371	C237	0.915660	0.208450	0.225860
C2381	C238	0.074670	0.227630	0.649730
H1611	H161	0.085470	0.217730	0.609230
H1621	H162	0.055970	0.200130	0.678630
C2391	C239	0.045770	0.246530	0.626630
H1631	H163	0.022470	0.240730	0.661630
H1641	H164	0.030570	0.231730	0.583430
H1651	H165	0.065070	0.279830	0.619430
C2401	C240	0.078570	0.187830	0.061030
H1661	H166	0.051070	0.180030	0.089230
H1671	H167	0.078770	0.206730	0.021830
C2411	C241	0.074970	0.145030	0.034730
H1681	H168	0.058370	0.120130	0.068030
H1691	H169	0.058070	0.136730	0.991030
H1701	H170	0.105870	0.149530	0.027430
H1711	H171	0.157770	0.281830	0.361330
H1721	H172	0.127770	0.191530	0.524330
H1731	H173	0.108670	0.142330	0.328330
H1741	H174	0.005770	0.248630	0.191330
H1751	H175	0.878370	0.190530	0.098330
H1761	H176	0.996970	0.253530	0.980330
C2421	C242	0.905050	0.200630	0.963530
O1531	O153	0.924030	0.213680	0.905300
O1541	O154	0.862310	0.167740	0.967810
Co231	Co23	0.814860	0.617950	0.473790
Co241	Co24	0.850710	0.644970	0.992420
O1551	O155	0.813440	0.594250	0.572760
O1561	O156	0.789230	0.518850	0.555370
O1571	O157	0.821460	0.648580	0.819610
O1581	O158	0.840080	0.610470	0.900070
O1591	O159	0.740830	0.410160	0.750070
O1601	O160	0.762830	0.436300	0.857570
O1611	O161	0.750420	0.613010	0.467950
O1621	O162	0.746830	0.638750	0.360380
O1631	O163	0.539040	0.527910	0.563830
O1641	O164	0.606030	0.546200	0.613580
O1651	O165	0.784910	0.547530	0.434220
O1661	O166	0.781740	0.594960	0.022760
C2431	C243	0.800630	0.545920	0.671170
C2441	C244	0.813670	0.582680	0.718070
C2451	C245	0.812340	0.574770	0.789970
C2461	C246	0.796670	0.529380	0.814770
C2471	C247	0.781590	0.491720	0.768570
C2481	C248	0.784330	0.500370	0.696970
C2491	C249	0.801330	0.553530	0.593270
C2501	C250	0.760130	0.441930	0.793970
C2511	C251	0.825830	0.614600	0.840770
C2521	C252	0.676040	0.589390	0.418570
C2531	C253	0.654100	0.575570	0.483770
C2541	C254	0.605230	0.553370	0.488970
C2551	C255	0.578190	0.540710	0.428070
C2561	C256	0.599830	0.552270	0.362570
C2571	C257	0.648970	0.578470	0.358700
C2581	C258	0.729080	0.615800	0.415010
C2591	C259	0.582320	0.541790	0.559200
C2601	C260	0.741330	0.560970	0.983070
H1771	H177	0.752130	0.551070	0.942570
H1781	H178	0.722630	0.533470	0.011970
C2611	C261	0.712430	0.579870	0.959970
H1791	H179	0.689130	0.574070	0.994970
H1801	H180	0.697230	0.565070	0.916770
H1811	H181	0.731730	0.613170	0.952770
C2621	C262	0.745230	0.521170	0.394370
H1821	H182	0.717730	0.513370	0.422570
H1831	H183	0.745430	0.540070	0.355170
C2631	C263	0.741630	0.478370	0.368070
H1841	H184	0.725030	0.453470	0.401370
H1851	H185	0.724730	0.470070	0.324370
H1861	H186	0.772530	0.482870	0.360770
H1871	H187	0.824430	0.615170	0.694670
H1881	H188	0.794430	0.524870	0.857670
H1891	H189	0.775330	0.475670	0.661670
H1901	H190	0.672430	0.581970	0.524670
H1911	H191	0.545030	0.523870	0.431670
H1921	H192	0.663630	0.586870	0.313670
C2641	C264	0.571710	0.533970	0.296870
O1671	O167	0.590690	0.547020	0.238640
O1681	O168	0.528970	0.501080	0.301150
Co251	Co25	0.048720	0.530240	0.807120
Co261	Co26	0.021700	0.539080	0.325750
O1691	O169	0.072420	0.552530	0.906090
O1701	O170	0.147820	0.603720	0.888700
O1711	O171	0.018090	0.506220	0.152940
O1721	O172	0.056200	0.562950	0.233400
O1731	O173	0.256510	0.664010	0.083400
O1741	O174	0.230370	0.659870	0.190900
O1751	O175	0.053660	0.470750	0.801280
O1761	O176	0.027920	0.441420	0.693710
O1771	O177	0.138760	0.344470	0.897160
O1781	O178	0.120470	0.393170	0.946910
O1791	O179	0.119140	0.570720	0.767550
O1801	O180	0.071710	0.520120	0.356090
C2651	C265	0.120750	0.588050	0.004500
C2661	C266	0.083990	0.564330	0.051400
C2671	C267	0.091900	0.570910	0.123300
C2681	C268	0.137290	0.600630	0.148100
C2691	C269	0.174950	0.623210	0.101900
C2701	C270	0.166300	0.617300	0.030300
C2711	C271	0.113140	0.581140	0.926600
C2721	C272	0.224740	0.651540	0.127300
C2731	C273	0.052070	0.544570	0.174100
C2741	C274	0.077280	0.419990	0.751900
C2751	C275	0.091100	0.411870	0.817100
C2761	C276	0.113300	0.385200	0.822300
C2771	C277	0.125960	0.370820	0.761400
C2781	C278	0.114400	0.380900	0.695900
C2791	C279	0.088200	0.403840	0.692030
C2801	C280	0.050870	0.446620	0.748340
C2811	C281	0.124880	0.373870	0.892530
C2821	C282	0.105700	0.513700	0.316400
H1931	H193	0.115600	0.534400	0.275900
H1941	H194	0.133200	0.522500	0.345300
C2831	C283	0.086800	0.465900	0.293300
H1951	H195	0.092600	0.448400	0.328300
H1961	H196	0.101600	0.465500	0.250100
H1971	H197	0.053500	0.451900	0.286100
C2841	C284	0.145500	0.557400	0.727700
H1981	H198	0.153300	0.537700	0.755900
H1991	H199	0.126600	0.538700	0.688500
C2851	C285	0.188300	0.596600	0.701400
H2001	H200	0.213200	0.604900	0.734700
H2011	H201	0.196600	0.588000	0.657700
H2021	H202	0.183800	0.623000	0.694100
H2031	H203	0.051500	0.542600	0.028000
H2041	H204	0.141800	0.602900	0.191000
H2051	H205	0.191000	0.633000	0.995000
H2061	H206	0.084700	0.423800	0.858000
H2071	H207	0.142800	0.354500	0.765000
H2081	H208	0.079800	0.410100	0.647000
C2861	C286	0.132700	0.371080	0.630200
O1811	O181	0.119650	0.377010	0.571970
O1821	O182	0.165590	0.361230	0.634480
Co271	Co27	0.715390	0.863580	0.140450
Co281	Co28	0.688370	0.872410	0.659080
O1831	O183	0.739090	0.885860	0.239420
O1841	O184	0.814490	0.937050	0.222030
O1851	O185	0.684760	0.839550	0.486270
O1861	O186	0.722870	0.896280	0.566730
O1871	O187	0.923180	0.997340	0.416730
O1881	O188	0.897040	0.993200	0.524230
O1891	O189	0.720330	0.804080	0.134610
O1901	O190	0.694590	0.774750	0.027040
O1911	O191	0.805430	0.677800	0.230490
O1921	O192	0.787140	0.726500	0.280240
O1931	O193	0.785810	0.904050	0.100880
O1941	O194	0.738380	0.853450	0.689420
C2871	C287	0.787420	0.921380	0.337830
C2881	C288	0.750660	0.897660	0.384730
C2891	C289	0.758570	0.904240	0.456630
C2901	C290	0.803960	0.933960	0.481430
C2911	C291	0.841620	0.956540	0.435230
C2921	C292	0.832970	0.950630	0.363630
C2931	C293	0.779810	0.914470	0.259930
C2941	C294	0.891410	0.984870	0.460630
C2951	C295	0.718740	0.877900	0.507430
C2961	C296	0.743950	0.753320	0.085230
C2971	C297	0.757770	0.745200	0.150430
C2981	C298	0.779970	0.718530	0.155630
C2991	C299	0.792630	0.704150	0.094730
C3001	C300	0.781070	0.714230	0.029230
C3011	C301	0.754870	0.737170	0.025360
C3021	C302	0.717540	0.779950	0.081670
C3031	C303	0.791550	0.707200	0.225860
C3041	C304	0.772370	0.847030	0.649730
H2091	H209	0.782270	0.867730	0.609230
H2101	H210	0.799870	0.855830	0.678630
C3051	C305	0.753470	0.799230	0.626630
H2111	H211	0.759270	0.781730	0.661630
H2121	H212	0.768270	0.798830	0.583430
H2131	H213	0.720170	0.785230	0.619430
C3061	C306	0.812170	0.890730	0.061030
H2141	H214	0.819970	0.871030	0.089230
H2151	H215	0.793270	0.872030	0.021830
C3071	C307	0.854970	0.929930	0.034730
H2161	H216	0.879870	0.938230	0.068030
H2171	H217	0.863270	0.921330	0.991030
H2181	H218	0.850470	0.956330	0.027430
H2191	H219	0.718170	0.875930	0.361330
H2201	H220	0.808470	0.936230	0.524330
H2211	H221	0.857670	0.966330	0.328330
H2221	H222	0.751370	0.757130	0.191330
H2231	H223	0.809470	0.687830	0.098330
H2241	H224	0.746470	0.743430	0.980330
C3081	C308	0.799370	0.704410	0.963530
O1951	O195	0.786320	0.710340	0.905300
O1961	O196	0.832260	0.694560	0.967810
Co291	Co29	0.382050	0.196910	0.473790
Co301	Co30	0.355030	0.205750	0.992420
O1971	O197	0.405750	0.219200	0.572760
O1981	O198	0.481150	0.270390	0.555370
O1991	O199	0.351420	0.172890	0.819610
O2001	O200	0.389530	0.229620	0.900070
O2011	O201	0.589840	0.330680	0.750070
O2021	O202	0.563700	0.326540	0.857570
O2031	O203	0.386990	0.137420	0.467950
O2041	O204	0.361250	0.108090	0.360380
O2051	O205	0.472090	0.011140	0.563830
O2061	O206	0.453800	0.059840	0.613580
O2071	O207	0.452470	0.237390	0.434220
O2081	O208	0.405040	0.186790	0.022760
C3091	C309	0.454080	0.254720	0.671170
C3101	C310	0.417320	0.231000	0.718070
C3111	C311	0.425230	0.237580	0.789970
C3121	C312	0.470620	0.267300	0.814770
C3131	C313	0.508280	0.289880	0.768570
C3141	C314	0.499630	0.283970	0.696970
C3151	C315	0.446470	0.247810	0.593270
C3161	C316	0.558070	0.318210	0.793970
C3171	C317	0.385400	0.211240	0.840770
C3181	C318	0.410610	0.086660	0.418570
C3191	C319	0.424430	0.078540	0.483770
C3201	C320	0.446630	0.051870	0.488970
C3211	C321	0.459290	0.037490	0.428070
C3221	C322	0.447730	0.047570	0.362570
C3231	C323	0.421530	0.070510	0.358700
C3241	C324	0.384200	0.113290	0.415010
C3251	C325	0.458210	0.040540	0.559200
C3261	C326	0.439030	0.180370	0.983070
H2251	H225	0.448930	0.201070	0.942570
H2261	H226	0.466530	0.189170	0.011970
C3271	C327	0.420130	0.132570	0.959970
H2271	H227	0.425930	0.115070	0.994970
H2281	H228	0.434930	0.132170	0.916770
H2291	H229	0.386830	0.118570	0.952770
C3281	C328	0.478830	0.224070	0.394370
H2301	H230	0.486630	0.204370	0.422570
H2311	H231	0.459930	0.205370	0.355170
C3291	C329	0.521630	0.263270	0.368070
H2321	H232	0.546530	0.271570	0.401370
H2331	H233	0.529930	0.254670	0.324370
H2341	H234	0.517130	0.289670	0.360770
H2351	H235	0.384830	0.209270	0.694670
H2361	H236	0.475130	0.269570	0.857670
H2371	H237	0.524330	0.299670	0.661670
H2381	H238	0.418030	0.090470	0.524670
H2391	H239	0.476130	0.021170	0.431670
H2401	H240	0.413130	0.076770	0.313670
C3301	C330	0.466030	0.037750	0.296870
O2091	O209	0.452980	0.043680	0.238640
O2101	O210	0.498920	0.027900	0.301150
Co311	Co31	0.469760	0.518480	0.807120
Co321	Co32	0.460920	0.482620	0.325750
O2111	O211	0.447470	0.519890	0.906090
O2121	O212	0.396280	0.544100	0.888700
O2131	O213	0.493780	0.511870	0.152940
O2141	O214	0.437050	0.493250	0.233400
O2151	O215	0.335990	0.592500	0.083400
O2161	O216	0.340130	0.570500	0.190900
O2171	O217	0.529250	0.582910	0.801280
O2181	O218	0.558580	0.586500	0.693710
O2191	O219	0.655530	0.794290	0.897160
O2201	O220	0.606830	0.727300	0.946910
O2211	O221	0.429280	0.548420	0.767550
O2221	O222	0.479880	0.551590	0.356090
C3311	C331	0.411950	0.532700	0.004500
C3321	C332	0.435670	0.519660	0.051400
C3331	C333	0.429090	0.520990	0.123300
C3341	C334	0.399370	0.536660	0.148100
C3351	C335	0.376790	0.551740	0.101900
C3361	C336	0.382700	0.549000	0.030300
C3371	C337	0.418860	0.532000	0.926600
C3381	C338	0.348460	0.573200	0.127300
C3391	C339	0.455430	0.507500	0.174100
C3401	C340	0.580010	0.657290	0.751900
C3411	C341	0.588130	0.679230	0.817100
C3421	C342	0.614800	0.728100	0.822300
C3431	C343	0.629180	0.755140	0.761400
C3441	C344	0.619100	0.733500	0.695900
C3451	C345	0.596160	0.684360	0.692030
C3461	C346	0.553380	0.604250	0.748340
C3471	C347	0.626130	0.751010	0.892530
C3481	C348	0.486300	0.592000	0.316400
H2411	H241	0.465600	0.581200	0.275900
H2421	H242	0.477500	0.610700	0.345300
C3491	C349	0.534100	0.620900	0.293300
H2431	H243	0.551600	0.644200	0.328300
H2441	H244	0.534500	0.636100	0.250100
H2451	H245	0.548100	0.601600	0.286100
C3501	C350	0.442600	0.588100	0.727700
H2461	H246	0.462300	0.615600	0.755900
H2471	H247	0.461300	0.587900	0.688500
C3511	C351	0.403400	0.591700	0.701400
H2481	H248	0.395100	0.608300	0.734700
H2491	H249	0.412000	0.608600	0.657700
H2501	H250	0.377000	0.560800	0.694100
H2511	H251	0.457400	0.508900	0.028000
H2521	H252	0.397100	0.538900	0.191000
H2531	H253	0.367000	0.558000	0.995000
H2541	H254	0.576200	0.660900	0.858000
H2551	H255	0.645500	0.788300	0.765000
H2561	H256	0.589900	0.669700	0.647000
C3521	C352	0.628920	0.761620	0.630200
O2231	O223	0.622990	0.742640	0.571970
O2241	O224	0.638770	0.804360	0.634480
Co331	Co33	0.136420	0.851810	0.140450
Co341	Co34	0.127590	0.815950	0.659080
O2251	O225	0.114140	0.853220	0.239420
O2261	O226	0.062950	0.877430	0.222030
O2271	O227	0.160450	0.845200	0.486270
O2281	O228	0.103720	0.826580	0.566730
O2291	O229	0.002660	0.925830	0.416730
O2301	O230	0.006800	0.903830	0.524230
O2311	O231	0.195920	0.916240	0.134610
O2321	O232	0.225250	0.919830	0.027040
O2331	O233	0.322200	0.127620	0.230490
O2341	O234	0.273500	0.060630	0.280240
O2351	O235	0.095950	0.881750	0.100880
O2361	O236	0.146550	0.884920	0.689420
C3531	C353	0.078620	0.866030	0.337830
C3541	C354	0.102340	0.852990	0.384730
C3551	C355	0.095760	0.854320	0.456630
C3561	C356	0.066040	0.869990	0.481430
C3571	C357	0.043460	0.885070	0.435230
C3581	C358	0.049370	0.882330	0.363630
C3591	C359	0.085530	0.865330	0.259930
C3601	C360	0.015130	0.906530	0.460630
C3611	C361	0.122100	0.840830	0.507430
C3621	C362	0.246680	0.990620	0.085230
C3631	C363	0.254800	0.012560	0.150430
C3641	C364	0.281470	0.061430	0.155630
C3651	C365	0.295850	0.088470	0.094730
C3661	C366	0.285770	0.066830	0.029230
C3671	C367	0.262830	0.017690	0.025360
C3681	C368	0.220050	0.937580	0.081670
C3691	C369	0.292800	0.084340	0.225860
C3701	C370	0.152970	0.925330	0.649730
H2571	H257	0.132270	0.914530	0.609230
H2581	H258	0.144170	0.944030	0.678630
C3711	C371	0.200770	0.954230	0.626630
H2591	H259	0.218270	0.977530	0.661630
H2601	H260	0.201170	0.969430	0.583430
H2611	H261	0.214770	0.934930	0.619430
C3721	C372	0.109270	0.921430	0.061030
H2621	H262	0.128970	0.948930	0.089230
H2631	H263	0.127970	0.921230	0.021830
C3731	C373	0.070070	0.925030	0.034730
H2641	H264	0.061770	0.941630	0.068030
H2651	H265	0.078670	0.941930	0.991030
H2661	H266	0.043670	0.894130	0.027430
H2671	H267	0.124070	0.842230	0.361330
H2681	H268	0.063770	0.872230	0.524330
H2691	H269	0.033670	0.891330	0.328330
H2701	H270	0.242870	0.994230	0.191330
H2711	H271	0.312170	0.121630	0.098330
H2721	H272	0.256570	0.003030	0.980330
C3741	C374	0.295590	0.094950	0.963530
O2371	O237	0.289660	0.075970	0.905300
O2381	O238	0.305440	0.137690	0.967810
Co351	Co35	0.803090	0.185140	0.473790
Co361	Co36	0.794250	0.149290	0.992420
O2391	O239	0.780800	0.186560	0.572760
O2401	O240	0.729610	0.210770	0.555370
O2411	O241	0.827110	0.178540	0.819610
O2421	O242	0.770380	0.159920	0.900070
O2431	O243	0.669320	0.259170	0.750070
O2441	O244	0.673460	0.237170	0.857570
O2451	O245	0.862580	0.249580	0.467950
O2461	O246	0.891910	0.253170	0.360380
O2471	O247	0.988860	0.460960	0.563830
O2481	O248	0.940160	0.393970	0.613580
O2491	O249	0.762610	0.215090	0.434220
O2501	O250	0.813210	0.218260	0.022760
C3751	C375	0.745280	0.199370	0.671170
C3761	C376	0.769000	0.186330	0.718070
C3771	C377	0.762420	0.187660	0.789970
C3781	C378	0.732700	0.203330	0.814770
C3791	C379	0.710120	0.218410	0.768570
C3801	C380	0.716030	0.215670	0.696970
C3811	C381	0.752190	0.198670	0.593270
C3821	C382	0.681790	0.239870	0.793970
C3831	C383	0.788760	0.174170	0.840770
C3841	C384	0.913340	0.323960	0.418570
C3851	C385	0.921460	0.345900	0.483770
C3861	C386	0.948130	0.394770	0.488970
C3871	C387	0.962510	0.421810	0.428070
C3881	C388	0.952430	0.400170	0.362570
C3891	C389	0.929490	0.351030	0.358700
C3901	C390	0.886710	0.270920	0.415010
C3911	C391	0.959460	0.417680	0.559200
C3921	C392	0.819630	0.258670	0.983070
H2731	H273	0.798930	0.247870	0.942570
H2741	H274	0.810830	0.277370	0.011970
C3931	C393	0.867430	0.287570	0.959970
H2751	H275	0.884930	0.310870	0.994970
H2761	H276	0.867830	0.302770	0.916770
H2771	H277	0.881430	0.268270	0.952770
C3941	C394	0.775930	0.254770	0.394370
H2781	H278	0.795630	0.282270	0.422570
H2791	H279	0.794630	0.254570	0.355170
C3951	C395	0.736730	0.258370	0.368070
H2801	H280	0.728430	0.274970	0.401370
H2811	H281	0.745330	0.275270	0.324370
H2821	H282	0.710330	0.227470	0.360770
H2831	H283	0.790730	0.175570	0.694670
H2841	H284	0.730430	0.205570	0.857670
H2851	H285	0.700330	0.224670	0.661670
H2861	H286	0.909530	0.327570	0.524670
H2871	H287	0.978830	0.454970	0.431670
H2881	H288	0.923230	0.336370	0.313670
C3961	C396	0.962250	0.428290	0.296870
O2511	O251	0.956320	0.409310	0.238640
O2521	O252	0.972100	0.471030	0.301150
