data_AWAKEQ_freeONLY_PM
_symmetry_space_group_name_H-M	'P1'
_cell_length_a	10.108000
_cell_length_b	13.669500
_cell_length_c	28.862600
_cell_angle_alpha	90.000000
_cell_angle_beta	99.502000
_cell_angle_gamma	90.000000
_symmetry_Int_Tables_number 1

loop_
_symmetry_equiv_pos_as_xyz
'x,y,z'

loop_
_atom_site_label
_atom_site_type_symbol
_atom_site_fract_x
_atom_site_fract_y
_atom_site_fract_z
C11	C1	0.478500	0.186000	0.888740
C21	C2	0.427600	0.246800	0.925490
C31	C3	0.493600	0.250600	0.971070
H11	H1	0.567100	0.210100	0.980300
C41	C4	0.314200	0.303800	0.913480
H21	H2	0.267000	0.300700	0.883000
C51	C5	0.269400	0.365000	0.945260
H31	H3	0.191300	0.401100	0.936400
C61	C6	0.452400	0.313700	0.003570
H41	H4	0.499800	0.316000	0.034000
C71	C7	0.341000	0.373300	0.991010
C81	C8	0.232200	0.529300	0.006850
C91	C9	0.138500	0.566600	0.032500
H51	H5	0.120200	0.533400	0.058900
C101	C10	0.254500	0.578800	0.967320
H61	H6	0.316700	0.554700	0.949800
C111	C11	0.185200	0.664100	0.953490
H71	H7	0.200600	0.695900	0.926400
C121	C12	0.072400	0.653700	0.018700
H81	H8	0.012200	0.679600	0.036600
C131	C13	0.094900	0.702300	0.978600
H91	H9	0.049300	0.759900	0.969100
C141	C14	0.354100	0.435400	0.071960
C151	C15	0.339100	0.350500	0.096570
H101	H10	0.297400	0.296200	0.081100
C161	C16	0.419900	0.514500	0.094850
H111	H11	0.433200	0.570600	0.078000
C171	C17	0.386400	0.346800	0.144290
H121	H12	0.376000	0.289600	0.160700
C181	C18	0.466400	0.510600	0.142920
H131	H13	0.509400	0.564600	0.158300
C191	C19	0.448800	0.426300	0.168020
C201	C20	0.490600	0.423700	0.220640
C211	C21	0.153400	0.637800	0.332360
C221	C22	0.282300	0.672300	0.344530
H141	H14	0.296600	0.736300	0.355100
C231	C23	0.139800	0.543000	0.316360
H151	H15	0.054600	0.516700	0.307300
C241	C24	0.250700	0.486800	0.313640
H161	H16	0.238200	0.422500	0.303400
C251	C25	0.390300	0.612800	0.341240
H171	H17	0.476400	0.637400	0.350500
C261	C26	0.860000	0.330000	0.334560
H181	H18	0.880500	0.390800	0.348400
C271	C27	0.707400	0.221000	0.298250
H191	H19	0.618700	0.205200	0.286400
C281	C28	0.962400	0.264600	0.332920
H201	H20	0.049900	0.281600	0.345800
C291	C29	0.803800	0.151800	0.295180
H211	H21	0.780400	0.091000	0.281800
C301	C30	0.936500	0.173800	0.312320
C311	C31	0.049500	0.106100	0.306280
H221	H22	0.081700	0.123000	0.277400
H231	H23	0.122800	0.116200	0.332100
C321	C32	0.982800	0.966000	0.349470
H241	H24	0.985200	0.004400	0.376200
C331	C33	0.120000	0.944200	0.290490
H251	H25	0.200200	0.969200	0.283700
C341	C34	0.948800	0.860800	0.347310
H261	H26	0.868300	0.834600	0.353200
C351	C35	0.082400	0.837200	0.288420
H271	H27	0.074900	0.798300	0.261700
C361	C36	0.032400	0.699300	0.335590
H281	H28	0.962100	0.683100	0.309600
H291	H29	0.999900	0.683600	0.364500
N11	N1	0.302900	0.442000	0.022920
N21	N2	0.732900	0.309800	0.317170
N31	N3	0.375600	0.520600	0.325150
N41	N4	0.012200	0.003000	0.304640
N51	N5	0.059700	0.803800	0.334610
O11	O1	0.430600	0.203700	0.846730
O21	O2	0.716100	0.543900	0.341640
O31	O3	0.563900	0.121200	0.900830
O41	O4	0.455000	0.352300	0.242980
O51	O5	0.557500	0.492400	0.241120
Cd11	Cd1	0.556590	0.418250	0.317740
C371	C37	0.478500	0.314000	0.388740
C381	C38	0.427600	0.253200	0.425490
C391	C39	0.493600	0.249400	0.471070
H301	H30	0.567100	0.289900	0.480300
C401	C40	0.314200	0.196200	0.413480
H311	H31	0.267000	0.199300	0.383000
C411	C41	0.269400	0.135000	0.445260
H321	H32	0.191300	0.098900	0.436400
C421	C42	0.452400	0.186300	0.503570
H331	H33	0.499800	0.184000	0.534000
C431	C43	0.341000	0.126700	0.491010
C441	C44	0.232200	0.970700	0.506850
C451	C45	0.138500	0.933400	0.532500
H341	H34	0.120200	0.966600	0.558900
C461	C46	0.254500	0.921200	0.467320
H351	H35	0.316700	0.945300	0.449800
C471	C47	0.185200	0.835900	0.453490
H361	H36	0.200600	0.804100	0.426400
C481	C48	0.072400	0.846300	0.518700
H371	H37	0.012200	0.820400	0.536600
C491	C49	0.094900	0.797700	0.478600
H381	H38	0.049300	0.740100	0.469100
C501	C50	0.354100	0.064600	0.571960
C511	C51	0.339100	0.149500	0.596570
H391	H39	0.297400	0.203800	0.581100
C521	C52	0.419900	0.985500	0.594850
H401	H40	0.433200	0.929400	0.578000
C531	C53	0.386400	0.153200	0.644290
H411	H41	0.376000	0.210400	0.660700
C541	C54	0.466400	0.989400	0.642920
H421	H42	0.509400	0.935400	0.658300
C551	C55	0.448800	0.073700	0.668020
C561	C56	0.490600	0.076300	0.720640
C571	C57	0.153400	0.862200	0.832360
C581	C58	0.282300	0.827700	0.844530
H431	H43	0.296600	0.763700	0.855100
C591	C59	0.139800	0.957000	0.816360
H441	H44	0.054600	0.983300	0.807300
C601	C60	0.250700	0.013200	0.813640
H451	H45	0.238200	0.077500	0.803400
C611	C61	0.390300	0.887200	0.841240
H461	H46	0.476400	0.862600	0.850500
C621	C62	0.860000	0.170000	0.834560
H471	H47	0.880500	0.109200	0.848400
C631	C63	0.707400	0.279000	0.798250
H481	H48	0.618700	0.294800	0.786400
C641	C64	0.962400	0.235400	0.832920
H491	H49	0.049900	0.218400	0.845800
C651	C65	0.803800	0.348200	0.795180
H501	H50	0.780400	0.409000	0.781800
C661	C66	0.936500	0.326200	0.812320
C671	C67	0.049500	0.393900	0.806280
H511	H51	0.081700	0.377000	0.777400
H521	H52	0.122800	0.383800	0.832100
C681	C68	0.982800	0.534000	0.849470
H531	H53	0.985200	0.495600	0.876200
C691	C69	0.120000	0.555800	0.790490
H541	H54	0.200200	0.530800	0.783700
C701	C70	0.948800	0.639200	0.847310
H551	H55	0.868300	0.665400	0.853200
C711	C71	0.082400	0.662800	0.788420
H561	H56	0.074900	0.701700	0.761700
C721	C72	0.032400	0.800700	0.835590
H571	H57	0.962100	0.816900	0.809600
H581	H58	0.999900	0.816400	0.864500
N61	N6	0.302900	0.058000	0.522920
N71	N7	0.732900	0.190200	0.817170
N81	N8	0.375600	0.979400	0.825150
N91	N9	0.012200	0.497000	0.804640
N101	N10	0.059700	0.696200	0.834610
O61	O6	0.430600	0.296300	0.346730
O71	O7	0.716100	0.956100	0.841640
O81	O8	0.563900	0.378800	0.400830
O91	O9	0.455000	0.147700	0.742980
O101	O10	0.557500	0.007600	0.741120
Cd21	Cd2	0.556590	0.081750	0.817740
C731	C73	0.521500	0.686000	0.611260
C741	C74	0.572400	0.746800	0.574510
C751	C75	0.506400	0.750600	0.528930
H591	H59	0.432900	0.710100	0.519700
C761	C76	0.685800	0.803800	0.586520
H601	H60	0.733000	0.800700	0.617000
C771	C77	0.730600	0.865000	0.554740
H611	H61	0.808700	0.901100	0.563600
C781	C78	0.547600	0.813700	0.496430
H621	H62	0.500200	0.816000	0.466000
C791	C79	0.659000	0.873300	0.508990
C801	C80	0.767800	0.029300	0.493150
C811	C81	0.861500	0.066600	0.467500
H631	H63	0.879800	0.033400	0.441100
C821	C82	0.745500	0.078800	0.532680
H641	H64	0.683300	0.054700	0.550200
C831	C83	0.814800	0.164100	0.546510
H651	H65	0.799400	0.195900	0.573600
C841	C84	0.927600	0.153700	0.481300
H661	H66	0.987800	0.179600	0.463400
C851	C85	0.905100	0.202300	0.521400
H671	H67	0.950700	0.259900	0.530900
C861	C86	0.645900	0.935400	0.428040
C871	C87	0.660900	0.850500	0.403430
H681	H68	0.702600	0.796200	0.418900
C881	C88	0.580100	0.014500	0.405150
H691	H69	0.566800	0.070600	0.422000
C891	C89	0.613600	0.846800	0.355710
H701	H70	0.624000	0.789600	0.339300
C901	C90	0.533600	0.010600	0.357080
H711	H71	0.490600	0.064600	0.341700
C911	C91	0.551200	0.926300	0.331980
C921	C92	0.509400	0.923700	0.279360
C931	C93	0.846600	0.137800	0.167640
C941	C94	0.717700	0.172300	0.155470
H721	H72	0.703400	0.236300	0.144900
C951	C95	0.860200	0.043000	0.183640
H731	H73	0.945400	0.016700	0.192700
C961	C96	0.749300	0.986800	0.186360
H741	H74	0.761800	0.922500	0.196600
C971	C97	0.609700	0.112800	0.158760
H751	H75	0.523600	0.137400	0.149500
C981	C98	0.140000	0.830000	0.165440
H761	H76	0.119500	0.890800	0.151600
C991	C99	0.292600	0.721000	0.201750
H771	H77	0.381300	0.705200	0.213600
C1001	C100	0.037600	0.764600	0.167080
H781	H78	0.950100	0.781600	0.154200
C1011	C101	0.196200	0.651800	0.204820
H791	H79	0.219600	0.591000	0.218200
C1021	C102	0.063500	0.673800	0.187680
C1031	C103	0.950500	0.606100	0.193720
H801	H80	0.918300	0.623000	0.222600
H811	H81	0.877200	0.616200	0.167900
C1041	C104	0.017200	0.466000	0.150530
H821	H82	0.014800	0.504400	0.123800
C1051	C105	0.880000	0.444200	0.209510
H831	H83	0.799800	0.469200	0.216300
C1061	C106	0.051200	0.360800	0.152690
H841	H84	0.131700	0.334600	0.146800
C1071	C107	0.917600	0.337200	0.211580
H851	H85	0.925100	0.298300	0.238300
C1081	C108	0.967600	0.199300	0.164410
H861	H86	0.037900	0.183100	0.190400
H871	H87	0.000100	0.183600	0.135500
N111	N11	0.697100	0.942000	0.477080
N121	N12	0.267100	0.809800	0.182830
N131	N13	0.624400	0.020600	0.174850
N141	N14	0.987800	0.503000	0.195360
N151	N15	0.940300	0.303800	0.165390
O111	O11	0.569400	0.703700	0.653270
O121	O12	0.283900	0.043900	0.158360
O131	O13	0.436100	0.621200	0.599170
O141	O14	0.545000	0.852300	0.257020
O151	O15	0.442500	0.992400	0.258880
Cd31	Cd3	0.443410	0.918250	0.182260
C1091	C109	0.521500	0.814000	0.111260
C1101	C110	0.572400	0.753200	0.074510
C1111	C111	0.506400	0.749400	0.028930
H881	H88	0.432900	0.789900	0.019700
C1121	C112	0.685800	0.696200	0.086520
H891	H89	0.733000	0.699300	0.117000
C1131	C113	0.730600	0.635000	0.054740
H901	H90	0.808700	0.598900	0.063600
C1141	C114	0.547600	0.686300	0.996430
H911	H91	0.500200	0.684000	0.966000
C1151	C115	0.659000	0.626700	0.008990
C1161	C116	0.767800	0.470700	0.993150
C1171	C117	0.861500	0.433400	0.967500
H921	H92	0.879800	0.466600	0.941100
C1181	C118	0.745500	0.421200	0.032680
H931	H93	0.683300	0.445300	0.050200
C1191	C119	0.814800	0.335900	0.046510
H941	H94	0.799400	0.304100	0.073600
C1201	C120	0.927600	0.346300	0.981300
H951	H95	0.987800	0.320400	0.963400
C1211	C121	0.905100	0.297700	0.021400
H961	H96	0.950700	0.240100	0.030900
C1221	C122	0.645900	0.564600	0.928040
C1231	C123	0.660900	0.649500	0.903430
H971	H97	0.702600	0.703800	0.918900
C1241	C124	0.580100	0.485500	0.905150
H981	H98	0.566800	0.429400	0.922000
C1251	C125	0.613600	0.653200	0.855710
H991	H99	0.624000	0.710400	0.839300
C1261	C126	0.533600	0.489400	0.857080
H1001	H100	0.490600	0.435400	0.841700
C1271	C127	0.551200	0.573700	0.831980
C1281	C128	0.509400	0.576300	0.779360
C1291	C129	0.846600	0.362200	0.667640
C1301	C130	0.717700	0.327700	0.655470
H1011	H101	0.703400	0.263700	0.644900
C1311	C131	0.860200	0.457000	0.683640
H1021	H102	0.945400	0.483300	0.692700
C1321	C132	0.749300	0.513200	0.686360
H1031	H103	0.761800	0.577500	0.696600
C1331	C133	0.609700	0.387200	0.658760
H1041	H104	0.523600	0.362600	0.649500
C1341	C134	0.140000	0.670000	0.665440
H1051	H105	0.119500	0.609200	0.651600
C1351	C135	0.292600	0.779000	0.701750
H1061	H106	0.381300	0.794800	0.713600
C1361	C136	0.037600	0.735400	0.667080
H1071	H107	0.950100	0.718400	0.654200
C1371	C137	0.196200	0.848200	0.704820
H1081	H108	0.219600	0.909000	0.718200
C1381	C138	0.063500	0.826200	0.687680
C1391	C139	0.950500	0.893900	0.693720
H1091	H109	0.918300	0.877000	0.722600
H1101	H110	0.877200	0.883800	0.667900
C1401	C140	0.017200	0.034000	0.650530
H1111	H111	0.014800	0.995600	0.623800
C1411	C141	0.880000	0.055800	0.709510
H1121	H112	0.799800	0.030800	0.716300
C1421	C142	0.051200	0.139200	0.652690
H1131	H113	0.131700	0.165400	0.646800
C1431	C143	0.917600	0.162800	0.711580
H1141	H114	0.925100	0.201700	0.738300
C1441	C144	0.967600	0.300700	0.664410
H1151	H115	0.037900	0.316900	0.690400
H1161	H116	0.000100	0.316400	0.635500
N161	N16	0.697100	0.558000	0.977080
N171	N17	0.267100	0.690200	0.682830
N181	N18	0.624400	0.479400	0.674850
N191	N19	0.987800	0.997000	0.695360
N201	N20	0.940300	0.196200	0.665390
O161	O16	0.569400	0.796300	0.153270
O171	O17	0.283900	0.456100	0.658360
O181	O18	0.436100	0.878800	0.099170
O191	O19	0.545000	0.647700	0.757020
O201	O20	0.442500	0.507600	0.758880
Cd41	Cd4	0.443410	0.581750	0.682260
