data_AWEJIW_freeONLY_PM
_symmetry_space_group_name_H-M	'P1'
_cell_length_a	7.142200
_cell_length_b	21.211000
_cell_length_c	22.181000
_cell_angle_alpha	62.412000
_cell_angle_beta	81.392000
_cell_angle_gamma	89.538000
_symmetry_Int_Tables_number 1

loop_
_symmetry_equiv_pos_as_xyz
'x,y,z'

loop_
_atom_site_label
_atom_site_type_symbol
_atom_site_fract_x
_atom_site_fract_y
_atom_site_fract_z
Cd11	Cd1	0.165050	0.690500	0.569250
Cd21	Cd2	0.663590	0.746600	0.569650
Cd31	Cd3	0.258740	0.907290	0.015830
Cd41	Cd4	0.834950	0.309500	0.430750
Cd51	Cd5	0.336410	0.253400	0.430350
Cd61	Cd6	0.741260	0.092710	0.984170
H11	H1	0.893600	0.908900	0.911100
H21	H2	0.133100	0.915600	0.825400
H31	H3	0.738400	0.871700	0.734000
H41	H4	0.502300	0.874700	0.819800
H51	H5	0.999000	0.805500	0.715700
H61	H6	0.486000	0.886900	0.584600
H71	H7	0.278400	0.971800	0.705100
H81	H8	0.419900	0.076000	0.605400
H91	H9	0.667700	0.162400	0.560700
H101	H10	0.027300	0.019100	0.552200
H111	H11	0.778400	0.934100	0.594100
H121	H12	0.470300	0.565600	0.452500
H131	H13	0.715900	0.524100	0.403800
H141	H14	0.085600	0.659600	0.413400
H151	H15	0.837800	0.702200	0.460300
H161	H16	0.012500	0.460800	0.412100
H171	H17	0.506600	0.512500	0.283200
H181	H18	0.212800	0.666100	0.305000
H191	H19	0.366000	0.730400	0.190200
H201	H20	0.760100	0.588400	0.264300
H211	H21	0.998500	0.673000	0.195000
H221	H22	0.608800	0.817400	0.115800
H231	H23	0.171500	0.941500	0.118900
H241	H24	0.327400	0.987300	0.076400
H251	H25	0.140800	0.037900	0.961100
H261	H26	0.190900	0.024600	0.905300
H271	H27	0.752700	0.723500	0.685500
H281	H28	0.782800	0.794700	0.645000
H291	H29	0.276900	0.567000	0.649800
H301	H30	0.261200	0.603400	0.686400
H311	H31	0.106400	0.091100	0.088900
H321	H32	0.866900	0.084400	0.174600
H331	H33	0.261600	0.128300	0.266000
H341	H34	0.497700	0.125300	0.180200
H351	H35	0.001000	0.194500	0.284300
H361	H36	0.514000	0.113100	0.415400
H371	H37	0.721600	0.028200	0.294900
H381	H38	0.580100	0.924000	0.394600
H391	H39	0.332300	0.837600	0.439300
H401	H40	0.972700	0.980900	0.447800
H411	H41	0.221600	0.065900	0.405900
H421	H42	0.529700	0.434400	0.547500
H431	H43	0.284100	0.475900	0.596200
H441	H44	0.914400	0.340400	0.586600
H451	H45	0.162200	0.297800	0.539700
H461	H46	0.987500	0.539200	0.587900
H471	H47	0.493400	0.487500	0.716800
H481	H48	0.787200	0.333900	0.695000
H491	H49	0.634000	0.269600	0.809800
H501	H50	0.239900	0.411600	0.735700
H511	H51	0.001500	0.327000	0.805000
H521	H52	0.391200	0.182600	0.884200
H531	H53	0.828500	0.058500	0.881100
H541	H54	0.672600	0.012700	0.923600
H551	H55	0.859200	0.962100	0.038900
H561	H56	0.809100	0.975400	0.094700
H571	H57	0.247300	0.276500	0.314500
H581	H58	0.217200	0.205300	0.355000
H591	H59	0.723100	0.433000	0.350200
H601	H60	0.738800	0.396600	0.313600
C11	C1	0.526400	0.897600	0.923600
C21	C2	0.679100	0.897500	0.868200
C31	C3	0.863900	0.904900	0.873500
C41	C4	0.007300	0.906400	0.823800
C51	C5	0.961000	0.893900	0.770600
C61	C6	0.771400	0.881200	0.768100
C71	C7	0.629800	0.883300	0.819900
C81	C8	0.114600	0.889000	0.718900
C91	C9	0.103400	0.838600	0.697000
C101	C10	0.243300	0.835100	0.647600
C111	C11	0.393400	0.887200	0.618700
C121	C12	0.410300	0.939200	0.638600
C131	C13	0.268300	0.937900	0.689900
C141	C14	0.567600	0.995000	0.605400
C151	C15	0.541300	0.064300	0.594100
C161	C16	0.689400	0.116700	0.566800
C171	C17	0.868900	0.100200	0.548600
C181	C18	0.904300	0.030800	0.561400
C191	C19	0.755300	0.979800	0.587700
C201	C20	0.025000	0.158600	0.517500
C211	C21	0.222700	0.781000	0.625000
C221	C22	0.471400	0.667200	0.490200
C231	C23	0.628000	0.638300	0.460300
C241	C24	0.593600	0.585100	0.443800
C251	C25	0.740300	0.560400	0.414500
C261	C26	0.927800	0.590200	0.400600
C271	C27	0.961900	0.641600	0.419800
C281	C28	0.813900	0.666600	0.448600
C291	C29	0.087700	0.566600	0.366000
C301	C30	0.106400	0.494800	0.380100
C311	C31	0.256800	0.471600	0.349000
C321	C32	0.399500	0.525500	0.303100
C331	C33	0.386200	0.598000	0.286500
C341	C34	0.226200	0.618300	0.317200
C351	C35	0.277100	0.398400	0.367900
C361	C36	0.538100	0.652000	0.236400
C371	C37	0.492300	0.719500	0.190900
C381	C38	0.731000	0.634400	0.235500
C391	C39	0.872800	0.684400	0.192900
C401	C40	0.831200	0.754600	0.144900
C411	C41	0.638800	0.771800	0.145400
C421	C42	0.986100	0.805900	0.096900
C431	C43	0.473600	0.102400	0.076400
C441	C44	0.320900	0.102500	0.131800
C451	C45	0.136100	0.095100	0.126500
C461	C46	0.992700	0.093600	0.176200
C471	C47	0.039000	0.106100	0.229400
C481	C48	0.228600	0.118800	0.231900
C491	C49	0.370200	0.116700	0.180100
C501	C50	0.885400	0.111000	0.281100
C511	C51	0.896600	0.161400	0.303000
C521	C52	0.756700	0.164900	0.352400
C531	C53	0.606600	0.112800	0.381300
C541	C54	0.589700	0.060800	0.361400
C551	C55	0.731700	0.062100	0.310100
C561	C56	0.432400	0.005000	0.394600
C571	C57	0.458700	0.935700	0.405900
C581	C58	0.310600	0.883300	0.433200
C591	C59	0.131100	0.899800	0.451400
C601	C60	0.095700	0.969200	0.438600
C611	C61	0.244700	0.020200	0.412300
C621	C62	0.975000	0.841400	0.482500
C631	C63	0.777300	0.219000	0.375000
C641	C64	0.528600	0.332800	0.509800
C651	C65	0.372000	0.361700	0.539700
C661	C66	0.406400	0.414900	0.556200
C671	C67	0.259700	0.439600	0.585500
C681	C68	0.072200	0.409800	0.599400
C691	C69	0.038100	0.358400	0.580200
C701	C70	0.186100	0.333400	0.551400
C711	C71	0.912300	0.433400	0.634000
C721	C72	0.893600	0.505200	0.619900
C731	C73	0.743200	0.528400	0.651000
C741	C74	0.600500	0.474500	0.696900
C751	C75	0.613800	0.402000	0.713500
C761	C76	0.773800	0.381700	0.682800
C771	C77	0.722900	0.601600	0.632100
C781	C78	0.461900	0.348000	0.763600
C791	C79	0.507700	0.280500	0.809100
C801	C80	0.269000	0.365600	0.764500
C811	C81	0.127200	0.315600	0.807100
C821	C82	0.168800	0.245400	0.855100
C831	C83	0.361200	0.228200	0.854600
C841	C84	0.013900	0.194100	0.903100
O11	O1	0.567200	0.919200	0.966200
O21	O2	0.357900	0.881300	0.924200
O31	O3	0.067200	0.745600	0.639900
O41	O4	0.355200	0.771600	0.588500
O51	O5	0.003900	0.212500	0.522700
O61	O6	0.169100	0.154400	0.479800
O71	O7	0.306400	0.636500	0.506700
O81	O8	0.507700	0.717700	0.501800
O91	O9	0.136400	0.357900	0.385300
O101	O10	0.438700	0.373700	0.370600
O111	O11	0.153700	0.797300	0.104700
O121	O12	0.947000	0.866300	0.051200
O131	O13	0.281600	0.944300	0.096600
O141	O14	0.225000	0.021800	0.941500
O151	O15	0.698300	0.760400	0.661100
O161	O16	0.198400	0.588400	0.665400
O171	O17	0.432800	0.080800	0.033800
O181	O18	0.642100	0.118700	0.075800
O191	O19	0.932800	0.254400	0.360100
O201	O20	0.644800	0.228400	0.411500
O211	O21	0.996100	0.787500	0.477300
O221	O22	0.830900	0.845600	0.520200
O231	O23	0.693600	0.363500	0.493300
O241	O24	0.492300	0.282300	0.498200
O251	O25	0.863600	0.642100	0.614700
O261	O26	0.561300	0.626300	0.629400
O271	O27	0.846300	0.202700	0.895300
O281	O28	0.053000	0.133700	0.948800
O291	O29	0.718400	0.055700	0.903400
O301	O30	0.775000	0.978200	0.058500
O311	O31	0.301700	0.239600	0.338900
O321	O32	0.801600	0.411600	0.334600
