data_AXAFAG_freeONLY_PM
_symmetry_space_group_name_H-M	'P1'
_cell_length_a	13.448700
_cell_length_b	17.921000
_cell_length_c	19.902600
_cell_angle_alpha	90.000000
_cell_angle_beta	90.983300
_cell_angle_gamma	90.000000
_symmetry_Int_Tables_number 1

loop_
_symmetry_equiv_pos_as_xyz
'x,y,z'

loop_
_atom_site_label
_atom_site_type_symbol
_atom_site_fract_x
_atom_site_fract_y
_atom_site_fract_z
U11	U1	0.349040	0.978170	0.229050
U21	U2	0.652810	0.001750	0.274480
U31	U3	0.378560	0.738140	0.377290
U41	U4	0.623540	0.248350	0.122740
U51	U5	0.347800	0.005190	0.509410
U61	U6	0.348840	0.007550	0.011810
P11	P1	0.143000	0.032420	0.118490
P21	P2	0.774700	0.077910	0.128280
P31	P3	0.858700	0.958310	0.387960
P41	P4	0.493800	0.061050	0.128380
P51	P5	0.509200	0.923910	0.379240
P61	P6	0.227000	0.904820	0.374790
O11	O1	0.481000	0.975000	0.438100
F11	F1	0.460100	0.280300	0.140800
O21	O2	0.961700	0.999900	0.395600
O31	O3	0.378100	0.054200	0.127200
O41	O4	0.643300	0.242800	0.210900
O51	O5	0.626000	0.932400	0.380100
O61	O6	0.362800	0.102100	0.987800
O71	O7	0.201200	0.985000	0.168500
O81	O8	0.520800	0.019100	0.063400
O91	O9	0.800300	0.003100	0.335400
O101	O10	0.261400	0.972100	0.415400
O111	O11	0.376600	0.893100	0.187800
O121	O12	0.195100	0.037600	0.051600
O131	O13	0.601000	0.256400	0.034800
O141	O14	0.524400	0.016700	0.191900
O151	O15	0.479400	0.957600	0.310800
O161	O16	0.041700	0.988800	0.105800
O171	O17	0.620800	0.087700	0.311600
O181	O18	0.338000	0.912900	0.038100
O191	O19	0.339200	0.913300	0.543700
O201	O20	0.254300	0.915000	0.301900
O211	O21	0.682100	0.914000	0.237700
O221	O22	0.264400	0.831700	0.402700
O231	O23	0.878600	0.879500	0.365400
O241	O24	0.808000	0.962000	0.455000
O251	O25	0.748900	0.062300	0.201100
O261	O26	0.743400	0.011600	0.085000
O271	O27	0.119100	0.108200	0.146900
O281	O28	0.891700	0.080100	0.123900
O291	O29	0.385300	0.717300	0.465200
F21	F2	0.543000	0.706200	0.366500
O301	O30	0.528700	0.139800	0.128900
O311	O31	0.358400	0.096500	0.476100
O321	O32	0.476900	0.845800	0.389800
O331	O33	0.324600	0.065000	0.270600
O341	O34	0.735100	0.151800	0.103600
O351	O35	0.109800	0.905200	0.380000
O361	O36	0.372000	0.754600	0.289200
O371	O37	0.203600	0.694100	0.364900
O381	O38	0.794500	0.293000	0.110100
H11	H1	0.988600	0.012000	0.105900
H21	H2	0.085900	0.846300	0.375000
H31	H3	0.159300	0.647700	0.360200
H41	H4	0.159000	0.738400	0.364100
H51	H5	0.845000	0.254200	0.118300
H61	H6	0.810700	0.346500	0.098700
H71	H7	0.028200	0.977100	0.386900
H81	H8	0.932600	0.126500	0.119200
U71	U7	0.150960	0.478170	0.270950
U81	U8	0.847190	0.501750	0.225520
U91	U9	0.121440	0.238140	0.122710
U101	U10	0.876460	0.748350	0.377260
U111	U11	0.152200	0.505190	0.990590
U121	U12	0.151160	0.507550	0.488190
P71	P7	0.357000	0.532420	0.381510
P81	P8	0.725300	0.577910	0.371720
P91	P9	0.641300	0.458310	0.112040
P101	P10	0.006200	0.561050	0.371620
P111	P11	0.990800	0.423910	0.120760
P121	P12	0.273000	0.404820	0.125210
O391	O39	0.019000	0.475000	0.061900
F31	F3	0.039900	0.780300	0.359200
O401	O40	0.538300	0.499900	0.104400
O411	O41	0.121900	0.554200	0.372800
O421	O42	0.856700	0.742800	0.289100
O431	O43	0.874000	0.432400	0.119900
O441	O44	0.137200	0.602100	0.512200
O451	O45	0.298800	0.485000	0.331500
O461	O46	0.979200	0.519100	0.436600
O471	O47	0.699700	0.503100	0.164600
O481	O48	0.238600	0.472100	0.084600
O491	O49	0.123400	0.393100	0.312200
O501	O50	0.304900	0.537600	0.448400
O511	O51	0.899000	0.756400	0.465200
O521	O52	0.975600	0.516700	0.308100
O531	O53	0.020600	0.457600	0.189200
O541	O54	0.458300	0.488800	0.394200
O551	O55	0.879200	0.587700	0.188400
O561	O56	0.162000	0.412900	0.461900
O571	O57	0.160800	0.413300	0.956300
O581	O58	0.245700	0.415000	0.198100
O591	O59	0.817900	0.414000	0.262300
O601	O60	0.235600	0.331700	0.097300
O611	O61	0.621400	0.379500	0.134600
O621	O62	0.692000	0.462000	0.045000
O631	O63	0.751100	0.562300	0.298900
O641	O64	0.756600	0.511600	0.415000
O651	O65	0.380900	0.608200	0.353100
O661	O66	0.608300	0.580100	0.376100
O671	O67	0.114700	0.217300	0.034800
F41	F4	0.957000	0.206200	0.133500
O681	O68	0.971300	0.639800	0.371100
O691	O69	0.141600	0.596500	0.023900
O701	O70	0.023100	0.345800	0.110200
O711	O71	0.175400	0.565000	0.229400
O721	O72	0.764900	0.651800	0.396400
O731	O73	0.390200	0.405200	0.120000
O741	O74	0.128000	0.254600	0.210800
O751	O75	0.296400	0.194100	0.135100
O761	O76	0.705500	0.793000	0.389900
H91	H9	0.511400	0.512000	0.394100
H101	H10	0.414100	0.346300	0.125000
H111	H11	0.340700	0.147700	0.139800
H121	H12	0.341000	0.238400	0.135900
H131	H13	0.655000	0.754200	0.381700
H141	H14	0.689300	0.846500	0.401300
H151	H15	0.471800	0.477100	0.113100
H161	H16	0.567400	0.626500	0.380800
U131	U13	0.650960	0.021830	0.770950
U141	U14	0.347190	0.998250	0.725520
U151	U15	0.621440	0.261860	0.622710
U161	U16	0.376460	0.751650	0.877260
U171	U17	0.652200	0.994810	0.490590
U181	U18	0.651160	0.992450	0.988190
P131	P13	0.857000	0.967580	0.881510
P141	P14	0.225300	0.922090	0.871720
P151	P15	0.141300	0.041690	0.612040
P161	P16	0.506200	0.938950	0.871620
P171	P17	0.490800	0.076090	0.620760
P181	P18	0.773000	0.095180	0.625210
O771	O77	0.519000	0.025000	0.561900
F51	F5	0.539900	0.719700	0.859200
O781	O78	0.038300	0.000100	0.604400
O791	O79	0.621900	0.945800	0.872800
O801	O80	0.356700	0.757200	0.789100
O811	O81	0.374000	0.067600	0.619900
O821	O82	0.637200	0.897900	0.012200
O831	O83	0.798800	0.015000	0.831500
O841	O84	0.479200	0.980900	0.936600
O851	O85	0.199700	0.996900	0.664600
O861	O86	0.738600	0.027900	0.584600
O871	O87	0.623400	0.106900	0.812200
O881	O88	0.804900	0.962400	0.948400
O891	O89	0.399000	0.743600	0.965200
O901	O90	0.475600	0.983300	0.808100
O911	O91	0.520600	0.042400	0.689200
O921	O92	0.958300	0.011200	0.894200
O931	O93	0.379200	0.912300	0.688400
O941	O94	0.662000	0.087100	0.961900
O951	O95	0.660800	0.086700	0.456300
O961	O96	0.745700	0.085000	0.698100
O971	O97	0.317900	0.086000	0.762300
O981	O98	0.735600	0.168300	0.597300
O991	O99	0.121400	0.120500	0.634600
O1001	O100	0.192000	0.038000	0.545000
O1011	O101	0.251100	0.937700	0.798900
O1021	O102	0.256600	0.988400	0.915000
O1031	O103	0.880900	0.891800	0.853100
O1041	O104	0.108300	0.919900	0.876100
O1051	O105	0.614700	0.282700	0.534800
F61	F6	0.457000	0.293800	0.633500
O1061	O106	0.471300	0.860200	0.871100
O1071	O107	0.641600	0.903500	0.523900
O1081	O108	0.523100	0.154200	0.610200
O1091	O109	0.675400	0.935000	0.729400
O1101	O110	0.264900	0.848200	0.896400
O1111	O111	0.890200	0.094800	0.620000
O1121	O112	0.628000	0.245400	0.710800
O1131	O113	0.796400	0.305900	0.635100
O1141	O114	0.205500	0.707000	0.889900
H171	H17	0.011400	0.988000	0.894100
H181	H18	0.914100	0.153700	0.625000
H191	H19	0.840700	0.352300	0.639800
H201	H20	0.841000	0.261600	0.635900
H211	H21	0.155000	0.745800	0.881700
H221	H22	0.189300	0.653500	0.901300
H231	H23	0.971800	0.022900	0.613100
H241	H24	0.067400	0.873500	0.880800
U191	U19	0.849040	0.521830	0.729050
U201	U20	0.152810	0.498250	0.774480
U211	U21	0.878560	0.761860	0.877290
U221	U22	0.123540	0.251650	0.622740
U231	U23	0.847800	0.494810	0.009410
U241	U24	0.848840	0.492450	0.511810
P191	P19	0.643000	0.467580	0.618490
P201	P20	0.274700	0.422090	0.628280
P211	P21	0.358700	0.541690	0.887960
P221	P22	0.993800	0.438950	0.628380
P231	P23	0.009200	0.576090	0.879240
P241	P24	0.727000	0.595180	0.874790
O1151	O115	0.981000	0.525000	0.938100
F71	F7	0.960100	0.219700	0.640800
O1161	O116	0.461700	0.500100	0.895600
O1171	O117	0.878100	0.445800	0.627200
O1181	O118	0.143300	0.257200	0.710900
O1191	O119	0.126000	0.567600	0.880100
O1201	O120	0.862800	0.397900	0.487800
O1211	O121	0.701200	0.515000	0.668500
O1221	O122	0.020800	0.480900	0.563400
O1231	O123	0.300300	0.496900	0.835400
O1241	O124	0.761400	0.527900	0.915400
O1251	O125	0.876600	0.606900	0.687800
O1261	O126	0.695100	0.462400	0.551600
O1271	O127	0.101000	0.243600	0.534800
O1281	O128	0.024400	0.483300	0.691900
O1291	O129	0.979400	0.542400	0.810800
O1301	O130	0.541700	0.511200	0.605800
O1311	O131	0.120800	0.412300	0.811600
O1321	O132	0.838000	0.587100	0.538100
O1331	O133	0.839200	0.586700	0.043700
O1341	O134	0.754300	0.585000	0.801900
O1351	O135	0.182100	0.586000	0.737700
O1361	O136	0.764400	0.668300	0.902700
O1371	O137	0.378600	0.620500	0.865400
O1381	O138	0.308000	0.538000	0.955000
O1391	O139	0.248900	0.437700	0.701100
O1401	O140	0.243400	0.488400	0.585000
O1411	O141	0.619100	0.391800	0.646900
O1421	O142	0.391700	0.419900	0.623900
O1431	O143	0.885300	0.782700	0.965200
F81	F8	0.043000	0.793800	0.866500
O1441	O144	0.028700	0.360200	0.628900
O1451	O145	0.858400	0.403500	0.976100
O1461	O146	0.976900	0.654200	0.889800
O1471	O147	0.824600	0.435000	0.770600
O1481	O148	0.235100	0.348200	0.603600
O1491	O149	0.609800	0.594800	0.880000
O1501	O150	0.872000	0.745400	0.789200
O1511	O151	0.703600	0.805900	0.864900
O1521	O152	0.294500	0.207000	0.610100
H251	H25	0.488600	0.488000	0.605900
H261	H26	0.585900	0.653700	0.875000
H271	H27	0.659300	0.852300	0.860200
H281	H28	0.659000	0.761600	0.864100
H291	H29	0.345000	0.245800	0.618300
H301	H30	0.310700	0.153500	0.598700
H311	H31	0.528200	0.522900	0.886900
H321	H32	0.432600	0.373500	0.619200
