data_AXIPEE01_freeONLY_PM
_symmetry_space_group_name_H-M	'P1'
_cell_length_a	15.013500
_cell_length_b	14.924500
_cell_length_c	31.455700
_cell_angle_alpha	90.000000
_cell_angle_beta	98.206000
_cell_angle_gamma	90.000000
_symmetry_Int_Tables_number 1

loop_
_symmetry_equiv_pos_as_xyz
'x,y,z'

loop_
_atom_site_label
_atom_site_type_symbol
_atom_site_fract_x
_atom_site_fract_y
_atom_site_fract_z
Fe11	Fe1	0.691500	0.520660	0.450830
Au11	Au1	0.446260	0.772610	0.456040
Au21	Au2	0.949650	0.762550	0.447580
C11	C1	0.856600	0.668200	0.450900
C21	C2	0.540800	0.683800	0.446900
C31	C3	0.537800	0.362500	0.444100
C41	C4	0.849300	0.362600	0.460400
N11	N1	0.799400	0.617300	0.452700
N21	N2	0.592800	0.628600	0.442800
N31	N3	0.588900	0.419300	0.444500
N41	N4	0.793200	0.415300	0.461000
N51	N5	0.690200	0.510500	0.380200
C51	C5	0.767600	0.506200	0.364000
H11	H1	0.821500	0.511800	0.383200
C61	C6	0.773500	0.493900	0.320800
H21	H2	0.830000	0.489200	0.311400
C71	C7	0.695200	0.488600	0.291500
C81	C8	0.613700	0.495700	0.307900
H31	H3	0.558800	0.494200	0.289400
C91	C9	0.614700	0.505000	0.351800
H41	H4	0.559200	0.507500	0.362300
C101	C10	0.698800	0.475600	0.244400
C111	C11	0.772500	0.438500	0.229000
H51	H5	0.822600	0.418800	0.248100
N61	N6	0.625400	0.498500	0.174600
N71	N7	0.626500	0.504000	0.217500
C121	C12	0.771300	0.430900	0.185800
H61	H6	0.819800	0.405100	0.174300
C131	C13	0.696100	0.462500	0.159400
C141	C14	0.690600	0.461600	0.110900
C151	C15	0.645500	0.528900	0.086800
H71	H7	0.614500	0.573400	0.100000
C161	C16	0.646700	0.530000	0.043500
H81	H8	0.616300	0.576900	0.027500
C171	C17	0.728000	0.401900	0.045300
H91	H9	0.754500	0.355700	0.031100
C181	C18	0.732300	0.396800	0.089600
H101	H10	0.763300	0.349500	0.104900
N81	N8	0.688800	0.468000	0.021900
Fe21	Fe2	0.191500	0.020660	0.450830
Au31	Au3	0.946260	0.272610	0.456040
Au41	Au4	0.449650	0.262550	0.447580
C191	C19	0.356600	0.168200	0.450900
C201	C20	0.040800	0.183800	0.446900
C211	C21	0.037800	0.862500	0.444100
C221	C22	0.349300	0.862600	0.460400
N91	N9	0.299400	0.117300	0.452700
N101	N10	0.092800	0.128600	0.442800
N111	N11	0.088900	0.919300	0.444500
N121	N12	0.293200	0.915300	0.461000
N131	N13	0.190200	0.010500	0.380200
C231	C23	0.267600	0.006200	0.364000
H111	H11	0.321500	0.011800	0.383200
C241	C24	0.273500	0.993900	0.320800
H121	H12	0.330000	0.989200	0.311400
C251	C25	0.195200	0.988600	0.291500
C261	C26	0.113700	0.995700	0.307900
H131	H13	0.058800	0.994200	0.289400
C271	C27	0.114700	0.005000	0.351800
H141	H14	0.059200	0.007500	0.362300
C281	C28	0.198800	0.975600	0.244400
C291	C29	0.272500	0.938500	0.229000
H151	H15	0.322600	0.918800	0.248100
N141	N14	0.125400	0.998500	0.174600
N151	N15	0.126500	0.004000	0.217500
C301	C30	0.271300	0.930900	0.185800
H161	H16	0.319800	0.905100	0.174300
C311	C31	0.196100	0.962500	0.159400
C321	C32	0.190600	0.961600	0.110900
C331	C33	0.145500	0.028900	0.086800
H171	H17	0.114500	0.073400	0.100000
C341	C34	0.146700	0.030000	0.043500
H181	H18	0.116300	0.076900	0.027500
C351	C35	0.228000	0.901900	0.045300
H191	H19	0.254500	0.855700	0.031100
C361	C36	0.232300	0.896800	0.089600
H201	H20	0.263300	0.849500	0.104900
N161	N16	0.188800	0.968000	0.021900
Fe31	Fe3	0.691500	0.479340	0.950830
Au51	Au5	0.446260	0.227390	0.956040
Au61	Au6	0.949650	0.237450	0.947580
C371	C37	0.856600	0.331800	0.950900
C381	C38	0.540800	0.316200	0.946900
C391	C39	0.537800	0.637500	0.944100
C401	C40	0.849300	0.637400	0.960400
N171	N17	0.799400	0.382700	0.952700
N181	N18	0.592800	0.371400	0.942800
N191	N19	0.588900	0.580700	0.944500
N201	N20	0.793200	0.584700	0.961000
N211	N21	0.690200	0.489500	0.880200
C411	C41	0.767600	0.493800	0.864000
H211	H21	0.821500	0.488200	0.883200
C421	C42	0.773500	0.506100	0.820800
H221	H22	0.830000	0.510800	0.811400
C431	C43	0.695200	0.511400	0.791500
C441	C44	0.613700	0.504300	0.807900
H231	H23	0.558800	0.505800	0.789400
C451	C45	0.614700	0.495000	0.851800
H241	H24	0.559200	0.492500	0.862300
C461	C46	0.698800	0.524400	0.744400
C471	C47	0.772500	0.561500	0.729000
H251	H25	0.822600	0.581200	0.748100
N221	N22	0.625400	0.501500	0.674600
N231	N23	0.626500	0.496000	0.717500
C481	C48	0.771300	0.569100	0.685800
H261	H26	0.819800	0.594900	0.674300
C491	C49	0.696100	0.537500	0.659400
C501	C50	0.690600	0.538400	0.610900
C511	C51	0.645500	0.471100	0.586800
H271	H27	0.614500	0.426600	0.600000
C521	C52	0.646700	0.470000	0.543500
H281	H28	0.616300	0.423100	0.527500
C531	C53	0.728000	0.598100	0.545300
H291	H29	0.754500	0.644300	0.531100
C541	C54	0.732300	0.603200	0.589600
H301	H30	0.763300	0.650500	0.604900
N241	N24	0.688800	0.532000	0.521900
Fe41	Fe4	0.191500	0.979340	0.950830
Au71	Au7	0.946260	0.727390	0.956040
Au81	Au8	0.449650	0.737450	0.947580
C551	C55	0.356600	0.831800	0.950900
C561	C56	0.040800	0.816200	0.946900
C571	C57	0.037800	0.137500	0.944100
C581	C58	0.349300	0.137400	0.960400
N251	N25	0.299400	0.882700	0.952700
N261	N26	0.092800	0.871400	0.942800
N271	N27	0.088900	0.080700	0.944500
N281	N28	0.293200	0.084700	0.961000
N291	N29	0.190200	0.989500	0.880200
C591	C59	0.267600	0.993800	0.864000
H311	H31	0.321500	0.988200	0.883200
C601	C60	0.273500	0.006100	0.820800
H321	H32	0.330000	0.010800	0.811400
C611	C61	0.195200	0.011400	0.791500
C621	C62	0.113700	0.004300	0.807900
H331	H33	0.058800	0.005800	0.789400
C631	C63	0.114700	0.995000	0.851800
H341	H34	0.059200	0.992500	0.862300
C641	C64	0.198800	0.024400	0.744400
C651	C65	0.272500	0.061500	0.729000
H351	H35	0.322600	0.081200	0.748100
N301	N30	0.125400	0.001500	0.674600
N311	N31	0.126500	0.996000	0.717500
C661	C66	0.271300	0.069100	0.685800
H361	H36	0.319800	0.094900	0.674300
C671	C67	0.196100	0.037500	0.659400
C681	C68	0.190600	0.038400	0.610900
C691	C69	0.145500	0.971100	0.586800
H371	H37	0.114500	0.926600	0.600000
C701	C70	0.146700	0.970000	0.543500
H381	H38	0.116300	0.923100	0.527500
C711	C71	0.228000	0.098100	0.545300
H391	H39	0.254500	0.144300	0.531100
C721	C72	0.232300	0.103200	0.589600
H401	H40	0.263300	0.150500	0.604900
N321	N32	0.188800	0.032000	0.521900
Fe51	Fe5	0.308500	0.520660	0.049170
Au91	Au9	0.553740	0.772610	0.043960
Au101	Au10	0.050350	0.762550	0.052420
C731	C73	0.143400	0.668200	0.049100
C741	C74	0.459200	0.683800	0.053100
C751	C75	0.462200	0.362500	0.055900
C761	C76	0.150700	0.362600	0.039600
N331	N33	0.200600	0.617300	0.047300
N341	N34	0.407200	0.628600	0.057200
N351	N35	0.411100	0.419300	0.055500
N361	N36	0.206800	0.415300	0.039000
N371	N37	0.309800	0.510500	0.119800
C771	C77	0.232400	0.506200	0.136000
H411	H41	0.178500	0.511800	0.116800
C781	C78	0.226500	0.493900	0.179200
H421	H42	0.170000	0.489200	0.188600
C791	C79	0.304800	0.488600	0.208500
C801	C80	0.386300	0.495700	0.192100
H431	H43	0.441200	0.494200	0.210600
C811	C81	0.385300	0.505000	0.148200
H441	H44	0.440800	0.507500	0.137700
C821	C82	0.301200	0.475600	0.255600
C831	C83	0.227500	0.438500	0.271000
H451	H45	0.177400	0.418800	0.251900
N381	N38	0.374600	0.498500	0.325400
N391	N39	0.373500	0.504000	0.282500
C841	C84	0.228700	0.430900	0.314200
H461	H46	0.180200	0.405100	0.325700
C851	C85	0.303900	0.462500	0.340600
C861	C86	0.309400	0.461600	0.389100
C871	C87	0.354500	0.528900	0.413200
H471	H47	0.385500	0.573400	0.400000
C881	C88	0.353300	0.530000	0.456500
H481	H48	0.383700	0.576900	0.472500
C891	C89	0.272000	0.401900	0.454700
H491	H49	0.245500	0.355700	0.468900
C901	C90	0.267700	0.396800	0.410400
H501	H50	0.236700	0.349500	0.395100
N401	N40	0.311200	0.468000	0.478100
Fe61	Fe6	0.808500	0.020660	0.049170
Au111	Au11	0.053740	0.272610	0.043960
Au121	Au12	0.550350	0.262550	0.052420
C911	C91	0.643400	0.168200	0.049100
C921	C92	0.959200	0.183800	0.053100
C931	C93	0.962200	0.862500	0.055900
C941	C94	0.650700	0.862600	0.039600
N411	N41	0.700600	0.117300	0.047300
N421	N42	0.907200	0.128600	0.057200
N431	N43	0.911100	0.919300	0.055500
N441	N44	0.706800	0.915300	0.039000
N451	N45	0.809800	0.010500	0.119800
C951	C95	0.732400	0.006200	0.136000
H511	H51	0.678500	0.011800	0.116800
C961	C96	0.726500	0.993900	0.179200
H521	H52	0.670000	0.989200	0.188600
C971	C97	0.804800	0.988600	0.208500
C981	C98	0.886300	0.995700	0.192100
H531	H53	0.941200	0.994200	0.210600
C991	C99	0.885300	0.005000	0.148200
H541	H54	0.940800	0.007500	0.137700
C1001	C100	0.801200	0.975600	0.255600
C1011	C101	0.727500	0.938500	0.271000
H551	H55	0.677400	0.918800	0.251900
N461	N46	0.874600	0.998500	0.325400
N471	N47	0.873500	0.004000	0.282500
C1021	C102	0.728700	0.930900	0.314200
H561	H56	0.680200	0.905100	0.325700
C1031	C103	0.803900	0.962500	0.340600
C1041	C104	0.809400	0.961600	0.389100
C1051	C105	0.854500	0.028900	0.413200
H571	H57	0.885500	0.073400	0.400000
C1061	C106	0.853300	0.030000	0.456500
H581	H58	0.883700	0.076900	0.472500
C1071	C107	0.772000	0.901900	0.454700
H591	H59	0.745500	0.855700	0.468900
C1081	C108	0.767700	0.896800	0.410400
H601	H60	0.736700	0.849500	0.395100
N481	N48	0.811200	0.968000	0.478100
Fe71	Fe7	0.308500	0.479340	0.549170
Au131	Au13	0.553740	0.227390	0.543960
Au141	Au14	0.050350	0.237450	0.552420
C1091	C109	0.143400	0.331800	0.549100
C1101	C110	0.459200	0.316200	0.553100
C1111	C111	0.462200	0.637500	0.555900
C1121	C112	0.150700	0.637400	0.539600
N491	N49	0.200600	0.382700	0.547300
N501	N50	0.407200	0.371400	0.557200
N511	N51	0.411100	0.580700	0.555500
N521	N52	0.206800	0.584700	0.539000
N531	N53	0.309800	0.489500	0.619800
C1131	C113	0.232400	0.493800	0.636000
H611	H61	0.178500	0.488200	0.616800
C1141	C114	0.226500	0.506100	0.679200
H621	H62	0.170000	0.510800	0.688600
C1151	C115	0.304800	0.511400	0.708500
C1161	C116	0.386300	0.504300	0.692100
H631	H63	0.441200	0.505800	0.710600
C1171	C117	0.385300	0.495000	0.648200
H641	H64	0.440800	0.492500	0.637700
C1181	C118	0.301200	0.524400	0.755600
C1191	C119	0.227500	0.561500	0.771000
H651	H65	0.177400	0.581200	0.751900
N541	N54	0.374600	0.501500	0.825400
N551	N55	0.373500	0.496000	0.782500
C1201	C120	0.228700	0.569100	0.814200
H661	H66	0.180200	0.594900	0.825700
C1211	C121	0.303900	0.537500	0.840600
C1221	C122	0.309400	0.538400	0.889100
C1231	C123	0.354500	0.471100	0.913200
H671	H67	0.385500	0.426600	0.900000
C1241	C124	0.353300	0.470000	0.956500
H681	H68	0.383700	0.423100	0.972500
C1251	C125	0.272000	0.598100	0.954700
H691	H69	0.245500	0.644300	0.968900
C1261	C126	0.267700	0.603200	0.910400
H701	H70	0.236700	0.650500	0.895100
N561	N56	0.311200	0.532000	0.978100
Fe81	Fe8	0.808500	0.979340	0.549170
Au151	Au15	0.053740	0.727390	0.543960
Au161	Au16	0.550350	0.737450	0.552420
C1271	C127	0.643400	0.831800	0.549100
C1281	C128	0.959200	0.816200	0.553100
C1291	C129	0.962200	0.137500	0.555900
C1301	C130	0.650700	0.137400	0.539600
N571	N57	0.700600	0.882700	0.547300
N581	N58	0.907200	0.871400	0.557200
N591	N59	0.911100	0.080700	0.555500
N601	N60	0.706800	0.084700	0.539000
N611	N61	0.809800	0.989500	0.619800
C1311	C131	0.732400	0.993800	0.636000
H711	H71	0.678500	0.988200	0.616800
C1321	C132	0.726500	0.006100	0.679200
H721	H72	0.670000	0.010800	0.688600
C1331	C133	0.804800	0.011400	0.708500
C1341	C134	0.886300	0.004300	0.692100
H731	H73	0.941200	0.005800	0.710600
C1351	C135	0.885300	0.995000	0.648200
H741	H74	0.940800	0.992500	0.637700
C1361	C136	0.801200	0.024400	0.755600
C1371	C137	0.727500	0.061500	0.771000
H751	H75	0.677400	0.081200	0.751900
N621	N62	0.874600	0.001500	0.825400
N631	N63	0.873500	0.996000	0.782500
C1381	C138	0.728700	0.069100	0.814200
H761	H76	0.680200	0.094900	0.825700
C1391	C139	0.803900	0.037500	0.840600
C1401	C140	0.809400	0.038400	0.889100
C1411	C141	0.854500	0.971100	0.913200
H771	H77	0.885500	0.926600	0.900000
C1421	C142	0.853300	0.970000	0.956500
H781	H78	0.883700	0.923100	0.972500
C1431	C143	0.772000	0.098100	0.954700
H791	H79	0.745500	0.144300	0.968900
C1441	C144	0.767700	0.103200	0.910400
H801	H80	0.736700	0.150500	0.895100
N641	N64	0.811200	0.032000	0.978100
