data_AXOHIE_freeONLY_PM
_symmetry_space_group_name_H-M	'P1'
_cell_length_a	11.810300
_cell_length_b	23.221000
_cell_length_c	45.467000
_cell_angle_alpha	104.516000
_cell_angle_beta	90.000000
_cell_angle_gamma	90.000000
_symmetry_Int_Tables_number 1

loop_
_symmetry_equiv_pos_as_xyz
'x,y,z'

loop_
_atom_site_label
_atom_site_type_symbol
_atom_site_fract_x
_atom_site_fract_y
_atom_site_fract_z
Cd11	Cd1	0.874210	0.582850	0.723320
Cd21	Cd2	0.578790	0.904250	0.059660
Cd31	Cd3	0.625790	0.582850	0.223320
Cd41	Cd4	0.921210	0.904250	0.559660
H11	H1	0.833700	0.759000	0.815800
H21	H2	0.781800	0.800700	0.864700
H31	H3	0.726500	0.638500	0.876900
H41	H4	0.784100	0.597300	0.828500
H51	H5	0.605800	0.874200	0.950200
H61	H6	0.643500	0.827100	0.900700
H71	H7	0.732500	0.684200	0.925200
H81	H8	0.670600	0.727200	0.972600
H91	H9	0.914800	0.404400	0.630200
H101	H10	0.929100	0.303800	0.609700
H111	H11	0.908300	0.273500	0.691000
H121	H12	0.893000	0.373800	0.712900
H131	H13	0.961000	0.085600	0.649000
H141	H14	0.968600	0.184700	0.670100
H151	H15	0.867800	0.215000	0.592800
H161	H16	0.859000	0.115500	0.572100
H171	H17	0.883500	0.588500	0.653200
H181	H18	0.893900	0.649600	0.621400
H191	H19	0.878900	0.789400	0.694000
H201	H20	0.864500	0.724300	0.723600
H211	H21	0.875600	0.773000	0.563500
H221	H22	0.857200	0.709500	0.594200
H231	H23	0.953600	0.839700	0.663800
H241	H24	0.962200	0.900600	0.631300
H251	H25	0.653000	0.498000	0.703600
H261	H26	0.459500	0.493700	0.704100
H271	H27	0.460800	0.671500	0.737000
H281	H28	0.653200	0.669400	0.736100
H291	H29	0.093100	0.665500	0.717100
H301	H30	0.286200	0.667000	0.715400
H311	H31	0.286600	0.500200	0.726400
H321	H32	0.094100	0.504000	0.727800
H331	H33	0.362100	0.934800	0.102100
H341	H34	0.167800	0.932500	0.104700
H351	H35	0.165700	0.852600	0.017400
H361	H36	0.357400	0.857200	0.017000
H371	H37	0.801700	0.829000	0.030100
H381	H38	0.992400	0.822700	0.031100
H391	H39	0.995000	0.960500	0.096300
H401	H40	0.802500	0.962600	0.094900
H411	H41	0.666300	0.759000	0.315800
H421	H42	0.718200	0.800700	0.364700
H431	H43	0.773500	0.638500	0.376900
H441	H44	0.715900	0.597300	0.328500
H451	H45	0.894200	0.874200	0.450200
H461	H46	0.856500	0.827100	0.400700
H471	H47	0.767500	0.684200	0.425200
H481	H48	0.829400	0.727200	0.472600
H491	H49	0.585200	0.404400	0.130200
H501	H50	0.570900	0.303800	0.109700
H511	H51	0.591700	0.273500	0.191000
H521	H52	0.607000	0.373800	0.212900
H531	H53	0.539000	0.085600	0.149000
H541	H54	0.531400	0.184700	0.170100
H551	H55	0.632200	0.215000	0.092800
H561	H56	0.641000	0.115500	0.072100
H571	H57	0.616500	0.588500	0.153200
H581	H58	0.606100	0.649600	0.121400
H591	H59	0.621100	0.789400	0.194000
H601	H60	0.635500	0.724300	0.223600
H611	H61	0.624400	0.773000	0.063500
H621	H62	0.642800	0.709500	0.094200
H631	H63	0.546400	0.839700	0.163800
H641	H64	0.537800	0.900600	0.131300
H651	H65	0.847000	0.498000	0.203600
H661	H66	0.040500	0.493700	0.204100
H671	H67	0.039200	0.671500	0.237000
H681	H68	0.846800	0.669400	0.236100
H691	H69	0.406900	0.665500	0.217100
H701	H70	0.213800	0.667000	0.215400
H711	H71	0.213400	0.500200	0.226400
H721	H72	0.405900	0.504000	0.227800
H731	H73	0.137900	0.934800	0.602100
H741	H74	0.332200	0.932500	0.604700
H751	H75	0.334300	0.852600	0.517400
H761	H76	0.142600	0.857200	0.517000
H771	H77	0.698300	0.829000	0.530100
H781	H78	0.507600	0.822700	0.531100
H791	H79	0.505000	0.960500	0.596300
H801	H80	0.697500	0.962600	0.594900
C11	C1	0.812100	0.673270	0.816210
C21	C2	0.812000	0.734490	0.828100
C31	C3	0.780800	0.759570	0.857490
C41	C4	0.747900	0.724950	0.876650
C51	C5	0.748900	0.663180	0.864670
C61	C6	0.781900	0.638510	0.835550
C71	C7	0.639400	0.806270	0.967760
C81	C8	0.631000	0.835000	0.945430
C91	C9	0.658900	0.807700	0.915810
C101	C10	0.709300	0.752060	0.907990
C111	C11	0.708200	0.723600	0.929620
C121	C12	0.672100	0.750200	0.958540
C131	C13	0.845100	0.646390	0.783750
C141	C14	0.603700	0.836600	0.999790
C151	C15	0.906400	0.400340	0.674110
C161	C16	0.914300	0.378420	0.642820
C171	C17	0.921400	0.317760	0.630620
C181	C18	0.917700	0.276800	0.648070
C191	C19	0.909100	0.299680	0.678550
C201	C20	0.901400	0.360280	0.692010
C211	C21	0.920500	0.089170	0.607110
C221	C22	0.945200	0.111690	0.636990
C231	C23	0.947600	0.171300	0.649820
C241	C24	0.920300	0.211580	0.634070
C251	C25	0.888200	0.189000	0.604500
C261	C26	0.885600	0.129300	0.591830
C271	C27	0.892700	0.465460	0.688520
C281	C28	0.923700	0.022300	0.592850
C291	C29	0.881700	0.629460	0.661440
C301	C30	0.888800	0.665960	0.642240
C311	C31	0.888500	0.727200	0.653440
C321	C32	0.879300	0.748670	0.685150
C331	C33	0.871200	0.709230	0.702690
C341	C34	0.890200	0.787360	0.584140
C351	C35	0.879500	0.748600	0.602580
C361	C36	0.901100	0.766930	0.632760
C371	C37	0.935100	0.824910	0.643450
C381	C38	0.941400	0.861090	0.623550
C391	C39	0.613100	0.533190	0.710890
C401	C40	0.496400	0.530030	0.710540
C411	C41	0.435500	0.582850	0.720150
C421	C42	0.498100	0.635380	0.730160
C431	C43	0.613700	0.633760	0.729840
C441	C44	0.132800	0.631980	0.718990
C451	C45	0.248900	0.633260	0.717900
C461	C46	0.310800	0.583180	0.720610
C471	C47	0.249300	0.534300	0.724450
C481	C48	0.133600	0.537110	0.725280
C491	C49	0.321800	0.918600	0.084370
C501	C50	0.204100	0.918100	0.086180
C511	C51	0.142500	0.896300	0.060280
C521	C52	0.203500	0.871500	0.035160
C531	C53	0.319400	0.873600	0.035050
C541	C54	0.840200	0.859300	0.043700
C551	C55	0.957500	0.855600	0.043700
C561	C56	0.018200	0.895000	0.060250
C571	C57	0.957600	0.933400	0.080800
C581	C58	0.839900	0.934400	0.079940
C591	C59	0.687900	0.673270	0.316210
C601	C60	0.688000	0.734490	0.328100
C611	C61	0.719200	0.759570	0.357490
C621	C62	0.752100	0.724950	0.376650
C631	C63	0.751100	0.663180	0.364670
C641	C64	0.718100	0.638510	0.335550
C651	C65	0.860600	0.806270	0.467760
C661	C66	0.869000	0.835000	0.445430
C671	C67	0.841100	0.807700	0.415810
C681	C68	0.790700	0.752060	0.407990
C691	C69	0.791800	0.723600	0.429620
C701	C70	0.827900	0.750200	0.458540
C711	C71	0.654900	0.646390	0.283750
C721	C72	0.896300	0.836600	0.499790
C731	C73	0.593600	0.400340	0.174110
C741	C74	0.585700	0.378420	0.142820
C751	C75	0.578600	0.317760	0.130620
C761	C76	0.582300	0.276800	0.148070
C771	C77	0.590900	0.299680	0.178550
C781	C78	0.598600	0.360280	0.192010
C791	C79	0.579500	0.089170	0.107110
C801	C80	0.554800	0.111690	0.136990
C811	C81	0.552400	0.171300	0.149820
C821	C82	0.579700	0.211580	0.134070
C831	C83	0.611800	0.189000	0.104500
C841	C84	0.614400	0.129300	0.091830
C851	C85	0.607300	0.465460	0.188520
C861	C86	0.576300	0.022300	0.092850
C871	C87	0.618300	0.629460	0.161440
C881	C88	0.611200	0.665960	0.142240
C891	C89	0.611500	0.727200	0.153440
C901	C90	0.620700	0.748670	0.185150
C911	C91	0.628800	0.709230	0.202690
C921	C92	0.609800	0.787360	0.084140
C931	C93	0.620500	0.748600	0.102580
C941	C94	0.598900	0.766930	0.132760
C951	C95	0.564900	0.824910	0.143450
C961	C96	0.558600	0.861090	0.123550
C971	C97	0.886900	0.533190	0.210890
C981	C98	0.003600	0.530030	0.210540
C991	C99	0.064500	0.582850	0.220150
C1001	C100	0.001900	0.635380	0.230160
C1011	C101	0.886300	0.633760	0.229840
C1021	C102	0.367200	0.631980	0.218990
C1031	C103	0.251100	0.633260	0.217900
C1041	C104	0.189200	0.583180	0.220610
C1051	C105	0.250700	0.534300	0.224450
C1061	C106	0.366400	0.537110	0.225280
C1071	C107	0.178200	0.918600	0.584370
C1081	C108	0.295900	0.918100	0.586180
C1091	C109	0.357500	0.896300	0.560280
C1101	C110	0.296500	0.871500	0.535160
C1111	C111	0.180600	0.873600	0.535050
C1121	C112	0.659800	0.859300	0.543700
C1131	C113	0.542500	0.855600	0.543700
C1141	C114	0.481800	0.895000	0.560250
C1151	C115	0.542400	0.933400	0.580800
C1161	C116	0.660100	0.934400	0.579940
N11	N1	0.872100	0.649920	0.691770
N21	N2	0.919600	0.842960	0.594050
N31	N3	0.673100	0.583020	0.720840
N41	N4	0.073200	0.584660	0.722680
N51	N5	0.379400	0.897780	0.059440
N61	N6	0.781100	0.899680	0.060170
N71	N7	0.627900	0.649920	0.191770
N81	N8	0.580400	0.842960	0.094050
N91	N9	0.826900	0.583020	0.220840
N101	N10	0.426800	0.584660	0.222680
N111	N11	0.120600	0.897780	0.559440
N121	N12	0.718900	0.899680	0.560170
O11	O1	0.847500	0.677940	0.765240
O21	O2	0.866300	0.591230	0.775580
O31	O3	0.589100	0.890720	0.007020
O41	O4	0.592900	0.805570	0.018290
O51	O5	0.894100	0.501210	0.672150
O61	O6	0.879500	0.481900	0.716730
O71	O7	0.912800	0.007000	0.564530
O81	O8	0.931300	0.986640	0.607960
O91	O9	0.652500	0.677940	0.265240
O101	O10	0.633700	0.591230	0.275580
O111	O11	0.910900	0.890720	0.507020
O121	O12	0.907100	0.805570	0.518290
O131	O13	0.605900	0.501210	0.172150
O141	O14	0.620500	0.481900	0.216730
O151	O15	0.587200	0.007000	0.064530
O161	O16	0.568700	0.986640	0.107960
Cd51	Cd5	0.632160	0.127780	0.736210
Cd61	Cd6	0.911960	0.451840	0.073490
Cd71	Cd7	0.867840	0.127780	0.236210
Cd81	Cd8	0.588040	0.451840	0.573490
H811	H81	0.750300	0.148600	0.840400
H821	H82	0.795200	0.195400	0.890300
H831	H83	0.703500	0.351300	0.876500
H841	H84	0.659400	0.305500	0.827000
H851	H85	0.803000	0.284200	0.988200
H861	H86	0.752000	0.239400	0.938600
H871	H87	0.833800	0.386900	0.914000
H881	H88	0.892000	0.431500	0.963000
H891	H89	0.492600	0.927400	0.717700
H901	H90	0.466700	0.827200	0.693000
H911	H91	0.688900	0.844100	0.630100
H921	H92	0.698800	0.944600	0.651400
H931	H93	0.554900	0.631800	0.663100
H941	H94	0.546500	0.735000	0.683900
H951	H95	0.592700	0.760700	0.601600
H961	H96	0.599500	0.660500	0.581100
H971	H97	0.613800	0.266900	0.735500
H981	H98	0.605300	0.330800	0.705300
H991	H99	0.621200	0.193100	0.633000
H1001	H100	0.641700	0.132400	0.665300
H1011	H101	0.618100	0.447500	0.643000
H1021	H102	0.628300	0.388000	0.675400
H1031	H103	0.558000	0.250700	0.606600
H1041	H104	0.547700	0.315100	0.575700
H1051	H105	0.407800	0.055000	0.749000
H1061	H106	0.214500	0.050600	0.744700
H1071	H107	0.221000	0.206400	0.723300
H1081	H108	0.413500	0.206300	0.727100
H1091	H109	0.852600	0.042800	0.713700
H1101	H110	0.045300	0.039700	0.714200
H1111	H111	0.043900	0.216000	0.746600
H1121	H112	0.852100	0.213100	0.745300
H1131	H113	0.128700	0.496500	0.116600
H1141	H114	0.320600	0.491900	0.119300
H1151	H115	0.329800	0.403900	0.032800
H1161	H116	0.133400	0.407400	0.032100
H1171	H117	0.691000	0.368600	0.049600
H1181	H118	0.498600	0.368700	0.047700
H1191	H119	0.498900	0.525700	0.107700
H1201	H120	0.690700	0.523400	0.106800
H1211	H121	0.749700	0.148600	0.340400
H1221	H122	0.704800	0.195400	0.390300
H1231	H123	0.796500	0.351300	0.376500
H1241	H124	0.840600	0.305500	0.327000
H1251	H125	0.697000	0.284200	0.488200
H1261	H126	0.748000	0.239400	0.438600
H1271	H127	0.666200	0.386900	0.414000
H1281	H128	0.608000	0.431500	0.463000
H1291	H129	0.007400	0.927400	0.217700
H1301	H130	0.033300	0.827200	0.193000
H1311	H131	0.811100	0.844100	0.130100
H1321	H132	0.801200	0.944600	0.151400
H1331	H133	0.945100	0.631800	0.163100
H1341	H134	0.953500	0.735000	0.183900
H1351	H135	0.907300	0.760700	0.101600
H1361	H136	0.900500	0.660500	0.081100
H1371	H137	0.886200	0.266900	0.235500
H1381	H138	0.894700	0.330800	0.205300
H1391	H139	0.878800	0.193100	0.133000
H1401	H140	0.858300	0.132400	0.165300
H1411	H141	0.881900	0.447500	0.143000
H1421	H142	0.871700	0.388000	0.175400
H1431	H143	0.942000	0.250700	0.106600
H1441	H144	0.952300	0.315100	0.075700
H1451	H145	0.092200	0.055000	0.249000
H1461	H146	0.285500	0.050600	0.244700
H1471	H147	0.279000	0.206400	0.223300
H1481	H148	0.086500	0.206300	0.227100
H1491	H149	0.647400	0.042800	0.213700
H1501	H150	0.454700	0.039700	0.214200
H1511	H151	0.456100	0.216000	0.246600
H1521	H152	0.647900	0.213100	0.245300
H1531	H153	0.371300	0.496500	0.616600
H1541	H154	0.179400	0.491900	0.619300
H1551	H155	0.170200	0.403900	0.532800
H1561	H156	0.366600	0.407400	0.532100
H1571	H157	0.809000	0.368600	0.549600
H1581	H158	0.001400	0.368700	0.547700
H1591	H159	0.001100	0.525700	0.607700
H1601	H160	0.809300	0.523400	0.606800
C1171	C117	0.699100	0.222210	0.828150
C1181	C118	0.740800	0.189470	0.847450
C1191	C119	0.768400	0.217800	0.877470
C1201	C120	0.756500	0.278610	0.888270
C1211	C121	0.714100	0.310520	0.869370
C1221	C122	0.686800	0.282710	0.839620
C1231	C123	0.852200	0.363000	0.980770
C1241	C124	0.810200	0.305000	0.973260
C1251	C125	0.779200	0.278200	0.943350
C1261	C126	0.787700	0.307800	0.920680
C1271	C127	0.828700	0.365640	0.928840
C1281	C128	0.862600	0.393100	0.958420
C1291	C129	0.669300	0.192900	0.795910
C1301	C130	0.883000	0.390700	0.013300
C1311	C131	0.596700	0.946780	0.686480
C1321	C132	0.529200	0.911300	0.699370
C1331	C133	0.515600	0.850400	0.684840
C1341	C134	0.574300	0.825100	0.658620
C1351	C135	0.645300	0.860800	0.647180
C1361	C136	0.653500	0.921100	0.660450
C1371	C137	0.575700	0.636410	0.619880
C1381	C138	0.561800	0.657790	0.650640
C1391	C139	0.558200	0.720260	0.663150
C1401	C140	0.571600	0.758740	0.645460
C1411	C141	0.585400	0.735010	0.614240
C1421	C142	0.588600	0.675090	0.601880
C1431	C143	0.610300	0.012630	0.701490
C1441	C144	0.582600	0.570220	0.606650
C1451	C145	0.617300	0.251740	0.714550
C1461	C146	0.609900	0.290110	0.696460
C1471	C147	0.609100	0.269480	0.664840
C1481	C148	0.620800	0.209570	0.653920
C1491	C149	0.631900	0.172980	0.673480
C1501	C150	0.606100	0.406940	0.635260
C1511	C151	0.613000	0.371220	0.654960
C1521	C152	0.597800	0.311130	0.644900
C1531	C153	0.571700	0.291030	0.614700
C1541	C154	0.565400	0.330030	0.596130
C1551	C155	0.369800	0.085600	0.743290
C1561	C156	0.253500	0.083000	0.741210
C1571	C157	0.195400	0.129170	0.733790
C1581	C158	0.257300	0.174750	0.728440
C1591	C159	0.373300	0.174280	0.730620
C1601	C160	0.891700	0.078200	0.720990
C1611	C161	0.007900	0.075800	0.721140
C1621	C162	0.068800	0.128130	0.731910
C1631	C163	0.007100	0.179570	0.740300
C1641	C164	0.891800	0.177500	0.739380
C1651	C165	0.169100	0.476900	0.099430
C1661	C166	0.284800	0.475300	0.100880
C1671	C167	0.349000	0.450330	0.076160
C1681	C168	0.290600	0.423300	0.050170
C1691	C169	0.171700	0.425100	0.049970
C1701	C170	0.652100	0.401700	0.060780
C1711	C171	0.536300	0.401300	0.059830
C1721	C172	0.474700	0.448970	0.076730
C1731	C173	0.535900	0.493700	0.094880
C1741	C174	0.651500	0.491800	0.094340
C1751	C175	0.800900	0.222210	0.328150
C1761	C176	0.759200	0.189470	0.347450
C1771	C177	0.731600	0.217800	0.377470
C1781	C178	0.743500	0.278610	0.388270
C1791	C179	0.785900	0.310520	0.369370
C1801	C180	0.813200	0.282710	0.339620
C1811	C181	0.647800	0.363000	0.480770
C1821	C182	0.689800	0.305000	0.473260
C1831	C183	0.720800	0.278200	0.443350
C1841	C184	0.712300	0.307800	0.420680
C1851	C185	0.671300	0.365640	0.428840
C1861	C186	0.637400	0.393100	0.458420
C1871	C187	0.830700	0.192900	0.295910
C1881	C188	0.617000	0.390700	0.513300
C1891	C189	0.903300	0.946780	0.186480
C1901	C190	0.970800	0.911300	0.199370
C1911	C191	0.984400	0.850400	0.184840
C1921	C192	0.925700	0.825100	0.158620
C1931	C193	0.854700	0.860800	0.147180
C1941	C194	0.846500	0.921100	0.160450
C1951	C195	0.924300	0.636410	0.119880
C1961	C196	0.938200	0.657790	0.150640
C1971	C197	0.941800	0.720260	0.163150
C1981	C198	0.928400	0.758740	0.145460
C1991	C199	0.914600	0.735010	0.114240
C2001	C200	0.911400	0.675090	0.101880
C2011	C201	0.889700	0.012630	0.201490
C2021	C202	0.917400	0.570220	0.106650
C2031	C203	0.882700	0.251740	0.214550
C2041	C204	0.890100	0.290110	0.196460
C2051	C205	0.890900	0.269480	0.164840
C2061	C206	0.879200	0.209570	0.153920
C2071	C207	0.868100	0.172980	0.173480
C2081	C208	0.893900	0.406940	0.135260
C2091	C209	0.887000	0.371220	0.154960
C2101	C210	0.902200	0.311130	0.144900
C2111	C211	0.928300	0.291030	0.114700
C2121	C212	0.934600	0.330030	0.096130
C2131	C213	0.130200	0.085600	0.243290
C2141	C214	0.246500	0.083000	0.241210
C2151	C215	0.304600	0.129170	0.233790
C2161	C216	0.242700	0.174750	0.228440
C2171	C217	0.126700	0.174280	0.230620
C2181	C218	0.608300	0.078200	0.220990
C2191	C219	0.492100	0.075800	0.221140
C2201	C220	0.431200	0.128130	0.231910
C2211	C221	0.492900	0.179570	0.240300
C2221	C222	0.608200	0.177500	0.239380
C2231	C223	0.330900	0.476900	0.599430
C2241	C224	0.215200	0.475300	0.600880
C2251	C225	0.151000	0.450330	0.576160
C2261	C226	0.209400	0.423300	0.550170
C2271	C227	0.328300	0.425100	0.549970
C2281	C228	0.847900	0.401700	0.560780
C2291	C229	0.963700	0.401300	0.559830
C2301	C230	0.025300	0.448970	0.576730
C2311	C231	0.964100	0.493700	0.594880
C2321	C232	0.848500	0.491800	0.594340
N131	N13	0.629300	0.193110	0.703400
N141	N14	0.583700	0.387940	0.606500
N151	N15	0.430900	0.130270	0.737530
N161	N16	0.832300	0.126850	0.730440
N171	N17	0.112700	0.451110	0.074290
N181	N18	0.711400	0.447710	0.077050
N191	N19	0.870700	0.193110	0.203400
N201	N20	0.916300	0.387940	0.106500
N211	N21	0.069100	0.130270	0.237530
N221	N22	0.667700	0.126850	0.230440
N231	N23	0.387300	0.451110	0.574290
N241	N24	0.788600	0.447710	0.577050
O171	O17	0.660200	0.136940	0.788000
O181	O18	0.654100	0.224430	0.777440
O191	O19	0.899400	0.360420	0.031720
O201	O20	0.893300	0.445950	0.021070
O211	O21	0.615000	0.025830	0.730210
O221	O22	0.622300	0.049140	0.687720
O231	O23	0.575500	0.535670	0.623130
O241	O24	0.592700	0.551330	0.578060
O251	O25	0.839800	0.136940	0.288000
O261	O26	0.845900	0.224430	0.277440
O271	O27	0.600600	0.360420	0.531720
O281	O28	0.606700	0.445950	0.521070
O291	O29	0.885000	0.025830	0.230210
O301	O30	0.877700	0.049140	0.187720
O311	O31	0.924500	0.535670	0.123130
O321	O32	0.907300	0.551330	0.078060
Cd91	Cd9	0.374210	0.417150	0.776680
Cd101	Cd10	0.078790	0.095750	0.440340
Cd111	Cd11	0.125790	0.417150	0.276680
Cd121	Cd12	0.421210	0.095750	0.940340
H1611	H161	0.333700	0.241000	0.684200
H1621	H162	0.281800	0.199300	0.635300
H1631	H163	0.226500	0.361500	0.623100
H1641	H164	0.284100	0.402700	0.671500
H1651	H165	0.105800	0.125800	0.549800
H1661	H166	0.143500	0.172900	0.599300
H1671	H167	0.232500	0.315800	0.574800
H1681	H168	0.170600	0.272800	0.527400
H1691	H169	0.414800	0.595600	0.869800
H1701	H170	0.429100	0.696200	0.890300
H1711	H171	0.408300	0.726500	0.809000
H1721	H172	0.393000	0.626200	0.787100
H1731	H173	0.461000	0.914400	0.851000
H1741	H174	0.468600	0.815300	0.829900
H1751	H175	0.367800	0.785000	0.907200
H1761	H176	0.359000	0.884500	0.927900
H1771	H177	0.383500	0.411500	0.846800
H1781	H178	0.393900	0.350400	0.878600
H1791	H179	0.378900	0.210600	0.806000
H1801	H180	0.364500	0.275700	0.776400
H1811	H181	0.375600	0.227000	0.936500
H1821	H182	0.357200	0.290500	0.905800
H1831	H183	0.453600	0.160300	0.836200
H1841	H184	0.462200	0.099400	0.868700
H1851	H185	0.153000	0.502000	0.796400
H1861	H186	0.959500	0.506300	0.795900
H1871	H187	0.960800	0.328500	0.763000
H1881	H188	0.153200	0.330600	0.763900
H1891	H189	0.593100	0.334500	0.782900
H1901	H190	0.786200	0.333000	0.784600
H1911	H191	0.786600	0.499800	0.773600
H1921	H192	0.594100	0.496000	0.772200
H1931	H193	0.862100	0.065200	0.397900
H1941	H194	0.667800	0.067500	0.395300
H1951	H195	0.665700	0.147400	0.482600
H1961	H196	0.857400	0.142800	0.483000
H1971	H197	0.301700	0.171000	0.469900
H1981	H198	0.492400	0.177300	0.468900
H1991	H199	0.495000	0.039500	0.403700
H2001	H200	0.302500	0.037400	0.405100
H2011	H201	0.166300	0.241000	0.184200
H2021	H202	0.218200	0.199300	0.135300
H2031	H203	0.273500	0.361500	0.123100
H2041	H204	0.215900	0.402700	0.171500
H2051	H205	0.394200	0.125800	0.049800
H2061	H206	0.356500	0.172900	0.099300
H2071	H207	0.267500	0.315800	0.074800
H2081	H208	0.329400	0.272800	0.027400
H2091	H209	0.085200	0.595600	0.369800
H2101	H210	0.070900	0.696200	0.390300
H2111	H211	0.091700	0.726500	0.309000
H2121	H212	0.107000	0.626200	0.287100
H2131	H213	0.039000	0.914400	0.351000
H2141	H214	0.031400	0.815300	0.329900
H2151	H215	0.132200	0.785000	0.407200
H2161	H216	0.141000	0.884500	0.427900
H2171	H217	0.116500	0.411500	0.346800
H2181	H218	0.106100	0.350400	0.378600
H2191	H219	0.121100	0.210600	0.306000
H2201	H220	0.135500	0.275700	0.276400
H2211	H221	0.124400	0.227000	0.436500
H2221	H222	0.142800	0.290500	0.405800
H2231	H223	0.046400	0.160300	0.336200
H2241	H224	0.037800	0.099400	0.368700
H2251	H225	0.347000	0.502000	0.296400
H2261	H226	0.540500	0.506300	0.295900
H2271	H227	0.539200	0.328500	0.263000
H2281	H228	0.346800	0.330600	0.263900
H2291	H229	0.906900	0.334500	0.282900
H2301	H230	0.713800	0.333000	0.284600
H2311	H231	0.713400	0.499800	0.273600
H2321	H232	0.905900	0.496000	0.272200
H2331	H233	0.637900	0.065200	0.897900
H2341	H234	0.832200	0.067500	0.895300
H2351	H235	0.834300	0.147400	0.982600
H2361	H236	0.642600	0.142800	0.983000
H2371	H237	0.198300	0.171000	0.969900
H2381	H238	0.007600	0.177300	0.968900
H2391	H239	0.005000	0.039500	0.903700
H2401	H240	0.197500	0.037400	0.905100
C2331	C233	0.312100	0.326730	0.683790
C2341	C234	0.312000	0.265510	0.671900
C2351	C235	0.280800	0.240430	0.642510
C2361	C236	0.247900	0.275050	0.623350
C2371	C237	0.248900	0.336820	0.635330
C2381	C238	0.281900	0.361490	0.664450
C2391	C239	0.139400	0.193730	0.532240
C2401	C240	0.131000	0.165000	0.554570
C2411	C241	0.158900	0.192300	0.584190
C2421	C242	0.209300	0.247940	0.592010
C2431	C243	0.208200	0.276400	0.570380
C2441	C244	0.172100	0.249800	0.541460
C2451	C245	0.345100	0.353610	0.716250
C2461	C246	0.103700	0.163400	0.500210
C2471	C247	0.406400	0.599660	0.825890
C2481	C248	0.414300	0.621580	0.857180
C2491	C249	0.421400	0.682240	0.869380
C2501	C250	0.417700	0.723200	0.851930
C2511	C251	0.409100	0.700320	0.821450
C2521	C252	0.401400	0.639720	0.807990
C2531	C253	0.420500	0.910830	0.892890
C2541	C254	0.445200	0.888310	0.863010
C2551	C255	0.447600	0.828700	0.850180
C2561	C256	0.420300	0.788420	0.865930
C2571	C257	0.388200	0.811000	0.895500
C2581	C258	0.385600	0.870700	0.908170
C2591	C259	0.392700	0.534540	0.811480
C2601	C260	0.423700	0.977700	0.907150
C2611	C261	0.381700	0.370540	0.838560
C2621	C262	0.388800	0.334040	0.857760
C2631	C263	0.388500	0.272800	0.846560
C2641	C264	0.379300	0.251330	0.814850
C2651	C265	0.371200	0.290770	0.797310
C2661	C266	0.390200	0.212640	0.915860
C2671	C267	0.379500	0.251400	0.897420
C2681	C268	0.401100	0.233070	0.867240
C2691	C269	0.435100	0.175090	0.856550
C2701	C270	0.441400	0.138910	0.876450
C2711	C271	0.113100	0.466810	0.789110
C2721	C272	0.996400	0.469970	0.789460
C2731	C273	0.935500	0.417150	0.779850
C2741	C274	0.998100	0.364620	0.769840
C2751	C275	0.113700	0.366240	0.770160
C2761	C276	0.632800	0.368020	0.781010
C2771	C277	0.748900	0.366740	0.782100
C2781	C278	0.810800	0.416820	0.779390
C2791	C279	0.749300	0.465700	0.775550
C2801	C280	0.633600	0.462890	0.774720
C2811	C281	0.821800	0.081400	0.415630
C2821	C282	0.704100	0.081900	0.413820
C2831	C283	0.642500	0.103700	0.439720
C2841	C284	0.703500	0.128500	0.464840
C2851	C285	0.819400	0.126400	0.464950
C2861	C286	0.340200	0.140700	0.456300
C2871	C287	0.457500	0.144400	0.456300
C2881	C288	0.518200	0.105000	0.439750
C2891	C289	0.457600	0.066600	0.419200
C2901	C290	0.339900	0.065600	0.420060
C2911	C291	0.187900	0.326730	0.183790
C2921	C292	0.188000	0.265510	0.171900
C2931	C293	0.219200	0.240430	0.142510
C2941	C294	0.252100	0.275050	0.123350
C2951	C295	0.251100	0.336820	0.135330
C2961	C296	0.218100	0.361490	0.164450
C2971	C297	0.360600	0.193730	0.032240
C2981	C298	0.369000	0.165000	0.054570
C2991	C299	0.341100	0.192300	0.084190
C3001	C300	0.290700	0.247940	0.092010
C3011	C301	0.291800	0.276400	0.070380
C3021	C302	0.327900	0.249800	0.041460
C3031	C303	0.154900	0.353610	0.216250
C3041	C304	0.396300	0.163400	0.000210
C3051	C305	0.093600	0.599660	0.325890
C3061	C306	0.085700	0.621580	0.357180
C3071	C307	0.078600	0.682240	0.369380
C3081	C308	0.082300	0.723200	0.351930
C3091	C309	0.090900	0.700320	0.321450
C3101	C310	0.098600	0.639720	0.307990
C3111	C311	0.079500	0.910830	0.392890
C3121	C312	0.054800	0.888310	0.363010
C3131	C313	0.052400	0.828700	0.350180
C3141	C314	0.079700	0.788420	0.365930
C3151	C315	0.111800	0.811000	0.395500
C3161	C316	0.114400	0.870700	0.408170
C3171	C317	0.107300	0.534540	0.311480
C3181	C318	0.076300	0.977700	0.407150
C3191	C319	0.118300	0.370540	0.338560
C3201	C320	0.111200	0.334040	0.357760
C3211	C321	0.111500	0.272800	0.346560
C3221	C322	0.120700	0.251330	0.314850
C3231	C323	0.128800	0.290770	0.297310
C3241	C324	0.109800	0.212640	0.415860
C3251	C325	0.120500	0.251400	0.397420
C3261	C326	0.098900	0.233070	0.367240
C3271	C327	0.064900	0.175090	0.356550
C3281	C328	0.058600	0.138910	0.376450
C3291	C329	0.386900	0.466810	0.289110
C3301	C330	0.503600	0.469970	0.289460
C3311	C331	0.564500	0.417150	0.279850
C3321	C332	0.501900	0.364620	0.269840
C3331	C333	0.386300	0.366240	0.270160
C3341	C334	0.867200	0.368020	0.281010
C3351	C335	0.751100	0.366740	0.282100
C3361	C336	0.689200	0.416820	0.279390
C3371	C337	0.750700	0.465700	0.275550
C3381	C338	0.866400	0.462890	0.274720
C3391	C339	0.678200	0.081400	0.915630
C3401	C340	0.795900	0.081900	0.913820
C3411	C341	0.857500	0.103700	0.939720
C3421	C342	0.796500	0.128500	0.964840
C3431	C343	0.680600	0.126400	0.964950
C3441	C344	0.159800	0.140700	0.956300
C3451	C345	0.042500	0.144400	0.956300
C3461	C346	0.981800	0.105000	0.939750
C3471	C347	0.042400	0.066600	0.919200
C3481	C348	0.160100	0.065600	0.920060
N251	N25	0.372100	0.350080	0.808230
N261	N26	0.419600	0.157040	0.905950
N271	N27	0.173100	0.416980	0.779160
N281	N28	0.573200	0.415340	0.777320
N291	N29	0.879400	0.102220	0.440560
N301	N30	0.281100	0.100320	0.439830
N311	N31	0.127900	0.350080	0.308230
N321	N32	0.080400	0.157040	0.405950
N331	N33	0.326900	0.416980	0.279160
N341	N34	0.926800	0.415340	0.277320
N351	N35	0.620600	0.102220	0.940560
N361	N36	0.218900	0.100320	0.939830
O331	O33	0.347500	0.322060	0.734760
O341	O34	0.366300	0.408770	0.724420
O351	O35	0.089100	0.109280	0.492980
O361	O36	0.092900	0.194430	0.481710
O371	O37	0.394100	0.498790	0.827850
O381	O38	0.379500	0.518100	0.783270
O391	O39	0.412800	0.993000	0.935470
O401	O40	0.431300	0.013360	0.892040
O411	O41	0.152500	0.322060	0.234760
O421	O42	0.133700	0.408770	0.224420
O431	O43	0.410900	0.109280	0.992980
O441	O44	0.407100	0.194430	0.981710
O451	O45	0.105900	0.498790	0.327850
O461	O46	0.120500	0.518100	0.283270
O471	O47	0.087200	0.993000	0.435470
O481	O48	0.068700	0.013360	0.392040
Cd131	Cd13	0.132160	0.872220	0.763790
Cd141	Cd14	0.411960	0.548160	0.426510
Cd151	Cd15	0.367840	0.872220	0.263790
Cd161	Cd16	0.088040	0.548160	0.926510
H2411	H241	0.250300	0.851400	0.659600
H2421	H242	0.295200	0.804600	0.609700
H2431	H243	0.203500	0.648700	0.623500
H2441	H244	0.159400	0.694500	0.673000
H2451	H245	0.303000	0.715800	0.511800
H2461	H246	0.252000	0.760600	0.561400
H2471	H247	0.333800	0.613100	0.586000
H2481	H248	0.392000	0.568500	0.537000
H2491	H249	0.992600	0.072600	0.782300
H2501	H250	0.966700	0.172800	0.807000
H2511	H251	0.188900	0.155900	0.869900
H2521	H252	0.198800	0.055400	0.848600
H2531	H253	0.054900	0.368200	0.836900
H2541	H254	0.046500	0.265000	0.816100
H2551	H255	0.092700	0.239300	0.898400
H2561	H256	0.099500	0.339500	0.918900
H2571	H257	0.113800	0.733100	0.764500
H2581	H258	0.105300	0.669200	0.794700
H2591	H259	0.121200	0.806900	0.867000
H2601	H260	0.141700	0.867600	0.834700
H2611	H261	0.118100	0.552500	0.857000
H2621	H262	0.128300	0.612000	0.824600
H2631	H263	0.058000	0.749300	0.893400
H2641	H264	0.047700	0.684900	0.924300
H2651	H265	0.907800	0.945000	0.751000
H2661	H266	0.714500	0.949400	0.755300
H2671	H267	0.721000	0.793600	0.776700
H2681	H268	0.913500	0.793700	0.772900
H2691	H269	0.352600	0.957200	0.786300
H2701	H270	0.545300	0.960300	0.785800
H2711	H271	0.543900	0.784000	0.753400
H2721	H272	0.352100	0.786900	0.754700
H2731	H273	0.628700	0.503500	0.383400
H2741	H274	0.820600	0.508100	0.380700
H2751	H275	0.829800	0.596100	0.467200
H2761	H276	0.633400	0.592600	0.467900
H2771	H277	0.191000	0.631400	0.450400
H2781	H278	0.998600	0.631300	0.452300
H2791	H279	0.998900	0.474300	0.392300
H2801	H280	0.190700	0.476600	0.393200
H2811	H281	0.249700	0.851400	0.159600
H2821	H282	0.204800	0.804600	0.109700
H2831	H283	0.296500	0.648700	0.123500
H2841	H284	0.340600	0.694500	0.173000
H2851	H285	0.197000	0.715800	0.011800
H2861	H286	0.248000	0.760600	0.061400
H2871	H287	0.166200	0.613100	0.086000
H2881	H288	0.108000	0.568500	0.037000
H2891	H289	0.507400	0.072600	0.282300
H2901	H290	0.533300	0.172800	0.307000
H2911	H291	0.311100	0.155900	0.369900
H2921	H292	0.301200	0.055400	0.348600
H2931	H293	0.445100	0.368200	0.336900
H2941	H294	0.453500	0.265000	0.316100
H2951	H295	0.407300	0.239300	0.398400
H2961	H296	0.400500	0.339500	0.418900
H2971	H297	0.386200	0.733100	0.264500
H2981	H298	0.394700	0.669200	0.294700
H2991	H299	0.378800	0.806900	0.367000
H3001	H300	0.358300	0.867600	0.334700
H3011	H301	0.381900	0.552500	0.357000
H3021	H302	0.371700	0.612000	0.324600
H3031	H303	0.442000	0.749300	0.393400
H3041	H304	0.452300	0.684900	0.424300
H3051	H305	0.592200	0.945000	0.251000
H3061	H306	0.785500	0.949400	0.255300
H3071	H307	0.779000	0.793600	0.276700
H3081	H308	0.586500	0.793700	0.272900
H3091	H309	0.147400	0.957200	0.286300
H3101	H310	0.954700	0.960300	0.285800
H3111	H311	0.956100	0.784000	0.253400
H3121	H312	0.147900	0.786900	0.254700
H3131	H313	0.871300	0.503500	0.883400
H3141	H314	0.679400	0.508100	0.880700
H3151	H315	0.670200	0.596100	0.967200
H3161	H316	0.866600	0.592600	0.967900
H3171	H317	0.309000	0.631400	0.950400
H3181	H318	0.501400	0.631300	0.952300
H3191	H319	0.501100	0.474300	0.892300
H3201	H320	0.309300	0.476600	0.893200
C3491	C349	0.199100	0.777790	0.671850
C3501	C350	0.240800	0.810530	0.652550
C3511	C351	0.268400	0.782200	0.622530
C3521	C352	0.256500	0.721390	0.611730
C3531	C353	0.214100	0.689480	0.630630
C3541	C354	0.186800	0.717290	0.660380
C3551	C355	0.352200	0.637000	0.519230
C3561	C356	0.310200	0.695000	0.526740
C3571	C357	0.279200	0.721800	0.556650
C3581	C358	0.287700	0.692200	0.579320
C3591	C359	0.328700	0.634360	0.571160
C3601	C360	0.362600	0.606900	0.541580
C3611	C361	0.169300	0.807100	0.704090
C3621	C362	0.383000	0.609300	0.486700
C3631	C363	0.096700	0.053220	0.813520
C3641	C364	0.029200	0.088700	0.800630
C3651	C365	0.015600	0.149600	0.815160
C3661	C366	0.074300	0.174900	0.841380
C3671	C367	0.145300	0.139200	0.852820
C3681	C368	0.153500	0.078900	0.839550
C3691	C369	0.075700	0.363590	0.880120
C3701	C370	0.061800	0.342210	0.849360
C3711	C371	0.058200	0.279740	0.836850
C3721	C372	0.071600	0.241260	0.854540
C3731	C373	0.085400	0.264990	0.885760
C3741	C374	0.088600	0.324910	0.898120
C3751	C375	0.110300	0.987370	0.798510
C3761	C376	0.082600	0.429780	0.893350
C3771	C377	0.117300	0.748260	0.785450
C3781	C378	0.109900	0.709890	0.803540
C3791	C379	0.109100	0.730520	0.835160
C3801	C380	0.120800	0.790430	0.846080
C3811	C381	0.131900	0.827020	0.826520
C3821	C382	0.106100	0.593060	0.864740
C3831	C383	0.113000	0.628780	0.845040
C3841	C384	0.097800	0.688870	0.855100
C3851	C385	0.071700	0.708970	0.885300
C3861	C386	0.065400	0.669970	0.903870
C3871	C387	0.869800	0.914400	0.756710
C3881	C388	0.753500	0.917000	0.758790
C3891	C389	0.695400	0.870830	0.766210
C3901	C390	0.757300	0.825250	0.771560
C3911	C391	0.873300	0.825720	0.769380
C3921	C392	0.391700	0.921800	0.779010
C3931	C393	0.507900	0.924200	0.778860
C3941	C394	0.568800	0.871870	0.768090
C3951	C395	0.507100	0.820430	0.759700
C3961	C396	0.391800	0.822500	0.760620
C3971	C397	0.669100	0.523100	0.400570
C3981	C398	0.784800	0.524700	0.399120
C3991	C399	0.849000	0.549670	0.423840
C4001	C400	0.790600	0.576700	0.449830
C4011	C401	0.671700	0.574900	0.450030
C4021	C402	0.152100	0.598300	0.439220
C4031	C403	0.036300	0.598700	0.440170
C4041	C404	0.974700	0.551030	0.423270
C4051	C405	0.035900	0.506300	0.405120
C4061	C406	0.151500	0.508200	0.405660
C4071	C407	0.300900	0.777790	0.171850
C4081	C408	0.259200	0.810530	0.152550
C4091	C409	0.231600	0.782200	0.122530
C4101	C410	0.243500	0.721390	0.111730
C4111	C411	0.285900	0.689480	0.130630
C4121	C412	0.313200	0.717290	0.160380
C4131	C413	0.147800	0.637000	0.019230
C4141	C414	0.189800	0.695000	0.026740
C4151	C415	0.220800	0.721800	0.056650
C4161	C416	0.212300	0.692200	0.079320
C4171	C417	0.171300	0.634360	0.071160
C4181	C418	0.137400	0.606900	0.041580
C4191	C419	0.330700	0.807100	0.204090
C4201	C420	0.117000	0.609300	0.986700
C4211	C421	0.403300	0.053220	0.313520
C4221	C422	0.470800	0.088700	0.300630
C4231	C423	0.484400	0.149600	0.315160
C4241	C424	0.425700	0.174900	0.341380
C4251	C425	0.354700	0.139200	0.352820
C4261	C426	0.346500	0.078900	0.339550
C4271	C427	0.424300	0.363590	0.380120
C4281	C428	0.438200	0.342210	0.349360
C4291	C429	0.441800	0.279740	0.336850
C4301	C430	0.428400	0.241260	0.354540
C4311	C431	0.414600	0.264990	0.385760
C4321	C432	0.411400	0.324910	0.398120
C4331	C433	0.389700	0.987370	0.298510
C4341	C434	0.417400	0.429780	0.393350
C4351	C435	0.382700	0.748260	0.285450
C4361	C436	0.390100	0.709890	0.303540
C4371	C437	0.390900	0.730520	0.335160
C4381	C438	0.379200	0.790430	0.346080
C4391	C439	0.368100	0.827020	0.326520
C4401	C440	0.393900	0.593060	0.364740
C4411	C441	0.387000	0.628780	0.345040
C4421	C442	0.402200	0.688870	0.355100
C4431	C443	0.428300	0.708970	0.385300
C4441	C444	0.434600	0.669970	0.403870
C4451	C445	0.630200	0.914400	0.256710
C4461	C446	0.746500	0.917000	0.258790
C4471	C447	0.804600	0.870830	0.266210
C4481	C448	0.742700	0.825250	0.271560
C4491	C449	0.626700	0.825720	0.269380
C4501	C450	0.108300	0.921800	0.279010
C4511	C451	0.992100	0.924200	0.278860
C4521	C452	0.931200	0.871870	0.268090
C4531	C453	0.992900	0.820430	0.259700
C4541	C454	0.108200	0.822500	0.260620
C4551	C455	0.830900	0.523100	0.900570
C4561	C456	0.715200	0.524700	0.899120
C4571	C457	0.651000	0.549670	0.923840
C4581	C458	0.709400	0.576700	0.949830
C4591	C459	0.828300	0.574900	0.950030
C4601	C460	0.347900	0.598300	0.939220
C4611	C461	0.463700	0.598700	0.940170
C4621	C462	0.525300	0.551030	0.923270
C4631	C463	0.464100	0.506300	0.905120
C4641	C464	0.348500	0.508200	0.905660
N371	N37	0.129300	0.806890	0.796600
N381	N38	0.083700	0.612060	0.893500
N391	N39	0.930900	0.869730	0.762470
N401	N40	0.332300	0.873150	0.769560
N411	N41	0.612700	0.548890	0.425710
N421	N42	0.211400	0.552290	0.422950
N431	N43	0.370700	0.806890	0.296600
N441	N44	0.416300	0.612060	0.393500
N451	N45	0.569100	0.869730	0.262470
N461	N46	0.167700	0.873150	0.269560
N471	N47	0.887300	0.548890	0.925710
N481	N48	0.288600	0.552290	0.922950
O491	O49	0.160200	0.863060	0.712000
O501	O50	0.154100	0.775570	0.722560
O511	O51	0.399400	0.639580	0.468280
O521	O52	0.393300	0.554050	0.478930
O531	O53	0.115000	0.974170	0.769790
O541	O54	0.122300	0.950860	0.812280
O551	O55	0.075500	0.464330	0.876870
O561	O56	0.092700	0.448670	0.921940
O571	O57	0.339800	0.863060	0.212000
O581	O58	0.345900	0.775570	0.222560
O591	O59	0.100600	0.639580	0.968280
O601	O60	0.106700	0.554050	0.978930
O611	O61	0.385000	0.974170	0.269790
O621	O62	0.377700	0.950860	0.312280
O631	O63	0.424500	0.464330	0.376870
O641	O64	0.407300	0.448670	0.421940
