data_AXUBAW_manual_PM
_symmetry_space_group_name_H-M	'P1'
_cell_length_a	18.111500
_cell_length_b	18.111500
_cell_length_c	18.111500
_cell_angle_alpha	60.000000
_cell_angle_beta	60.000000
_cell_angle_gamma	60.000000
_symmetry_Int_Tables_number 1

loop_
_symmetry_equiv_pos_as_xyz
'x,y,z'

loop_
_atom_site_label
_atom_site_type_symbol
_atom_site_fract_x
_atom_site_fract_y
_atom_site_fract_z
Zn11	Zn1	0.118750	0.293750	0.293750
Zn21	Zn2	0.293740	0.118760	0.293750
Zn31	Zn3	0.293740	0.293750	0.118760
Zn41	Zn4	0.293740	0.293750	0.293750
Zn51	Zn5	0.706260	0.881240	0.706250
Zn61	Zn6	0.881250	0.706250	0.706250
Zn71	Zn7	0.706260	0.706250	0.881240
Zn81	Zn8	0.706260	0.706250	0.706250
C11	C1	0.111300	0.388700	0.388700
C21	C2	0.053300	0.446700	0.446700
C31	C3	0.388700	0.111300	0.111300
C41	C4	0.446700	0.053300	0.053300
C51	C5	0.111300	0.388700	0.111300
C61	C6	0.053300	0.446700	0.053300
C71	C7	0.388700	0.111300	0.388700
C81	C8	0.446700	0.053300	0.446700
C91	C9	0.111300	0.111300	0.388700
C101	C10	0.053300	0.053300	0.446700
C111	C11	0.388700	0.388700	0.111300
C121	C12	0.446700	0.446700	0.053300
C131	C13	0.611300	0.888700	0.611300
C141	C14	0.553300	0.946700	0.553300
C151	C15	0.888700	0.611300	0.888700
C161	C16	0.946700	0.553300	0.946700
C171	C17	0.611300	0.888700	0.888700
C181	C18	0.553300	0.946700	0.946700
C191	C19	0.888700	0.611300	0.611300
C201	C20	0.946700	0.553300	0.553300
C211	C21	0.888700	0.888700	0.611300
C221	C22	0.946700	0.946700	0.553300
C231	C23	0.611300	0.611300	0.888700
C241	C24	0.553300	0.553300	0.946700
C251	C25	0.027000	0.537960	0.408040
C261	C26	0.056800	0.582800	0.303600
C271	C27	0.537960	0.027000	0.027000
C281	C28	0.582800	0.056800	0.056800
C291	C29	0.408040	0.027000	0.027000
C301	C30	0.303600	0.056800	0.056800
C311	C31	0.027000	0.408040	0.537960
C321	C32	0.056800	0.303600	0.582800
C331	C33	0.027000	0.408040	0.027000
C341	C34	0.056800	0.303600	0.056800
C351	C35	0.537960	0.027000	0.408040
C361	C36	0.582800	0.056800	0.303600
C371	C37	0.408040	0.027000	0.537960
C381	C38	0.303600	0.056800	0.582800
C391	C39	0.027000	0.537960	0.027000
C401	C40	0.056800	0.582800	0.056800
C411	C41	0.027000	0.027000	0.537960
C421	C42	0.056800	0.056800	0.582800
C431	C43	0.537960	0.408040	0.027000
C441	C44	0.582800	0.303600	0.056800
C451	C45	0.408040	0.537960	0.027000
C461	C46	0.303600	0.582800	0.056800
C471	C47	0.027000	0.027000	0.408040
C481	C48	0.056800	0.056800	0.303600
C491	C49	0.462040	0.973000	0.591960
C501	C50	0.417200	0.943200	0.696400
C511	C51	0.973000	0.462040	0.973000
C521	C52	0.943200	0.417200	0.943200
C531	C53	0.973000	0.591960	0.973000
C541	C54	0.943200	0.696400	0.943200
C551	C55	0.591960	0.973000	0.462040
C561	C56	0.696400	0.943200	0.417200
C571	C57	0.591960	0.973000	0.973000
C581	C58	0.696400	0.943200	0.943200
C591	C59	0.973000	0.462040	0.591960
C601	C60	0.943200	0.417200	0.696400
C611	C61	0.973000	0.591960	0.462040
C621	C62	0.943200	0.696400	0.417200
C631	C63	0.462040	0.973000	0.973000
C641	C64	0.417200	0.943200	0.943200
C651	C65	0.973000	0.973000	0.462040
C661	C66	0.943200	0.943200	0.417200
C671	C67	0.591960	0.462040	0.973000
C681	C68	0.696400	0.417200	0.943200
C691	C69	0.462040	0.591960	0.973000
C701	C70	0.417200	0.696400	0.943200
C711	C71	0.973000	0.973000	0.591960
C721	C72	0.943200	0.943200	0.696400
O11	O1	0.250000	0.250000	0.250000
O21	O2	0.750000	0.750000	0.750000
O31	O3	0.071930	0.366650	0.366650
O41	O4	0.366650	0.071930	0.194770
O51	O5	0.366650	0.194770	0.071930
O61	O6	0.194770	0.366650	0.366650
O71	O7	0.071930	0.366650	0.194770
O81	O8	0.366650	0.194770	0.366650
O91	O9	0.366650	0.071930	0.366650
O101	O10	0.194770	0.366650	0.071930
O111	O11	0.071930	0.194770	0.366650
O121	O12	0.366650	0.366650	0.071930
O131	O13	0.366650	0.366650	0.194770
O141	O14	0.194770	0.071930	0.366650
O151	O15	0.633350	0.928070	0.633350
O161	O16	0.928070	0.633350	0.805230
O171	O17	0.805230	0.633350	0.928070
O181	O18	0.633350	0.805230	0.633350
O191	O19	0.633350	0.928070	0.805230
O201	O20	0.805230	0.633350	0.633350
O211	O21	0.928070	0.633350	0.633350
O221	O22	0.633350	0.805230	0.928070
O231	O23	0.805230	0.928070	0.633350
O241	O24	0.633350	0.633350	0.928070
O251	O25	0.633350	0.633350	0.805230
O261	O26	0.928070	0.805230	0.633350
H11	H1	0.994420	0.629390	0.282030
H21	H2	0.097680	0.528140	0.270680
H31	H3	0.100180	0.623800	0.281400
H41	H4	0.632890	0.090030	0.994660
H51	H5	0.619950	0.995110	0.103970
H61	H6	0.528480	0.107150	0.093650
H71	H7	0.279950	0.997290	0.111890
H81	H8	0.283240	0.080310	0.996270
H91	H9	0.270920	0.114690	0.084120
H101	H10	0.050610	0.272630	0.545540
H111	H11	0.011620	0.285070	0.656550
H121	H12	0.130050	0.276410	0.579240
H131	H13	0.044050	0.285150	0.013520
H141	H14	0.016310	0.276120	0.130910
H151	H15	0.131920	0.272840	0.047860
H161	H16	0.528100	0.102790	0.270680
H171	H17	0.624530	0.994550	0.281480
H181	H18	0.628700	0.094950	0.281950
H191	H19	0.283240	0.996270	0.640180
H201	H20	0.270920	0.084120	0.530280
H211	H21	0.279950	0.111890	0.610870
H221	H22	0.101840	0.622160	0.994790
H231	H23	0.095960	0.528250	0.105090
H241	H24	0.994490	0.630920	0.092400
H251	H25	0.105040	0.096020	0.528250
H261	H26	0.092460	0.994480	0.630860
H271	H27	0.994780	0.101780	0.622220
H281	H28	0.585910	0.277150	0.009550
H291	H29	0.541200	0.272150	0.128930
H301	H30	0.654210	0.284810	0.053800
H311	H31	0.270930	0.530340	0.114870
H321	H32	0.279920	0.610620	0.997370
H331	H33	0.283260	0.640360	0.080040
H341	H34	0.999670	0.116830	0.279210
H351	H35	0.073280	0.998270	0.283740
H361	H36	0.119330	0.077180	0.271150
H371	H37	0.436970	0.866360	0.725410
H381	H38	0.340550	0.974600	0.714610
H391	H39	0.441150	0.966760	0.725880
H401	H40	0.967770	0.340700	0.976910
H411	H41	0.973650	0.434600	0.866600
H421	H42	0.866300	0.443370	0.964210
H431	H43	0.888120	0.720050	0.002720
H441	H44	0.915860	0.729080	0.885330
H451	H45	0.003730	0.716770	0.919670
H461	H46	0.714850	0.955930	0.342720
H471	H47	0.727160	0.868080	0.452630
H481	H48	0.723880	0.983700	0.423320
H491	H49	0.727160	0.952120	0.868080
H501	H50	0.723880	0.869100	0.983700
H511	H51	0.714850	0.986500	0.955930
H521	H52	0.969490	0.340590	0.714610
H531	H53	0.866230	0.441830	0.725950
H541	H54	0.972000	0.436250	0.725330
H551	H55	0.883430	0.729000	0.468990
H561	H56	0.922420	0.716560	0.357990
H571	H57	0.001860	0.720340	0.391690
H581	H58	0.432400	0.866920	0.975790
H591	H59	0.445340	0.961840	0.866470
H601	H60	0.340930	0.978960	0.965460
H611	H61	0.964280	0.866290	0.443310
H621	H62	0.976850	0.967830	0.340700
H631	H63	0.866590	0.973590	0.434670
H641	H64	0.723850	0.423070	0.869180
H651	H65	0.714860	0.342790	0.986680
H661	H66	0.727180	0.452810	0.951860
H671	H67	0.353650	0.716070	0.000740
H681	H68	0.398360	0.721080	0.881360
H691	H69	0.466660	0.728740	0.925610
H701	H70	0.945090	0.870080	0.727670
H711	H71	0.871480	0.988640	0.723140
H721	H72	0.991140	0.948990	0.715080
