data_AZAFIS_freeONLY_PM
_symmetry_space_group_name_H-M	'P1'
_cell_length_a	7.783400
_cell_length_b	10.130100
_cell_length_c	10.327700
_cell_angle_alpha	103.873000
_cell_angle_beta	91.797000
_cell_angle_gamma	90.935000
_symmetry_Int_Tables_number 1

loop_
_symmetry_equiv_pos_as_xyz
'x,y,z'

loop_
_atom_site_label
_atom_site_type_symbol
_atom_site_fract_x
_atom_site_fract_y
_atom_site_fract_z
Br11	Br1	0.003740	0.214830	0.093760
O11	O1	0.010700	0.487300	0.354200
O21	O2	0.269200	0.546500	0.306400
C11	C1	0.997100	0.382800	0.043600
C21	C2	0.057800	0.500600	0.129900
C31	C3	0.116500	0.510800	0.272900
C41	C4	0.939600	0.380800	0.914700
H11	H1	0.899200	0.299800	0.858000
Br21	Br2	0.172850	0.986470	0.290750
C51	C5	0.437100	0.122800	0.477600
O31	O3	0.484400	0.347000	0.451400
C61	C6	0.421800	0.877900	0.435600
H21	H2	0.368100	0.796100	0.391300
O41	O4	0.218900	0.284300	0.481900
C71	C7	0.374400	0.260400	0.467200
C81	C8	0.361000	0.998800	0.414900
O51	O5	0.129800	0.756400	0.578400
O61	O6	0.378400	0.497900	0.742000
Ca11	Ca1	0.250160	0.532630	0.540320
H31	H3	0.035000	0.764000	0.574000
H41	H4	0.350000	0.435000	0.772000
H51	H5	0.486000	0.489000	0.734000
H61	H6	0.164000	0.821000	0.550000
Br31	Br3	0.996260	0.785170	0.906240
O71	O7	0.989300	0.512700	0.645800
O81	O8	0.730800	0.453500	0.693600
C91	C9	0.002900	0.617200	0.956400
C101	C10	0.942200	0.499400	0.870100
C111	C11	0.883500	0.489200	0.727100
C121	C12	0.060400	0.619200	0.085300
H71	H7	0.100800	0.700200	0.142000
Br41	Br4	0.827150	0.013530	0.709250
C131	C13	0.562900	0.877200	0.522400
O91	O9	0.515600	0.653000	0.548600
C141	C14	0.578200	0.122100	0.564400
H81	H8	0.631900	0.203900	0.608700
O101	O10	0.781100	0.715700	0.518100
C151	C15	0.625600	0.739600	0.532800
C161	C16	0.639000	0.001200	0.585100
O111	O11	0.870200	0.243600	0.421600
O121	O12	0.621600	0.502100	0.258000
Ca21	Ca2	0.749840	0.467370	0.459680
H91	H9	0.965000	0.236000	0.426000
H101	H10	0.650000	0.565000	0.228000
H111	H11	0.514000	0.511000	0.266000
H121	H12	0.836000	0.179000	0.450000
