data_BACGAQ_freeONLY_PM
_symmetry_space_group_name_H-M	'P1'
_cell_length_a	10.312000
_cell_length_b	13.919000
_cell_length_c	14.174000
_cell_angle_alpha	88.350000
_cell_angle_beta	69.287000
_cell_angle_gamma	74.727000
_symmetry_Int_Tables_number 1

loop_
_symmetry_equiv_pos_as_xyz
'x,y,z'

loop_
_atom_site_label
_atom_site_type_symbol
_atom_site_fract_x
_atom_site_fract_y
_atom_site_fract_z
O11	O1	0.554100	0.573300	0.754400
Cd11	Cd1	0.560960	0.446820	0.366140
N11	N1	0.564800	0.296500	0.438200
N21	N2	0.646700	0.175200	0.525000
N31	N3	0.775200	0.353800	0.242000
N41	N4	0.922500	0.265700	0.097100
O21	O2	0.347500	0.504200	0.522700
O31	O3	0.282200	0.424300	0.660600
O41	O4	0.582200	0.426400	0.691300
C11	C1	0.278900	0.445500	0.576600
C21	C2	0.192600	0.402500	0.530500
H11	H1	0.141100	0.455700	0.500700
H21	H2	0.259100	0.353400	0.476100
C31	C3	0.085500	0.354000	0.602400
C41	C4	0.117100	0.251500	0.608600
H31	H3	0.205600	0.211300	0.566700
C51	C5	0.019600	0.208400	0.675600
H41	H4	0.043400	0.139500	0.678900
C61	C6	0.887700	0.265400	0.737900
H51	H5	0.822000	0.235000	0.782100
C71	C7	0.852200	0.369000	0.734700
C81	C8	0.952200	0.410600	0.666500
H61	H6	0.929100	0.479600	0.663500
C91	C9	0.707900	0.434500	0.800600
H71	H7	0.660100	0.395000	0.851900
H81	H8	0.723300	0.487400	0.834900
C101	C10	0.609800	0.480900	0.744800
C111	C11	0.610400	0.274200	0.513800
H91	H9	0.617000	0.321800	0.555300
C121	C12	0.570700	0.205000	0.396300
C131	C13	0.535400	0.182700	0.314800
H101	H10	0.498800	0.232800	0.278800
C141	C14	0.556900	0.083500	0.289700
H111	H11	0.533100	0.066400	0.236200
C151	C15	0.613100	0.008200	0.342000
H121	H12	0.627900	0.942100	0.321500
C161	C16	0.647400	0.028400	0.422900
H131	H13	0.684400	0.977800	0.458300
C171	C17	0.623800	0.128900	0.449400
C181	C18	0.708900	0.127000	0.597900
H141	H14	0.648900	0.086700	0.638600
H151	H15	0.710300	0.177700	0.642700
C191	C19	0.955000	0.087600	0.461000
H161	H16	0.925400	0.146700	0.432800
C201	C20	0.860800	0.061200	0.546400
C211	C21	0.905800	0.973000	0.583800
H171	H17	0.842200	0.952800	0.640400
C221	C22	0.788000	0.322000	0.152100
H181	H18	0.712200	0.336600	0.128200
C231	C23	0.912200	0.315800	0.246900
C241	C24	0.963000	0.325400	0.324300
H191	H19	0.902400	0.360600	0.385600
C251	C25	0.106100	0.280700	0.306200
H201	H20	0.143200	0.287100	0.356000
C261	C26	0.197400	0.225700	0.215100
H211	H21	0.293500	0.196300	0.205900
C271	C27	0.148000	0.214200	0.139000
H221	H22	0.207900	0.177100	0.078600
C281	C28	0.004900	0.260500	0.156900
C291	C29	0.969200	0.214600	0.997000
H231	H23	0.060900	0.225300	0.955100
H241	H24	0.899600	0.243700	0.965400
C301	C30	0.921300	0.059300	0.087900
H251	H25	0.869400	0.098700	0.148100
C311	C31	0.984900	0.102400	0.001100
C321	C32	0.066300	0.041700	0.913700
H261	H26	0.113300	0.069300	0.855200
O51	O5	0.445900	0.426700	0.245600
Cd21	Cd2	0.439040	0.553180	0.633860
N51	N5	0.435200	0.703500	0.561800
N61	N6	0.353300	0.824800	0.475000
N71	N7	0.224800	0.646200	0.758000
N81	N8	0.077500	0.734300	0.902900
O61	O6	0.652500	0.495800	0.477300
O71	O7	0.717800	0.575700	0.339400
O81	O8	0.417800	0.573600	0.308700
C331	C33	0.721100	0.554500	0.423400
C341	C34	0.807400	0.597500	0.469500
H271	H27	0.858900	0.544300	0.499300
H281	H28	0.740900	0.646600	0.523900
C351	C35	0.914500	0.646000	0.397600
C361	C36	0.882900	0.748500	0.391400
H291	H29	0.794400	0.788700	0.433300
C371	C37	0.980400	0.791600	0.324400
H301	H30	0.956600	0.860500	0.321100
C381	C38	0.112300	0.734600	0.262100
H311	H31	0.178000	0.765000	0.217900
C391	C39	0.147800	0.631000	0.265300
C401	C40	0.047800	0.589400	0.333500
H321	H32	0.070900	0.520400	0.336500
C411	C41	0.292100	0.565500	0.199400
H331	H33	0.339900	0.605000	0.148100
H341	H34	0.276700	0.512600	0.165100
C421	C42	0.390200	0.519100	0.255200
C431	C43	0.389600	0.725800	0.486200
H351	H35	0.383000	0.678200	0.444700
C441	C44	0.429300	0.795000	0.603700
C451	C45	0.464600	0.817300	0.685200
H361	H36	0.501200	0.767200	0.721200
C461	C46	0.443100	0.916500	0.710300
H371	H37	0.466900	0.933600	0.763800
C471	C47	0.386900	0.991800	0.658000
H381	H38	0.372100	0.057900	0.678500
C481	C48	0.352600	0.971600	0.577100
H391	H39	0.315600	0.022200	0.541700
C491	C49	0.376200	0.871100	0.550600
C501	C50	0.291100	0.873000	0.402100
H401	H40	0.351100	0.913300	0.361400
H411	H41	0.289700	0.822300	0.357300
C511	C51	0.045000	0.912400	0.539000
H421	H42	0.074600	0.853300	0.567200
C521	C52	0.139200	0.938800	0.453600
C531	C53	0.094200	0.027000	0.416200
H431	H43	0.157800	0.047200	0.359600
C541	C54	0.212000	0.678000	0.847900
H441	H44	0.287800	0.663400	0.871800
C551	C55	0.087800	0.684200	0.753100
C561	C56	0.037000	0.674600	0.675700
H451	H45	0.097600	0.639400	0.614400
C571	C57	0.893900	0.719300	0.693800
H461	H46	0.856800	0.712900	0.644000
C581	C58	0.802600	0.774300	0.784900
H471	H47	0.706500	0.803700	0.794100
C591	C59	0.852000	0.785800	0.861000
H481	H48	0.792100	0.822900	0.921400
C601	C60	0.995100	0.739500	0.843100
C611	C61	0.030800	0.785400	0.003000
H491	H49	0.939100	0.774700	0.044900
H501	H50	0.100400	0.756300	0.034600
C621	C62	0.078700	0.940700	0.912100
H511	H51	0.130600	0.901300	0.851900
C631	C63	0.015100	0.897600	0.998900
C641	C64	0.933700	0.958300	0.086300
H521	H52	0.886700	0.930700	0.144800
