data_BACMOH10_freeONLY_PM
_symmetry_space_group_name_H-M	'P1'
_cell_length_a	7.465000
_cell_length_b	9.622000
_cell_length_c	16.049000
_cell_angle_alpha	90.000000
_cell_angle_beta	90.000000
_cell_angle_gamma	90.000000
_symmetry_Int_Tables_number 1

loop_
_symmetry_equiv_pos_as_xyz
'x,y,z'

loop_
_atom_site_label
_atom_site_type_symbol
_atom_site_fract_x
_atom_site_fract_y
_atom_site_fract_z
Cu11	Cu1	0.740200	0.841700	0.834400
Cu21	Cu2	0.759800	0.341700	0.165600
H11	H1	0.726300	0.226200	0.847500
H21	H2	0.615700	0.017100	0.933400
H31	H3	0.538900	0.048800	0.840100
H41	H4	0.938900	0.067800	0.959300
H51	H5	0.001700	0.219500	0.924300
H61	H6	0.870700	0.527700	0.870200
H71	H7	0.966800	0.364500	0.754300
H81	H8	0.956400	0.504700	0.620500
H91	H9	0.860500	0.746400	0.653400
H101	H10	0.773700	0.726200	0.152500
H111	H11	0.884300	0.517100	0.066600
H121	H12	0.961100	0.548800	0.159900
H131	H13	0.561100	0.567800	0.040700
H141	H14	0.498300	0.719500	0.075700
H151	H15	0.629300	0.027700	0.129800
H161	H16	0.533200	0.864500	0.245700
H171	H17	0.543600	0.004700	0.379500
H181	H18	0.639500	0.246400	0.346600
C11	C1	0.901900	0.093400	0.787400
C21	C2	0.788900	0.137500	0.861900
C31	C3	0.896400	0.160600	0.939500
C41	C4	0.803900	0.229000	0.010000
C51	C5	0.879600	0.552600	0.809900
C61	C6	0.926000	0.540300	0.677300
C71	C7	0.874100	0.668800	0.694400
C81	C8	0.598100	0.593400	0.212600
C91	C9	0.711100	0.637500	0.138100
C101	C10	0.603600	0.660600	0.060500
C111	C11	0.696100	0.729000	0.990000
C121	C12	0.620400	0.052600	0.190100
C131	C13	0.574000	0.040300	0.322700
C141	C14	0.625900	0.168800	0.305600
N11	N1	0.647900	0.024000	0.873100
N21	N2	0.842400	0.676200	0.778400
N31	N3	0.931700	0.464300	0.748400
N41	N4	0.852100	0.524000	0.126900
N51	N5	0.657600	0.176200	0.221600
N61	N6	0.568300	0.964300	0.251600
O11	O1	0.996800	0.184300	0.759000
O21	O2	0.901200	0.967700	0.770300
O31	O3	0.875400	0.228100	0.081300
O41	O4	0.663300	0.293500	0.998100
O51	O5	0.503200	0.684300	0.241000
O61	O6	0.598800	0.467700	0.229700
O71	O7	0.624600	0.728100	0.918700
O81	O8	0.836700	0.793500	0.001900
Cu31	Cu3	0.240200	0.158300	0.665600
Cu41	Cu4	0.259800	0.658300	0.334400
H191	H19	0.226300	0.773800	0.652500
H201	H20	0.115700	0.982900	0.566600
H211	H21	0.038900	0.951200	0.659900
H221	H22	0.438900	0.932200	0.540700
H231	H23	0.501700	0.780500	0.575700
H241	H24	0.370700	0.472300	0.629800
H251	H25	0.466800	0.635500	0.745700
H261	H26	0.456400	0.495300	0.879500
H271	H27	0.360500	0.253600	0.846600
H281	H28	0.273700	0.273800	0.347500
H291	H29	0.384300	0.482900	0.433400
H301	H30	0.461100	0.451200	0.340100
H311	H31	0.061100	0.432200	0.459300
H321	H32	0.998300	0.280500	0.424300
H331	H33	0.129300	0.972300	0.370200
H341	H34	0.033200	0.135500	0.254300
H351	H35	0.043600	0.995300	0.120500
H361	H36	0.139500	0.753600	0.153400
C151	C15	0.401900	0.906600	0.712600
C161	C16	0.288900	0.862500	0.638100
C171	C17	0.396400	0.839400	0.560500
C181	C18	0.303900	0.771000	0.490000
C191	C19	0.379600	0.447400	0.690100
C201	C20	0.426000	0.459700	0.822700
C211	C21	0.374100	0.331200	0.805600
C221	C22	0.098100	0.406600	0.287400
C231	C23	0.211100	0.362500	0.361900
C241	C24	0.103600	0.339400	0.439500
C251	C25	0.196100	0.271000	0.510000
C261	C26	0.120400	0.947400	0.309900
C271	C27	0.074000	0.959700	0.177300
C281	C28	0.125900	0.831200	0.194400
N71	N7	0.147900	0.976000	0.626900
N81	N8	0.342400	0.323800	0.721600
N91	N9	0.431700	0.535700	0.751600
N101	N10	0.352100	0.476000	0.373100
N111	N11	0.157600	0.823800	0.278400
N121	N12	0.068300	0.035700	0.248400
O91	O9	0.496800	0.815700	0.741000
O101	O10	0.401200	0.032300	0.729700
O111	O11	0.375400	0.771900	0.418700
O121	O12	0.163300	0.706500	0.501900
O131	O13	0.003200	0.315700	0.259000
O141	O14	0.098800	0.532300	0.270300
O151	O15	0.124600	0.271900	0.581300
O161	O16	0.336700	0.206500	0.498100
