data_BACMOH_freeONLY_PM
_symmetry_space_group_name_H-M	'P1'
_cell_length_a	16.049000
_cell_length_b	9.622000
_cell_length_c	7.465000
_cell_angle_alpha	90.000000
_cell_angle_beta	90.000000
_cell_angle_gamma	90.000000
_symmetry_Int_Tables_number 1

loop_
_symmetry_equiv_pos_as_xyz
'x,y,z'

loop_
_atom_site_label
_atom_site_type_symbol
_atom_site_fract_x
_atom_site_fract_y
_atom_site_fract_z
Cu11	Cu1	0.334400	0.841700	0.759800
O11	O1	0.259000	0.184300	0.503200
O21	O2	0.270200	0.967700	0.598800
O31	O3	0.581300	0.228100	0.624600
O41	O4	0.498100	0.293500	0.836700
C11	C1	0.287400	0.093400	0.598100
C21	C2	0.361900	0.137500	0.711100
N11	N1	0.373100	0.024000	0.852100
C31	C3	0.439500	0.160600	0.603600
C41	C4	0.510000	0.229000	0.696100
N21	N2	0.278400	0.676200	0.657600
C51	C5	0.309900	0.552600	0.620400
N31	N3	0.248400	0.464300	0.568300
C61	C6	0.177300	0.540300	0.574000
C71	C7	0.194400	0.668800	0.625900
Cu21	Cu2	0.165600	0.158300	0.259800
O51	O5	0.241000	0.815700	0.003200
O61	O6	0.229800	0.032300	0.098800
O71	O7	0.918700	0.771900	0.124600
O81	O8	0.001900	0.706500	0.336700
C81	C8	0.212600	0.906600	0.098100
C91	C9	0.138100	0.862500	0.211100
N41	N4	0.126900	0.976000	0.352100
C101	C10	0.060500	0.839400	0.103600
C111	C11	0.990000	0.771000	0.196100
N51	N5	0.221600	0.323800	0.157600
C121	C12	0.190100	0.447400	0.120400
N61	N6	0.251600	0.535700	0.068300
C131	C13	0.322700	0.459700	0.074000
C141	C14	0.305600	0.331200	0.125900
Cu31	Cu3	0.665600	0.341700	0.740200
O91	O9	0.741000	0.684300	0.996800
O101	O10	0.729800	0.467700	0.901200
O111	O11	0.418700	0.728100	0.875400
O121	O12	0.501900	0.793500	0.663300
C151	C15	0.712600	0.593400	0.901900
C161	C16	0.638100	0.637500	0.788900
N71	N7	0.626900	0.524000	0.647900
C171	C17	0.560500	0.660600	0.896400
C181	C18	0.490000	0.729000	0.803900
N81	N8	0.721600	0.176200	0.842400
C191	C19	0.690100	0.052600	0.879600
N91	N9	0.751600	0.964300	0.931700
C201	C20	0.822700	0.040300	0.926000
C211	C21	0.805600	0.168800	0.874100
Cu41	Cu4	0.834400	0.658300	0.240200
O131	O13	0.759000	0.315700	0.496800
O141	O14	0.770200	0.532300	0.401200
O151	O15	0.081300	0.271900	0.375400
O161	O16	0.998100	0.206500	0.163300
C221	C22	0.787400	0.406600	0.401900
C231	C23	0.861900	0.362500	0.288900
N101	N10	0.873100	0.476000	0.147900
C241	C24	0.939500	0.339400	0.396400
C251	C25	0.010000	0.271000	0.303900
N111	N11	0.778400	0.823800	0.342400
C261	C26	0.809900	0.947400	0.379600
N121	N12	0.748400	0.035700	0.431700
C271	C27	0.677300	0.959700	0.426000
C281	C28	0.694400	0.831200	0.374100
