data_BADHUM01_freeONLY_PM
_symmetry_space_group_name_H-M	'P1'
_cell_length_a	8.887000
_cell_length_b	32.456000
_cell_length_c	10.658400
_cell_angle_alpha	90.000000
_cell_angle_beta	112.051000
_cell_angle_gamma	90.000000
_symmetry_Int_Tables_number 1

loop_
_symmetry_equiv_pos_as_xyz
'x,y,z'

loop_
_atom_site_label
_atom_site_type_symbol
_atom_site_fract_x
_atom_site_fract_y
_atom_site_fract_z
Sc11	Sc1	0.269900	0.614370	0.255400
Sc21	Sc2	0.771900	0.637400	0.255600
O11	O1	0.360000	0.643300	0.128000
O21	O2	0.399000	0.564100	0.239000
O31	O3	0.457000	0.639200	0.423000
O41	O4	0.635000	0.584400	0.238000
O51	O5	0.918000	0.811100	0.788000
O61	O6	0.182000	0.584400	0.381000
O71	O7	0.576000	0.667600	0.104000
C11	C1	0.440000	0.668800	0.081000
C21	C2	0.511000	0.559700	0.202000
O81	O8	0.959000	0.607800	0.404000
O91	O9	0.843000	0.613200	0.114000
O101	O10	0.133000	0.834800	0.756000
O111	O11	0.690000	0.657400	0.400000
C31	C3	0.611000	0.645000	0.469000
O121	O12	0.073000	0.597000	0.079000
C41	C4	0.936000	0.619600	0.807000
H11	H1	0.046900	0.613900	0.842500
C51	C5	0.860000	0.629500	0.670000
H21	H2	0.919700	0.630400	0.615000
C61	C6	0.695000	0.637900	0.616700
C71	C7	0.605000	0.636500	0.699000
H31	H3	0.494700	0.642200	0.663600
C81	C8	0.682000	0.626700	0.836000
H41	H4	0.621900	0.625700	0.891000
C91	C9	0.847000	0.618200	0.889300
C101	C10	0.927000	0.609400	0.037000
C111	C11	0.155000	0.769500	0.851000
C121	C12	0.075200	0.738900	0.893000
H51	H5	0.964100	0.740900	0.872900
C131	C13	0.161000	0.705300	0.966000
H61	H6	0.107900	0.684900	0.994600
C141	C14	0.327000	0.702300	0.997000
C151	C15	0.407400	0.732900	0.955000
H71	H7	0.518500	0.730800	0.975300
C161	C16	0.321000	0.766400	0.882000
H81	H8	0.374700	0.786900	0.853600
C171	C17	0.051000	0.806300	0.790000
C181	C18	0.505000	0.528900	0.096000
C191	C19	0.030000	0.538600	0.457000
C201	C20	0.144000	0.506800	0.477000
H91	H9	0.240900	0.512000	0.465500
C211	C21	0.070000	0.580500	0.417000
C221	C22	0.114000	0.467500	0.516000
H101	H10	0.185300	0.445900	0.522900
C231	C23	0.628000	0.526300	0.046000
H111	H11	0.717400	0.543500	0.083900
C241	C24	0.626000	0.499800	0.942000
H121	H12	0.703100	0.500600	0.902300
Sc31	Sc3	0.730100	0.114370	0.244600
Sc41	Sc4	0.228100	0.137400	0.244400
O131	O13	0.640000	0.143300	0.372000
O141	O14	0.601000	0.064100	0.261000
O151	O15	0.543000	0.139200	0.077000
O161	O16	0.365000	0.084400	0.262000
O171	O17	0.082000	0.311100	0.712000
O181	O18	0.818000	0.084400	0.119000
O191	O19	0.424000	0.167600	0.396000
C251	C25	0.560000	0.168800	0.419000
C261	C26	0.489000	0.059700	0.298000
O201	O20	0.041000	0.107800	0.096000
O211	O21	0.157000	0.113200	0.386000
O221	O22	0.867000	0.334800	0.744000
O231	O23	0.310000	0.157400	0.100000
C271	C27	0.389000	0.145000	0.031000
O241	O24	0.927000	0.097000	0.421000
C281	C28	0.064000	0.119600	0.693000
H131	H13	0.953100	0.113900	0.657500
C291	C29	0.140000	0.129500	0.830000
H141	H14	0.080300	0.130400	0.885000
C301	C30	0.305000	0.137900	0.883300
C311	C31	0.395000	0.136500	0.801000
H151	H15	0.505300	0.142200	0.836400
C321	C32	0.318000	0.126700	0.664000
H161	H16	0.378100	0.125700	0.609000
C331	C33	0.153000	0.118200	0.610700
C341	C34	0.073000	0.109400	0.463000
C351	C35	0.845000	0.269500	0.649000
C361	C36	0.924800	0.238900	0.607000
H171	H17	0.035900	0.240900	0.627100
C371	C37	0.839000	0.205300	0.534000
H181	H18	0.892100	0.184900	0.505400
C381	C38	0.673000	0.202300	0.503000
C391	C39	0.592600	0.232900	0.545000
H191	H19	0.481500	0.230800	0.524700
C401	C40	0.679000	0.266400	0.618000
H201	H20	0.625300	0.286900	0.646400
C411	C41	0.949000	0.306300	0.710000
C421	C42	0.495000	0.028900	0.404000
C431	C43	0.970000	0.038600	0.043000
C441	C44	0.856000	0.006800	0.023000
H211	H21	0.759100	0.012000	0.034500
C451	C45	0.930000	0.080500	0.083000
C461	C46	0.886000	0.967500	0.984000
H221	H22	0.814700	0.945900	0.977100
C471	C47	0.372000	0.026300	0.454000
H231	H23	0.282600	0.043500	0.416100
C481	C48	0.374000	0.999800	0.558000
H241	H24	0.296900	0.000600	0.597700
Sc51	Sc5	0.730100	0.385630	0.744600
Sc61	Sc6	0.228100	0.362600	0.744400
O251	O25	0.640000	0.356700	0.872000
O261	O26	0.601000	0.435900	0.761000
O271	O27	0.543000	0.360800	0.577000
O281	O28	0.365000	0.415600	0.762000
O291	O29	0.082000	0.188900	0.212000
O301	O30	0.818000	0.415600	0.619000
O311	O31	0.424000	0.332400	0.896000
C491	C49	0.560000	0.331200	0.919000
C501	C50	0.489000	0.440300	0.798000
O321	O32	0.041000	0.392200	0.596000
O331	O33	0.157000	0.386800	0.886000
O341	O34	0.867000	0.165200	0.244000
O351	O35	0.310000	0.342600	0.600000
C511	C51	0.389000	0.355000	0.531000
O361	O36	0.927000	0.403000	0.921000
C521	C52	0.064000	0.380400	0.193000
H251	H25	0.953100	0.386100	0.157500
C531	C53	0.140000	0.370500	0.330000
H261	H26	0.080300	0.369600	0.385000
C541	C54	0.305000	0.362100	0.383300
C551	C55	0.395000	0.363500	0.301000
H271	H27	0.505300	0.357800	0.336400
C561	C56	0.318000	0.373300	0.164000
H281	H28	0.378100	0.374300	0.109000
C571	C57	0.153000	0.381800	0.110700
C581	C58	0.073000	0.390600	0.963000
C591	C59	0.845000	0.230500	0.149000
C601	C60	0.924800	0.261100	0.107000
H291	H29	0.035900	0.259100	0.127100
C611	C61	0.839000	0.294700	0.034000
H301	H30	0.892100	0.315100	0.005400
C621	C62	0.673000	0.297700	0.003000
C631	C63	0.592600	0.267100	0.045000
H311	H31	0.481500	0.269200	0.024700
C641	C64	0.679000	0.233600	0.118000
H321	H32	0.625300	0.213100	0.146400
C651	C65	0.949000	0.193700	0.210000
C661	C66	0.495000	0.471100	0.904000
C671	C67	0.970000	0.461400	0.543000
C681	C68	0.856000	0.493200	0.523000
H331	H33	0.759100	0.488000	0.534500
C691	C69	0.930000	0.419500	0.583000
C701	C70	0.886000	0.532500	0.484000
H341	H34	0.814700	0.554100	0.477100
C711	C71	0.372000	0.473700	0.954000
H351	H35	0.282600	0.456500	0.916100
C721	C72	0.374000	0.500200	0.058000
H361	H36	0.296900	0.499400	0.097700
Sc71	Sc7	0.269900	0.885630	0.755400
Sc81	Sc8	0.771900	0.862600	0.755600
O371	O37	0.360000	0.856700	0.628000
O381	O38	0.399000	0.935900	0.739000
O391	O39	0.457000	0.860800	0.923000
O401	O40	0.635000	0.915600	0.738000
O411	O41	0.918000	0.688900	0.288000
O421	O42	0.182000	0.915600	0.881000
O431	O43	0.576000	0.832400	0.604000
C731	C73	0.440000	0.831200	0.581000
C741	C74	0.511000	0.940300	0.702000
O441	O44	0.959000	0.892200	0.904000
O451	O45	0.843000	0.886800	0.614000
O461	O46	0.133000	0.665200	0.256000
O471	O47	0.690000	0.842600	0.900000
C751	C75	0.611000	0.855000	0.969000
O481	O48	0.073000	0.903000	0.579000
C761	C76	0.936000	0.880400	0.307000
H371	H37	0.046900	0.886100	0.342500
C771	C77	0.860000	0.870500	0.170000
H381	H38	0.919700	0.869600	0.115000
C781	C78	0.695000	0.862100	0.116700
C791	C79	0.605000	0.863500	0.199000
H391	H39	0.494700	0.857800	0.163600
C801	C80	0.682000	0.873300	0.336000
H401	H40	0.621900	0.874300	0.391000
C811	C81	0.847000	0.881800	0.389300
C821	C82	0.927000	0.890600	0.537000
C831	C83	0.155000	0.730500	0.351000
C841	C84	0.075200	0.761100	0.393000
H411	H41	0.964100	0.759100	0.372900
C851	C85	0.161000	0.794700	0.466000
H421	H42	0.107900	0.815100	0.494600
C861	C86	0.327000	0.797700	0.497000
C871	C87	0.407400	0.767100	0.455000
H431	H43	0.518500	0.769200	0.475300
C881	C88	0.321000	0.733600	0.382000
H441	H44	0.374700	0.713100	0.353600
C891	C89	0.051000	0.693700	0.290000
C901	C90	0.505000	0.971100	0.596000
C911	C91	0.030000	0.961400	0.957000
C921	C92	0.144000	0.993200	0.977000
H451	H45	0.240900	0.988000	0.965500
C931	C93	0.070000	0.919500	0.917000
C941	C94	0.114000	0.032500	0.016000
H461	H46	0.185300	0.054100	0.022900
C951	C95	0.628000	0.973700	0.546000
H471	H47	0.717400	0.956500	0.583900
C961	C96	0.626000	0.000200	0.442000
H481	H48	0.703100	0.999400	0.402300
