data_BADJAU_freeONLY_PM
_symmetry_space_group_name_H-M	'P1'
_cell_length_a	8.882400
_cell_length_b	61.248000
_cell_length_c	33.689000
_cell_angle_alpha	90.000000
_cell_angle_beta	90.000000
_cell_angle_gamma	90.000000
_symmetry_Int_Tables_number 1

loop_
_symmetry_equiv_pos_as_xyz
'x,y,z'

loop_
_atom_site_label
_atom_site_type_symbol
_atom_site_fract_x
_atom_site_fract_y
_atom_site_fract_z
Sc11	Sc1	0.254100	0.583300	0.426330
Sc21	Sc2	0.751000	0.583300	0.404670
O11	O1	0.121300	0.610270	0.438500
O21	O2	0.879700	0.609830	0.419800
O31	O3	0.121000	0.721810	0.407800
O41	O4	0.888000	0.722960	0.427100
O51	O5	0.616200	0.734000	0.467700
O61	O6	0.382100	0.737600	0.447800
O71	O7	0.373300	0.672530	0.627000
O81	O8	0.135900	0.674680	0.605600
O91	O9	0.872600	0.646210	0.618600
O101	O10	0.638500	0.646900	0.642200
O111	O11	0.624100	0.588080	0.454100
O121	O12	0.388100	0.590620	0.475800
O131	O13	0.111300	0.564730	0.463000
O141	O14	0.883200	0.562320	0.437600
O151	O15	0.868600	0.512900	0.632500
O161	O16	0.636700	0.512200	0.609500
O171	O17	0.617000	0.556790	0.390900
O181	O18	0.376300	0.556140	0.411400
C11	C1	0.002000	0.619600	0.428000
C21	C2	0.137500	0.654810	0.424800
H11	H1	0.227600	0.647100	0.424000
C31	C3	0.138700	0.677480	0.422900
H21	H2	0.229600	0.684900	0.420900
C41	C4	0.004000	0.689020	0.424000
C51	C5	0.868100	0.677890	0.427000
H31	H3	0.778000	0.685600	0.427800
C61	C6	0.866900	0.655220	0.428900
H41	H4	0.776000	0.647800	0.430900
C71	C7	0.001600	0.643680	0.427800
C81	C8	0.001000	0.712800	0.417800
C91	C9	0.480000	0.729700	0.469900
C101	C10	0.326200	0.691730	0.567400
C111	C11	0.226000	0.698280	0.538000
H51	H5	0.125300	0.694200	0.539500
C121	C12	0.276400	0.710920	0.506400
H61	H6	0.209400	0.715300	0.486800
C131	C13	0.426900	0.717000	0.504200
C141	C14	0.527100	0.710450	0.533600
H71	H7	0.627800	0.714500	0.532100
C151	C15	0.476700	0.697820	0.565200
H81	H8	0.543700	0.693400	0.584900
C161	C16	0.273000	0.678800	0.602900
C171	C17	0.736000	0.641700	0.616400
C181	C18	0.480600	0.611410	0.544100
H91	H9	0.379300	0.607900	0.541100
C191	C19	0.584400	0.604940	0.515500
C201	C20	0.735700	0.610190	0.520000
H101	H10	0.805100	0.605900	0.500900
C211	C21	0.783100	0.621910	0.553100
H111	H11	0.884400	0.625400	0.556100
C221	C22	0.679300	0.628380	0.581600
C231	C23	0.528000	0.623130	0.577100
H121	H12	0.458600	0.627500	0.596200
C241	C24	0.522000	0.594000	0.479300
C251	C25	0.978000	0.558970	0.464900
C261	C26	0.026300	0.544480	0.532200
H131	H13	0.125600	0.549200	0.530400
C271	C27	0.977100	0.533660	0.566000
H141	H14	0.043400	0.531200	0.586900
C281	C28	0.828800	0.526580	0.568700
C291	C29	0.729700	0.530330	0.537500
H151	H15	0.630400	0.525600	0.539300
C301	C30	0.778900	0.541140	0.503600
H161	H16	0.712600	0.543600	0.482800
C311	C31	0.927300	0.548220	0.501000
C321	C32	0.774000	0.516300	0.606500
C331	C33	0.496000	0.547060	0.399200
C341	C34	0.498400	0.522380	0.397800
C351	C35	0.633000	0.511440	0.396600
H171	H17	0.722700	0.519200	0.395200
C361	C36	0.636000	0.488960	0.397600
H181	H18	0.727200	0.481500	0.398100
Sc31	Sc3	0.254100	0.083300	0.926330
Sc41	Sc4	0.751000	0.083300	0.904670
O191	O19	0.121300	0.110270	0.938500
O201	O20	0.879700	0.109830	0.919800
O211	O21	0.121000	0.221810	0.907800
O221	O22	0.888000	0.222960	0.927100
O231	O23	0.616200	0.234000	0.967700
O241	O24	0.382100	0.237600	0.947800
O251	O25	0.373300	0.172530	0.127000
O261	O26	0.135900	0.174680	0.105600
O271	O27	0.872600	0.146210	0.118600
O281	O28	0.638500	0.146900	0.142200
O291	O29	0.624100	0.088080	0.954100
O301	O30	0.388100	0.090620	0.975800
O311	O31	0.111300	0.064730	0.963000
O321	O32	0.883200	0.062320	0.937600
O331	O33	0.868600	0.012900	0.132500
O341	O34	0.636700	0.012200	0.109500
O351	O35	0.617000	0.056790	0.890900
O361	O36	0.376300	0.056140	0.911400
C371	C37	0.002000	0.119600	0.928000
C381	C38	0.137500	0.154810	0.924800
H191	H19	0.227600	0.147100	0.924000
C391	C39	0.138700	0.177480	0.922900
H201	H20	0.229600	0.184900	0.920900
C401	C40	0.004000	0.189020	0.924000
C411	C41	0.868100	0.177890	0.927000
H211	H21	0.778000	0.185600	0.927800
C421	C42	0.866900	0.155220	0.928900
H221	H22	0.776000	0.147800	0.930900
C431	C43	0.001600	0.143680	0.927800
C441	C44	0.001000	0.212800	0.917800
C451	C45	0.480000	0.229700	0.969900
C461	C46	0.326200	0.191730	0.067400
C471	C47	0.226000	0.198280	0.038000
H231	H23	0.125300	0.194200	0.039500
C481	C48	0.276400	0.210920	0.006400
H241	H24	0.209400	0.215300	0.986800
C491	C49	0.426900	0.217000	0.004200
C501	C50	0.527100	0.210450	0.033600
H251	H25	0.627800	0.214500	0.032100
C511	C51	0.476700	0.197820	0.065200
H261	H26	0.543700	0.193400	0.084900
C521	C52	0.273000	0.178800	0.102900
C531	C53	0.736000	0.141700	0.116400
C541	C54	0.480600	0.111410	0.044100
H271	H27	0.379300	0.107900	0.041100
C551	C55	0.584400	0.104940	0.015500
C561	C56	0.735700	0.110190	0.020000
H281	H28	0.805100	0.105900	0.000900
C571	C57	0.783100	0.121910	0.053100
H291	H29	0.884400	0.125400	0.056100
C581	C58	0.679300	0.128380	0.081600
C591	C59	0.528000	0.123130	0.077100
H301	H30	0.458600	0.127500	0.096200
C601	C60	0.522000	0.094000	0.979300
C611	C61	0.978000	0.058970	0.964900
C621	C62	0.026300	0.044480	0.032200
H311	H31	0.125600	0.049200	0.030400
C631	C63	0.977100	0.033660	0.066000
H321	H32	0.043400	0.031200	0.086900
C641	C64	0.828800	0.026580	0.068700
C651	C65	0.729700	0.030330	0.037500
H331	H33	0.630400	0.025600	0.039300
C661	C66	0.778900	0.041140	0.003600
H341	H34	0.712600	0.043600	0.982800
C671	C67	0.927300	0.048220	0.001000
C681	C68	0.774000	0.016300	0.106500
C691	C69	0.496000	0.047060	0.899200
C701	C70	0.498400	0.022380	0.897800
C711	C71	0.633000	0.011440	0.896600
H351	H35	0.722700	0.019200	0.895200
C721	C72	0.636000	0.988960	0.897600
H361	H36	0.727200	0.981500	0.898100
Sc51	Sc5	0.754100	0.583300	0.926330
Sc61	Sc6	0.251000	0.583300	0.904670
O371	O37	0.621300	0.610270	0.938500
O381	O38	0.379700	0.609830	0.919800
O391	O39	0.621000	0.721810	0.907800
O401	O40	0.388000	0.722960	0.927100
O411	O41	0.116200	0.734000	0.967700
O421	O42	0.882100	0.737600	0.947800
O431	O43	0.873300	0.672530	0.127000
O441	O44	0.635900	0.674680	0.105600
O451	O45	0.372600	0.646210	0.118600
O461	O46	0.138500	0.646900	0.142200
O471	O47	0.124100	0.588080	0.954100
O481	O48	0.888100	0.590620	0.975800
O491	O49	0.611300	0.564730	0.963000
O501	O50	0.383200	0.562320	0.937600
O511	O51	0.368600	0.512900	0.132500
O521	O52	0.136700	0.512200	0.109500
O531	O53	0.117000	0.556790	0.890900
O541	O54	0.876300	0.556140	0.911400
C731	C73	0.502000	0.619600	0.928000
C741	C74	0.637500	0.654810	0.924800
H371	H37	0.727600	0.647100	0.924000
C751	C75	0.638700	0.677480	0.922900
H381	H38	0.729600	0.684900	0.920900
C761	C76	0.504000	0.689020	0.924000
C771	C77	0.368100	0.677890	0.927000
H391	H39	0.278000	0.685600	0.927800
C781	C78	0.366900	0.655220	0.928900
H401	H40	0.276000	0.647800	0.930900
C791	C79	0.501600	0.643680	0.927800
C801	C80	0.501000	0.712800	0.917800
C811	C81	0.980000	0.729700	0.969900
C821	C82	0.826200	0.691730	0.067400
C831	C83	0.726000	0.698280	0.038000
H411	H41	0.625300	0.694200	0.039500
C841	C84	0.776400	0.710920	0.006400
H421	H42	0.709400	0.715300	0.986800
C851	C85	0.926900	0.717000	0.004200
C861	C86	0.027100	0.710450	0.033600
H431	H43	0.127800	0.714500	0.032100
C871	C87	0.976700	0.697820	0.065200
H441	H44	0.043700	0.693400	0.084900
C881	C88	0.773000	0.678800	0.102900
C891	C89	0.236000	0.641700	0.116400
C901	C90	0.980600	0.611410	0.044100
H451	H45	0.879300	0.607900	0.041100
C911	C91	0.084400	0.604940	0.015500
C921	C92	0.235700	0.610190	0.020000
H461	H46	0.305100	0.605900	0.000900
C931	C93	0.283100	0.621910	0.053100
H471	H47	0.384400	0.625400	0.056100
C941	C94	0.179300	0.628380	0.081600
C951	C95	0.028000	0.623130	0.077100
H481	H48	0.958600	0.627500	0.096200
C961	C96	0.022000	0.594000	0.979300
C971	C97	0.478000	0.558970	0.964900
C981	C98	0.526300	0.544480	0.032200
H491	H49	0.625600	0.549200	0.030400
C991	C99	0.477100	0.533660	0.066000
H501	H50	0.543400	0.531200	0.086900
C1001	C100	0.328800	0.526580	0.068700
C1011	C101	0.229700	0.530330	0.037500
H511	H51	0.130400	0.525600	0.039300
C1021	C102	0.278900	0.541140	0.003600
H521	H52	0.212600	0.543600	0.982800
C1031	C103	0.427300	0.548220	0.001000
C1041	C104	0.274000	0.516300	0.106500
C1051	C105	0.996000	0.547060	0.899200
C1061	C106	0.998400	0.522380	0.897800
C1071	C107	0.133000	0.511440	0.896600
H531	H53	0.222700	0.519200	0.895200
C1081	C108	0.136000	0.488960	0.897600
H541	H54	0.227200	0.481500	0.898100
Sc71	Sc7	0.754100	0.083300	0.426330
Sc81	Sc8	0.251000	0.083300	0.404670
O551	O55	0.621300	0.110270	0.438500
O561	O56	0.379700	0.109830	0.419800
O571	O57	0.621000	0.221810	0.407800
O581	O58	0.388000	0.222960	0.427100
O591	O59	0.116200	0.234000	0.467700
O601	O60	0.882100	0.237600	0.447800
O611	O61	0.873300	0.172530	0.627000
O621	O62	0.635900	0.174680	0.605600
O631	O63	0.372600	0.146210	0.618600
O641	O64	0.138500	0.146900	0.642200
O651	O65	0.124100	0.088080	0.454100
O661	O66	0.888100	0.090620	0.475800
O671	O67	0.611300	0.064730	0.463000
O681	O68	0.383200	0.062320	0.437600
O691	O69	0.368600	0.012900	0.632500
O701	O70	0.136700	0.012200	0.609500
O711	O71	0.117000	0.056790	0.390900
O721	O72	0.876300	0.056140	0.411400
C1091	C109	0.502000	0.119600	0.428000
C1101	C110	0.637500	0.154810	0.424800
H551	H55	0.727600	0.147100	0.424000
C1111	C111	0.638700	0.177480	0.422900
H561	H56	0.729600	0.184900	0.420900
C1121	C112	0.504000	0.189020	0.424000
C1131	C113	0.368100	0.177890	0.427000
H571	H57	0.278000	0.185600	0.427800
C1141	C114	0.366900	0.155220	0.428900
H581	H58	0.276000	0.147800	0.430900
C1151	C115	0.501600	0.143680	0.427800
C1161	C116	0.501000	0.212800	0.417800
C1171	C117	0.980000	0.229700	0.469900
C1181	C118	0.826200	0.191730	0.567400
C1191	C119	0.726000	0.198280	0.538000
H591	H59	0.625300	0.194200	0.539500
C1201	C120	0.776400	0.210920	0.506400
H601	H60	0.709400	0.215300	0.486800
C1211	C121	0.926900	0.217000	0.504200
C1221	C122	0.027100	0.210450	0.533600
H611	H61	0.127800	0.214500	0.532100
C1231	C123	0.976700	0.197820	0.565200
H621	H62	0.043700	0.193400	0.584900
C1241	C124	0.773000	0.178800	0.602900
C1251	C125	0.236000	0.141700	0.616400
C1261	C126	0.980600	0.111410	0.544100
H631	H63	0.879300	0.107900	0.541100
C1271	C127	0.084400	0.104940	0.515500
C1281	C128	0.235700	0.110190	0.520000
H641	H64	0.305100	0.105900	0.500900
C1291	C129	0.283100	0.121910	0.553100
H651	H65	0.384400	0.125400	0.556100
C1301	C130	0.179300	0.128380	0.581600
C1311	C131	0.028000	0.123130	0.577100
H661	H66	0.958600	0.127500	0.596200
C1321	C132	0.022000	0.094000	0.479300
C1331	C133	0.478000	0.058970	0.464900
C1341	C134	0.526300	0.044480	0.532200
H671	H67	0.625600	0.049200	0.530400
C1351	C135	0.477100	0.033660	0.566000
H681	H68	0.543400	0.031200	0.586900
C1361	C136	0.328800	0.026580	0.568700
C1371	C137	0.229700	0.030330	0.537500
H691	H69	0.130400	0.025600	0.539300
C1381	C138	0.278900	0.041140	0.503600
H701	H70	0.212600	0.043600	0.482800
C1391	C139	0.427300	0.048220	0.501000
C1401	C140	0.274000	0.016300	0.606500
C1411	C141	0.996000	0.047060	0.399200
C1421	C142	0.998400	0.022380	0.397800
C1431	C143	0.133000	0.011440	0.396600
H711	H71	0.222700	0.019200	0.395200
C1441	C144	0.136000	0.988960	0.397600
H721	H72	0.227200	0.981500	0.398100
Sc91	Sc9	0.745900	0.416700	0.426330
Sc101	Sc10	0.249000	0.416700	0.404670
O731	O73	0.878700	0.389730	0.438500
O741	O74	0.120300	0.390170	0.419800
O751	O75	0.879000	0.278190	0.407800
O761	O76	0.112000	0.277040	0.427100
O771	O77	0.383800	0.266000	0.467700
O781	O78	0.617900	0.262400	0.447800
O791	O79	0.626700	0.327470	0.627000
O801	O80	0.864100	0.325320	0.605600
O811	O81	0.127400	0.353790	0.618600
O821	O82	0.361500	0.353100	0.642200
O831	O83	0.375900	0.411920	0.454100
O841	O84	0.611900	0.409380	0.475800
O851	O85	0.888700	0.435270	0.463000
O861	O86	0.116800	0.437680	0.437600
O871	O87	0.131400	0.487100	0.632500
O881	O88	0.363300	0.487800	0.609500
O891	O89	0.383000	0.443210	0.390900
O901	O90	0.623700	0.443860	0.411400
C1451	C145	0.998000	0.380400	0.428000
C1461	C146	0.862500	0.345190	0.424800
H731	H73	0.772400	0.352900	0.424000
C1471	C147	0.861300	0.322520	0.422900
H741	H74	0.770400	0.315100	0.420900
C1481	C148	0.996000	0.310980	0.424000
C1491	C149	0.131900	0.322110	0.427000
H751	H75	0.222000	0.314400	0.427800
C1501	C150	0.133100	0.344780	0.428900
H761	H76	0.224000	0.352200	0.430900
C1511	C151	0.998400	0.356320	0.427800
C1521	C152	0.999000	0.287200	0.417800
C1531	C153	0.520000	0.270300	0.469900
C1541	C154	0.673800	0.308270	0.567400
C1551	C155	0.774000	0.301720	0.538000
H771	H77	0.874700	0.305800	0.539500
C1561	C156	0.723600	0.289080	0.506400
H781	H78	0.790600	0.284700	0.486800
C1571	C157	0.573100	0.283000	0.504200
C1581	C158	0.472900	0.289550	0.533600
H791	H79	0.372200	0.285500	0.532100
C1591	C159	0.523300	0.302180	0.565200
H801	H80	0.456300	0.306600	0.584900
C1601	C160	0.727000	0.321200	0.602900
C1611	C161	0.264000	0.358300	0.616400
C1621	C162	0.519400	0.388590	0.544100
H811	H81	0.620700	0.392100	0.541100
C1631	C163	0.415600	0.395060	0.515500
C1641	C164	0.264300	0.389810	0.520000
H821	H82	0.194900	0.394100	0.500900
C1651	C165	0.216900	0.378090	0.553100
H831	H83	0.115600	0.374600	0.556100
C1661	C166	0.320700	0.371620	0.581600
C1671	C167	0.472000	0.376870	0.577100
H841	H84	0.541400	0.372500	0.596200
C1681	C168	0.478000	0.406000	0.479300
C1691	C169	0.022000	0.441030	0.464900
C1701	C170	0.973700	0.455520	0.532200
H851	H85	0.874400	0.450800	0.530400
C1711	C171	0.022900	0.466340	0.566000
H861	H86	0.956600	0.468800	0.586900
C1721	C172	0.171200	0.473420	0.568700
C1731	C173	0.270300	0.469670	0.537500
H871	H87	0.369600	0.474400	0.539300
C1741	C174	0.221100	0.458860	0.503600
H881	H88	0.287400	0.456400	0.482800
C1751	C175	0.072700	0.451780	0.501000
C1761	C176	0.226000	0.483700	0.606500
C1771	C177	0.504000	0.452940	0.399200
C1781	C178	0.501600	0.477620	0.397800
C1791	C179	0.367000	0.488560	0.396600
H891	H89	0.277300	0.480800	0.395200
C1801	C180	0.364000	0.511040	0.397600
H901	H90	0.272800	0.518500	0.398100
Sc111	Sc11	0.745900	0.916700	0.926330
Sc121	Sc12	0.249000	0.916700	0.904670
O911	O91	0.878700	0.889730	0.938500
O921	O92	0.120300	0.890170	0.919800
O931	O93	0.879000	0.778190	0.907800
O941	O94	0.112000	0.777040	0.927100
O951	O95	0.383800	0.766000	0.967700
O961	O96	0.617900	0.762400	0.947800
O971	O97	0.626700	0.827470	0.127000
O981	O98	0.864100	0.825320	0.105600
O991	O99	0.127400	0.853790	0.118600
O1001	O100	0.361500	0.853100	0.142200
O1011	O101	0.375900	0.911920	0.954100
O1021	O102	0.611900	0.909380	0.975800
O1031	O103	0.888700	0.935270	0.963000
O1041	O104	0.116800	0.937680	0.937600
O1051	O105	0.131400	0.987100	0.132500
O1061	O106	0.363300	0.987800	0.109500
O1071	O107	0.383000	0.943210	0.890900
O1081	O108	0.623700	0.943860	0.911400
C1811	C181	0.998000	0.880400	0.928000
C1821	C182	0.862500	0.845190	0.924800
H911	H91	0.772400	0.852900	0.924000
C1831	C183	0.861300	0.822520	0.922900
H921	H92	0.770400	0.815100	0.920900
C1841	C184	0.996000	0.810980	0.924000
C1851	C185	0.131900	0.822110	0.927000
H931	H93	0.222000	0.814400	0.927800
C1861	C186	0.133100	0.844780	0.928900
H941	H94	0.224000	0.852200	0.930900
C1871	C187	0.998400	0.856320	0.927800
C1881	C188	0.999000	0.787200	0.917800
C1891	C189	0.520000	0.770300	0.969900
C1901	C190	0.673800	0.808270	0.067400
C1911	C191	0.774000	0.801720	0.038000
H951	H95	0.874700	0.805800	0.039500
C1921	C192	0.723600	0.789080	0.006400
H961	H96	0.790600	0.784700	0.986800
C1931	C193	0.573100	0.783000	0.004200
C1941	C194	0.472900	0.789550	0.033600
H971	H97	0.372200	0.785500	0.032100
C1951	C195	0.523300	0.802180	0.065200
H981	H98	0.456300	0.806600	0.084900
C1961	C196	0.727000	0.821200	0.102900
C1971	C197	0.264000	0.858300	0.116400
C1981	C198	0.519400	0.888590	0.044100
H991	H99	0.620700	0.892100	0.041100
C1991	C199	0.415600	0.895060	0.015500
C2001	C200	0.264300	0.889810	0.020000
H1001	H100	0.194900	0.894100	0.000900
C2011	C201	0.216900	0.878090	0.053100
H1011	H101	0.115600	0.874600	0.056100
C2021	C202	0.320700	0.871620	0.081600
C2031	C203	0.472000	0.876870	0.077100
H1021	H102	0.541400	0.872500	0.096200
C2041	C204	0.478000	0.906000	0.979300
C2051	C205	0.022000	0.941030	0.964900
C2061	C206	0.973700	0.955520	0.032200
H1031	H103	0.874400	0.950800	0.030400
C2071	C207	0.022900	0.966340	0.066000
H1041	H104	0.956600	0.968800	0.086900
C2081	C208	0.171200	0.973420	0.068700
C2091	C209	0.270300	0.969670	0.037500
H1051	H105	0.369600	0.974400	0.039300
C2101	C210	0.221100	0.958860	0.003600
H1061	H106	0.287400	0.956400	0.982800
C2111	C211	0.072700	0.951780	0.001000
C2121	C212	0.226000	0.983700	0.106500
C2131	C213	0.504000	0.952940	0.899200
C2141	C214	0.501600	0.977620	0.897800
C2151	C215	0.367000	0.988560	0.896600
H1071	H107	0.277300	0.980800	0.895200
C2161	C216	0.364000	0.011040	0.897600
H1081	H108	0.272800	0.018500	0.898100
Sc131	Sc13	0.245900	0.416700	0.926330
Sc141	Sc14	0.749000	0.416700	0.904670
O1091	O109	0.378700	0.389730	0.938500
O1101	O110	0.620300	0.390170	0.919800
O1111	O111	0.379000	0.278190	0.907800
O1121	O112	0.612000	0.277040	0.927100
O1131	O113	0.883800	0.266000	0.967700
O1141	O114	0.117900	0.262400	0.947800
O1151	O115	0.126700	0.327470	0.127000
O1161	O116	0.364100	0.325320	0.105600
O1171	O117	0.627400	0.353790	0.118600
O1181	O118	0.861500	0.353100	0.142200
O1191	O119	0.875900	0.411920	0.954100
O1201	O120	0.111900	0.409380	0.975800
O1211	O121	0.388700	0.435270	0.963000
O1221	O122	0.616800	0.437680	0.937600
O1231	O123	0.631400	0.487100	0.132500
O1241	O124	0.863300	0.487800	0.109500
O1251	O125	0.883000	0.443210	0.890900
O1261	O126	0.123700	0.443860	0.911400
C2171	C217	0.498000	0.380400	0.928000
C2181	C218	0.362500	0.345190	0.924800
H1091	H109	0.272400	0.352900	0.924000
C2191	C219	0.361300	0.322520	0.922900
H1101	H110	0.270400	0.315100	0.920900
C2201	C220	0.496000	0.310980	0.924000
C2211	C221	0.631900	0.322110	0.927000
H1111	H111	0.722000	0.314400	0.927800
C2221	C222	0.633100	0.344780	0.928900
H1121	H112	0.724000	0.352200	0.930900
C2231	C223	0.498400	0.356320	0.927800
C2241	C224	0.499000	0.287200	0.917800
C2251	C225	0.020000	0.270300	0.969900
C2261	C226	0.173800	0.308270	0.067400
C2271	C227	0.274000	0.301720	0.038000
H1131	H113	0.374700	0.305800	0.039500
C2281	C228	0.223600	0.289080	0.006400
H1141	H114	0.290600	0.284700	0.986800
C2291	C229	0.073100	0.283000	0.004200
C2301	C230	0.972900	0.289550	0.033600
H1151	H115	0.872200	0.285500	0.032100
C2311	C231	0.023300	0.302180	0.065200
H1161	H116	0.956300	0.306600	0.084900
C2321	C232	0.227000	0.321200	0.102900
C2331	C233	0.764000	0.358300	0.116400
C2341	C234	0.019400	0.388590	0.044100
H1171	H117	0.120700	0.392100	0.041100
C2351	C235	0.915600	0.395060	0.015500
C2361	C236	0.764300	0.389810	0.020000
H1181	H118	0.694900	0.394100	0.000900
C2371	C237	0.716900	0.378090	0.053100
H1191	H119	0.615600	0.374600	0.056100
C2381	C238	0.820700	0.371620	0.081600
C2391	C239	0.972000	0.376870	0.077100
H1201	H120	0.041400	0.372500	0.096200
C2401	C240	0.978000	0.406000	0.979300
C2411	C241	0.522000	0.441030	0.964900
C2421	C242	0.473700	0.455520	0.032200
H1211	H121	0.374400	0.450800	0.030400
C2431	C243	0.522900	0.466340	0.066000
H1221	H122	0.456600	0.468800	0.086900
C2441	C244	0.671200	0.473420	0.068700
C2451	C245	0.770300	0.469670	0.037500
H1231	H123	0.869600	0.474400	0.039300
C2461	C246	0.721100	0.458860	0.003600
H1241	H124	0.787400	0.456400	0.982800
C2471	C247	0.572700	0.451780	0.001000
C2481	C248	0.726000	0.483700	0.106500
C2491	C249	0.004000	0.452940	0.899200
C2501	C250	0.001600	0.477620	0.897800
C2511	C251	0.867000	0.488560	0.896600
H1251	H125	0.777300	0.480800	0.895200
C2521	C252	0.864000	0.511040	0.897600
H1261	H126	0.772800	0.518500	0.898100
Sc151	Sc15	0.245900	0.916700	0.426330
Sc161	Sc16	0.749000	0.916700	0.404670
O1271	O127	0.378700	0.889730	0.438500
O1281	O128	0.620300	0.890170	0.419800
O1291	O129	0.379000	0.778190	0.407800
O1301	O130	0.612000	0.777040	0.427100
O1311	O131	0.883800	0.766000	0.467700
O1321	O132	0.117900	0.762400	0.447800
O1331	O133	0.126700	0.827470	0.627000
O1341	O134	0.364100	0.825320	0.605600
O1351	O135	0.627400	0.853790	0.618600
O1361	O136	0.861500	0.853100	0.642200
O1371	O137	0.875900	0.911920	0.454100
O1381	O138	0.111900	0.909380	0.475800
O1391	O139	0.388700	0.935270	0.463000
O1401	O140	0.616800	0.937680	0.437600
O1411	O141	0.631400	0.987100	0.632500
O1421	O142	0.863300	0.987800	0.609500
O1431	O143	0.883000	0.943210	0.390900
O1441	O144	0.123700	0.943860	0.411400
C2531	C253	0.498000	0.880400	0.428000
C2541	C254	0.362500	0.845190	0.424800
H1271	H127	0.272400	0.852900	0.424000
C2551	C255	0.361300	0.822520	0.422900
H1281	H128	0.270400	0.815100	0.420900
C2561	C256	0.496000	0.810980	0.424000
C2571	C257	0.631900	0.822110	0.427000
H1291	H129	0.722000	0.814400	0.427800
C2581	C258	0.633100	0.844780	0.428900
H1301	H130	0.724000	0.852200	0.430900
C2591	C259	0.498400	0.856320	0.427800
C2601	C260	0.499000	0.787200	0.417800
C2611	C261	0.020000	0.770300	0.469900
C2621	C262	0.173800	0.808270	0.567400
C2631	C263	0.274000	0.801720	0.538000
H1311	H131	0.374700	0.805800	0.539500
C2641	C264	0.223600	0.789080	0.506400
H1321	H132	0.290600	0.784700	0.486800
C2651	C265	0.073100	0.783000	0.504200
C2661	C266	0.972900	0.789550	0.533600
H1331	H133	0.872200	0.785500	0.532100
C2671	C267	0.023300	0.802180	0.565200
H1341	H134	0.956300	0.806600	0.584900
C2681	C268	0.227000	0.821200	0.602900
C2691	C269	0.764000	0.858300	0.616400
C2701	C270	0.019400	0.888590	0.544100
H1351	H135	0.120700	0.892100	0.541100
C2711	C271	0.915600	0.895060	0.515500
C2721	C272	0.764300	0.889810	0.520000
H1361	H136	0.694900	0.894100	0.500900
C2731	C273	0.716900	0.878090	0.553100
H1371	H137	0.615600	0.874600	0.556100
C2741	C274	0.820700	0.871620	0.581600
C2751	C275	0.972000	0.876870	0.577100
H1381	H138	0.041400	0.872500	0.596200
C2761	C276	0.978000	0.906000	0.479300
C2771	C277	0.522000	0.941030	0.464900
C2781	C278	0.473700	0.955520	0.532200
H1391	H139	0.374400	0.950800	0.530400
C2791	C279	0.522900	0.966340	0.566000
H1401	H140	0.456600	0.968800	0.586900
C2801	C280	0.671200	0.973420	0.568700
C2811	C281	0.770300	0.969670	0.537500
H1411	H141	0.869600	0.974400	0.539300
C2821	C282	0.721100	0.958860	0.503600
H1421	H142	0.787400	0.956400	0.482800
C2831	C283	0.572700	0.951780	0.501000
C2841	C284	0.726000	0.983700	0.606500
C2851	C285	0.004000	0.952940	0.399200
C2861	C286	0.001600	0.977620	0.397800
C2871	C287	0.867000	0.988560	0.396600
H1431	H143	0.777300	0.980800	0.395200
C2881	C288	0.864000	0.011040	0.397600
H1441	H144	0.772800	0.018500	0.398100
Sc171	Sc17	0.504100	0.666700	0.676330
Sc181	Sc18	0.001000	0.666700	0.654670
O1451	O145	0.371300	0.639730	0.688500
O1461	O146	0.129700	0.640170	0.669800
O1471	O147	0.371000	0.528190	0.657800
O1481	O148	0.138000	0.527040	0.677100
O1491	O149	0.866200	0.516000	0.717700
O1501	O150	0.632100	0.512400	0.697800
O1511	O151	0.623300	0.577470	0.877000
O1521	O152	0.385900	0.575320	0.855600
O1531	O153	0.122600	0.603790	0.868600
O1541	O154	0.888500	0.603100	0.892200
O1551	O155	0.874100	0.661920	0.704100
O1561	O156	0.638100	0.659380	0.725800
O1571	O157	0.361300	0.685270	0.713000
O1581	O158	0.133200	0.687680	0.687600
O1591	O159	0.118600	0.737100	0.882500
O1601	O160	0.886700	0.737800	0.859500
O1611	O161	0.867000	0.693210	0.640900
O1621	O162	0.626300	0.693860	0.661400
C2891	C289	0.252000	0.630400	0.678000
C2901	C290	0.387500	0.595190	0.674800
H1451	H145	0.477600	0.602900	0.674000
C2911	C291	0.388700	0.572520	0.672900
H1461	H146	0.479600	0.565100	0.670900
C2921	C292	0.254000	0.560980	0.674000
C2931	C293	0.118100	0.572110	0.677000
H1471	H147	0.028000	0.564400	0.677800
C2941	C294	0.116900	0.594780	0.678900
H1481	H148	0.026000	0.602200	0.680900
C2951	C295	0.251600	0.606320	0.677800
C2961	C296	0.251000	0.537200	0.667800
C2971	C297	0.730000	0.520300	0.719900
C2981	C298	0.576200	0.558270	0.817400
C2991	C299	0.476000	0.551720	0.788000
H1491	H149	0.375300	0.555800	0.789500
C3001	C300	0.526400	0.539080	0.756400
H1501	H150	0.459400	0.534700	0.736800
C3011	C301	0.676900	0.533000	0.754200
C3021	C302	0.777100	0.539550	0.783600
H1511	H151	0.877800	0.535500	0.782100
C3031	C303	0.726700	0.552180	0.815200
H1521	H152	0.793700	0.556600	0.834900
C3041	C304	0.523000	0.571200	0.852900
C3051	C305	0.986000	0.608300	0.866400
C3061	C306	0.730600	0.638590	0.794100
H1531	H153	0.629300	0.642100	0.791100
C3071	C307	0.834400	0.645060	0.765500
C3081	C308	0.985700	0.639810	0.770000
H1541	H154	0.055100	0.644100	0.750900
C3091	C309	0.033100	0.628090	0.803100
H1551	H155	0.134400	0.624600	0.806100
C3101	C310	0.929300	0.621620	0.831600
C3111	C311	0.778000	0.626870	0.827100
H1561	H156	0.708600	0.622500	0.846200
C3121	C312	0.772000	0.656000	0.729300
C3131	C313	0.228000	0.691030	0.714900
C3141	C314	0.276300	0.705520	0.782200
H1571	H157	0.375600	0.700800	0.780400
C3151	C315	0.227100	0.716340	0.816000
H1581	H158	0.293400	0.718800	0.836900
C3161	C316	0.078800	0.723420	0.818700
C3171	C317	0.979700	0.719670	0.787500
H1591	H159	0.880400	0.724400	0.789300
C3181	C318	0.028900	0.708860	0.753600
H1601	H160	0.962600	0.706400	0.732800
C3191	C319	0.177300	0.701780	0.751000
C3201	C320	0.024000	0.733700	0.856500
C3211	C321	0.746000	0.702940	0.649200
C3221	C322	0.748400	0.727620	0.647800
C3231	C323	0.883000	0.738560	0.646600
H1611	H161	0.972700	0.730800	0.645200
C3241	C324	0.886000	0.761040	0.647600
H1621	H162	0.977200	0.768500	0.648100
Sc191	Sc19	0.504100	0.166700	0.176330
Sc201	Sc20	0.001000	0.166700	0.154670
O1631	O163	0.371300	0.139730	0.188500
O1641	O164	0.129700	0.140170	0.169800
O1651	O165	0.371000	0.028190	0.157800
O1661	O166	0.138000	0.027040	0.177100
O1671	O167	0.866200	0.016000	0.217700
O1681	O168	0.632100	0.012400	0.197800
O1691	O169	0.623300	0.077470	0.377000
O1701	O170	0.385900	0.075320	0.355600
O1711	O171	0.122600	0.103790	0.368600
O1721	O172	0.888500	0.103100	0.392200
O1731	O173	0.874100	0.161920	0.204100
O1741	O174	0.638100	0.159380	0.225800
O1751	O175	0.361300	0.185270	0.213000
O1761	O176	0.133200	0.187680	0.187600
O1771	O177	0.118600	0.237100	0.382500
O1781	O178	0.886700	0.237800	0.359500
O1791	O179	0.867000	0.193210	0.140900
O1801	O180	0.626300	0.193860	0.161400
C3251	C325	0.252000	0.130400	0.178000
C3261	C326	0.387500	0.095190	0.174800
H1631	H163	0.477600	0.102900	0.174000
C3271	C327	0.388700	0.072520	0.172900
H1641	H164	0.479600	0.065100	0.170900
C3281	C328	0.254000	0.060980	0.174000
C3291	C329	0.118100	0.072110	0.177000
H1651	H165	0.028000	0.064400	0.177800
C3301	C330	0.116900	0.094780	0.178900
H1661	H166	0.026000	0.102200	0.180900
C3311	C331	0.251600	0.106320	0.177800
C3321	C332	0.251000	0.037200	0.167800
C3331	C333	0.730000	0.020300	0.219900
C3341	C334	0.576200	0.058270	0.317400
C3351	C335	0.476000	0.051720	0.288000
H1671	H167	0.375300	0.055800	0.289500
C3361	C336	0.526400	0.039080	0.256400
H1681	H168	0.459400	0.034700	0.236800
C3371	C337	0.676900	0.033000	0.254200
C3381	C338	0.777100	0.039550	0.283600
H1691	H169	0.877800	0.035500	0.282100
C3391	C339	0.726700	0.052180	0.315200
H1701	H170	0.793700	0.056600	0.334900
C3401	C340	0.523000	0.071200	0.352900
C3411	C341	0.986000	0.108300	0.366400
C3421	C342	0.730600	0.138590	0.294100
H1711	H171	0.629300	0.142100	0.291100
C3431	C343	0.834400	0.145060	0.265500
C3441	C344	0.985700	0.139810	0.270000
H1721	H172	0.055100	0.144100	0.250900
C3451	C345	0.033100	0.128090	0.303100
H1731	H173	0.134400	0.124600	0.306100
C3461	C346	0.929300	0.121620	0.331600
C3471	C347	0.778000	0.126870	0.327100
H1741	H174	0.708600	0.122500	0.346200
C3481	C348	0.772000	0.156000	0.229300
C3491	C349	0.228000	0.191030	0.214900
C3501	C350	0.276300	0.205520	0.282200
H1751	H175	0.375600	0.200800	0.280400
C3511	C351	0.227100	0.216340	0.316000
H1761	H176	0.293400	0.218800	0.336900
C3521	C352	0.078800	0.223420	0.318700
C3531	C353	0.979700	0.219670	0.287500
H1771	H177	0.880400	0.224400	0.289300
C3541	C354	0.028900	0.208860	0.253600
H1781	H178	0.962600	0.206400	0.232800
C3551	C355	0.177300	0.201780	0.251000
C3561	C356	0.024000	0.233700	0.356500
C3571	C357	0.746000	0.202940	0.149200
C3581	C358	0.748400	0.227620	0.147800
C3591	C359	0.883000	0.238560	0.146600
H1791	H179	0.972700	0.230800	0.145200
C3601	C360	0.886000	0.261040	0.147600
H1801	H180	0.977200	0.268500	0.148100
Sc211	Sc21	0.004100	0.666700	0.176330
Sc221	Sc22	0.501000	0.666700	0.154670
O1811	O181	0.871300	0.639730	0.188500
O1821	O182	0.629700	0.640170	0.169800
O1831	O183	0.871000	0.528190	0.157800
O1841	O184	0.638000	0.527040	0.177100
O1851	O185	0.366200	0.516000	0.217700
O1861	O186	0.132100	0.512400	0.197800
O1871	O187	0.123300	0.577470	0.377000
O1881	O188	0.885900	0.575320	0.355600
O1891	O189	0.622600	0.603790	0.368600
O1901	O190	0.388500	0.603100	0.392200
O1911	O191	0.374100	0.661920	0.204100
O1921	O192	0.138100	0.659380	0.225800
O1931	O193	0.861300	0.685270	0.213000
O1941	O194	0.633200	0.687680	0.187600
O1951	O195	0.618600	0.737100	0.382500
O1961	O196	0.386700	0.737800	0.359500
O1971	O197	0.367000	0.693210	0.140900
O1981	O198	0.126300	0.693860	0.161400
C3611	C361	0.752000	0.630400	0.178000
C3621	C362	0.887500	0.595190	0.174800
H1811	H181	0.977600	0.602900	0.174000
C3631	C363	0.888700	0.572520	0.172900
H1821	H182	0.979600	0.565100	0.170900
C3641	C364	0.754000	0.560980	0.174000
C3651	C365	0.618100	0.572110	0.177000
H1831	H183	0.528000	0.564400	0.177800
C3661	C366	0.616900	0.594780	0.178900
H1841	H184	0.526000	0.602200	0.180900
C3671	C367	0.751600	0.606320	0.177800
C3681	C368	0.751000	0.537200	0.167800
C3691	C369	0.230000	0.520300	0.219900
C3701	C370	0.076200	0.558270	0.317400
C3711	C371	0.976000	0.551720	0.288000
H1851	H185	0.875300	0.555800	0.289500
C3721	C372	0.026400	0.539080	0.256400
H1861	H186	0.959400	0.534700	0.236800
C3731	C373	0.176900	0.533000	0.254200
C3741	C374	0.277100	0.539550	0.283600
H1871	H187	0.377800	0.535500	0.282100
C3751	C375	0.226700	0.552180	0.315200
H1881	H188	0.293700	0.556600	0.334900
C3761	C376	0.023000	0.571200	0.352900
C3771	C377	0.486000	0.608300	0.366400
C3781	C378	0.230600	0.638590	0.294100
H1891	H189	0.129300	0.642100	0.291100
C3791	C379	0.334400	0.645060	0.265500
C3801	C380	0.485700	0.639810	0.270000
H1901	H190	0.555100	0.644100	0.250900
C3811	C381	0.533100	0.628090	0.303100
H1911	H191	0.634400	0.624600	0.306100
C3821	C382	0.429300	0.621620	0.331600
C3831	C383	0.278000	0.626870	0.327100
H1921	H192	0.208600	0.622500	0.346200
C3841	C384	0.272000	0.656000	0.229300
C3851	C385	0.728000	0.691030	0.214900
C3861	C386	0.776300	0.705520	0.282200
H1931	H193	0.875600	0.700800	0.280400
C3871	C387	0.727100	0.716340	0.316000
H1941	H194	0.793400	0.718800	0.336900
C3881	C388	0.578800	0.723420	0.318700
C3891	C389	0.479700	0.719670	0.287500
H1951	H195	0.380400	0.724400	0.289300
C3901	C390	0.528900	0.708860	0.253600
H1961	H196	0.462600	0.706400	0.232800
C3911	C391	0.677300	0.701780	0.251000
C3921	C392	0.524000	0.733700	0.356500
C3931	C393	0.246000	0.702940	0.149200
C3941	C394	0.248400	0.727620	0.147800
C3951	C395	0.383000	0.738560	0.146600
H1971	H197	0.472700	0.730800	0.145200
C3961	C396	0.386000	0.761040	0.147600
H1981	H198	0.477200	0.768500	0.148100
Sc231	Sc23	0.004100	0.166700	0.676330
Sc241	Sc24	0.501000	0.166700	0.654670
O1991	O199	0.871300	0.139730	0.688500
O2001	O200	0.629700	0.140170	0.669800
O2011	O201	0.871000	0.028190	0.657800
O2021	O202	0.638000	0.027040	0.677100
O2031	O203	0.366200	0.016000	0.717700
O2041	O204	0.132100	0.012400	0.697800
O2051	O205	0.123300	0.077470	0.877000
O2061	O206	0.885900	0.075320	0.855600
O2071	O207	0.622600	0.103790	0.868600
O2081	O208	0.388500	0.103100	0.892200
O2091	O209	0.374100	0.161920	0.704100
O2101	O210	0.138100	0.159380	0.725800
O2111	O211	0.861300	0.185270	0.713000
O2121	O212	0.633200	0.187680	0.687600
O2131	O213	0.618600	0.237100	0.882500
O2141	O214	0.386700	0.237800	0.859500
O2151	O215	0.367000	0.193210	0.640900
O2161	O216	0.126300	0.193860	0.661400
C3971	C397	0.752000	0.130400	0.678000
C3981	C398	0.887500	0.095190	0.674800
H1991	H199	0.977600	0.102900	0.674000
C3991	C399	0.888700	0.072520	0.672900
H2001	H200	0.979600	0.065100	0.670900
C4001	C400	0.754000	0.060980	0.674000
C4011	C401	0.618100	0.072110	0.677000
H2011	H201	0.528000	0.064400	0.677800
C4021	C402	0.616900	0.094780	0.678900
H2021	H202	0.526000	0.102200	0.680900
C4031	C403	0.751600	0.106320	0.677800
C4041	C404	0.751000	0.037200	0.667800
C4051	C405	0.230000	0.020300	0.719900
C4061	C406	0.076200	0.058270	0.817400
C4071	C407	0.976000	0.051720	0.788000
H2031	H203	0.875300	0.055800	0.789500
C4081	C408	0.026400	0.039080	0.756400
H2041	H204	0.959400	0.034700	0.736800
C4091	C409	0.176900	0.033000	0.754200
C4101	C410	0.277100	0.039550	0.783600
H2051	H205	0.377800	0.035500	0.782100
C4111	C411	0.226700	0.052180	0.815200
H2061	H206	0.293700	0.056600	0.834900
C4121	C412	0.023000	0.071200	0.852900
C4131	C413	0.486000	0.108300	0.866400
C4141	C414	0.230600	0.138590	0.794100
H2071	H207	0.129300	0.142100	0.791100
C4151	C415	0.334400	0.145060	0.765500
C4161	C416	0.485700	0.139810	0.770000
H2081	H208	0.555100	0.144100	0.750900
C4171	C417	0.533100	0.128090	0.803100
H2091	H209	0.634400	0.124600	0.806100
C4181	C418	0.429300	0.121620	0.831600
C4191	C419	0.278000	0.126870	0.827100
H2101	H210	0.208600	0.122500	0.846200
C4201	C420	0.272000	0.156000	0.729300
C4211	C421	0.728000	0.191030	0.714900
C4221	C422	0.776300	0.205520	0.782200
H2111	H211	0.875600	0.200800	0.780400
C4231	C423	0.727100	0.216340	0.816000
H2121	H212	0.793400	0.218800	0.836900
C4241	C424	0.578800	0.223420	0.818700
C4251	C425	0.479700	0.219670	0.787500
H2131	H213	0.380400	0.224400	0.789300
C4261	C426	0.528900	0.208860	0.753600
H2141	H214	0.462600	0.206400	0.732800
C4271	C427	0.677300	0.201780	0.751000
C4281	C428	0.524000	0.233700	0.856500
C4291	C429	0.246000	0.202940	0.649200
C4301	C430	0.248400	0.227620	0.647800
C4311	C431	0.383000	0.238560	0.646600
H2151	H215	0.472700	0.230800	0.645200
C4321	C432	0.386000	0.261040	0.647600
H2161	H216	0.477200	0.268500	0.648100
Sc251	Sc25	0.995900	0.833300	0.676330
Sc261	Sc26	0.499000	0.833300	0.654670
O2171	O217	0.128700	0.860270	0.688500
O2181	O218	0.370300	0.859830	0.669800
O2191	O219	0.129000	0.971810	0.657800
O2201	O220	0.362000	0.972960	0.677100
O2211	O221	0.633800	0.984000	0.717700
O2221	O222	0.867900	0.987600	0.697800
O2231	O223	0.876700	0.922530	0.877000
O2241	O224	0.114100	0.924680	0.855600
O2251	O225	0.377400	0.896210	0.868600
O2261	O226	0.611500	0.896900	0.892200
O2271	O227	0.625900	0.838080	0.704100
O2281	O228	0.861900	0.840620	0.725800
O2291	O229	0.138700	0.814730	0.713000
O2301	O230	0.366800	0.812320	0.687600
O2311	O231	0.381400	0.762900	0.882500
O2321	O232	0.613300	0.762200	0.859500
O2331	O233	0.633000	0.806790	0.640900
O2341	O234	0.873700	0.806140	0.661400
C4331	C433	0.248000	0.869600	0.678000
C4341	C434	0.112500	0.904810	0.674800
H2171	H217	0.022400	0.897100	0.674000
C4351	C435	0.111300	0.927480	0.672900
H2181	H218	0.020400	0.934900	0.670900
C4361	C436	0.246000	0.939020	0.674000
C4371	C437	0.381900	0.927890	0.677000
H2191	H219	0.472000	0.935600	0.677800
C4381	C438	0.383100	0.905220	0.678900
H2201	H220	0.474000	0.897800	0.680900
C4391	C439	0.248400	0.893680	0.677800
C4401	C440	0.249000	0.962800	0.667800
C4411	C441	0.770000	0.979700	0.719900
C4421	C442	0.923800	0.941730	0.817400
C4431	C443	0.024000	0.948280	0.788000
H2211	H221	0.124700	0.944200	0.789500
C4441	C444	0.973600	0.960920	0.756400
H2221	H222	0.040600	0.965300	0.736800
C4451	C445	0.823100	0.967000	0.754200
C4461	C446	0.722900	0.960450	0.783600
H2231	H223	0.622200	0.964500	0.782100
C4471	C447	0.773300	0.947820	0.815200
H2241	H224	0.706300	0.943400	0.834900
C4481	C448	0.977000	0.928800	0.852900
C4491	C449	0.514000	0.891700	0.866400
C4501	C450	0.769400	0.861410	0.794100
H2251	H225	0.870700	0.857900	0.791100
C4511	C451	0.665600	0.854940	0.765500
C4521	C452	0.514300	0.860190	0.770000
H2261	H226	0.444900	0.855900	0.750900
C4531	C453	0.466900	0.871910	0.803100
H2271	H227	0.365600	0.875400	0.806100
C4541	C454	0.570700	0.878380	0.831600
C4551	C455	0.722000	0.873130	0.827100
H2281	H228	0.791400	0.877500	0.846200
C4561	C456	0.728000	0.844000	0.729300
C4571	C457	0.272000	0.808970	0.714900
C4581	C458	0.223700	0.794480	0.782200
H2291	H229	0.124400	0.799200	0.780400
C4591	C459	0.272900	0.783660	0.816000
H2301	H230	0.206600	0.781200	0.836900
C4601	C460	0.421200	0.776580	0.818700
C4611	C461	0.520300	0.780330	0.787500
H2311	H231	0.619600	0.775600	0.789300
C4621	C462	0.471100	0.791140	0.753600
H2321	H232	0.537400	0.793600	0.732800
C4631	C463	0.322700	0.798220	0.751000
C4641	C464	0.476000	0.766300	0.856500
C4651	C465	0.754000	0.797060	0.649200
C4661	C466	0.751600	0.772380	0.647800
C4671	C467	0.617000	0.761440	0.646600
H2331	H233	0.527300	0.769200	0.645200
C4681	C468	0.614000	0.738960	0.647600
H2341	H234	0.522800	0.731500	0.648100
Sc271	Sc27	0.995900	0.333300	0.176330
Sc281	Sc28	0.499000	0.333300	0.154670
O2351	O235	0.128700	0.360270	0.188500
O2361	O236	0.370300	0.359830	0.169800
O2371	O237	0.129000	0.471810	0.157800
O2381	O238	0.362000	0.472960	0.177100
O2391	O239	0.633800	0.484000	0.217700
O2401	O240	0.867900	0.487600	0.197800
O2411	O241	0.876700	0.422530	0.377000
O2421	O242	0.114100	0.424680	0.355600
O2431	O243	0.377400	0.396210	0.368600
O2441	O244	0.611500	0.396900	0.392200
O2451	O245	0.625900	0.338080	0.204100
O2461	O246	0.861900	0.340620	0.225800
O2471	O247	0.138700	0.314730	0.213000
O2481	O248	0.366800	0.312320	0.187600
O2491	O249	0.381400	0.262900	0.382500
O2501	O250	0.613300	0.262200	0.359500
O2511	O251	0.633000	0.306790	0.140900
O2521	O252	0.873700	0.306140	0.161400
C4691	C469	0.248000	0.369600	0.178000
C4701	C470	0.112500	0.404810	0.174800
H2351	H235	0.022400	0.397100	0.174000
C4711	C471	0.111300	0.427480	0.172900
H2361	H236	0.020400	0.434900	0.170900
C4721	C472	0.246000	0.439020	0.174000
C4731	C473	0.381900	0.427890	0.177000
H2371	H237	0.472000	0.435600	0.177800
C4741	C474	0.383100	0.405220	0.178900
H2381	H238	0.474000	0.397800	0.180900
C4751	C475	0.248400	0.393680	0.177800
C4761	C476	0.249000	0.462800	0.167800
C4771	C477	0.770000	0.479700	0.219900
C4781	C478	0.923800	0.441730	0.317400
C4791	C479	0.024000	0.448280	0.288000
H2391	H239	0.124700	0.444200	0.289500
C4801	C480	0.973600	0.460920	0.256400
H2401	H240	0.040600	0.465300	0.236800
C4811	C481	0.823100	0.467000	0.254200
C4821	C482	0.722900	0.460450	0.283600
H2411	H241	0.622200	0.464500	0.282100
C4831	C483	0.773300	0.447820	0.315200
H2421	H242	0.706300	0.443400	0.334900
C4841	C484	0.977000	0.428800	0.352900
C4851	C485	0.514000	0.391700	0.366400
C4861	C486	0.769400	0.361410	0.294100
H2431	H243	0.870700	0.357900	0.291100
C4871	C487	0.665600	0.354940	0.265500
C4881	C488	0.514300	0.360190	0.270000
H2441	H244	0.444900	0.355900	0.250900
C4891	C489	0.466900	0.371910	0.303100
H2451	H245	0.365600	0.375400	0.306100
C4901	C490	0.570700	0.378380	0.331600
C4911	C491	0.722000	0.373130	0.327100
H2461	H246	0.791400	0.377500	0.346200
C4921	C492	0.728000	0.344000	0.229300
C4931	C493	0.272000	0.308970	0.214900
C4941	C494	0.223700	0.294480	0.282200
H2471	H247	0.124400	0.299200	0.280400
C4951	C495	0.272900	0.283660	0.316000
H2481	H248	0.206600	0.281200	0.336900
C4961	C496	0.421200	0.276580	0.318700
C4971	C497	0.520300	0.280330	0.287500
H2491	H249	0.619600	0.275600	0.289300
C4981	C498	0.471100	0.291140	0.253600
H2501	H250	0.537400	0.293600	0.232800
C4991	C499	0.322700	0.298220	0.251000
C5001	C500	0.476000	0.266300	0.356500
C5011	C501	0.754000	0.297060	0.149200
C5021	C502	0.751600	0.272380	0.147800
C5031	C503	0.617000	0.261440	0.146600
H2511	H251	0.527300	0.269200	0.145200
C5041	C504	0.614000	0.238960	0.147600
H2521	H252	0.522800	0.231500	0.148100
Sc291	Sc29	0.495900	0.833300	0.176330
Sc301	Sc30	0.999000	0.833300	0.154670
O2531	O253	0.628700	0.860270	0.188500
O2541	O254	0.870300	0.859830	0.169800
O2551	O255	0.629000	0.971810	0.157800
O2561	O256	0.862000	0.972960	0.177100
O2571	O257	0.133800	0.984000	0.217700
O2581	O258	0.367900	0.987600	0.197800
O2591	O259	0.376700	0.922530	0.377000
O2601	O260	0.614100	0.924680	0.355600
O2611	O261	0.877400	0.896210	0.368600
O2621	O262	0.111500	0.896900	0.392200
O2631	O263	0.125900	0.838080	0.204100
O2641	O264	0.361900	0.840620	0.225800
O2651	O265	0.638700	0.814730	0.213000
O2661	O266	0.866800	0.812320	0.187600
O2671	O267	0.881400	0.762900	0.382500
O2681	O268	0.113300	0.762200	0.359500
O2691	O269	0.133000	0.806790	0.140900
O2701	O270	0.373700	0.806140	0.161400
C5051	C505	0.748000	0.869600	0.178000
C5061	C506	0.612500	0.904810	0.174800
H2531	H253	0.522400	0.897100	0.174000
C5071	C507	0.611300	0.927480	0.172900
H2541	H254	0.520400	0.934900	0.170900
C5081	C508	0.746000	0.939020	0.174000
C5091	C509	0.881900	0.927890	0.177000
H2551	H255	0.972000	0.935600	0.177800
C5101	C510	0.883100	0.905220	0.178900
H2561	H256	0.974000	0.897800	0.180900
C5111	C511	0.748400	0.893680	0.177800
C5121	C512	0.749000	0.962800	0.167800
C5131	C513	0.270000	0.979700	0.219900
C5141	C514	0.423800	0.941730	0.317400
C5151	C515	0.524000	0.948280	0.288000
H2571	H257	0.624700	0.944200	0.289500
C5161	C516	0.473600	0.960920	0.256400
H2581	H258	0.540600	0.965300	0.236800
C5171	C517	0.323100	0.967000	0.254200
C5181	C518	0.222900	0.960450	0.283600
H2591	H259	0.122200	0.964500	0.282100
C5191	C519	0.273300	0.947820	0.315200
H2601	H260	0.206300	0.943400	0.334900
C5201	C520	0.477000	0.928800	0.352900
C5211	C521	0.014000	0.891700	0.366400
C5221	C522	0.269400	0.861410	0.294100
H2611	H261	0.370700	0.857900	0.291100
C5231	C523	0.165600	0.854940	0.265500
C5241	C524	0.014300	0.860190	0.270000
H2621	H262	0.944900	0.855900	0.250900
C5251	C525	0.966900	0.871910	0.303100
H2631	H263	0.865600	0.875400	0.306100
C5261	C526	0.070700	0.878380	0.331600
C5271	C527	0.222000	0.873130	0.327100
H2641	H264	0.291400	0.877500	0.346200
C5281	C528	0.228000	0.844000	0.229300
C5291	C529	0.772000	0.808970	0.214900
C5301	C530	0.723700	0.794480	0.282200
H2651	H265	0.624400	0.799200	0.280400
C5311	C531	0.772900	0.783660	0.316000
H2661	H266	0.706600	0.781200	0.336900
C5321	C532	0.921200	0.776580	0.318700
C5331	C533	0.020300	0.780330	0.287500
H2671	H267	0.119600	0.775600	0.289300
C5341	C534	0.971100	0.791140	0.253600
H2681	H268	0.037400	0.793600	0.232800
C5351	C535	0.822700	0.798220	0.251000
C5361	C536	0.976000	0.766300	0.356500
C5371	C537	0.254000	0.797060	0.149200
C5381	C538	0.251600	0.772380	0.147800
C5391	C539	0.117000	0.761440	0.146600
H2691	H269	0.027300	0.769200	0.145200
C5401	C540	0.114000	0.738960	0.147600
H2701	H270	0.022800	0.731500	0.148100
Sc311	Sc31	0.495900	0.333300	0.676330
Sc321	Sc32	0.999000	0.333300	0.654670
O2711	O271	0.628700	0.360270	0.688500
O2721	O272	0.870300	0.359830	0.669800
O2731	O273	0.629000	0.471810	0.657800
O2741	O274	0.862000	0.472960	0.677100
O2751	O275	0.133800	0.484000	0.717700
O2761	O276	0.367900	0.487600	0.697800
O2771	O277	0.376700	0.422530	0.877000
O2781	O278	0.614100	0.424680	0.855600
O2791	O279	0.877400	0.396210	0.868600
O2801	O280	0.111500	0.396900	0.892200
O2811	O281	0.125900	0.338080	0.704100
O2821	O282	0.361900	0.340620	0.725800
O2831	O283	0.638700	0.314730	0.713000
O2841	O284	0.866800	0.312320	0.687600
O2851	O285	0.881400	0.262900	0.882500
O2861	O286	0.113300	0.262200	0.859500
O2871	O287	0.133000	0.306790	0.640900
O2881	O288	0.373700	0.306140	0.661400
C5411	C541	0.748000	0.369600	0.678000
C5421	C542	0.612500	0.404810	0.674800
H2711	H271	0.522400	0.397100	0.674000
C5431	C543	0.611300	0.427480	0.672900
H2721	H272	0.520400	0.434900	0.670900
C5441	C544	0.746000	0.439020	0.674000
C5451	C545	0.881900	0.427890	0.677000
H2731	H273	0.972000	0.435600	0.677800
C5461	C546	0.883100	0.405220	0.678900
H2741	H274	0.974000	0.397800	0.680900
C5471	C547	0.748400	0.393680	0.677800
C5481	C548	0.749000	0.462800	0.667800
C5491	C549	0.270000	0.479700	0.719900
C5501	C550	0.423800	0.441730	0.817400
C5511	C551	0.524000	0.448280	0.788000
H2751	H275	0.624700	0.444200	0.789500
C5521	C552	0.473600	0.460920	0.756400
H2761	H276	0.540600	0.465300	0.736800
C5531	C553	0.323100	0.467000	0.754200
C5541	C554	0.222900	0.460450	0.783600
H2771	H277	0.122200	0.464500	0.782100
C5551	C555	0.273300	0.447820	0.815200
H2781	H278	0.206300	0.443400	0.834900
C5561	C556	0.477000	0.428800	0.852900
C5571	C557	0.014000	0.391700	0.866400
C5581	C558	0.269400	0.361410	0.794100
H2791	H279	0.370700	0.357900	0.791100
C5591	C559	0.165600	0.354940	0.765500
C5601	C560	0.014300	0.360190	0.770000
H2801	H280	0.944900	0.355900	0.750900
C5611	C561	0.966900	0.371910	0.803100
H2811	H281	0.865600	0.375400	0.806100
C5621	C562	0.070700	0.378380	0.831600
C5631	C563	0.222000	0.373130	0.827100
H2821	H282	0.291400	0.377500	0.846200
C5641	C564	0.228000	0.344000	0.729300
C5651	C565	0.772000	0.308970	0.714900
C5661	C566	0.723700	0.294480	0.782200
H2831	H283	0.624400	0.299200	0.780400
C5671	C567	0.772900	0.283660	0.816000
H2841	H284	0.706600	0.281200	0.836900
C5681	C568	0.921200	0.276580	0.818700
C5691	C569	0.020300	0.280330	0.787500
H2851	H285	0.119600	0.275600	0.789300
C5701	C570	0.971100	0.291140	0.753600
H2861	H286	0.037400	0.293600	0.732800
C5711	C571	0.822700	0.298220	0.751000
C5721	C572	0.976000	0.266300	0.856500
C5731	C573	0.254000	0.297060	0.649200
C5741	C574	0.251600	0.272380	0.647800
C5751	C575	0.117000	0.261440	0.646600
H2871	H287	0.027300	0.269200	0.645200
C5761	C576	0.114000	0.238960	0.647600
H2881	H288	0.022800	0.231500	0.648100
Sc331	Sc33	0.750000	0.750000	0.426260
Sc341	Sc34	0.750000	0.250000	0.926260
Sc351	Sc35	0.250000	0.250000	0.426260
Sc361	Sc36	0.250000	0.750000	0.926260
Sc371	Sc37	0.000000	0.500000	0.676260
Sc381	Sc38	0.000000	0.000000	0.176260
Sc391	Sc39	0.500000	0.500000	0.176260
Sc401	Sc40	0.500000	0.000000	0.676260
Sc411	Sc41	0.250000	0.750000	0.404650
Sc421	Sc42	0.250000	0.250000	0.904650
Sc431	Sc43	0.750000	0.250000	0.404650
Sc441	Sc44	0.750000	0.750000	0.904650
Sc451	Sc45	0.500000	0.500000	0.654650
Sc461	Sc46	0.500000	0.000000	0.154650
Sc471	Sc47	0.000000	0.000000	0.654650
Sc481	Sc48	0.000000	0.500000	0.154650
