data_BAHGUN_freeONLY_PM
_symmetry_space_group_name_H-M	'P1'
_cell_length_a	4.996700
_cell_length_b	11.100100
_cell_length_c	12.733000
_cell_angle_alpha	91.732200
_cell_angle_beta	101.315000
_cell_angle_gamma	81.137800
_symmetry_Int_Tables_number 1

loop_
_symmetry_equiv_pos_as_xyz
'x,y,z'

loop_
_atom_site_label
_atom_site_type_symbol
_atom_site_fract_x
_atom_site_fract_y
_atom_site_fract_z
Cu11	Cu1	0.350760	0.104800	0.227040
Cu21	Cu2	0.123720	0.604800	0.772960
H11	H1	0.984100	0.372600	0.661800
H21	H2	0.058200	0.262100	0.512400
H31	H3	0.536200	0.500800	0.454600
H41	H4	0.458900	0.602600	0.608800
H51	H5	0.357200	0.175700	0.001600
H61	H6	0.116700	0.312500	0.871400
H71	H7	0.588300	0.424200	0.066200
H81	H8	0.854900	0.290600	0.194400
H91	H9	0.322300	0.872600	0.338200
H101	H10	0.545800	0.762100	0.487600
H111	H11	0.081600	0.000800	0.545400
H121	H12	0.850100	0.102600	0.391200
H131	H13	0.355600	0.675700	0.998400
H141	H14	0.245300	0.812500	0.128600
H151	H15	0.522100	0.924200	0.933800
H161	H16	0.660500	0.790600	0.805600
C11	C1	0.097630	0.398200	0.619860
C21	C2	0.138870	0.332000	0.529540
C31	C3	0.300350	0.370300	0.465100
C41	C4	0.423340	0.473100	0.495680
C51	C5	0.375670	0.533900	0.588340
C61	C6	0.354120	0.300400	0.365040
C71	C7	0.203200	0.227700	0.015200
C81	C8	0.057780	0.309300	0.935960
C91	C9	0.825770	0.385600	0.953740
C101	C10	0.746660	0.376100	0.051920
C111	C11	0.660300	0.473300	0.868000
C121	C12	0.906260	0.294300	0.128320
C131	C13	0.477770	0.898200	0.380140
C141	C14	0.609330	0.832000	0.470460
C151	C15	0.835250	0.870300	0.534900
C161	C16	0.927660	0.973100	0.504320
C171	C17	0.787330	0.033900	0.411660
C181	C18	0.989080	0.800400	0.634960
C191	C19	0.188000	0.727700	0.984800
C201	C20	0.121820	0.809300	0.064040
C211	C21	0.872030	0.885600	0.046260
C221	C22	0.694740	0.876100	0.948080
C231	C23	0.792300	0.973300	0.132000
C241	C24	0.777940	0.794300	0.871680
N11	N1	0.213570	0.497300	0.649540
N21	N2	0.130830	0.220700	0.110260
N31	N3	0.564030	0.997300	0.350460
N41	N4	0.020570	0.720700	0.889740
O11	O1	0.224280	0.210100	0.341160
O21	O2	0.520880	0.331200	0.315760
O31	O3	0.413950	0.510160	0.878500
O41	O4	0.771880	0.501750	0.795560
O51	O5	0.883120	0.710100	0.658840
O61	O6	0.205120	0.831200	0.684240
O71	O7	0.535450	0.010160	0.121500
O81	O8	0.976320	0.001750	0.204440
