data_BAKJOO_freeONLY_PM
_symmetry_space_group_name_H-M	'P1'
_cell_length_a	10.164000
_cell_length_b	13.363000
_cell_length_c	22.395000
_cell_angle_alpha	86.833000
_cell_angle_beta	80.346000
_cell_angle_gamma	83.224000
_symmetry_Int_Tables_number 1

loop_
_symmetry_equiv_pos_as_xyz
'x,y,z'

loop_
_atom_site_label
_atom_site_type_symbol
_atom_site_fract_x
_atom_site_fract_y
_atom_site_fract_z
Co11	Co1	0.071100	0.790270	0.723540
Co21	Co2	0.676770	0.998210	0.278600
Co31	Co3	0.565250	0.048400	0.835620
Co41	Co4	0.928900	0.209730	0.276460
Co51	Co5	0.323230	0.001790	0.721400
Co61	Co6	0.434750	0.951600	0.164380
H11	H1	0.282900	0.831500	0.613100
H21	H2	0.311100	0.882000	0.512300
H31	H3	0.932000	0.822400	0.513400
H41	H4	0.914500	0.780000	0.611500
H51	H5	0.936500	0.910900	0.425600
H61	H6	0.169200	0.008500	0.274000
H71	H7	0.341200	0.894900	0.417700
H81	H8	0.741000	0.186800	0.751600
H91	H9	0.757700	0.355000	0.721200
H101	H10	0.397700	0.425800	0.825700
H111	H11	0.387600	0.262100	0.852100
H121	H12	0.401500	0.562300	0.744600
H131	H13	0.632300	0.795600	0.716400
H141	H14	0.800000	0.514200	0.749500
H151	H15	0.227200	0.737700	0.833200
H161	H16	0.209000	0.769200	0.934700
H171	H17	0.819100	0.862800	0.935000
H181	H18	0.848100	0.834900	0.833600
H191	H19	0.202600	0.858600	0.009200
H201	H20	0.983900	0.952900	0.167900
H211	H21	0.800500	0.868100	0.032400
H221	H22	0.717100	0.168500	0.386900
H231	H23	0.688900	0.118000	0.487700
H241	H24	0.068000	0.177600	0.486600
H251	H25	0.085500	0.220000	0.388500
H261	H26	0.063500	0.089100	0.574400
H271	H27	0.830800	0.991500	0.726000
H281	H28	0.658800	0.105100	0.582300
H291	H29	0.259000	0.813200	0.248400
H301	H30	0.242300	0.645000	0.278800
H311	H31	0.602300	0.574200	0.174300
H321	H32	0.612400	0.737900	0.147900
H331	H33	0.598500	0.437700	0.255400
H341	H34	0.367700	0.204400	0.283600
H351	H35	0.200000	0.485800	0.250500
H361	H36	0.772800	0.262300	0.166800
H371	H37	0.791000	0.230800	0.065300
H381	H38	0.180900	0.137200	0.065000
H391	H39	0.151900	0.165100	0.166400
H401	H40	0.797400	0.141400	0.990800
H411	H41	0.016100	0.047100	0.832100
H421	H42	0.199500	0.131900	0.967600
C11	C1	0.208700	0.830300	0.592500
C21	C2	0.542300	0.861900	0.923000
C31	C3	0.516000	0.739000	0.997500
C41	C4	0.573000	0.690300	0.893200
C51	C5	0.228100	0.860300	0.531500
C61	C6	0.122900	0.857600	0.499300
C71	C7	0.007300	0.825900	0.532900
C81	C8	0.997800	0.800100	0.591400
C91	C9	0.136600	0.895000	0.434400
C101	C10	0.023300	0.921400	0.404600
C111	C11	0.035600	0.961200	0.346900
C121	C12	0.161200	0.978700	0.313800
C131	C13	0.274300	0.950500	0.341400
C141	C14	0.262500	0.911400	0.400000
C151	C15	0.911600	0.991500	0.316300
C161	C16	0.413700	0.965100	0.305300
C171	C17	0.669700	0.235700	0.767200
C181	C18	0.681300	0.337900	0.748800
C191	C19	0.579900	0.414200	0.771200
C201	C20	0.470900	0.378600	0.809800
C211	C21	0.465500	0.279000	0.825500
C221	C22	0.592100	0.519600	0.753400
C231	C23	0.486000	0.587000	0.742800
C241	C24	0.493000	0.690100	0.729500
C251	C25	0.622100	0.726200	0.724800
C261	C26	0.730000	0.658500	0.732700
C271	C27	0.721400	0.558500	0.745600
C281	C28	0.373400	0.762500	0.719200
C291	C29	0.865500	0.703200	0.728700
C301	C30	0.143300	0.767300	0.853600
C311	C31	0.133500	0.786000	0.914700
C321	C32	0.012800	0.829200	0.946400
C331	C33	0.906500	0.841200	0.914400
C341	C34	0.923600	0.822800	0.854000
C351	C35	0.001800	0.859100	0.011400
C361	C36	0.117300	0.873200	0.033700
C371	C37	0.109400	0.908900	0.092200
C381	C38	0.988000	0.929600	0.128300
C391	C39	0.865700	0.916100	0.106400
C401	C40	0.879100	0.879300	0.047600
C411	C41	0.236800	0.930500	0.115300
C421	C42	0.733400	0.944700	0.145900
C431	C43	0.791300	0.169700	0.407500
C441	C44	0.457700	0.138100	0.077000
C451	C45	0.484000	0.261000	0.002500
C461	C46	0.427000	0.309700	0.106800
C471	C47	0.771900	0.139700	0.468500
C481	C48	0.877100	0.142400	0.500700
C491	C49	0.992700	0.174100	0.467100
C501	C50	0.002200	0.199900	0.408600
C511	C51	0.863400	0.105000	0.565600
C521	C52	0.976700	0.078600	0.595400
C531	C53	0.964400	0.038800	0.653100
C541	C54	0.838800	0.021300	0.686200
C551	C55	0.725700	0.049500	0.658600
C561	C56	0.737500	0.088600	0.600000
C571	C57	0.088400	0.008500	0.683700
C581	C58	0.586300	0.034900	0.694700
C591	C59	0.330300	0.764300	0.232800
C601	C60	0.318700	0.662100	0.251200
C611	C61	0.420100	0.585800	0.228800
C621	C62	0.529100	0.621400	0.190200
C631	C63	0.534500	0.721000	0.174500
C641	C64	0.407900	0.480400	0.246600
C651	C65	0.514000	0.413000	0.257200
C661	C66	0.507000	0.309900	0.270500
C671	C67	0.377900	0.273800	0.275200
C681	C68	0.270000	0.341500	0.267300
C691	C69	0.278600	0.441500	0.254400
C701	C70	0.626600	0.237500	0.280800
C711	C71	0.134500	0.296800	0.271300
C721	C72	0.856700	0.232700	0.146400
C731	C73	0.866500	0.214000	0.085300
C741	C74	0.987200	0.170800	0.053600
C751	C75	0.093500	0.158800	0.085600
C761	C76	0.076400	0.177200	0.146000
C771	C77	0.998200	0.140900	0.988600
C781	C78	0.882700	0.126800	0.966300
C791	C79	0.890600	0.091100	0.907800
C801	C80	0.012000	0.070400	0.871700
C811	C81	0.134300	0.083900	0.893600
C821	C82	0.120900	0.120700	0.952400
C831	C83	0.763200	0.069500	0.884700
C841	C84	0.266600	0.055300	0.854100
N11	N1	0.097900	0.800100	0.625100
N21	N2	0.560300	0.200900	0.807100
N31	N3	0.044700	0.787800	0.821900
N41	N4	0.542300	0.768400	0.936600
N51	N5	0.902100	0.199900	0.374900
N61	N6	0.439700	0.799100	0.192900
N71	N7	0.955300	0.212200	0.178100
N81	N8	0.457700	0.231600	0.063400
O11	O1	0.806200	0.946100	0.338800
O21	O2	0.912200	0.056200	0.274300
O31	O3	0.515400	0.947200	0.332000
O41	O4	0.424300	0.998700	0.250200
O51	O5	0.388900	0.854800	0.709800
O61	O6	0.262600	0.724500	0.720800
O71	O7	0.973500	0.641400	0.728000
O81	O8	0.865500	0.796100	0.726300
O91	O9	0.348600	0.918600	0.081500
O101	O10	0.224200	0.954900	0.170200
O111	O11	0.742800	0.947300	0.203200
O121	O12	0.629400	0.927800	0.125200
O131	O13	0.568500	0.893000	0.866800
O141	O14	0.193800	0.053900	0.661200
O151	O15	0.087800	0.943800	0.725700
O161	O16	0.484600	0.052800	0.668000
O171	O17	0.575700	0.001300	0.749800
O181	O18	0.611100	0.145200	0.290200
O191	O19	0.737400	0.275500	0.279200
O201	O20	0.026500	0.358600	0.272000
O211	O21	0.134500	0.203900	0.273700
O221	O22	0.651400	0.081400	0.918500
O231	O23	0.775800	0.045100	0.829800
O241	O24	0.257200	0.052700	0.796800
O251	O25	0.370600	0.072200	0.874800
O261	O26	0.431500	0.107000	0.133200
