data_BALPAH_freeONLY_PM
_symmetry_space_group_name_H-M	'P1'
_cell_length_a	24.844600
_cell_length_b	24.844600
_cell_length_c	47.240900
_cell_angle_alpha	90.000000
_cell_angle_beta	90.000000
_cell_angle_gamma	90.000000
_symmetry_Int_Tables_number 1

loop_
_symmetry_equiv_pos_as_xyz
'x,y,z'

loop_
_atom_site_label
_atom_site_type_symbol
_atom_site_fract_x
_atom_site_fract_y
_atom_site_fract_z
Ag11	Ag1	0.717200	0.655500	0.227890
Ag21	Ag2	0.850820	0.609590	0.248730
Ag31	Ag3	0.814540	0.497030	0.286830
Ag41	Ag4	0.675370	0.556430	0.272390
Ag51	Ag5	0.728630	0.735800	0.289250
Ag61	Ag6	0.875060	0.715230	0.310080
Ag71	Ag7	0.802430	0.592220	0.344060
Ag81	Ag8	0.653430	0.639790	0.343650
Pd11	Pd1	0.758740	0.496010	0.204440
Pd21	Pd2	0.834990	0.772350	0.228660
Pd31	Pd3	0.955080	0.570070	0.312370
Pd41	Pd4	0.688480	0.475790	0.345860
Pd51	Pd5	0.573710	0.683460	0.269380
Pd61	Pd6	0.764830	0.747090	0.372900
Br11	Br1	0.764450	0.624350	0.289050
La11	La1	0.923370	0.377380	0.112760
S11	S1	0.698840	0.557920	0.219610
S21	S2	0.826660	0.514570	0.235040
S31	S3	0.811020	0.686650	0.220050
S41	S4	0.819840	0.771790	0.276090
S51	S5	0.919830	0.636600	0.284420
S61	S6	0.875380	0.531390	0.324500
S71	S7	0.717520	0.480070	0.300610
S81	S8	0.710500	0.560020	0.358980
S91	S9	0.606910	0.615630	0.296940
S101	S10	0.653900	0.715160	0.254060
S111	S11	0.699450	0.730430	0.340330
S121	S12	0.827130	0.688340	0.356530
O11	O1	0.609150	0.451470	0.149510
O21	O2	0.593770	0.535600	0.133210
O31	O3	0.887250	0.392730	0.161690
O41	O4	0.935700	0.374100	0.198270
O51	O5	0.874970	0.762480	0.130810
O61	O6	0.797900	0.722800	0.122790
O71	O7	0.859100	0.956300	0.243830
O81	O8	0.902300	0.942000	0.288350
O91	O9	0.113430	0.639000	0.274430
O101	O10	0.089100	0.720400	0.276610
O111	O11	0.933720	0.474950	0.118670
O121	O12	0.872360	0.536070	0.106550
O131	O13	0.637520	0.302150	0.314730
O141	O14	0.713460	0.290440	0.292890
O151	O15	0.671860	0.452150	0.442230
O161	O16	0.635900	0.530710	0.451420
O171	O17	0.415440	0.589100	0.295810
O181	O18	0.438100	0.585800	0.340100
O191	O19	0.988940	0.321840	0.041240
O201	O20	0.922790	0.310060	0.072700
O211	O21	0.642790	0.881880	0.396870
O221	O22	0.567800	0.838440	0.389920
O231	O23	0.894610	0.765000	0.444360
O241	O24	0.965660	0.755890	0.418800
N11	N1	0.704760	0.481500	0.174270
H11	H1	0.722900	0.475500	0.157600
H21	H2	0.686800	0.450200	0.178800
N21	N2	0.808790	0.435680	0.189610
H31	H3	0.789400	0.404200	0.188900
H41	H4	0.818700	0.444100	0.171400
N31	N3	0.841100	0.780080	0.184530
H51	H5	0.825600	0.812000	0.179000
H61	H6	0.876900	0.781200	0.179500
N41	N4	0.867800	0.849400	0.234990
H71	H7	0.900800	0.851600	0.226300
H81	H8	0.845600	0.874900	0.227000
N51	N5	0.026470	0.605220	0.304350
H91	H9	0.044700	0.608900	0.321200
H101	H10	0.046300	0.582500	0.293000
N61	N6	0.988290	0.509380	0.335610
H111	H11	0.021300	0.501000	0.328000
H121	H12	0.994000	0.521700	0.353700
N71	N7	0.672300	0.397230	0.337460
H131	H13	0.680500	0.377200	0.353300
H141	H14	0.635900	0.393800	0.334300
N81	N8	0.663000	0.467350	0.387640
H151	H15	0.629100	0.452300	0.387700
H161	H16	0.685800	0.443900	0.396800
N91	N9	0.497440	0.659680	0.284620
H171	H17	0.478600	0.689800	0.290000
H181	H18	0.478700	0.643500	0.270100
N101	N10	0.539620	0.738930	0.240090
H191	H19	0.511200	0.722900	0.230900
H201	H20	0.526600	0.768300	0.249800
N111	N11	0.709860	0.796010	0.390370
H211	H21	0.709300	0.788900	0.409500
H221	H22	0.722200	0.830700	0.388300
N121	N12	0.820130	0.768260	0.401660
H231	H23	0.821700	0.805200	0.402400
H241	H24	0.808900	0.756400	0.419100
C11	C1	0.638200	0.542200	0.196670
C21	C2	0.663900	0.524800	0.169320
H251	H25	0.681200	0.556400	0.159900
C31	C3	0.616700	0.498800	0.148220
C41	C4	0.604300	0.504000	0.209670
H261	H26	0.589200	0.519300	0.227100
H271	H27	0.625100	0.471700	0.214300
H281	H28	0.575000	0.494600	0.196700
C51	C5	0.607900	0.595400	0.190440
H291	H29	0.632500	0.621100	0.181500
H301	H30	0.594200	0.610500	0.208200
H311	H31	0.577700	0.588100	0.177600
C61	C6	0.882100	0.477200	0.216460
C71	C7	0.857740	0.426040	0.206160
H321	H32	0.848200	0.403400	0.222900
C81	C8	0.895500	0.394800	0.187590
C91	C9	0.898700	0.513100	0.190600
H331	H33	0.914800	0.546700	0.197500
H341	H34	0.866800	0.521400	0.179200
H351	H35	0.925000	0.493800	0.179000
C101	C10	0.926300	0.471300	0.239580
H361	H36	0.940300	0.507000	0.244500
H371	H37	0.955700	0.448900	0.232300
H381	H38	0.910800	0.454400	0.256400
C111	C11	0.831000	0.681000	0.181560
C121	C12	0.814400	0.734600	0.169200
H391	H39	0.774400	0.738700	0.170100
C131	C13	0.835200	0.743800	0.137360
C141	C14	0.892650	0.671400	0.180160
H401	H40	0.911400	0.701900	0.188900
H411	H41	0.903800	0.668000	0.160300
H421	H42	0.901700	0.638300	0.190400
C151	C15	0.801500	0.636500	0.169320
H431	H43	0.814000	0.602600	0.177600
H441	H44	0.807400	0.635800	0.148800
H451	H45	0.763000	0.641000	0.173200
C161	C16	0.824600	0.845000	0.282460
C171	C17	0.873900	0.860600	0.266210
H461	H46	0.907000	0.843200	0.274100
C181	C18	0.878900	0.925900	0.266060
C191	C19	0.768500	0.871100	0.272040
H471	H47	0.764900	0.866400	0.251500
H481	H48	0.768100	0.909500	0.276600
H491	H49	0.738500	0.853100	0.281600
C201	C20	0.829000	0.852800	0.311600
H501	H50	0.795600	0.841300	0.320800
H511	H51	0.835300	0.891000	0.315500
H521	H52	0.859200	0.831500	0.318900
C211	C21	0.982700	0.658800	0.266720
C221	C22	0.023780	0.659200	0.290300
H531	H53	0.013800	0.687100	0.304600
C231	C23	0.077000	0.672200	0.278130
C241	C24	0.994100	0.617800	0.244040
H541	H54	0.002700	0.583200	0.252900
H551	H55	0.024700	0.629800	0.232600
H561	H56	0.962300	0.613800	0.231900
C251	C25	0.967600	0.712500	0.252490
H571	H57	0.958200	0.739000	0.267000
H581	H58	0.936800	0.707000	0.239900
H591	H59	0.998300	0.725700	0.241500
C261	C26	0.899800	0.476000	0.348490
C271	C27	0.956610	0.460700	0.337130
H601	H60	0.953200	0.444700	0.317800
C281	C28	0.920300	0.511500	0.107120
C291	C29	0.902700	0.496800	0.379280
H611	H61	0.866400	0.505800	0.385900
H621	H62	0.925400	0.529000	0.380000
H631	H63	0.918200	0.468800	0.391500
C301	C30	0.855500	0.435400	0.347160
H641	H64	0.822700	0.450700	0.355400
H651	H65	0.866000	0.403200	0.357800
H661	H66	0.848800	0.425600	0.327400
C311	C31	0.694800	0.411200	0.287220
C321	C32	0.702300	0.373600	0.312320
H671	H67	0.741500	0.371400	0.317000
C331	C33	0.682200	0.318900	0.305610
C341	C34	0.632460	0.418500	0.279890
H681	H68	0.612700	0.427700	0.297200
H691	H69	0.618300	0.384800	0.272100
H701	H70	0.628200	0.447400	0.266000
C351	C35	0.724500	0.398000	0.261600
H711	H71	0.716000	0.424300	0.246800
H721	H72	0.714500	0.361900	0.255200
H731	H73	0.763200	0.399000	0.265600
C361	C36	0.708500	0.551900	0.398410
C371	C37	0.661400	0.516700	0.402960
H741	H74	0.627700	0.536800	0.398100
C381	C38	0.656600	0.492100	0.434670
C391	C39	0.762500	0.521000	0.407870
H751	H75	0.762400	0.484600	0.399900
H761	H76	0.763900	0.518800	0.428600
H771	H77	0.794000	0.540700	0.400900
C401	C40	0.704200	0.605590	0.410460
H781	H78	0.737200	0.625800	0.406500
H791	H79	0.698900	0.602800	0.431000
H801	H80	0.673400	0.624300	0.402000
C411	C41	0.541900	0.578500	0.303410
C421	C42	0.500400	0.620100	0.310090
H811	H81	0.512900	0.640800	0.327000
C431	C43	0.447700	0.598800	0.316190
C441	C44	0.528900	0.543400	0.277770
H821	H82	0.557600	0.517000	0.275000
H831	H83	0.525900	0.566200	0.260900
H841	H84	0.494700	0.524700	0.281000
C451	C45	0.551400	0.542800	0.330430
H851	H85	0.577900	0.514700	0.326100
H861	H86	0.517400	0.526000	0.336100
H871	H87	0.564900	0.565300	0.345900
C461	C46	0.632730	0.774600	0.232860
C471	C47	0.579800	0.756900	0.219110
H881	H88	0.588200	0.725100	0.206900
C481	C48	0.946100	0.298500	0.049580
C491	C49	0.625300	0.822000	0.251260
H891	H89	0.596600	0.814800	0.264900
H901	H90	0.615600	0.853200	0.239700
H911	H91	0.658900	0.829500	0.261400
C501	C50	0.673900	0.780900	0.211690
H921	H92	0.676600	0.747800	0.200500
H931	H93	0.708500	0.788000	0.220900
H941	H94	0.664700	0.811100	0.199300
C511	C51	0.654870	0.787300	0.348780
C521	C52	0.652500	0.795000	0.380200
H951	H95	0.636800	0.760900	0.387900
C531	C53	0.615500	0.838200	0.389300
C541	C54	0.677500	0.840900	0.334540
H961	H96	0.678900	0.836200	0.314000
H971	H97	0.713700	0.848200	0.341700
H981	H98	0.653700	0.871100	0.339200
C551	C55	0.598300	0.773900	0.335770
H991	H99	0.601700	0.770000	0.315200
H1001	H100	0.573100	0.803200	0.340100
H1011	H101	0.584800	0.740300	0.343900
C561	C56	0.875100	0.688450	0.386500
C571	C57	0.880300	0.745400	0.395970
H1021	H102	0.894400	0.765800	0.379300
C581	C58	0.919500	0.758500	0.421180
C591	C59	0.856300	0.654500	0.409080
H1031	H103	0.854900	0.617100	0.402500
H1041	H104	0.820200	0.666100	0.414900
H1051	H105	0.881000	0.657300	0.425200
C601	C60	0.935600	0.673000	0.374610
H1061	H106	0.945500	0.697700	0.359300
H1071	H107	0.935400	0.636000	0.367400
H1081	H108	0.961800	0.676000	0.390000
O251	O25	0.581840	0.651860	0.379950
O261	O26	0.918770	0.429990	0.063180
O271	O27	0.840900	0.409100	0.084760
C611	C61	0.869190	0.433400	0.063820
C621	C62	0.836500	0.453700	0.035740
H1091	H109	0.797700	0.453500	0.039700
H1101	H110	0.844200	0.429400	0.019900
H1111	H111	0.847900	0.490200	0.030800
O281	O28	0.003110	0.388560	0.147570
O291	O29	0.015280	0.389450	0.085800
O301	O30	0.841310	0.311760	0.121560
O311	O31	0.956900	0.285810	0.131340
La21	La2	0.840610	0.774510	0.489700
La31	La3	0.890850	0.047520	0.271270
La41	La4	0.933220	0.030060	0.291730
O321	O32	0.946100	0.128000	0.268500
O331	O33	0.854000	0.010300	0.326740
Ag91	Ag9	0.282800	0.344500	0.727890
Ag101	Ag10	0.149180	0.390410	0.748730
Ag111	Ag11	0.185460	0.502970	0.786830
Ag121	Ag12	0.324630	0.443570	0.772390
Ag131	Ag13	0.271370	0.264200	0.789250
Ag141	Ag14	0.124940	0.284770	0.810080
Ag151	Ag15	0.197570	0.407780	0.844060
Ag161	Ag16	0.346570	0.360210	0.843650
Pd71	Pd7	0.241260	0.503990	0.704440
Pd81	Pd8	0.165010	0.227650	0.728660
Pd91	Pd9	0.044920	0.429930	0.812370
Pd101	Pd10	0.311520	0.524210	0.845860
Pd111	Pd11	0.426290	0.316540	0.769380
Pd121	Pd12	0.235170	0.252910	0.872900
Br21	Br2	0.235550	0.375650	0.789050
La51	La5	0.076630	0.622620	0.612760
S131	S13	0.301160	0.442080	0.719610
S141	S14	0.173340	0.485430	0.735040
S151	S15	0.188980	0.313350	0.720050
S161	S16	0.180160	0.228210	0.776090
S171	S17	0.080170	0.363400	0.784420
S181	S18	0.124620	0.468610	0.824500
S191	S19	0.282480	0.519930	0.800610
S201	S20	0.289500	0.439980	0.858980
S211	S21	0.393090	0.384370	0.796940
S221	S22	0.346100	0.284840	0.754060
S231	S23	0.300550	0.269570	0.840330
S241	S24	0.172870	0.311660	0.856530
O341	O34	0.390850	0.548530	0.649510
O351	O35	0.406230	0.464400	0.633210
O361	O36	0.112750	0.607270	0.661690
O371	O37	0.064300	0.625900	0.698270
O381	O38	0.125030	0.237520	0.630810
O391	O39	0.202100	0.277200	0.622790
O401	O40	0.140900	0.043700	0.743830
O411	O41	0.097700	0.058000	0.788350
O421	O42	0.886570	0.361000	0.774430
O431	O43	0.910900	0.279600	0.776610
O441	O44	0.066280	0.525050	0.618670
O451	O45	0.127640	0.463930	0.606550
O461	O46	0.362480	0.697850	0.814730
O471	O47	0.286540	0.709560	0.792890
O481	O48	0.328140	0.547850	0.942230
O491	O49	0.364100	0.469290	0.951420
O501	O50	0.584560	0.410900	0.795810
O511	O51	0.561900	0.414200	0.840100
O521	O52	0.011060	0.678160	0.541240
O531	O53	0.077210	0.689940	0.572700
O541	O54	0.357210	0.118120	0.896870
O551	O55	0.432200	0.161560	0.889920
O561	O56	0.105390	0.235000	0.944360
O571	O57	0.034340	0.244110	0.918800
N131	N13	0.295240	0.518500	0.674270
H1121	H112	0.277100	0.524500	0.657600
H1131	H113	0.313200	0.549800	0.678800
N141	N14	0.191210	0.564320	0.689610
H1141	H114	0.210600	0.595800	0.688900
H1151	H115	0.181300	0.555900	0.671400
N151	N15	0.158900	0.219920	0.684530
H1161	H116	0.174400	0.188000	0.679000
H1171	H117	0.123100	0.218800	0.679500
N161	N16	0.132200	0.150600	0.734990
H1181	H118	0.099200	0.148400	0.726300
H1191	H119	0.154400	0.125100	0.727000
N171	N17	0.973530	0.394780	0.804350
H1201	H120	0.955300	0.391100	0.821200
H1211	H121	0.953700	0.417500	0.793000
N181	N18	0.011710	0.490620	0.835610
H1221	H122	0.978700	0.499000	0.828000
H1231	H123	0.006000	0.478300	0.853700
N191	N19	0.327700	0.602770	0.837460
H1241	H124	0.319500	0.622800	0.853300
H1251	H125	0.364100	0.606200	0.834300
N201	N20	0.337000	0.532650	0.887640
H1261	H126	0.370900	0.547700	0.887700
H1271	H127	0.314200	0.556100	0.896800
N211	N21	0.502560	0.340320	0.784620
H1281	H128	0.521400	0.310200	0.790000
H1291	H129	0.521300	0.356500	0.770100
N221	N22	0.460380	0.261070	0.740090
H1301	H130	0.488800	0.277100	0.730900
H1311	H131	0.473400	0.231700	0.749800
N231	N23	0.290140	0.203990	0.890370
H1321	H132	0.290700	0.211100	0.909500
H1331	H133	0.277800	0.169300	0.888300
N241	N24	0.179870	0.231740	0.901660
H1341	H134	0.178300	0.194800	0.902400
H1351	H135	0.191100	0.243600	0.919100
C631	C63	0.361800	0.457800	0.696670
C641	C64	0.336100	0.475200	0.669320
H1361	H136	0.318800	0.443600	0.659900
C651	C65	0.383300	0.501200	0.648220
C661	C66	0.395700	0.496000	0.709670
H1371	H137	0.410800	0.480700	0.727100
H1381	H138	0.374900	0.528300	0.714300
H1391	H139	0.425000	0.505400	0.696700
C671	C67	0.392100	0.404600	0.690440
H1401	H140	0.367500	0.378900	0.681500
H1411	H141	0.405800	0.389500	0.708200
H1421	H142	0.422300	0.411900	0.677600
C681	C68	0.117900	0.522800	0.716460
C691	C69	0.142260	0.573960	0.706160
H1431	H143	0.151800	0.596600	0.722900
C701	C70	0.104500	0.605200	0.687590
C711	C71	0.101300	0.486900	0.690600
H1441	H144	0.085200	0.453300	0.697500
H1451	H145	0.133200	0.478600	0.679200
H1461	H146	0.075000	0.506200	0.679000
C721	C72	0.073700	0.528700	0.739580
H1471	H147	0.059700	0.493000	0.744500
H1481	H148	0.044300	0.551100	0.732300
H1491	H149	0.089200	0.545600	0.756400
C731	C73	0.169000	0.319000	0.681560
C741	C74	0.185600	0.265400	0.669200
H1501	H150	0.225600	0.261300	0.670100
C751	C75	0.164800	0.256200	0.637360
C761	C76	0.107350	0.328600	0.680160
H1511	H151	0.088600	0.298100	0.688900
H1521	H152	0.096200	0.332000	0.660300
H1531	H153	0.098300	0.361700	0.690400
C771	C77	0.198500	0.363500	0.669320
H1541	H154	0.186000	0.397400	0.677600
H1551	H155	0.192600	0.364200	0.648800
H1561	H156	0.237000	0.359000	0.673200
C781	C78	0.175400	0.155000	0.782460
C791	C79	0.126100	0.139400	0.766210
H1571	H157	0.093000	0.156800	0.774100
C801	C80	0.121100	0.074100	0.766060
C811	C81	0.231500	0.128900	0.772040
H1581	H158	0.235100	0.133600	0.751500
H1591	H159	0.231900	0.090500	0.776600
H1601	H160	0.261500	0.146900	0.781600
C821	C82	0.171000	0.147200	0.811600
H1611	H161	0.204400	0.158700	0.820800
H1621	H162	0.164700	0.109000	0.815500
H1631	H163	0.140800	0.168500	0.818900
C831	C83	0.017300	0.341200	0.766720
C841	C84	0.976220	0.340800	0.790300
H1641	H164	0.986200	0.312900	0.804600
C851	C85	0.923000	0.327800	0.778130
C861	C86	0.005900	0.382200	0.744040
H1651	H165	0.997300	0.416800	0.752900
H1661	H166	0.975300	0.370200	0.732600
H1671	H167	0.037700	0.386200	0.731900
C871	C87	0.032400	0.287500	0.752490
H1681	H168	0.041800	0.261000	0.767000
H1691	H169	0.063200	0.293000	0.739900
H1701	H170	0.001700	0.274300	0.741500
C881	C88	0.100200	0.524000	0.848490
C891	C89	0.043390	0.539300	0.837130
H1711	H171	0.046800	0.555300	0.817800
C901	C90	0.079700	0.488500	0.607120
C911	C91	0.097300	0.503200	0.879280
H1721	H172	0.133600	0.494200	0.885900
H1731	H173	0.074600	0.471000	0.880000
H1741	H174	0.081800	0.531200	0.891500
C921	C92	0.144500	0.564600	0.847160
H1751	H175	0.177300	0.549300	0.855400
H1761	H176	0.134000	0.596800	0.857800
H1771	H177	0.151200	0.574400	0.827400
C931	C93	0.305200	0.588800	0.787220
C941	C94	0.297700	0.626400	0.812320
H1781	H178	0.258500	0.628600	0.817000
C951	C95	0.317800	0.681100	0.805610
C961	C96	0.367540	0.581500	0.779890
H1791	H179	0.387300	0.572300	0.797200
H1801	H180	0.381700	0.615200	0.772100
H1811	H181	0.371800	0.552600	0.766000
C971	C97	0.275500	0.602000	0.761600
H1821	H182	0.284000	0.575700	0.746800
H1831	H183	0.285500	0.638100	0.755200
H1841	H184	0.236800	0.601000	0.765600
C981	C98	0.291500	0.448100	0.898410
C991	C99	0.338600	0.483300	0.902960
H1851	H185	0.372300	0.463200	0.898100
C1001	C100	0.343400	0.507900	0.934670
C1011	C101	0.237500	0.479000	0.907870
H1861	H186	0.237600	0.515400	0.899900
H1871	H187	0.236100	0.481200	0.928600
H1881	H188	0.206000	0.459300	0.900900
C1021	C102	0.295800	0.394410	0.910460
H1891	H189	0.262800	0.374200	0.906500
H1901	H190	0.301100	0.397200	0.931000
H1911	H191	0.326600	0.375700	0.902000
C1031	C103	0.458100	0.421500	0.803410
C1041	C104	0.499600	0.379900	0.810090
H1921	H192	0.487100	0.359200	0.827000
C1051	C105	0.552300	0.401200	0.816190
C1061	C106	0.471100	0.456600	0.777770
H1931	H193	0.442400	0.483000	0.775000
H1941	H194	0.474100	0.433800	0.760900
H1951	H195	0.505300	0.475300	0.781000
C1071	C107	0.448600	0.457200	0.830430
H1961	H196	0.422100	0.485300	0.826100
H1971	H197	0.482600	0.474000	0.836100
H1981	H198	0.435100	0.434700	0.845900
C1081	C108	0.367270	0.225400	0.732860
C1091	C109	0.420200	0.243100	0.719110
H1991	H199	0.411800	0.274900	0.706900
C1101	C110	0.053900	0.701500	0.549580
C1111	C111	0.374700	0.178000	0.751260
H2001	H200	0.403400	0.185200	0.764900
H2011	H201	0.384400	0.146800	0.739700
H2021	H202	0.341100	0.170500	0.761400
C1121	C112	0.326100	0.219100	0.711690
H2031	H203	0.323400	0.252200	0.700500
H2041	H204	0.291500	0.212000	0.720900
H2051	H205	0.335300	0.188900	0.699300
C1131	C113	0.345130	0.212700	0.848780
C1141	C114	0.347500	0.205000	0.880200
H2061	H206	0.363200	0.239100	0.887900
C1151	C115	0.384500	0.161800	0.889300
C1161	C116	0.322500	0.159100	0.834540
H2071	H207	0.321100	0.163800	0.814000
H2081	H208	0.286300	0.151800	0.841700
H2091	H209	0.346300	0.128900	0.839200
C1171	C117	0.401700	0.226100	0.835770
H2101	H210	0.398300	0.230000	0.815200
H2111	H211	0.426900	0.196800	0.840100
H2121	H212	0.415200	0.259700	0.843900
C1181	C118	0.124900	0.311550	0.886500
C1191	C119	0.119700	0.254600	0.895970
H2131	H213	0.105600	0.234200	0.879300
C1201	C120	0.080500	0.241500	0.921180
C1211	C121	0.143700	0.345500	0.909080
H2141	H214	0.145100	0.382900	0.902500
H2151	H215	0.179800	0.333900	0.914900
H2161	H216	0.119000	0.342700	0.925200
C1221	C122	0.064400	0.327000	0.874610
H2171	H217	0.054500	0.302300	0.859300
H2181	H218	0.064600	0.364000	0.867400
H2191	H219	0.038200	0.324000	0.890000
O581	O58	0.418160	0.348140	0.879950
O591	O59	0.081230	0.570010	0.563180
O601	O60	0.159100	0.590900	0.584760
C1231	C123	0.130810	0.566600	0.563820
C1241	C124	0.163500	0.546300	0.535740
H2201	H220	0.202300	0.546500	0.539700
H2211	H221	0.155800	0.570600	0.519900
H2221	H222	0.152100	0.509800	0.530800
O611	O61	0.996890	0.611440	0.647570
O621	O62	0.984720	0.610550	0.585800
O631	O63	0.158690	0.688240	0.621560
O641	O64	0.043100	0.714190	0.631340
La61	La6	0.159390	0.225490	0.989700
La71	La7	0.109150	0.952480	0.771270
La81	La8	0.066780	0.969940	0.791730
O651	O65	0.053900	0.872000	0.768500
O661	O66	0.146000	0.989700	0.826740
Ag171	Ag17	0.844500	0.217200	0.477890
Ag181	Ag18	0.890410	0.350820	0.498730
Ag191	Ag19	0.002970	0.314540	0.536830
Ag201	Ag20	0.943570	0.175370	0.522390
Ag211	Ag21	0.764200	0.228630	0.539250
Ag221	Ag22	0.784770	0.375060	0.560080
Ag231	Ag23	0.907780	0.302430	0.594060
Ag241	Ag24	0.860210	0.153430	0.593650
Pd131	Pd13	0.003990	0.258740	0.454440
Pd141	Pd14	0.727650	0.334990	0.478660
Pd151	Pd15	0.929930	0.455080	0.562370
Pd161	Pd16	0.024210	0.188480	0.595860
Pd171	Pd17	0.816540	0.073710	0.519380
Pd181	Pd18	0.752910	0.264830	0.622900
Br31	Br3	0.875650	0.264450	0.539050
La91	La9	0.122620	0.423370	0.362760
S251	S25	0.942080	0.198840	0.469610
S261	S26	0.985430	0.326660	0.485040
S271	S27	0.813350	0.311020	0.470050
S281	S28	0.728210	0.319840	0.526090
S291	S29	0.863400	0.419830	0.534420
S301	S30	0.968610	0.375380	0.574500
S311	S31	0.019930	0.217520	0.550610
S321	S32	0.939980	0.210500	0.608980
S331	S33	0.884370	0.106910	0.546940
S341	S34	0.784840	0.153900	0.504060
S351	S35	0.769570	0.199450	0.590330
S361	S36	0.811660	0.327130	0.606530
O671	O67	0.048530	0.109150	0.399510
O681	O68	0.964400	0.093770	0.383210
O691	O69	0.107270	0.387250	0.411690
O701	O70	0.125900	0.435700	0.448270
O711	O71	0.737520	0.374970	0.380810
O721	O72	0.777200	0.297900	0.372790
O731	O73	0.543700	0.359100	0.493830
O741	O74	0.558000	0.402300	0.538350
O751	O75	0.861000	0.613430	0.524430
O761	O76	0.779600	0.589100	0.526610
O771	O77	0.025050	0.433720	0.368670
O781	O78	0.963930	0.372360	0.356550
O791	O79	0.197850	0.137520	0.564730
O801	O80	0.209560	0.213460	0.542890
O811	O81	0.047850	0.171860	0.692230
O821	O82	0.969290	0.135900	0.701420
O831	O83	0.910900	0.915440	0.545810
O841	O84	0.914200	0.938100	0.590100
O851	O85	0.178160	0.488940	0.291240
O861	O86	0.189940	0.422790	0.322700
O871	O87	0.618120	0.142790	0.646870
O881	O88	0.661560	0.067800	0.639920
O891	O89	0.735000	0.394610	0.694360
O901	O90	0.744110	0.465660	0.668800
N251	N25	0.018500	0.204760	0.424270
H2231	H223	0.024500	0.222900	0.407600
H2241	H224	0.049800	0.186800	0.428800
N261	N26	0.064320	0.308790	0.439610
H2251	H225	0.095800	0.289400	0.438900
H2261	H226	0.055900	0.318700	0.421400
N271	N27	0.719920	0.341100	0.434530
H2271	H227	0.688000	0.325600	0.429000
H2281	H228	0.718800	0.376900	0.429500
N281	N28	0.650600	0.367800	0.484990
H2291	H229	0.648400	0.400800	0.476300
H2301	H230	0.625100	0.345600	0.477000
N291	N29	0.894780	0.526470	0.554350
H2311	H231	0.891100	0.544700	0.571200
H2321	H232	0.917500	0.546300	0.543000
N301	N30	0.990620	0.488290	0.585610
H2331	H233	0.999000	0.521300	0.578000
H2341	H234	0.978300	0.494000	0.603700
N311	N31	0.102770	0.172300	0.587460
H2351	H235	0.122800	0.180500	0.603300
H2361	H236	0.106200	0.135900	0.584300
N321	N32	0.032650	0.163000	0.637640
H2371	H237	0.047700	0.129100	0.637700
H2381	H238	0.056100	0.185800	0.646800
N331	N33	0.840320	0.997440	0.534620
H2391	H239	0.810200	0.978600	0.540000
H2401	H240	0.856500	0.978700	0.520100
N341	N34	0.761070	0.039620	0.490090
H2411	H241	0.777100	0.011200	0.480900
H2421	H242	0.731700	0.026600	0.499800
N351	N35	0.703990	0.209860	0.640370
H2431	H243	0.711100	0.209300	0.659500
H2441	H244	0.669300	0.222200	0.638300
N361	N36	0.731740	0.320130	0.651660
H2451	H245	0.694800	0.321700	0.652400
H2461	H246	0.743600	0.308900	0.669100
C1251	C125	0.957800	0.138200	0.446670
C1261	C126	0.975200	0.163900	0.419320
H2471	H247	0.943600	0.181200	0.409900
C1271	C127	0.001200	0.116700	0.398220
C1281	C128	0.996000	0.104300	0.459670
H2481	H248	0.980700	0.089200	0.477100
H2491	H249	0.028300	0.125100	0.464300
H2501	H250	0.005400	0.075000	0.446700
C1291	C129	0.904600	0.107900	0.440440
H2511	H251	0.878900	0.132500	0.431500
H2521	H252	0.889500	0.094200	0.458200
H2531	H253	0.911900	0.077700	0.427600
C1301	C130	0.022800	0.382100	0.466460
C1311	C131	0.073960	0.357740	0.456160
H2541	H254	0.096600	0.348200	0.472900
C1321	C132	0.105200	0.395500	0.437590
C1331	C133	0.986900	0.398700	0.440600
H2551	H255	0.953300	0.414800	0.447500
H2561	H256	0.978600	0.366800	0.429200
H2571	H257	0.006200	0.425000	0.429000
C1341	C134	0.028700	0.426300	0.489580
H2581	H258	0.993000	0.440300	0.494500
H2591	H259	0.051100	0.455700	0.482300
H2601	H260	0.045600	0.410800	0.506400
C1351	C135	0.819000	0.331000	0.431560
C1361	C136	0.765400	0.314400	0.419200
H2611	H261	0.761300	0.274400	0.420100
C1371	C137	0.756200	0.335200	0.387360
C1381	C138	0.828600	0.392650	0.430160
H2621	H262	0.798100	0.411400	0.438900
H2631	H263	0.832000	0.403800	0.410300
H2641	H264	0.861700	0.401700	0.440400
C1391	C139	0.863500	0.301500	0.419320
H2651	H265	0.897400	0.314000	0.427600
H2661	H266	0.864200	0.307400	0.398800
H2671	H267	0.859000	0.263000	0.423200
C1401	C140	0.655000	0.324600	0.532460
C1411	C141	0.639400	0.373900	0.516210
H2681	H268	0.656800	0.407000	0.524100
C1421	C142	0.574100	0.378900	0.516060
C1431	C143	0.628900	0.268500	0.522040
H2691	H269	0.633600	0.264900	0.501500
H2701	H270	0.590500	0.268100	0.526600
H2711	H271	0.646900	0.238500	0.531600
C1441	C144	0.647200	0.329000	0.561600
H2721	H272	0.658700	0.295600	0.570800
H2731	H273	0.609000	0.335300	0.565500
H2741	H274	0.668500	0.359200	0.568900
C1451	C145	0.841200	0.482700	0.516720
C1461	C146	0.840800	0.523780	0.540300
H2751	H275	0.812900	0.513800	0.554600
C1471	C147	0.827800	0.577000	0.528130
C1481	C148	0.882200	0.494100	0.494040
H2761	H276	0.916800	0.502700	0.502900
H2771	H277	0.870200	0.524700	0.482600
H2781	H278	0.886200	0.462300	0.481900
C1491	C149	0.787500	0.467600	0.502490
H2791	H279	0.761000	0.458200	0.517000
H2801	H280	0.793000	0.436800	0.489900
H2811	H281	0.774300	0.498300	0.491500
C1501	C150	0.024000	0.399800	0.598490
C1511	C151	0.039300	0.456610	0.587130
H2821	H282	0.055300	0.453200	0.567800
C1521	C152	0.988500	0.420300	0.357120
C1531	C153	0.003200	0.402700	0.629280
H2831	H283	0.994200	0.366400	0.635900
H2841	H284	0.971000	0.425400	0.630000
H2851	H285	0.031200	0.418200	0.641500
C1541	C154	0.064600	0.355500	0.597160
H2861	H286	0.049300	0.322700	0.605400
H2871	H287	0.096800	0.366000	0.607800
H2881	H288	0.074400	0.348800	0.577400
C1551	C155	0.088800	0.194800	0.537220
C1561	C156	0.126400	0.202300	0.562320
H2891	H289	0.128600	0.241500	0.567000
C1571	C157	0.181100	0.182200	0.555610
C1581	C158	0.081500	0.132460	0.529890
H2901	H290	0.072300	0.112700	0.547200
H2911	H291	0.115200	0.118300	0.522100
H2921	H292	0.052600	0.128200	0.516000
C1591	C159	0.102000	0.224500	0.511600
H2931	H293	0.075700	0.216000	0.496800
H2941	H294	0.138100	0.214500	0.505200
H2951	H295	0.101000	0.263200	0.515600
C1601	C160	0.948100	0.208500	0.648410
C1611	C161	0.983300	0.161400	0.652960
H2961	H296	0.963200	0.127700	0.648100
C1621	C162	0.007900	0.156600	0.684670
C1631	C163	0.979000	0.262500	0.657870
H2971	H297	0.015400	0.262400	0.649900
H2981	H298	0.981200	0.263900	0.678600
H2991	H299	0.959300	0.294000	0.650900
C1641	C164	0.894410	0.204200	0.660460
H3001	H300	0.874200	0.237200	0.656500
H3011	H301	0.897200	0.198900	0.681000
H3021	H302	0.875700	0.173400	0.652000
C1651	C165	0.921500	0.041900	0.553410
C1661	C166	0.879900	0.000400	0.560090
H3031	H303	0.859200	0.012900	0.577000
C1671	C167	0.901200	0.947700	0.566190
C1681	C168	0.956600	0.028900	0.527770
H3041	H304	0.983000	0.057600	0.525000
H3051	H305	0.933800	0.025900	0.510900
H3061	H306	0.975300	0.994700	0.531000
C1691	C169	0.957200	0.051400	0.580430
H3071	H307	0.985300	0.077900	0.576100
H3081	H308	0.974000	0.017400	0.586100
H3091	H309	0.934700	0.064900	0.595900
C1701	C170	0.725400	0.132730	0.482860
C1711	C171	0.743100	0.079800	0.469110
H3101	H310	0.774900	0.088200	0.456900
C1721	C172	0.201500	0.446100	0.299580
C1731	C173	0.678000	0.125300	0.501260
H3111	H311	0.685200	0.096600	0.514900
H3121	H312	0.646800	0.115600	0.489700
H3131	H313	0.670500	0.158900	0.511400
C1741	C174	0.719100	0.173900	0.461690
H3141	H314	0.752200	0.176600	0.450500
H3151	H315	0.712000	0.208500	0.470900
H3161	H316	0.688900	0.164700	0.449300
C1751	C175	0.712700	0.154870	0.598780
C1761	C176	0.705000	0.152500	0.630200
H3171	H317	0.739100	0.136800	0.637900
C1771	C177	0.661800	0.115500	0.639300
C1781	C178	0.659100	0.177500	0.584540
H3181	H318	0.663800	0.178900	0.564000
H3191	H319	0.651800	0.213700	0.591700
H3201	H320	0.628900	0.153700	0.589200
C1791	C179	0.726100	0.098300	0.585770
H3211	H321	0.730000	0.101700	0.565200
H3221	H322	0.696800	0.073100	0.590100
H3231	H323	0.759700	0.084800	0.593900
C1801	C180	0.811550	0.375100	0.636500
C1811	C181	0.754600	0.380300	0.645970
H3241	H324	0.734200	0.394400	0.629300
C1821	C182	0.741500	0.419500	0.671180
C1831	C183	0.845500	0.356300	0.659080
H3251	H325	0.882900	0.354900	0.652500
H3261	H326	0.833900	0.320200	0.664900
H3271	H327	0.842700	0.381000	0.675200
C1841	C184	0.827000	0.435600	0.624610
H3281	H328	0.802300	0.445500	0.609300
H3291	H329	0.864000	0.435400	0.617400
H3301	H330	0.824000	0.461800	0.640000
O911	O91	0.848140	0.081840	0.629950
O921	O92	0.070010	0.418770	0.313180
O931	O93	0.090900	0.340900	0.334760
C1851	C185	0.066600	0.369190	0.313820
C1861	C186	0.046300	0.336500	0.285740
H3311	H331	0.046500	0.297700	0.289700
H3321	H332	0.070600	0.344200	0.269900
H3331	H333	0.009800	0.347900	0.280800
O941	O94	0.111440	0.503110	0.397570
O951	O95	0.110550	0.515280	0.335800
O961	O96	0.188240	0.341310	0.371560
O971	O97	0.214190	0.456900	0.381340
La101	La10	0.725490	0.340610	0.739700
La111	La11	0.452480	0.390850	0.521270
La121	La12	0.469940	0.433220	0.541730
O981	O98	0.372000	0.446100	0.518500
O991	O99	0.489700	0.354000	0.576740
Ag251	Ag25	0.155500	0.782800	0.977890
Ag261	Ag26	0.109590	0.649180	0.998730
Ag271	Ag27	0.997030	0.685460	0.036830
Ag281	Ag28	0.056430	0.824630	0.022390
Ag291	Ag29	0.235800	0.771370	0.039250
Ag301	Ag30	0.215230	0.624940	0.060080
Ag311	Ag31	0.092220	0.697570	0.094060
Ag321	Ag32	0.139790	0.846570	0.093650
Pd191	Pd19	0.996010	0.741260	0.954440
Pd201	Pd20	0.272350	0.665010	0.978660
Pd211	Pd21	0.070070	0.544920	0.062370
Pd221	Pd22	0.975790	0.811520	0.095860
Pd231	Pd23	0.183460	0.926290	0.019380
Pd241	Pd24	0.247090	0.735170	0.122900
Br41	Br4	0.124350	0.735550	0.039050
La131	La13	0.877380	0.576630	0.862760
S371	S37	0.057920	0.801160	0.969610
S381	S38	0.014570	0.673340	0.985040
S391	S39	0.186650	0.688980	0.970050
S401	S40	0.271790	0.680160	0.026090
S411	S41	0.136600	0.580170	0.034420
S421	S42	0.031390	0.624620	0.074500
S431	S43	0.980070	0.782480	0.050610
S441	S44	0.060020	0.789500	0.108980
S451	S45	0.115630	0.893090	0.046940
S461	S46	0.215160	0.846100	0.004060
S471	S47	0.230430	0.800550	0.090330
S481	S48	0.188340	0.672870	0.106530
O1001	O100	0.951470	0.890850	0.899510
O1011	O101	0.035600	0.906230	0.883210
O1021	O102	0.892730	0.612750	0.911690
O1031	O103	0.874100	0.564300	0.948270
O1041	O104	0.262480	0.625030	0.880810
O1051	O105	0.222800	0.702100	0.872790
O1061	O106	0.456300	0.640900	0.993830
O1071	O107	0.442000	0.597700	0.038350
O1081	O108	0.139000	0.386570	0.024430
O1091	O109	0.220400	0.410900	0.026610
O1101	O110	0.974950	0.566280	0.868670
O1111	O111	0.036070	0.627640	0.856550
O1121	O112	0.802150	0.862480	0.064730
O1131	O113	0.790440	0.786540	0.042890
O1141	O114	0.952150	0.828140	0.192230
O1151	O115	0.030710	0.864100	0.201420
O1161	O116	0.089100	0.084560	0.045810
O1171	O117	0.085800	0.061900	0.090100
O1181	O118	0.821840	0.511060	0.791240
O1191	O119	0.810060	0.577210	0.822700
O1201	O120	0.381880	0.857210	0.146870
O1211	O121	0.338440	0.932200	0.139920
O1221	O122	0.265000	0.605390	0.194360
O1231	O123	0.255890	0.534340	0.168800
N371	N37	0.981500	0.795240	0.924270
H3341	H334	0.975500	0.777100	0.907600
H3351	H335	0.950200	0.813200	0.928800
N381	N38	0.935680	0.691210	0.939610
H3361	H336	0.904200	0.710600	0.938900
H3371	H337	0.944100	0.681300	0.921400
N391	N39	0.280080	0.658900	0.934530
H3381	H338	0.312000	0.674400	0.929000
H3391	H339	0.281200	0.623100	0.929500
N401	N40	0.349400	0.632200	0.984990
H3401	H340	0.351600	0.599200	0.976300
H3411	H341	0.374900	0.654400	0.977000
N411	N41	0.105220	0.473530	0.054350
H3421	H342	0.108900	0.455300	0.071200
H3431	H343	0.082500	0.453700	0.043000
N421	N42	0.009380	0.511710	0.085610
H3441	H344	0.001000	0.478700	0.078000
H3451	H345	0.021700	0.506000	0.103700
N431	N43	0.897230	0.827700	0.087460
H3461	H346	0.877200	0.819500	0.103300
H3471	H347	0.893800	0.864100	0.084300
N441	N44	0.967350	0.837000	0.137640
H3481	H348	0.952300	0.870900	0.137700
H3491	H349	0.943900	0.814200	0.146800
N451	N45	0.159680	0.002560	0.034620
H3501	H350	0.189800	0.021400	0.040000
H3511	H351	0.143500	0.021300	0.020100
N461	N46	0.238930	0.960380	0.990090
H3521	H352	0.222900	0.988800	0.980900
H3531	H353	0.268300	0.973400	0.999800
N471	N47	0.296010	0.790140	0.140370
H3541	H354	0.288900	0.790700	0.159500
H3551	H355	0.330700	0.777800	0.138300
N481	N48	0.268260	0.679870	0.151660
H3561	H356	0.305200	0.678300	0.152400
H3571	H357	0.256400	0.691100	0.169100
C1871	C187	0.042200	0.861800	0.946670
C1881	C188	0.024800	0.836100	0.919320
H3581	H358	0.056400	0.818800	0.909900
C1891	C189	0.998800	0.883300	0.898220
C1901	C190	0.004000	0.895700	0.959670
H3591	H359	0.019300	0.910800	0.977100
H3601	H360	0.971700	0.874900	0.964300
H3611	H361	0.994600	0.925000	0.946700
C1911	C191	0.095400	0.892100	0.940440
H3621	H362	0.121100	0.867500	0.931500
H3631	H363	0.110500	0.905800	0.958200
H3641	H364	0.088100	0.922300	0.927600
C1921	C192	0.977200	0.617900	0.966460
C1931	C193	0.926040	0.642260	0.956160
H3651	H365	0.903400	0.651800	0.972900
C1941	C194	0.894800	0.604500	0.937590
C1951	C195	0.013100	0.601300	0.940600
H3661	H366	0.046700	0.585200	0.947500
H3671	H367	0.021400	0.633200	0.929200
H3681	H368	0.993800	0.575000	0.929000
C1961	C196	0.971300	0.573700	0.989580
H3691	H369	0.007000	0.559700	0.994500
H3701	H370	0.948900	0.544300	0.982300
H3711	H371	0.954400	0.589200	0.006400
C1971	C197	0.181000	0.669000	0.931560
C1981	C198	0.234600	0.685600	0.919200
H3721	H372	0.238700	0.725600	0.920100
C1991	C199	0.243800	0.664800	0.887360
C2001	C200	0.171400	0.607350	0.930160
H3731	H373	0.201900	0.588600	0.938900
H3741	H374	0.168000	0.596200	0.910300
H3751	H375	0.138300	0.598300	0.940400
C2011	C201	0.136500	0.698500	0.919320
H3761	H376	0.102600	0.686000	0.927600
H3771	H377	0.135800	0.692600	0.898800
H3781	H378	0.141000	0.737000	0.923200
C2021	C202	0.345000	0.675400	0.032460
C2031	C203	0.360600	0.626100	0.016210
H3791	H379	0.343200	0.593000	0.024100
C2041	C204	0.425900	0.621100	0.016060
C2051	C205	0.371100	0.731500	0.022040
H3801	H380	0.366400	0.735100	0.001500
H3811	H381	0.409500	0.731900	0.026600
H3821	H382	0.353100	0.761500	0.031600
C2061	C206	0.352800	0.671000	0.061600
H3831	H383	0.341300	0.704400	0.070800
H3841	H384	0.391000	0.664700	0.065500
H3851	H385	0.331500	0.640800	0.068900
C2071	C207	0.158800	0.517300	0.016720
C2081	C208	0.159200	0.476220	0.040300
H3861	H386	0.187100	0.486200	0.054600
C2091	C209	0.172200	0.423000	0.028130
C2101	C210	0.117800	0.505900	0.994040
H3871	H387	0.083200	0.497300	0.002900
H3881	H388	0.129800	0.475300	0.982600
H3891	H389	0.113800	0.537700	0.981900
C2111	C211	0.212500	0.532400	0.002490
H3901	H390	0.239000	0.541800	0.017000
H3911	H391	0.207000	0.563200	0.989900
H3921	H392	0.225700	0.501700	0.991500
C2121	C212	0.976000	0.600200	0.098490
C2131	C213	0.960700	0.543390	0.087130
H3931	H393	0.944700	0.546800	0.067800
C2141	C214	0.011500	0.579700	0.857120
C2151	C215	0.996800	0.597300	0.129280
H3941	H394	0.005800	0.633600	0.135900
H3951	H395	0.029000	0.574600	0.130000
H3961	H396	0.968800	0.581800	0.141500
C2161	C216	0.935400	0.644500	0.097160
H3971	H397	0.950700	0.677300	0.105400
H3981	H398	0.903200	0.634000	0.107800
H3991	H399	0.925600	0.651200	0.077400
C2171	C217	0.911200	0.805200	0.037220
C2181	C218	0.873600	0.797700	0.062320
H4001	H400	0.871400	0.758500	0.067000
C2191	C219	0.818900	0.817800	0.055610
C2201	C220	0.918500	0.867540	0.029890
H4011	H401	0.927700	0.887300	0.047200
H4021	H402	0.884800	0.881700	0.022100
H4031	H403	0.947400	0.871800	0.016000
C2211	C221	0.898000	0.775500	0.011600
H4041	H404	0.924300	0.784000	0.996800
H4051	H405	0.861900	0.785500	0.005200
H4061	H406	0.899000	0.736800	0.015600
C2221	C222	0.051900	0.791500	0.148410
C2231	C223	0.016700	0.838600	0.152960
H4071	H407	0.036800	0.872300	0.148100
C2241	C224	0.992100	0.843400	0.184670
C2251	C225	0.021000	0.737500	0.157870
H4081	H408	0.984600	0.737600	0.149900
H4091	H409	0.018800	0.736100	0.178600
H4101	H410	0.040700	0.706000	0.150900
C2261	C226	0.105590	0.795800	0.160460
H4111	H411	0.125800	0.762800	0.156500
H4121	H412	0.102800	0.801100	0.181000
H4131	H413	0.124300	0.826600	0.152000
C2271	C227	0.078500	0.958100	0.053410
C2281	C228	0.120100	0.999600	0.060090
H4141	H414	0.140800	0.987100	0.077000
C2291	C229	0.098800	0.052300	0.066190
C2301	C230	0.043400	0.971100	0.027770
H4151	H415	0.017000	0.942400	0.025000
H4161	H416	0.066200	0.974100	0.010900
H4171	H417	0.024700	0.005300	0.031000
C2311	C231	0.042800	0.948600	0.080430
H4181	H418	0.014700	0.922100	0.076100
H4191	H419	0.026000	0.982600	0.086100
H4201	H420	0.065300	0.935100	0.095900
C2321	C232	0.274600	0.867270	0.982860
C2331	C233	0.256900	0.920200	0.969110
H4211	H421	0.225100	0.911800	0.956900
C2341	C234	0.798500	0.553900	0.799580
C2351	C235	0.322000	0.874700	0.001260
H4221	H422	0.314800	0.903400	0.014900
H4231	H423	0.353200	0.884400	0.989700
H4241	H424	0.329500	0.841100	0.011400
C2361	C236	0.280900	0.826100	0.961690
H4251	H425	0.247800	0.823400	0.950500
H4261	H426	0.288000	0.791500	0.970900
H4271	H427	0.311100	0.835300	0.949300
C2371	C237	0.287300	0.845130	0.098780
C2381	C238	0.295000	0.847500	0.130200
H4281	H428	0.260900	0.863200	0.137900
C2391	C239	0.338200	0.884500	0.139300
C2401	C240	0.340900	0.822500	0.084540
H4291	H429	0.336200	0.821100	0.064000
H4301	H430	0.348200	0.786300	0.091700
H4311	H431	0.371100	0.846300	0.089200
C2411	C241	0.273900	0.901700	0.085770
H4321	H432	0.270000	0.898300	0.065200
H4331	H433	0.303200	0.926900	0.090100
H4341	H434	0.240300	0.915200	0.093900
C2421	C242	0.188450	0.624900	0.136500
C2431	C243	0.245400	0.619700	0.145970
H4351	H435	0.265800	0.605600	0.129300
C2441	C244	0.258500	0.580500	0.171180
C2451	C245	0.154500	0.643700	0.159080
H4361	H436	0.117100	0.645100	0.152500
H4371	H437	0.166100	0.679800	0.164900
H4381	H438	0.157300	0.619000	0.175200
C2461	C246	0.173000	0.564400	0.124610
H4391	H439	0.197700	0.554500	0.109300
H4401	H440	0.136000	0.564600	0.117400
H4411	H441	0.176000	0.538200	0.140000
O1241	O124	0.151860	0.918160	0.129950
O1251	O125	0.929990	0.581230	0.813180
O1261	O126	0.909100	0.659100	0.834760
C2471	C247	0.933400	0.630810	0.813820
C2481	C248	0.953700	0.663500	0.785740
H4421	H442	0.953500	0.702300	0.789700
H4431	H443	0.929400	0.655800	0.769900
H4441	H444	0.990200	0.652100	0.780800
O1271	O127	0.888560	0.496890	0.897570
O1281	O128	0.889450	0.484720	0.835800
O1291	O129	0.811760	0.658690	0.871560
O1301	O130	0.785810	0.543100	0.881340
La141	La14	0.274510	0.659390	0.239700
La151	La15	0.547520	0.609150	0.021270
La161	La16	0.530060	0.566780	0.041730
O1311	O131	0.628000	0.553900	0.018500
O1321	O132	0.510300	0.646000	0.076740
Ag331	Ag33	0.782800	0.155500	0.022110
Ag341	Ag34	0.649180	0.109590	0.001270
Ag351	Ag35	0.685460	0.997030	0.963170
Ag361	Ag36	0.824630	0.056430	0.977610
Ag371	Ag37	0.771370	0.235800	0.960750
Ag381	Ag38	0.624940	0.215230	0.939920
Ag391	Ag39	0.697570	0.092220	0.905940
Ag401	Ag40	0.846570	0.139790	0.906350
Pd251	Pd25	0.741260	0.996010	0.045560
Pd261	Pd26	0.665010	0.272350	0.021340
Pd271	Pd27	0.544920	0.070070	0.937630
Pd281	Pd28	0.811520	0.975790	0.904140
Pd291	Pd29	0.926290	0.183460	0.980620
Pd301	Pd30	0.735170	0.247090	0.877100
Br51	Br5	0.735550	0.124350	0.960950
La171	La17	0.576630	0.877380	0.137240
S491	S49	0.801160	0.057920	0.030390
S501	S50	0.673340	0.014570	0.014960
S511	S51	0.688980	0.186650	0.029950
S521	S52	0.680160	0.271790	0.973910
S531	S53	0.580170	0.136600	0.965580
S541	S54	0.624620	0.031390	0.925500
S551	S55	0.782480	0.980070	0.949390
S561	S56	0.789500	0.060020	0.891020
S571	S57	0.893090	0.115630	0.953060
S581	S58	0.846100	0.215160	0.995940
S591	S59	0.800550	0.230430	0.909670
S601	S60	0.672870	0.188340	0.893470
O1331	O133	0.890850	0.951470	0.100490
O1341	O134	0.906230	0.035600	0.116790
O1351	O135	0.612750	0.892730	0.088310
O1361	O136	0.564300	0.874100	0.051730
O1371	O137	0.625030	0.262480	0.119190
O1381	O138	0.702100	0.222800	0.127210
O1391	O139	0.640900	0.456300	0.006170
O1401	O140	0.597700	0.442000	0.961650
O1411	O141	0.386570	0.139000	0.975570
O1421	O142	0.410900	0.220400	0.973390
O1431	O143	0.566280	0.974950	0.131330
O1441	O144	0.627640	0.036070	0.143450
O1451	O145	0.862480	0.802150	0.935270
O1461	O146	0.786540	0.790440	0.957110
O1471	O147	0.828140	0.952150	0.807770
O1481	O148	0.864100	0.030710	0.798580
O1491	O149	0.084560	0.089100	0.954190
O1501	O150	0.061900	0.085800	0.909900
O1511	O151	0.511060	0.821840	0.208760
O1521	O152	0.577210	0.810060	0.177300
O1531	O153	0.857210	0.381880	0.853130
O1541	O154	0.932200	0.338440	0.860080
O1551	O155	0.605390	0.265000	0.805640
O1561	O156	0.534340	0.255890	0.831200
N491	N49	0.795240	0.981500	0.075730
H4451	H445	0.777100	0.975500	0.092400
H4461	H446	0.813200	0.950200	0.071200
N501	N50	0.691210	0.935680	0.060390
H4471	H447	0.710600	0.904200	0.061100
H4481	H448	0.681300	0.944100	0.078600
N511	N51	0.658900	0.280080	0.065470
H4491	H449	0.674400	0.312000	0.071000
H4501	H450	0.623100	0.281200	0.070500
N521	N52	0.632200	0.349400	0.015010
H4511	H451	0.599200	0.351600	0.023700
H4521	H452	0.654400	0.374900	0.023000
N531	N53	0.473530	0.105220	0.945650
H4531	H453	0.455300	0.108900	0.928800
H4541	H454	0.453700	0.082500	0.957000
N541	N54	0.511710	0.009380	0.914390
H4551	H455	0.478700	0.001000	0.922000
H4561	H456	0.506000	0.021700	0.896300
N551	N55	0.827700	0.897230	0.912540
H4571	H457	0.819500	0.877200	0.896700
H4581	H458	0.864100	0.893800	0.915700
N561	N56	0.837000	0.967350	0.862360
H4591	H459	0.870900	0.952300	0.862300
H4601	H460	0.814200	0.943900	0.853200
N571	N57	0.002560	0.159680	0.965380
H4611	H461	0.021400	0.189800	0.960000
H4621	H462	0.021300	0.143500	0.979900
N581	N58	0.960380	0.238930	0.009910
H4631	H463	0.988800	0.222900	0.019100
H4641	H464	0.973400	0.268300	0.000200
N591	N59	0.790140	0.296010	0.859630
H4651	H465	0.790700	0.288900	0.840500
H4661	H466	0.777800	0.330700	0.861700
N601	N60	0.679870	0.268260	0.848340
H4671	H467	0.678300	0.305200	0.847600
H4681	H468	0.691100	0.256400	0.830900
C2491	C249	0.861800	0.042200	0.053330
C2501	C250	0.836100	0.024800	0.080680
H4691	H469	0.818800	0.056400	0.090100
C2511	C251	0.883300	0.998800	0.101780
C2521	C252	0.895700	0.004000	0.040330
H4701	H470	0.910800	0.019300	0.022900
H4711	H471	0.874900	0.971700	0.035700
H4721	H472	0.925000	0.994600	0.053300
C2531	C253	0.892100	0.095400	0.059560
H4731	H473	0.867500	0.121100	0.068500
H4741	H474	0.905800	0.110500	0.041800
H4751	H475	0.922300	0.088100	0.072400
C2541	C254	0.617900	0.977200	0.033540
C2551	C255	0.642260	0.926040	0.043840
H4761	H476	0.651800	0.903400	0.027100
C2561	C256	0.604500	0.894800	0.062410
C2571	C257	0.601300	0.013100	0.059400
H4771	H477	0.585200	0.046700	0.052500
H4781	H478	0.633200	0.021400	0.070800
H4791	H479	0.575000	0.993800	0.071000
C2581	C258	0.573700	0.971300	0.010420
H4801	H480	0.559700	0.007000	0.005500
H4811	H481	0.544300	0.948900	0.017700
H4821	H482	0.589200	0.954400	0.993600
C2591	C259	0.669000	0.181000	0.068440
C2601	C260	0.685600	0.234600	0.080800
H4831	H483	0.725600	0.238700	0.079900
C2611	C261	0.664800	0.243800	0.112640
C2621	C262	0.607350	0.171400	0.069840
H4841	H484	0.588600	0.201900	0.061100
H4851	H485	0.596200	0.168000	0.089700
H4861	H486	0.598300	0.138300	0.059600
C2631	C263	0.698500	0.136500	0.080680
H4871	H487	0.686000	0.102600	0.072400
H4881	H488	0.692600	0.135800	0.101200
H4891	H489	0.737000	0.141000	0.076800
C2641	C264	0.675400	0.345000	0.967540
C2651	C265	0.626100	0.360600	0.983790
H4901	H490	0.593000	0.343200	0.975900
C2661	C266	0.621100	0.425900	0.983940
C2671	C267	0.731500	0.371100	0.977960
H4911	H491	0.735100	0.366400	0.998500
H4921	H492	0.731900	0.409500	0.973400
H4931	H493	0.761500	0.353100	0.968400
C2681	C268	0.671000	0.352800	0.938400
H4941	H494	0.704400	0.341300	0.929200
H4951	H495	0.664700	0.391000	0.934500
H4961	H496	0.640800	0.331500	0.931100
C2691	C269	0.517300	0.158800	0.983280
C2701	C270	0.476220	0.159200	0.959700
H4971	H497	0.486200	0.187100	0.945400
C2711	C271	0.423000	0.172200	0.971870
C2721	C272	0.505900	0.117800	0.005960
H4981	H498	0.497300	0.083200	0.997100
H4991	H499	0.475300	0.129800	0.017400
H5001	H500	0.537700	0.113800	0.018100
C2731	C273	0.532400	0.212500	0.997510
H5011	H501	0.541800	0.239000	0.983000
H5021	H502	0.563200	0.207000	0.010100
H5031	H503	0.501700	0.225700	0.008500
C2741	C274	0.600200	0.976000	0.901510
C2751	C275	0.543390	0.960700	0.912870
H5041	H504	0.546800	0.944700	0.932200
C2761	C276	0.579700	0.011500	0.142880
C2771	C277	0.597300	0.996800	0.870720
H5051	H505	0.633600	0.005800	0.864100
H5061	H506	0.574600	0.029000	0.870000
H5071	H507	0.581800	0.968800	0.858500
C2781	C278	0.644500	0.935400	0.902840
H5081	H508	0.677300	0.950700	0.894600
H5091	H509	0.634000	0.903200	0.892200
H5101	H510	0.651200	0.925600	0.922600
C2791	C279	0.805200	0.911200	0.962780
C2801	C280	0.797700	0.873600	0.937680
H5111	H511	0.758500	0.871400	0.933000
C2811	C281	0.817800	0.818900	0.944390
C2821	C282	0.867540	0.918500	0.970110
H5121	H512	0.887300	0.927700	0.952800
H5131	H513	0.881700	0.884800	0.977900
H5141	H514	0.871800	0.947400	0.984000
C2831	C283	0.775500	0.898000	0.988400
H5151	H515	0.784000	0.924300	0.003200
H5161	H516	0.785500	0.861900	0.994800
H5171	H517	0.736800	0.899000	0.984400
C2841	C284	0.791500	0.051900	0.851590
C2851	C285	0.838600	0.016700	0.847040
H5181	H518	0.872300	0.036800	0.851900
C2861	C286	0.843400	0.992100	0.815330
C2871	C287	0.737500	0.021000	0.842130
H5191	H519	0.737600	0.984600	0.850100
H5201	H520	0.736100	0.018800	0.821400
H5211	H521	0.706000	0.040700	0.849100
C2881	C288	0.795800	0.105590	0.839540
H5221	H522	0.762800	0.125800	0.843500
H5231	H523	0.801100	0.102800	0.819000
H5241	H524	0.826600	0.124300	0.848000
C2891	C289	0.958100	0.078500	0.946590
C2901	C290	0.999600	0.120100	0.939910
H5251	H525	0.987100	0.140800	0.923000
C2911	C291	0.052300	0.098800	0.933810
C2921	C292	0.971100	0.043400	0.972230
H5261	H526	0.942400	0.017000	0.975000
H5271	H527	0.974100	0.066200	0.989100
H5281	H528	0.005300	0.024700	0.969000
C2931	C293	0.948600	0.042800	0.919570
H5291	H529	0.922100	0.014700	0.923900
H5301	H530	0.982600	0.026000	0.913900
H5311	H531	0.935100	0.065300	0.904100
C2941	C294	0.867270	0.274600	0.017140
C2951	C295	0.920200	0.256900	0.030890
H5321	H532	0.911800	0.225100	0.043100
C2961	C296	0.553900	0.798500	0.200420
C2971	C297	0.874700	0.322000	0.998740
H5331	H533	0.903400	0.314800	0.985100
H5341	H534	0.884400	0.353200	0.010300
H5351	H535	0.841100	0.329500	0.988600
C2981	C298	0.826100	0.280900	0.038310
H5361	H536	0.823400	0.247800	0.049500
H5371	H537	0.791500	0.288000	0.029100
H5381	H538	0.835300	0.311100	0.050700
C2991	C299	0.845130	0.287300	0.901220
C3001	C300	0.847500	0.295000	0.869800
H5391	H539	0.863200	0.260900	0.862100
C3011	C301	0.884500	0.338200	0.860700
C3021	C302	0.822500	0.340900	0.915460
H5401	H540	0.821100	0.336200	0.936000
H5411	H541	0.786300	0.348200	0.908300
H5421	H542	0.846300	0.371100	0.910800
C3031	C303	0.901700	0.273900	0.914230
H5431	H543	0.898300	0.270000	0.934800
H5441	H544	0.926900	0.303200	0.909900
H5451	H545	0.915200	0.240300	0.906100
C3041	C304	0.624900	0.188450	0.863500
C3051	C305	0.619700	0.245400	0.854030
H5461	H546	0.605600	0.265800	0.870700
C3061	C306	0.580500	0.258500	0.828820
C3071	C307	0.643700	0.154500	0.840920
H5471	H547	0.645100	0.117100	0.847500
H5481	H548	0.679800	0.166100	0.835100
H5491	H549	0.619000	0.157300	0.824800
C3081	C308	0.564400	0.173000	0.875390
H5501	H550	0.554500	0.197700	0.890700
H5511	H551	0.564600	0.136000	0.882600
H5521	H552	0.538200	0.176000	0.860000
O1571	O157	0.918160	0.151860	0.870050
O1581	O158	0.581230	0.929990	0.186820
O1591	O159	0.659100	0.909100	0.165240
C3091	C309	0.630810	0.933400	0.186180
C3101	C310	0.663500	0.953700	0.214260
H5531	H553	0.702300	0.953500	0.210300
H5541	H554	0.655800	0.929400	0.230100
H5551	H555	0.652100	0.990200	0.219200
O1601	O160	0.496890	0.888560	0.102430
O1611	O161	0.484720	0.889450	0.164200
O1621	O162	0.658690	0.811760	0.128440
O1631	O163	0.543100	0.785810	0.118660
La181	La18	0.659390	0.274510	0.760300
La191	La19	0.609150	0.547520	0.978730
La201	La20	0.566780	0.530060	0.958270
O1641	O164	0.553900	0.628000	0.981500
O1651	O165	0.646000	0.510300	0.923260
Ag411	Ag41	0.217200	0.844500	0.522110
Ag421	Ag42	0.350820	0.890410	0.501270
Ag431	Ag43	0.314540	0.002970	0.463170
Ag441	Ag44	0.175370	0.943570	0.477610
Ag451	Ag45	0.228630	0.764200	0.460750
Ag461	Ag46	0.375060	0.784770	0.439920
Ag471	Ag47	0.302430	0.907780	0.405940
Ag481	Ag48	0.153430	0.860210	0.406350
Pd311	Pd31	0.258740	0.003990	0.545560
Pd321	Pd32	0.334990	0.727650	0.521340
Pd331	Pd33	0.455080	0.929930	0.437630
Pd341	Pd34	0.188480	0.024210	0.404140
Pd351	Pd35	0.073710	0.816540	0.480620
Pd361	Pd36	0.264830	0.752910	0.377100
Br61	Br6	0.264450	0.875650	0.460950
La211	La21	0.423370	0.122620	0.637240
S611	S61	0.198840	0.942080	0.530390
S621	S62	0.326660	0.985430	0.514960
S631	S63	0.311020	0.813350	0.529950
S641	S64	0.319840	0.728210	0.473910
S651	S65	0.419830	0.863400	0.465580
S661	S66	0.375380	0.968610	0.425500
S671	S67	0.217520	0.019930	0.449390
S681	S68	0.210500	0.939980	0.391020
S691	S69	0.106910	0.884370	0.453060
S701	S70	0.153900	0.784840	0.495940
S711	S71	0.199450	0.769570	0.409670
S721	S72	0.327130	0.811660	0.393470
O1661	O166	0.109150	0.048530	0.600490
O1671	O167	0.093770	0.964400	0.616790
O1681	O168	0.387250	0.107270	0.588310
O1691	O169	0.435700	0.125900	0.551730
O1701	O170	0.374970	0.737520	0.619190
O1711	O171	0.297900	0.777200	0.627210
O1721	O172	0.359100	0.543700	0.506170
O1731	O173	0.402300	0.558000	0.461650
O1741	O174	0.613430	0.861000	0.475570
O1751	O175	0.589100	0.779600	0.473390
O1761	O176	0.433720	0.025050	0.631330
O1771	O177	0.372360	0.963930	0.643450
O1781	O178	0.137520	0.197850	0.435270
O1791	O179	0.213460	0.209560	0.457110
O1801	O180	0.171860	0.047850	0.307770
O1811	O181	0.135900	0.969290	0.298580
O1821	O182	0.915440	0.910900	0.454190
O1831	O183	0.938100	0.914200	0.409900
O1841	O184	0.488940	0.178160	0.708760
O1851	O185	0.422790	0.189940	0.677300
O1861	O186	0.142790	0.618120	0.353130
O1871	O187	0.067800	0.661560	0.360080
O1881	O188	0.394610	0.735000	0.305640
O1891	O189	0.465660	0.744110	0.331200
N611	N61	0.204760	0.018500	0.575730
H5561	H556	0.222900	0.024500	0.592400
H5571	H557	0.186800	0.049800	0.571200
N621	N62	0.308790	0.064320	0.560390
H5581	H558	0.289400	0.095800	0.561100
H5591	H559	0.318700	0.055900	0.578600
N631	N63	0.341100	0.719920	0.565470
H5601	H560	0.325600	0.688000	0.571000
H5611	H561	0.376900	0.718800	0.570500
N641	N64	0.367800	0.650600	0.515010
H5621	H562	0.400800	0.648400	0.523700
H5631	H563	0.345600	0.625100	0.523000
N651	N65	0.526470	0.894780	0.445650
H5641	H564	0.544700	0.891100	0.428800
H5651	H565	0.546300	0.917500	0.457000
N661	N66	0.488290	0.990620	0.414390
H5661	H566	0.521300	0.999000	0.422000
H5671	H567	0.494000	0.978300	0.396300
N671	N67	0.172300	0.102770	0.412540
H5681	H568	0.180500	0.122800	0.396700
H5691	H569	0.135900	0.106200	0.415700
N681	N68	0.163000	0.032650	0.362360
H5701	H570	0.129100	0.047700	0.362300
H5711	H571	0.185800	0.056100	0.353200
N691	N69	0.997440	0.840320	0.465380
H5721	H572	0.978600	0.810200	0.460000
H5731	H573	0.978700	0.856500	0.479900
N701	N70	0.039620	0.761070	0.509910
H5741	H574	0.011200	0.777100	0.519100
H5751	H575	0.026600	0.731700	0.500200
N711	N71	0.209860	0.703990	0.359630
H5761	H576	0.209300	0.711100	0.340500
H5771	H577	0.222200	0.669300	0.361700
N721	N72	0.320130	0.731740	0.348340
H5781	H578	0.321700	0.694800	0.347600
H5791	H579	0.308900	0.743600	0.330900
C3111	C311	0.138200	0.957800	0.553330
C3121	C312	0.163900	0.975200	0.580680
H5801	H580	0.181200	0.943600	0.590100
C3131	C313	0.116700	0.001200	0.601780
C3141	C314	0.104300	0.996000	0.540330
H5811	H581	0.089200	0.980700	0.522900
H5821	H582	0.125100	0.028300	0.535700
H5831	H583	0.075000	0.005400	0.553300
C3151	C315	0.107900	0.904600	0.559560
H5841	H584	0.132500	0.878900	0.568500
H5851	H585	0.094200	0.889500	0.541800
H5861	H586	0.077700	0.911900	0.572400
C3161	C316	0.382100	0.022800	0.533540
C3171	C317	0.357740	0.073960	0.543840
H5871	H587	0.348200	0.096600	0.527100
C3181	C318	0.395500	0.105200	0.562410
C3191	C319	0.398700	0.986900	0.559400
H5881	H588	0.414800	0.953300	0.552500
H5891	H589	0.366800	0.978600	0.570800
H5901	H590	0.425000	0.006200	0.571000
C3201	C320	0.426300	0.028700	0.510420
H5911	H591	0.440300	0.993000	0.505500
H5921	H592	0.455700	0.051100	0.517700
H5931	H593	0.410800	0.045600	0.493600
C3211	C321	0.331000	0.819000	0.568440
C3221	C322	0.314400	0.765400	0.580800
H5941	H594	0.274400	0.761300	0.579900
C3231	C323	0.335200	0.756200	0.612640
C3241	C324	0.392650	0.828600	0.569840
H5951	H595	0.411400	0.798100	0.561100
H5961	H596	0.403800	0.832000	0.589700
H5971	H597	0.401700	0.861700	0.559600
C3251	C325	0.301500	0.863500	0.580680
H5981	H598	0.314000	0.897400	0.572400
H5991	H599	0.307400	0.864200	0.601200
H6001	H600	0.263000	0.859000	0.576800
C3261	C326	0.324600	0.655000	0.467540
C3271	C327	0.373900	0.639400	0.483790
H6011	H601	0.407000	0.656800	0.475900
C3281	C328	0.378900	0.574100	0.483940
C3291	C329	0.268500	0.628900	0.477960
H6021	H602	0.264900	0.633600	0.498500
H6031	H603	0.268100	0.590500	0.473400
H6041	H604	0.238500	0.646900	0.468400
C3301	C330	0.329000	0.647200	0.438400
H6051	H605	0.295600	0.658700	0.429200
H6061	H606	0.335300	0.609000	0.434500
H6071	H607	0.359200	0.668500	0.431100
C3311	C331	0.482700	0.841200	0.483280
C3321	C332	0.523780	0.840800	0.459700
H6081	H608	0.513800	0.812900	0.445400
C3331	C333	0.577000	0.827800	0.471870
C3341	C334	0.494100	0.882200	0.505960
H6091	H609	0.502700	0.916800	0.497100
H6101	H610	0.524700	0.870200	0.517400
H6111	H611	0.462300	0.886200	0.518100
C3351	C335	0.467600	0.787500	0.497510
H6121	H612	0.458200	0.761000	0.483000
H6131	H613	0.436800	0.793000	0.510100
H6141	H614	0.498300	0.774300	0.508500
C3361	C336	0.399800	0.024000	0.401510
C3371	C337	0.456610	0.039300	0.412870
H6151	H615	0.453200	0.055300	0.432200
C3381	C338	0.420300	0.988500	0.642880
C3391	C339	0.402700	0.003200	0.370720
H6161	H616	0.366400	0.994200	0.364100
H6171	H617	0.425400	0.971000	0.370000
H6181	H618	0.418200	0.031200	0.358500
C3401	C340	0.355500	0.064600	0.402840
H6191	H619	0.322700	0.049300	0.394600
H6201	H620	0.366000	0.096800	0.392200
H6211	H621	0.348800	0.074400	0.422600
C3411	C341	0.194800	0.088800	0.462780
C3421	C342	0.202300	0.126400	0.437680
H6221	H622	0.241500	0.128600	0.433000
C3431	C343	0.182200	0.181100	0.444390
C3441	C344	0.132460	0.081500	0.470110
H6231	H623	0.112700	0.072300	0.452800
H6241	H624	0.118300	0.115200	0.477900
H6251	H625	0.128200	0.052600	0.484000
C3451	C345	0.224500	0.102000	0.488400
H6261	H626	0.216000	0.075700	0.503200
H6271	H627	0.214500	0.138100	0.494800
H6281	H628	0.263200	0.101000	0.484400
C3461	C346	0.208500	0.948100	0.351590
C3471	C347	0.161400	0.983300	0.347040
H6291	H629	0.127700	0.963200	0.351900
C3481	C348	0.156600	0.007900	0.315330
C3491	C349	0.262500	0.979000	0.342130
H6301	H630	0.262400	0.015400	0.350100
H6311	H631	0.263900	0.981200	0.321400
H6321	H632	0.294000	0.959300	0.349100
C3501	C350	0.204200	0.894410	0.339540
H6331	H633	0.237200	0.874200	0.343500
H6341	H634	0.198900	0.897200	0.319000
H6351	H635	0.173400	0.875700	0.348000
C3511	C351	0.041900	0.921500	0.446590
C3521	C352	0.000400	0.879900	0.439910
H6361	H636	0.012900	0.859200	0.423000
C3531	C353	0.947700	0.901200	0.433810
C3541	C354	0.028900	0.956600	0.472230
H6371	H637	0.057600	0.983000	0.475000
H6381	H638	0.025900	0.933800	0.489100
H6391	H639	0.994700	0.975300	0.469000
C3551	C355	0.051400	0.957200	0.419570
H6401	H640	0.077900	0.985300	0.423900
H6411	H641	0.017400	0.974000	0.413900
H6421	H642	0.064900	0.934700	0.404100
C3561	C356	0.132730	0.725400	0.517140
C3571	C357	0.079800	0.743100	0.530890
H6431	H643	0.088200	0.774900	0.543100
C3581	C358	0.446100	0.201500	0.700420
C3591	C359	0.125300	0.678000	0.498740
H6441	H644	0.096600	0.685200	0.485100
H6451	H645	0.115600	0.646800	0.510300
H6461	H646	0.158900	0.670500	0.488600
C3601	C360	0.173900	0.719100	0.538310
H6471	H647	0.176600	0.752200	0.549500
H6481	H648	0.208500	0.712000	0.529100
H6491	H649	0.164700	0.688900	0.550700
C3611	C361	0.154870	0.712700	0.401220
C3621	C362	0.152500	0.705000	0.369800
H6501	H650	0.136800	0.739100	0.362100
C3631	C363	0.115500	0.661800	0.360700
C3641	C364	0.177500	0.659100	0.415460
H6511	H651	0.178900	0.663800	0.436000
H6521	H652	0.213700	0.651800	0.408300
H6531	H653	0.153700	0.628900	0.410800
C3651	C365	0.098300	0.726100	0.414230
H6541	H654	0.101700	0.730000	0.434800
H6551	H655	0.073100	0.696800	0.409900
H6561	H656	0.084800	0.759700	0.406100
C3661	C366	0.375100	0.811550	0.363500
C3671	C367	0.380300	0.754600	0.354030
H6571	H657	0.394400	0.734200	0.370700
C3681	C368	0.419500	0.741500	0.328820
C3691	C369	0.356300	0.845500	0.340920
H6581	H658	0.354900	0.882900	0.347500
H6591	H659	0.320200	0.833900	0.335100
H6601	H660	0.381000	0.842700	0.324800
C3701	C370	0.435600	0.827000	0.375390
H6611	H661	0.445500	0.802300	0.390700
H6621	H662	0.435400	0.864000	0.382600
H6631	H663	0.461800	0.824000	0.360000
O1901	O190	0.081840	0.848140	0.370050
O1911	O191	0.418770	0.070010	0.686820
O1921	O192	0.340900	0.090900	0.665240
C3711	C371	0.369190	0.066600	0.686180
C3721	C372	0.336500	0.046300	0.714260
H6641	H664	0.297700	0.046500	0.710300
H6651	H665	0.344200	0.070600	0.730100
H6661	H666	0.347900	0.009800	0.719200
O1931	O193	0.503110	0.111440	0.602430
O1941	O194	0.515280	0.110550	0.664200
O1951	O195	0.341310	0.188240	0.628440
O1961	O196	0.456900	0.214190	0.618660
La221	La22	0.340610	0.725490	0.260300
La231	La23	0.390850	0.452480	0.478730
La241	La24	0.433220	0.469940	0.458270
O1971	O197	0.446100	0.372000	0.481500
O1981	O198	0.354000	0.489700	0.423260
Ag491	Ag49	0.655500	0.717200	0.772110
Ag501	Ag50	0.609590	0.850820	0.751270
Ag511	Ag51	0.497030	0.814540	0.713170
Ag521	Ag52	0.556430	0.675370	0.727610
Ag531	Ag53	0.735800	0.728630	0.710750
Ag541	Ag54	0.715230	0.875060	0.689920
Ag551	Ag55	0.592220	0.802430	0.655940
Ag561	Ag56	0.639790	0.653430	0.656350
Pd371	Pd37	0.496010	0.758740	0.795560
Pd381	Pd38	0.772350	0.834990	0.771340
Pd391	Pd39	0.570070	0.955080	0.687630
Pd401	Pd40	0.475790	0.688480	0.654140
Pd411	Pd41	0.683460	0.573710	0.730620
Pd421	Pd42	0.747090	0.764830	0.627100
Br71	Br7	0.624350	0.764450	0.710950
La251	La25	0.377380	0.923370	0.887240
S731	S73	0.557920	0.698840	0.780390
S741	S74	0.514570	0.826660	0.764960
S751	S75	0.686650	0.811020	0.779950
S761	S76	0.771790	0.819840	0.723910
S771	S77	0.636600	0.919830	0.715580
S781	S78	0.531390	0.875380	0.675500
S791	S79	0.480070	0.717520	0.699390
S801	S80	0.560020	0.710500	0.641020
S811	S81	0.615630	0.606910	0.703060
S821	S82	0.715160	0.653900	0.745940
S831	S83	0.730430	0.699450	0.659670
S841	S84	0.688340	0.827130	0.643470
O1991	O199	0.451470	0.609150	0.850490
O2001	O200	0.535600	0.593770	0.866790
O2011	O201	0.392730	0.887250	0.838310
O2021	O202	0.374100	0.935700	0.801730
O2031	O203	0.762480	0.874970	0.869190
O2041	O204	0.722800	0.797900	0.877210
O2051	O205	0.956300	0.859100	0.756170
O2061	O206	0.942000	0.902300	0.711650
O2071	O207	0.639000	0.113430	0.725570
O2081	O208	0.720400	0.089100	0.723390
O2091	O209	0.474950	0.933720	0.881330
O2101	O210	0.536070	0.872360	0.893450
O2111	O211	0.302150	0.637520	0.685270
O2121	O212	0.290440	0.713460	0.707110
O2131	O213	0.452150	0.671860	0.557770
O2141	O214	0.530710	0.635900	0.548580
O2151	O215	0.589100	0.415440	0.704190
O2161	O216	0.585800	0.438100	0.659900
O2171	O217	0.321840	0.988940	0.958760
O2181	O218	0.310060	0.922790	0.927300
O2191	O219	0.881880	0.642790	0.603130
O2201	O220	0.838440	0.567800	0.610080
O2211	O221	0.765000	0.894610	0.555640
O2221	O222	0.755890	0.965660	0.581200
N731	N73	0.481500	0.704760	0.825730
H6671	H667	0.475500	0.722900	0.842400
H6681	H668	0.450200	0.686800	0.821200
N741	N74	0.435680	0.808790	0.810390
H6691	H669	0.404200	0.789400	0.811100
H6701	H670	0.444100	0.818700	0.828600
N751	N75	0.780080	0.841100	0.815470
H6711	H671	0.812000	0.825600	0.821000
H6721	H672	0.781200	0.876900	0.820500
N761	N76	0.849400	0.867800	0.765010
H6731	H673	0.851600	0.900800	0.773700
H6741	H674	0.874900	0.845600	0.773000
N771	N77	0.605220	0.026470	0.695650
H6751	H675	0.608900	0.044700	0.678800
H6761	H676	0.582500	0.046300	0.707000
N781	N78	0.509380	0.988290	0.664390
H6771	H677	0.501000	0.021300	0.672000
H6781	H678	0.521700	0.994000	0.646300
N791	N79	0.397230	0.672300	0.662540
H6791	H679	0.377200	0.680500	0.646700
H6801	H680	0.393800	0.635900	0.665700
N801	N80	0.467350	0.663000	0.612360
H6811	H681	0.452300	0.629100	0.612300
H6821	H682	0.443900	0.685800	0.603200
N811	N81	0.659680	0.497440	0.715380
H6831	H683	0.689800	0.478600	0.710000
H6841	H684	0.643500	0.478700	0.729900
N821	N82	0.738930	0.539620	0.759910
H6851	H685	0.722900	0.511200	0.769100
H6861	H686	0.768300	0.526600	0.750200
N831	N83	0.796010	0.709860	0.609630
H6871	H687	0.788900	0.709300	0.590500
H6881	H688	0.830700	0.722200	0.611700
N841	N84	0.768260	0.820130	0.598340
H6891	H689	0.805200	0.821700	0.597600
H6901	H690	0.756400	0.808900	0.580900
C3731	C373	0.542200	0.638200	0.803330
C3741	C374	0.524800	0.663900	0.830680
H6911	H691	0.556400	0.681200	0.840100
C3751	C375	0.498800	0.616700	0.851780
C3761	C376	0.504000	0.604300	0.790330
H6921	H692	0.519300	0.589200	0.772900
H6931	H693	0.471700	0.625100	0.785700
H6941	H694	0.494600	0.575000	0.803300
C3771	C377	0.595400	0.607900	0.809560
H6951	H695	0.621100	0.632500	0.818500
H6961	H696	0.610500	0.594200	0.791800
H6971	H697	0.588100	0.577700	0.822400
C3781	C378	0.477200	0.882100	0.783540
C3791	C379	0.426040	0.857740	0.793840
H6981	H698	0.403400	0.848200	0.777100
C3801	C380	0.394800	0.895500	0.812410
C3811	C381	0.513100	0.898700	0.809400
H6991	H699	0.546700	0.914800	0.802500
H7001	H700	0.521400	0.866800	0.820800
H7011	H701	0.493800	0.925000	0.821000
C3821	C382	0.471300	0.926300	0.760420
H7021	H702	0.507000	0.940300	0.755500
H7031	H703	0.448900	0.955700	0.767700
H7041	H704	0.454400	0.910800	0.743600
C3831	C383	0.681000	0.831000	0.818440
C3841	C384	0.734600	0.814400	0.830800
H7051	H705	0.738700	0.774400	0.829900
C3851	C385	0.743800	0.835200	0.862640
C3861	C386	0.671400	0.892650	0.819840
H7061	H706	0.701900	0.911400	0.811100
H7071	H707	0.668000	0.903800	0.839700
H7081	H708	0.638300	0.901700	0.809600
C3871	C387	0.636500	0.801500	0.830680
H7091	H709	0.602600	0.814000	0.822400
H7101	H710	0.635800	0.807400	0.851200
H7111	H711	0.641000	0.763000	0.826800
C3881	C388	0.845000	0.824600	0.717540
C3891	C389	0.860600	0.873900	0.733790
H7121	H712	0.843200	0.907000	0.725900
C3901	C390	0.925900	0.878900	0.733940
C3911	C391	0.871100	0.768500	0.727960
H7131	H713	0.866400	0.764900	0.748500
H7141	H714	0.909500	0.768100	0.723400
H7151	H715	0.853100	0.738500	0.718400
C3921	C392	0.852800	0.829000	0.688400
H7161	H716	0.841300	0.795600	0.679200
H7171	H717	0.891000	0.835300	0.684500
H7181	H718	0.831500	0.859200	0.681100
C3931	C393	0.658800	0.982700	0.733280
C3941	C394	0.659200	0.023780	0.709700
H7191	H719	0.687100	0.013800	0.695400
C3951	C395	0.672200	0.077000	0.721870
C3961	C396	0.617800	0.994100	0.755960
H7201	H720	0.583200	0.002700	0.747100
H7211	H721	0.629800	0.024700	0.767400
H7221	H722	0.613800	0.962300	0.768100
C3971	C397	0.712500	0.967600	0.747510
H7231	H723	0.739000	0.958200	0.733000
H7241	H724	0.707000	0.936800	0.760100
H7251	H725	0.725700	0.998300	0.758500
C3981	C398	0.476000	0.899800	0.651510
C3991	C399	0.460700	0.956610	0.662870
H7261	H726	0.444700	0.953200	0.682200
C4001	C400	0.511500	0.920300	0.892880
C4011	C401	0.496800	0.902700	0.620720
H7271	H727	0.505800	0.866400	0.614100
H7281	H728	0.529000	0.925400	0.620000
H7291	H729	0.468800	0.918200	0.608500
C4021	C402	0.435400	0.855500	0.652840
H7301	H730	0.450700	0.822700	0.644600
H7311	H731	0.403200	0.866000	0.642200
H7321	H732	0.425600	0.848800	0.672600
C4031	C403	0.411200	0.694800	0.712780
C4041	C404	0.373600	0.702300	0.687680
H7331	H733	0.371400	0.741500	0.683000
C4051	C405	0.318900	0.682200	0.694390
C4061	C406	0.418500	0.632460	0.720110
H7341	H734	0.427700	0.612700	0.702800
H7351	H735	0.384800	0.618300	0.727900
H7361	H736	0.447400	0.628200	0.734000
C4071	C407	0.398000	0.724500	0.738400
H7371	H737	0.424300	0.716000	0.753200
H7381	H738	0.361900	0.714500	0.744800
H7391	H739	0.399000	0.763200	0.734400
C4081	C408	0.551900	0.708500	0.601590
C4091	C409	0.516700	0.661400	0.597040
H7401	H740	0.536800	0.627700	0.601900
C4101	C410	0.492100	0.656600	0.565330
C4111	C411	0.521000	0.762500	0.592130
H7411	H741	0.484600	0.762400	0.600100
H7421	H742	0.518800	0.763900	0.571400
H7431	H743	0.540700	0.794000	0.599100
C4121	C412	0.605590	0.704200	0.589540
H7441	H744	0.625800	0.737200	0.593500
H7451	H745	0.602800	0.698900	0.569000
H7461	H746	0.624300	0.673400	0.598000
C4131	C413	0.578500	0.541900	0.696590
C4141	C414	0.620100	0.500400	0.689910
H7471	H747	0.640800	0.512900	0.673000
C4151	C415	0.598800	0.447700	0.683810
C4161	C416	0.543400	0.528900	0.722230
H7481	H748	0.517000	0.557600	0.725000
H7491	H749	0.566200	0.525900	0.739100
H7501	H750	0.524700	0.494700	0.719000
C4171	C417	0.542800	0.551400	0.669570
H7511	H751	0.514700	0.577900	0.673900
H7521	H752	0.526000	0.517400	0.663900
H7531	H753	0.565300	0.564900	0.654100
C4181	C418	0.774600	0.632730	0.767140
C4191	C419	0.756900	0.579800	0.780890
H7541	H754	0.725100	0.588200	0.793100
C4201	C420	0.298500	0.946100	0.950420
C4211	C421	0.822000	0.625300	0.748740
H7551	H755	0.814800	0.596600	0.735100
H7561	H756	0.853200	0.615600	0.760300
H7571	H757	0.829500	0.658900	0.738600
C4221	C422	0.780900	0.673900	0.788310
H7581	H758	0.747800	0.676600	0.799500
H7591	H759	0.788000	0.708500	0.779100
H7601	H760	0.811100	0.664700	0.800700
C4231	C423	0.787300	0.654870	0.651220
C4241	C424	0.795000	0.652500	0.619800
H7611	H761	0.760900	0.636800	0.612100
C4251	C425	0.838200	0.615500	0.610700
C4261	C426	0.840900	0.677500	0.665460
H7621	H762	0.836200	0.678900	0.686000
H7631	H763	0.848200	0.713700	0.658300
H7641	H764	0.871100	0.653700	0.660800
C4271	C427	0.773900	0.598300	0.664230
H7651	H765	0.770000	0.601700	0.684800
H7661	H766	0.803200	0.573100	0.659900
H7671	H767	0.740300	0.584800	0.656100
C4281	C428	0.688450	0.875100	0.613500
C4291	C429	0.745400	0.880300	0.604030
H7681	H768	0.765800	0.894400	0.620700
C4301	C430	0.758500	0.919500	0.578820
C4311	C431	0.654500	0.856300	0.590920
H7691	H769	0.617100	0.854900	0.597500
H7701	H770	0.666100	0.820200	0.585100
H7711	H771	0.657300	0.881000	0.574800
C4321	C432	0.673000	0.935600	0.625390
H7721	H772	0.697700	0.945500	0.640700
H7731	H773	0.636000	0.935400	0.632600
H7741	H774	0.676000	0.961800	0.610000
O2231	O223	0.651860	0.581840	0.620050
O2241	O224	0.429990	0.918770	0.936820
O2251	O225	0.409100	0.840900	0.915240
C4331	C433	0.433400	0.869190	0.936180
C4341	C434	0.453700	0.836500	0.964260
H7751	H775	0.453500	0.797700	0.960300
H7761	H776	0.429400	0.844200	0.980100
H7771	H777	0.490200	0.847900	0.969200
O2261	O226	0.388560	0.003110	0.852430
O2271	O227	0.389450	0.015280	0.914200
O2281	O228	0.311760	0.841310	0.878440
O2291	O229	0.285810	0.956900	0.868660
La261	La26	0.774510	0.840610	0.510300
La271	La27	0.047520	0.890850	0.728730
La281	La28	0.030060	0.933220	0.708270
O2301	O230	0.128000	0.946100	0.731500
O2311	O231	0.010300	0.854000	0.673260
Ag571	Ag57	0.344500	0.282800	0.272110
Ag581	Ag58	0.390410	0.149180	0.251270
Ag591	Ag59	0.502970	0.185460	0.213170
Ag601	Ag60	0.443570	0.324630	0.227610
Ag611	Ag61	0.264200	0.271370	0.210750
Ag621	Ag62	0.284770	0.124940	0.189920
Ag631	Ag63	0.407780	0.197570	0.155940
Ag641	Ag64	0.360210	0.346570	0.156350
Pd431	Pd43	0.503990	0.241260	0.295560
Pd441	Pd44	0.227650	0.165010	0.271340
Pd451	Pd45	0.429930	0.044920	0.187630
Pd461	Pd46	0.524210	0.311520	0.154140
Pd471	Pd47	0.316540	0.426290	0.230620
Pd481	Pd48	0.252910	0.235170	0.127100
Br81	Br8	0.375650	0.235550	0.210950
La291	La29	0.622620	0.076630	0.387240
S851	S85	0.442080	0.301160	0.280390
S861	S86	0.485430	0.173340	0.264960
S871	S87	0.313350	0.188980	0.279950
S881	S88	0.228210	0.180160	0.223910
S891	S89	0.363400	0.080170	0.215580
S901	S90	0.468610	0.124620	0.175500
S911	S91	0.519930	0.282480	0.199390
S921	S92	0.439980	0.289500	0.141020
S931	S93	0.384370	0.393090	0.203060
S941	S94	0.284840	0.346100	0.245940
S951	S95	0.269570	0.300550	0.159670
S961	S96	0.311660	0.172870	0.143470
O2321	O232	0.548530	0.390850	0.350490
O2331	O233	0.464400	0.406230	0.366790
O2341	O234	0.607270	0.112750	0.338310
O2351	O235	0.625900	0.064300	0.301730
O2361	O236	0.237520	0.125030	0.369190
O2371	O237	0.277200	0.202100	0.377210
O2381	O238	0.043700	0.140900	0.256170
O2391	O239	0.058000	0.097700	0.211650
O2401	O240	0.361000	0.886570	0.225570
O2411	O241	0.279600	0.910900	0.223390
O2421	O242	0.525050	0.066280	0.381330
O2431	O243	0.463930	0.127640	0.393450
O2441	O244	0.697850	0.362480	0.185270
O2451	O245	0.709560	0.286540	0.207110
O2461	O246	0.547850	0.328140	0.057770
O2471	O247	0.469290	0.364100	0.048580
O2481	O248	0.410900	0.584560	0.204190
O2491	O249	0.414200	0.561900	0.159900
O2501	O250	0.678160	0.011060	0.458760
O2511	O251	0.689940	0.077210	0.427300
O2521	O252	0.118120	0.357210	0.103130
O2531	O253	0.161560	0.432200	0.110080
O2541	O254	0.235000	0.105390	0.055640
O2551	O255	0.244110	0.034340	0.081200
N851	N85	0.518500	0.295240	0.325730
H7781	H778	0.524500	0.277100	0.342400
H7791	H779	0.549800	0.313200	0.321200
N861	N86	0.564320	0.191210	0.310390
H7801	H780	0.595800	0.210600	0.311100
H7811	H781	0.555900	0.181300	0.328600
N871	N87	0.219920	0.158900	0.315470
H7821	H782	0.188000	0.174400	0.321000
H7831	H783	0.218800	0.123100	0.320500
N881	N88	0.150600	0.132200	0.265010
H7841	H784	0.148400	0.099200	0.273700
H7851	H785	0.125100	0.154400	0.273000
N891	N89	0.394780	0.973530	0.195650
H7861	H786	0.391100	0.955300	0.178800
H7871	H787	0.417500	0.953700	0.207000
N901	N90	0.490620	0.011710	0.164390
H7881	H788	0.499000	0.978700	0.172000
H7891	H789	0.478300	0.006000	0.146300
N911	N91	0.602770	0.327700	0.162540
H7901	H790	0.622800	0.319500	0.146700
H7911	H791	0.606200	0.364100	0.165700
N921	N92	0.532650	0.337000	0.112360
H7921	H792	0.547700	0.370900	0.112300
H7931	H793	0.556100	0.314200	0.103200
N931	N93	0.340320	0.502560	0.215380
H7941	H794	0.310200	0.521400	0.210000
H7951	H795	0.356500	0.521300	0.229900
N941	N94	0.261070	0.460380	0.259910
H7961	H796	0.277100	0.488800	0.269100
H7971	H797	0.231700	0.473400	0.250200
N951	N95	0.203990	0.290140	0.109630
H7981	H798	0.211100	0.290700	0.090500
H7991	H799	0.169300	0.277800	0.111700
N961	N96	0.231740	0.179870	0.098340
H8001	H800	0.194800	0.178300	0.097600
H8011	H801	0.243600	0.191100	0.080900
C4351	C435	0.457800	0.361800	0.303330
C4361	C436	0.475200	0.336100	0.330680
H8021	H802	0.443600	0.318800	0.340100
C4371	C437	0.501200	0.383300	0.351780
C4381	C438	0.496000	0.395700	0.290330
H8031	H803	0.480700	0.410800	0.272900
H8041	H804	0.528300	0.374900	0.285700
H8051	H805	0.505400	0.425000	0.303300
C4391	C439	0.404600	0.392100	0.309560
H8061	H806	0.378900	0.367500	0.318500
H8071	H807	0.389500	0.405800	0.291800
H8081	H808	0.411900	0.422300	0.322400
C4401	C440	0.522800	0.117900	0.283540
C4411	C441	0.573960	0.142260	0.293840
H8091	H809	0.596600	0.151800	0.277100
C4421	C442	0.605200	0.104500	0.312410
C4431	C443	0.486900	0.101300	0.309400
H8101	H810	0.453300	0.085200	0.302500
H8111	H811	0.478600	0.133200	0.320800
H8121	H812	0.506200	0.075000	0.321000
C4441	C444	0.528700	0.073700	0.260420
H8131	H813	0.493000	0.059700	0.255500
H8141	H814	0.551100	0.044300	0.267700
H8151	H815	0.545600	0.089200	0.243600
C4451	C445	0.319000	0.169000	0.318440
C4461	C446	0.265400	0.185600	0.330800
H8161	H816	0.261300	0.225600	0.329900
C4471	C447	0.256200	0.164800	0.362640
C4481	C448	0.328600	0.107350	0.319840
H8171	H817	0.298100	0.088600	0.311100
H8181	H818	0.332000	0.096200	0.339700
H8191	H819	0.361700	0.098300	0.309600
C4491	C449	0.363500	0.198500	0.330680
H8201	H820	0.397400	0.186000	0.322400
H8211	H821	0.364200	0.192600	0.351200
H8221	H822	0.359000	0.237000	0.326800
C4501	C450	0.155000	0.175400	0.217540
C4511	C451	0.139400	0.126100	0.233790
H8231	H823	0.156800	0.093000	0.225900
C4521	C452	0.074100	0.121100	0.233940
C4531	C453	0.128900	0.231500	0.227960
H8241	H824	0.133600	0.235100	0.248500
H8251	H825	0.090500	0.231900	0.223400
H8261	H826	0.146900	0.261500	0.218400
C4541	C454	0.147200	0.171000	0.188400
H8271	H827	0.158700	0.204400	0.179200
H8281	H828	0.109000	0.164700	0.184500
H8291	H829	0.168500	0.140800	0.181100
C4551	C455	0.341200	0.017300	0.233280
C4561	C456	0.340800	0.976220	0.209700
H8301	H830	0.312900	0.986200	0.195400
C4571	C457	0.327800	0.923000	0.221870
C4581	C458	0.382200	0.005900	0.255960
H8311	H831	0.416800	0.997300	0.247100
H8321	H832	0.370200	0.975300	0.267400
H8331	H833	0.386200	0.037700	0.268100
C4591	C459	0.287500	0.032400	0.247510
H8341	H834	0.261000	0.041800	0.233000
H8351	H835	0.293000	0.063200	0.260100
H8361	H836	0.274300	0.001700	0.258500
C4601	C460	0.524000	0.100200	0.151510
C4611	C461	0.539300	0.043390	0.162870
H8371	H837	0.555300	0.046800	0.182200
C4621	C462	0.488500	0.079700	0.392880
C4631	C463	0.503200	0.097300	0.120720
H8381	H838	0.494200	0.133600	0.114100
H8391	H839	0.471000	0.074600	0.120000
H8401	H840	0.531200	0.081800	0.108500
C4641	C464	0.564600	0.144500	0.152840
H8411	H841	0.549300	0.177300	0.144600
H8421	H842	0.596800	0.134000	0.142200
H8431	H843	0.574400	0.151200	0.172600
C4651	C465	0.588800	0.305200	0.212780
C4661	C466	0.626400	0.297700	0.187680
H8441	H844	0.628600	0.258500	0.183000
C4671	C467	0.681100	0.317800	0.194390
C4681	C468	0.581500	0.367540	0.220110
H8451	H845	0.572300	0.387300	0.202800
H8461	H846	0.615200	0.381700	0.227900
H8471	H847	0.552600	0.371800	0.234000
C4691	C469	0.602000	0.275500	0.238400
H8481	H848	0.575700	0.284000	0.253200
H8491	H849	0.638100	0.285500	0.244800
H8501	H850	0.601000	0.236800	0.234400
C4701	C470	0.448100	0.291500	0.101590
C4711	C471	0.483300	0.338600	0.097040
H8511	H851	0.463200	0.372300	0.101900
C4721	C472	0.507900	0.343400	0.065330
C4731	C473	0.479000	0.237500	0.092130
H8521	H852	0.515400	0.237600	0.100100
H8531	H853	0.481200	0.236100	0.071400
H8541	H854	0.459300	0.206000	0.099100
C4741	C474	0.394410	0.295800	0.089540
H8551	H855	0.374200	0.262800	0.093500
H8561	H856	0.397200	0.301100	0.069000
H8571	H857	0.375700	0.326600	0.098000
C4751	C475	0.421500	0.458100	0.196590
C4761	C476	0.379900	0.499600	0.189910
H8581	H858	0.359200	0.487100	0.173000
C4771	C477	0.401200	0.552300	0.183810
C4781	C478	0.456600	0.471100	0.222230
H8591	H859	0.483000	0.442400	0.225000
H8601	H860	0.433800	0.474100	0.239100
H8611	H861	0.475300	0.505300	0.219000
C4791	C479	0.457200	0.448600	0.169570
H8621	H862	0.485300	0.422100	0.173900
H8631	H863	0.474000	0.482600	0.163900
H8641	H864	0.434700	0.435100	0.154100
C4801	C480	0.225400	0.367270	0.267140
C4811	C481	0.243100	0.420200	0.280890
H8651	H865	0.274900	0.411800	0.293100
C4821	C482	0.701500	0.053900	0.450420
C4831	C483	0.178000	0.374700	0.248740
H8661	H866	0.185200	0.403400	0.235100
H8671	H867	0.146800	0.384400	0.260300
H8681	H868	0.170500	0.341100	0.238600
C4841	C484	0.219100	0.326100	0.288310
H8691	H869	0.252200	0.323400	0.299500
H8701	H870	0.212000	0.291500	0.279100
H8711	H871	0.188900	0.335300	0.300700
C4851	C485	0.212700	0.345130	0.151220
C4861	C486	0.205000	0.347500	0.119800
H8721	H872	0.239100	0.363200	0.112100
C4871	C487	0.161800	0.384500	0.110700
C4881	C488	0.159100	0.322500	0.165460
H8731	H873	0.163800	0.321100	0.186000
H8741	H874	0.151800	0.286300	0.158300
H8751	H875	0.128900	0.346300	0.160800
C4891	C489	0.226100	0.401700	0.164230
H8761	H876	0.230000	0.398300	0.184800
H8771	H877	0.196800	0.426900	0.159900
H8781	H878	0.259700	0.415200	0.156100
C4901	C490	0.311550	0.124900	0.113500
C4911	C491	0.254600	0.119700	0.104030
H8791	H879	0.234200	0.105600	0.120700
C4921	C492	0.241500	0.080500	0.078820
C4931	C493	0.345500	0.143700	0.090920
H8801	H880	0.382900	0.145100	0.097500
H8811	H881	0.333900	0.179800	0.085100
H8821	H882	0.342700	0.119000	0.074800
C4941	C494	0.327000	0.064400	0.125390
H8831	H883	0.302300	0.054500	0.140700
H8841	H884	0.364000	0.064600	0.132600
H8851	H885	0.324000	0.038200	0.110000
O2561	O256	0.348140	0.418160	0.120050
O2571	O257	0.570010	0.081230	0.436820
O2581	O258	0.590900	0.159100	0.415240
C4951	C495	0.566600	0.130810	0.436180
C4961	C496	0.546300	0.163500	0.464260
H8861	H886	0.546500	0.202300	0.460300
H8871	H887	0.570600	0.155800	0.480100
H8881	H888	0.509800	0.152100	0.469200
O2591	O259	0.611440	0.996890	0.352430
O2601	O260	0.610550	0.984720	0.414200
O2611	O261	0.688240	0.158690	0.378440
O2621	O262	0.714190	0.043100	0.368660
La301	La30	0.225490	0.159390	0.010300
La311	La31	0.952480	0.109150	0.228730
La321	La32	0.969940	0.066780	0.208270
O2631	O263	0.872000	0.053900	0.231500
O2641	O264	0.989700	0.146000	0.173260
