data_BARZUR_freeONLY_PM
_symmetry_space_group_name_H-M	'P1'
_cell_length_a	12.403000
_cell_length_b	15.729000
_cell_length_c	15.729000
_cell_angle_alpha	120.000000
_cell_angle_beta	90.000000
_cell_angle_gamma	90.000000
_symmetry_Int_Tables_number 1

loop_
_symmetry_equiv_pos_as_xyz
'x,y,z'

loop_
_atom_site_label
_atom_site_type_symbol
_atom_site_fract_x
_atom_site_fract_y
_atom_site_fract_z
Zn11	Zn1	0.833330	0.000000	0.578770
Zn21	Zn2	0.500000	0.578770	0.000000
Zn31	Zn3	0.166670	0.421230	0.421230
H11	H1	0.843700	0.817700	0.367500
H21	H2	0.023300	0.053500	0.472500
H31	H3	0.220500	0.058600	0.251100
H41	H4	0.163800	0.958000	0.182400
H51	H5	0.232600	0.971500	0.272000
H61	H6	0.184300	0.195300	0.327300
H71	H7	0.934400	0.371500	0.429400
H81	H8	0.702000	0.284800	0.351800
H91	H9	0.767200	0.372800	0.434400
H101	H10	0.666000	0.331600	0.461800
H111	H11	0.510370	0.549800	0.182300
H121	H12	0.689970	0.419000	0.946500
H131	H13	0.887170	0.192500	0.941400
H141	H14	0.830470	0.224400	0.042000
H151	H15	0.899270	0.300500	0.028500
H161	H16	0.850970	0.132000	0.804700
H171	H17	0.601070	0.057900	0.628500
H181	H18	0.368670	0.067000	0.715200
H191	H19	0.433870	0.061600	0.627200
H201	H20	0.332670	0.130200	0.668400
H211	H21	0.177030	0.632500	0.450200
H221	H22	0.356630	0.527500	0.581000
H231	H23	0.553830	0.748900	0.807500
H241	H24	0.497130	0.817600	0.775600
H251	H25	0.565930	0.728000	0.699500
H261	H26	0.517630	0.672700	0.868000
H271	H27	0.267730	0.570600	0.942100
H281	H28	0.035330	0.648200	0.933000
H291	H29	0.100530	0.565600	0.938400
H301	H30	0.999330	0.538200	0.869800
H311	H31	0.156300	0.450200	0.632500
H321	H32	0.976700	0.581000	0.527500
H331	H33	0.779500	0.807500	0.748900
H341	H34	0.836200	0.775600	0.817600
H351	H35	0.767400	0.699500	0.728000
H361	H36	0.815700	0.868000	0.672700
H371	H37	0.065600	0.942100	0.570600
H381	H38	0.298000	0.933000	0.648200
H391	H39	0.232800	0.938400	0.565600
H401	H40	0.334000	0.869800	0.538200
H411	H41	0.489630	0.367500	0.817700
H421	H42	0.310030	0.472500	0.053500
H431	H43	0.112830	0.251100	0.058600
H441	H44	0.169530	0.182400	0.958000
H451	H45	0.100730	0.272000	0.971500
H461	H46	0.149030	0.327300	0.195300
H471	H47	0.398930	0.429400	0.371500
H481	H48	0.631330	0.351800	0.284800
H491	H49	0.566130	0.434400	0.372800
H501	H50	0.667330	0.461800	0.331600
H511	H51	0.822970	0.182300	0.549800
H521	H52	0.643370	0.946500	0.419000
H531	H53	0.446170	0.941400	0.192500
H541	H54	0.502870	0.042000	0.224400
H551	H55	0.434070	0.028500	0.300500
H561	H56	0.482370	0.804700	0.132000
H571	H57	0.732270	0.628500	0.057900
H581	H58	0.964670	0.715200	0.067000
H591	H59	0.899470	0.627200	0.061600
H601	H60	0.000670	0.668400	0.130200
C11	C1	0.920800	0.835400	0.264300
C21	C2	0.889900	0.859300	0.358800
C31	C3	0.994800	0.997000	0.419700
C41	C4	0.023800	0.972000	0.325100
C51	C5	0.184600	0.003400	0.248800
C61	C6	0.050100	0.131000	0.345300
C71	C7	0.113000	0.206900	0.348400
C81	C8	0.965900	0.310400	0.408100
C91	C9	0.904100	0.233600	0.404100
C101	C10	0.727000	0.314600	0.418600
C111	C11	0.045800	0.285600	0.719600
C121	C12	0.587470	0.428900	0.164600
C131	C13	0.556570	0.499500	0.140700
C141	C14	0.661470	0.422700	0.003000
C151	C15	0.690470	0.353100	0.028000
C161	C16	0.851270	0.245400	0.996600
C171	C17	0.716770	0.214300	0.869000
C181	C18	0.779670	0.141500	0.793100
C191	C19	0.632570	0.097700	0.689600
C201	C20	0.570770	0.170500	0.766400
C211	C21	0.393670	0.104000	0.685400
C221	C22	0.712470	0.434000	0.714400
C231	C23	0.254130	0.735700	0.571100
C241	C24	0.223230	0.641200	0.500500
C251	C25	0.328130	0.580300	0.577300
C261	C26	0.357130	0.674900	0.646900
C271	C27	0.517930	0.751200	0.754600
C281	C28	0.383430	0.654700	0.785700
C291	C29	0.446330	0.651600	0.858500
C301	C30	0.299230	0.591900	0.902300
C311	C31	0.237430	0.595900	0.829500
C321	C32	0.060330	0.581400	0.896000
C331	C33	0.379130	0.280400	0.566000
C341	C34	0.079200	0.571100	0.735700
C351	C35	0.110100	0.500500	0.641200
C361	C36	0.005200	0.577300	0.580300
C371	C37	0.976200	0.646900	0.674900
C381	C38	0.815400	0.754600	0.751200
C391	C39	0.949900	0.785700	0.654700
C401	C40	0.887000	0.858500	0.651600
C411	C41	0.034100	0.902300	0.591900
C421	C42	0.095900	0.829500	0.595900
C431	C43	0.273000	0.896000	0.581400
C441	C44	0.954200	0.566000	0.280400
C451	C45	0.412530	0.264300	0.835400
C461	C46	0.443430	0.358800	0.859300
C471	C47	0.338530	0.419700	0.997000
C481	C48	0.309530	0.325100	0.972000
C491	C49	0.148730	0.248800	0.003400
C501	C50	0.283230	0.345300	0.131000
C511	C51	0.220330	0.348400	0.206900
C521	C52	0.367430	0.408100	0.310400
C531	C53	0.429230	0.404100	0.233600
C541	C54	0.606330	0.418600	0.314600
C551	C55	0.287530	0.719600	0.285600
C561	C56	0.745870	0.164600	0.428900
C571	C57	0.776770	0.140700	0.499500
C581	C58	0.671870	0.003000	0.422700
C591	C59	0.642870	0.028000	0.353100
C601	C60	0.482070	0.996600	0.245400
C611	C61	0.616570	0.869000	0.214300
C621	C62	0.553670	0.793100	0.141500
C631	C63	0.700770	0.689600	0.097700
C641	C64	0.762570	0.766400	0.170500
C651	C65	0.939670	0.685400	0.104000
C661	C66	0.620870	0.714400	0.434000
S11	S1	0.044450	0.158730	0.690810
S21	S2	0.711120	0.532080	0.841270
S31	S3	0.377780	0.309190	0.467920
S41	S4	0.955550	0.467920	0.309190
S51	S5	0.288880	0.690810	0.158730
S61	S6	0.622220	0.841270	0.532080
N11	N1	0.989300	0.890500	0.246900
N21	N2	0.925500	0.940600	0.436900
N31	N3	0.089800	0.036800	0.310300
N41	N4	0.946400	0.145300	0.373000
N51	N5	0.069200	0.296200	0.381700
N61	N6	0.796000	0.245200	0.429800
N71	N7	0.655970	0.356400	0.109500
N81	N8	0.592170	0.496300	0.059400
N91	N9	0.756470	0.273500	0.963200
N101	N10	0.613070	0.227700	0.854700
N111	N11	0.735870	0.085500	0.703800
N121	N12	0.462670	0.184600	0.754800
N131	N13	0.322630	0.753100	0.643600
N141	N14	0.258830	0.563100	0.503700
N151	N15	0.423130	0.689700	0.726500
N161	N16	0.279730	0.627000	0.772300
N171	N17	0.402530	0.618300	0.914500
N181	N18	0.129330	0.570200	0.815400
N191	N19	0.010700	0.643600	0.753100
N201	N20	0.074500	0.503700	0.563100
N211	N21	0.910200	0.726500	0.689700
N221	N22	0.053600	0.772300	0.627000
N231	N23	0.930800	0.914500	0.618300
N241	N24	0.204000	0.815400	0.570200
N251	N25	0.344030	0.246900	0.890500
N261	N26	0.407830	0.436900	0.940600
N271	N27	0.243530	0.310300	0.036800
N281	N28	0.386930	0.373000	0.145300
N291	N29	0.264130	0.381700	0.296200
N301	N30	0.537330	0.429800	0.245200
N311	N31	0.677370	0.109500	0.356400
N321	N32	0.741170	0.059400	0.496300
N331	N33	0.576870	0.963200	0.273500
N341	N34	0.720270	0.854700	0.227700
N351	N35	0.597470	0.703800	0.085500
N361	N36	0.870670	0.754800	0.184600
O11	O1	0.137200	0.118000	0.630300
O21	O2	0.942300	0.123940	0.638740
O31	O3	0.047000	0.161500	0.782700
O41	O4	0.803870	0.512300	0.882000
O51	O5	0.608970	0.514800	0.876060
O61	O6	0.713670	0.621200	0.838500
O71	O7	0.470530	0.369700	0.487700
O81	O8	0.275630	0.361260	0.485200
O91	O9	0.380330	0.217300	0.378800
O101	O10	0.862800	0.487700	0.369700
O111	O11	0.057700	0.485200	0.361260
O121	O12	0.953000	0.378800	0.217300
O131	O13	0.196130	0.630300	0.118000
O141	O14	0.391030	0.638740	0.123940
O151	O15	0.286330	0.782700	0.161500
O161	O16	0.529470	0.882000	0.512300
O171	O17	0.724370	0.876060	0.514800
O181	O18	0.619670	0.838500	0.621200
F11	F1	0.963700	0.332500	0.775700
F21	F2	0.134800	0.328900	0.766200
F31	F3	0.036800	0.290900	0.640300
F41	F4	0.630370	0.443200	0.667500
F51	F5	0.801470	0.437300	0.671100
F61	F6	0.703470	0.349400	0.709100
F71	F7	0.297030	0.224300	0.556800
F81	F8	0.468130	0.233800	0.562700
F91	F9	0.370130	0.359700	0.650600
F101	F10	0.036300	0.556800	0.224300
F111	F11	0.865200	0.562700	0.233800
F121	F12	0.963200	0.650600	0.359700
F131	F13	0.369630	0.775700	0.332500
F141	F14	0.198530	0.766200	0.328900
F151	F15	0.296530	0.640300	0.290900
F161	F16	0.702970	0.667500	0.443200
F171	F17	0.531870	0.671100	0.437300
F181	F18	0.629870	0.709100	0.349400
