data_BASJUB_freeONLY_PM
_symmetry_space_group_name_H-M	'P1'
_cell_length_a	13.067800
_cell_length_b	13.067800
_cell_length_c	25.914000
_cell_angle_alpha	90.000000
_cell_angle_beta	90.000000
_cell_angle_gamma	90.000000
_symmetry_Int_Tables_number 1

loop_
_symmetry_equiv_pos_as_xyz
'x,y,z'

loop_
_atom_site_label
_atom_site_type_symbol
_atom_site_fract_x
_atom_site_fract_y
_atom_site_fract_z
Co11	Co1	0.750000	0.750000	0.381300
Co21	Co2	0.250000	0.250000	0.881300
H11	H1	0.761100	0.885300	0.480000
H21	H2	0.869700	0.925000	0.550100
H31	H3	0.093500	0.765700	0.476200
H41	H4	0.972800	0.726500	0.412200
H51	H5	0.294400	0.864200	0.580700
H61	H6	0.210000	0.900400	0.618600
H71	H7	0.359300	0.708100	0.683200
H81	H8	0.400700	0.785800	0.643000
H91	H9	0.214000	0.982000	0.735600
H101	H10	0.167700	0.119200	0.787800
H111	H11	0.438900	0.118100	0.854100
H121	H12	0.490500	0.982900	0.804400
H131	H13	0.738900	0.614700	0.480000
H141	H14	0.630300	0.575000	0.550100
H151	H15	0.406500	0.734300	0.476200
H161	H16	0.527200	0.773500	0.412200
H171	H17	0.205600	0.635800	0.580700
H181	H18	0.290000	0.599600	0.618600
H191	H19	0.140700	0.791900	0.683200
H201	H20	0.099300	0.714200	0.643000
H211	H21	0.286000	0.518000	0.735600
H221	H22	0.332300	0.380800	0.787800
H231	H23	0.061100	0.381900	0.854100
H241	H24	0.009500	0.517100	0.804400
H251	H25	0.114700	0.261100	0.980000
H261	H26	0.075000	0.369700	0.050100
H271	H27	0.234300	0.593500	0.976200
H281	H28	0.273500	0.472800	0.912200
H291	H29	0.135800	0.794400	0.080700
H301	H30	0.099600	0.710000	0.118600
H311	H31	0.291900	0.859300	0.183200
H321	H32	0.214200	0.900700	0.143000
H331	H33	0.018000	0.714000	0.235600
H341	H34	0.880800	0.667700	0.287800
H351	H35	0.881900	0.938900	0.354100
H361	H36	0.017100	0.990500	0.304400
H371	H37	0.385300	0.238900	0.980000
H381	H38	0.425000	0.130300	0.050100
H391	H39	0.265700	0.906500	0.976200
H401	H40	0.226500	0.027200	0.912200
H411	H41	0.364200	0.705600	0.080700
H421	H42	0.400400	0.790000	0.118600
H431	H43	0.208100	0.640700	0.183200
H441	H44	0.285800	0.599300	0.143000
H451	H45	0.482000	0.786000	0.235600
H461	H46	0.619200	0.832300	0.287800
H471	H47	0.618100	0.561100	0.354100
H481	H48	0.482900	0.509500	0.304400
C11	C1	0.829000	0.859000	0.480200
C21	C2	0.893000	0.885000	0.522100
C31	C3	0.994000	0.847000	0.519900
C41	C4	0.025000	0.790000	0.478900
C51	C5	0.952000	0.768000	0.440500
C61	C6	0.063000	0.869000	0.565100
C71	C7	0.232000	0.846000	0.597200
C81	C8	0.344000	0.768000	0.663800
C91	C9	0.390000	0.885000	0.730900
C101	C10	0.359000	0.969000	0.763500
C111	C11	0.262000	0.010000	0.759500
C121	C12	0.235000	0.091000	0.791000
C131	C13	0.392000	0.091000	0.829600
C141	C14	0.424000	0.010000	0.800000
C151	C15	0.671000	0.641000	0.480200
C161	C16	0.607000	0.615000	0.522100
C171	C17	0.506000	0.653000	0.519900
C181	C18	0.475000	0.710000	0.478900
C191	C19	0.548000	0.732000	0.440500
C201	C20	0.437000	0.631000	0.565100
C211	C21	0.268000	0.654000	0.597200
C221	C22	0.156000	0.732000	0.663800
C231	C23	0.110000	0.615000	0.730900
C241	C24	0.141000	0.531000	0.763500
C251	C25	0.238000	0.490000	0.759500
C261	C26	0.265000	0.409000	0.791000
C271	C27	0.108000	0.409000	0.829600
C281	C28	0.076000	0.490000	0.800000
C291	C29	0.141000	0.329000	0.980200
C301	C30	0.115000	0.393000	0.022100
C311	C31	0.153000	0.494000	0.019900
C321	C32	0.210000	0.525000	0.978900
C331	C33	0.232000	0.452000	0.940500
C341	C34	0.131000	0.563000	0.065100
C351	C35	0.154000	0.732000	0.097200
C361	C36	0.232000	0.844000	0.163800
C371	C37	0.115000	0.890000	0.230900
C381	C38	0.031000	0.859000	0.263500
C391	C39	0.990000	0.762000	0.259500
C401	C40	0.909000	0.735000	0.291000
C411	C41	0.909000	0.892000	0.329600
C421	C42	0.990000	0.924000	0.300000
C431	C43	0.359000	0.171000	0.980200
C441	C44	0.385000	0.107000	0.022100
C451	C45	0.347000	0.006000	0.019900
C461	C46	0.290000	0.975000	0.978900
C471	C47	0.268000	0.048000	0.940500
C481	C48	0.369000	0.937000	0.065100
C491	C49	0.346000	0.768000	0.097200
C501	C50	0.268000	0.656000	0.163800
C511	C51	0.385000	0.610000	0.230900
C521	C52	0.469000	0.641000	0.263500
C531	C53	0.510000	0.738000	0.259500
C541	C54	0.591000	0.765000	0.291000
C551	C55	0.591000	0.608000	0.329600
C561	C56	0.510000	0.576000	0.300000
C571	C57	0.250000	0.750000	0.630600
C581	C58	0.250000	0.750000	0.130600
N11	N1	0.857000	0.800000	0.441000
N21	N2	0.298000	0.133000	0.825600
N31	N3	0.643000	0.700000	0.441000
N41	N4	0.202000	0.367000	0.825600
N51	N5	0.200000	0.357000	0.941000
N61	N6	0.867000	0.798000	0.325600
N71	N7	0.300000	0.143000	0.941000
N81	N8	0.633000	0.702000	0.325600
Cl11	Cl1	0.672200	0.917600	0.381000
Cl21	Cl2	0.827800	0.582400	0.381000
Cl31	Cl3	0.082400	0.172200	0.881000
Cl41	Cl4	0.417600	0.327800	0.881000
O11	O1	0.037000	0.920000	0.601100
O21	O2	0.154100	0.825500	0.557900
O31	O3	0.317100	0.850900	0.697700
O41	O4	0.474000	0.845000	0.732300
O51	O5	0.463000	0.580000	0.601100
O61	O6	0.345900	0.674500	0.557900
O71	O7	0.182900	0.649100	0.697700
O81	O8	0.026000	0.655000	0.732300
O91	O9	0.080000	0.537000	0.101100
O101	O10	0.174500	0.654100	0.057900
O111	O11	0.149100	0.817100	0.197700
O121	O12	0.155000	0.974000	0.232300
O131	O13	0.420000	0.963000	0.101100
O141	O14	0.325500	0.845900	0.057900
O151	O15	0.350900	0.682900	0.197700
O161	O16	0.345000	0.526000	0.232300
Co31	Co3	0.250000	0.250000	0.618700
Co41	Co4	0.750000	0.750000	0.118700
H491	H49	0.238900	0.114700	0.520000
H501	H50	0.130300	0.075000	0.449900
H511	H51	0.906500	0.234300	0.523800
H521	H52	0.027200	0.273500	0.587800
H531	H53	0.705600	0.135800	0.419300
H541	H54	0.790000	0.099600	0.381400
H551	H55	0.640700	0.291900	0.316800
H561	H56	0.599300	0.214200	0.357000
H571	H57	0.786000	0.018000	0.264400
H581	H58	0.832300	0.880800	0.212200
H591	H59	0.561100	0.881900	0.145900
H601	H60	0.509500	0.017100	0.195600
H611	H61	0.261100	0.385300	0.520000
H621	H62	0.369700	0.425000	0.449900
H631	H63	0.593500	0.265700	0.523800
H641	H64	0.472800	0.226500	0.587800
H651	H65	0.794400	0.364200	0.419300
H661	H66	0.710000	0.400400	0.381400
H671	H67	0.859300	0.208100	0.316800
H681	H68	0.900700	0.285800	0.357000
H691	H69	0.714000	0.482000	0.264400
H701	H70	0.667700	0.619200	0.212200
H711	H71	0.938900	0.618100	0.145900
H721	H72	0.990500	0.482900	0.195600
H731	H73	0.885300	0.738900	0.020000
H741	H74	0.925000	0.630300	0.949900
H751	H75	0.765700	0.406500	0.023800
H761	H76	0.726500	0.527200	0.087800
H771	H77	0.864200	0.205600	0.919300
H781	H78	0.900400	0.290000	0.881400
H791	H79	0.708100	0.140700	0.816800
H801	H80	0.785800	0.099300	0.857000
H811	H81	0.982000	0.286000	0.764400
H821	H82	0.119200	0.332300	0.712200
H831	H83	0.118100	0.061100	0.645900
H841	H84	0.982900	0.009500	0.695600
H851	H85	0.614700	0.761100	0.020000
H861	H86	0.575000	0.869700	0.949900
H871	H87	0.734300	0.093500	0.023800
H881	H88	0.773500	0.972800	0.087800
H891	H89	0.635800	0.294400	0.919300
H901	H90	0.599600	0.210000	0.881400
H911	H91	0.791900	0.359300	0.816800
H921	H92	0.714200	0.400700	0.857000
H931	H93	0.518000	0.214000	0.764400
H941	H94	0.380800	0.167700	0.712200
H951	H95	0.381900	0.438900	0.645900
H961	H96	0.517100	0.490500	0.695600
C591	C59	0.171000	0.141000	0.519800
C601	C60	0.107000	0.115000	0.477900
C611	C61	0.006000	0.153000	0.480100
C621	C62	0.975000	0.210000	0.521100
C631	C63	0.048000	0.232000	0.559500
C641	C64	0.937000	0.131000	0.434900
C651	C65	0.768000	0.154000	0.402800
C661	C66	0.656000	0.232000	0.336200
C671	C67	0.610000	0.115000	0.269100
C681	C68	0.641000	0.031000	0.236500
C691	C69	0.738000	0.990000	0.240500
C701	C70	0.765000	0.909000	0.209000
C711	C71	0.608000	0.909000	0.170400
C721	C72	0.576000	0.990000	0.200000
C731	C73	0.329000	0.359000	0.519800
C741	C74	0.393000	0.385000	0.477900
C751	C75	0.494000	0.347000	0.480100
C761	C76	0.525000	0.290000	0.521100
C771	C77	0.452000	0.268000	0.559500
C781	C78	0.563000	0.369000	0.434900
C791	C79	0.732000	0.346000	0.402800
C801	C80	0.844000	0.268000	0.336200
C811	C81	0.890000	0.385000	0.269100
C821	C82	0.859000	0.469000	0.236500
C831	C83	0.762000	0.510000	0.240500
C841	C84	0.735000	0.591000	0.209000
C851	C85	0.892000	0.591000	0.170400
C861	C86	0.924000	0.510000	0.200000
C871	C87	0.859000	0.671000	0.019800
C881	C88	0.885000	0.607000	0.977900
C891	C89	0.847000	0.506000	0.980100
C901	C90	0.790000	0.475000	0.021100
C911	C91	0.768000	0.548000	0.059500
C921	C92	0.869000	0.437000	0.934900
C931	C93	0.846000	0.268000	0.902800
C941	C94	0.768000	0.156000	0.836200
C951	C95	0.885000	0.110000	0.769100
C961	C96	0.969000	0.141000	0.736500
C971	C97	0.010000	0.238000	0.740500
C981	C98	0.091000	0.265000	0.709000
C991	C99	0.091000	0.108000	0.670400
C1001	C100	0.010000	0.076000	0.700000
C1011	C101	0.641000	0.829000	0.019800
C1021	C102	0.615000	0.893000	0.977900
C1031	C103	0.653000	0.994000	0.980100
C1041	C104	0.710000	0.025000	0.021100
C1051	C105	0.732000	0.952000	0.059500
C1061	C106	0.631000	0.063000	0.934900
C1071	C107	0.654000	0.232000	0.902800
C1081	C108	0.732000	0.344000	0.836200
C1091	C109	0.615000	0.390000	0.769100
C1101	C110	0.531000	0.359000	0.736500
C1111	C111	0.490000	0.262000	0.740500
C1121	C112	0.409000	0.235000	0.709000
C1131	C113	0.409000	0.392000	0.670400
C1141	C114	0.490000	0.424000	0.700000
C1151	C115	0.750000	0.250000	0.369400
C1161	C116	0.750000	0.250000	0.869400
N91	N9	0.143000	0.200000	0.559000
N101	N10	0.702000	0.867000	0.174400
N111	N11	0.357000	0.300000	0.559000
N121	N12	0.798000	0.633000	0.174400
N131	N13	0.800000	0.643000	0.059000
N141	N14	0.133000	0.202000	0.674400
N151	N15	0.700000	0.857000	0.059000
N161	N16	0.367000	0.298000	0.674400
Cl51	Cl5	0.327800	0.082400	0.619000
Cl61	Cl6	0.172200	0.417600	0.619000
Cl71	Cl7	0.917600	0.827800	0.119000
Cl81	Cl8	0.582400	0.672200	0.119000
O171	O17	0.963000	0.080000	0.398900
O181	O18	0.845900	0.174500	0.442100
O191	O19	0.682900	0.149100	0.302300
O201	O20	0.526000	0.155000	0.267700
O211	O21	0.537000	0.420000	0.398900
O221	O22	0.654100	0.325500	0.442100
O231	O23	0.817100	0.350900	0.302300
O241	O24	0.974000	0.345000	0.267700
O251	O25	0.920000	0.463000	0.898900
O261	O26	0.825500	0.345900	0.942100
O271	O27	0.850900	0.182900	0.802300
O281	O28	0.845000	0.026000	0.767700
O291	O29	0.580000	0.037000	0.898900
O301	O30	0.674500	0.154100	0.942100
O311	O31	0.649100	0.317100	0.802300
O321	O32	0.655000	0.474000	0.767700
