data_BASSOF_freeONLY_PM
_symmetry_space_group_name_H-M	'P1'
_cell_length_a	8.451700
_cell_length_b	25.326000
_cell_length_c	17.748000
_cell_angle_alpha	90.000000
_cell_angle_beta	90.000000
_cell_angle_gamma	90.000000
_symmetry_Int_Tables_number 1

loop_
_symmetry_equiv_pos_as_xyz
'x,y,z'

loop_
_atom_site_label
_atom_site_type_symbol
_atom_site_fract_x
_atom_site_fract_y
_atom_site_fract_z
Dy11	Dy1	0.665440	0.476160	0.782300
Dy21	Dy2	0.165440	0.523840	0.717700
Dy31	Dy3	0.165440	0.976160	0.217690
Dy41	Dy4	0.665440	0.023840	0.282300
Ag11	Ag1	0.462030	0.227320	0.550030
Ag21	Ag2	0.962030	0.772680	0.949970
Ag31	Ag3	0.962030	0.727320	0.449970
Ag41	Ag4	0.462030	0.272680	0.050030
H11	H1	0.059000	0.404000	0.142500
H21	H2	0.712900	0.371000	0.394200
H31	H3	0.964400	0.455100	0.007900
H41	H4	0.248600	0.339100	0.174400
H51	H5	0.402700	0.361100	0.917800
H61	H6	0.691700	0.298100	0.660000
H71	H7	0.553000	0.295800	0.400300
H81	H8	0.880500	0.434200	0.502900
H91	H9	0.559000	0.596000	0.357500
H101	H10	0.212900	0.629000	0.105800
H111	H11	0.464400	0.544900	0.492100
H121	H12	0.748600	0.660900	0.325600
H131	H13	0.902700	0.638900	0.582200
H141	H14	0.191700	0.701900	0.840000
H151	H15	0.053000	0.704200	0.099700
H161	H16	0.380500	0.565800	0.997100
H171	H17	0.559000	0.904000	0.857500
H181	H18	0.212900	0.871000	0.605800
H191	H19	0.464400	0.955100	0.992100
H201	H20	0.748600	0.839100	0.825600
H211	H21	0.902700	0.861100	0.082200
H221	H22	0.191700	0.798100	0.340000
H231	H23	0.053000	0.795800	0.599700
H241	H24	0.380500	0.934200	0.497100
H251	H25	0.059000	0.096000	0.642500
H261	H26	0.712900	0.129000	0.894200
H271	H27	0.964400	0.044900	0.507900
H281	H28	0.248600	0.160900	0.674400
H291	H29	0.402700	0.138900	0.417800
H301	H30	0.691700	0.201900	0.160000
H311	H31	0.553000	0.204200	0.900300
H321	H32	0.880500	0.065800	0.002900
C11	C1	0.010300	0.482460	0.870690
C21	C2	0.105700	0.444430	0.916610
C31	C3	0.053600	0.437530	0.990170
C41	C4	0.138800	0.403640	0.036300
C51	C5	0.233400	0.353680	0.126800
C61	C6	0.262100	0.372800	0.008500
C71	C7	0.317100	0.380330	0.936000
C81	C8	0.241700	0.417230	0.891080
C91	C9	0.309800	0.426220	0.813500
C101	C10	0.849300	0.365630	0.742100
C111	C11	0.811600	0.367740	0.659000
C121	C12	0.725400	0.325700	0.629350
C131	C13	0.691300	0.326040	0.552900
C141	C14	0.605200	0.311130	0.440900
C151	C15	0.750600	0.365700	0.505200
C161	C16	0.840700	0.407920	0.534300
C171	C17	0.867700	0.408900	0.611400
C181	C18	0.952200	0.454300	0.644800
C191	C19	0.510300	0.517540	0.629310
C201	C20	0.605700	0.555570	0.583390
C211	C21	0.553600	0.562470	0.509830
C221	C22	0.638800	0.596360	0.463700
C231	C23	0.733400	0.646320	0.373200
C241	C24	0.762100	0.627200	0.491500
C251	C25	0.817100	0.619670	0.564000
C261	C26	0.741700	0.582770	0.608920
C271	C27	0.809800	0.573780	0.686500
C281	C28	0.349300	0.634370	0.757900
C291	C29	0.311600	0.632260	0.841000
C301	C30	0.225400	0.674300	0.870650
C311	C31	0.191300	0.673960	0.947100
C321	C32	0.105200	0.688870	0.059100
C331	C33	0.250600	0.634300	0.994800
C341	C34	0.340700	0.592080	0.965700
C351	C35	0.367700	0.591100	0.888600
C361	C36	0.452200	0.545700	0.855200
C371	C37	0.510300	0.982460	0.129310
C381	C38	0.605700	0.944430	0.083390
C391	C39	0.553600	0.937530	0.009830
C401	C40	0.638800	0.903640	0.963700
C411	C41	0.733400	0.853680	0.873200
C421	C42	0.762100	0.872800	0.991500
C431	C43	0.817100	0.880330	0.064000
C441	C44	0.741700	0.917230	0.108920
C451	C45	0.809800	0.926220	0.186500
C461	C46	0.349300	0.865630	0.257900
C471	C47	0.311600	0.867740	0.341000
C481	C48	0.225400	0.825700	0.370650
C491	C49	0.191300	0.826040	0.447100
C501	C50	0.105200	0.811130	0.559100
C511	C51	0.250600	0.865700	0.494800
C521	C52	0.340700	0.907920	0.465700
C531	C53	0.367700	0.908900	0.388600
C541	C54	0.452200	0.954300	0.355200
C551	C55	0.010300	0.017540	0.370690
C561	C56	0.105700	0.055570	0.416610
C571	C57	0.053600	0.062470	0.490170
C581	C58	0.138800	0.096360	0.536300
C591	C59	0.233400	0.146320	0.626800
C601	C60	0.262100	0.127200	0.508500
C611	C61	0.317100	0.119670	0.436000
C621	C62	0.241700	0.082770	0.391080
C631	C63	0.309800	0.073780	0.313500
C641	C64	0.849300	0.134370	0.242100
C651	C65	0.811600	0.132260	0.159000
C661	C66	0.725400	0.174300	0.129350
C671	C67	0.691300	0.173960	0.052900
C681	C68	0.605200	0.188870	0.940900
C691	C69	0.750600	0.134300	0.005200
C701	C70	0.840700	0.092080	0.034300
C711	C71	0.867700	0.091100	0.111400
C721	C72	0.952200	0.045700	0.144800
N11	N1	0.125400	0.390660	0.111130
N21	N2	0.316500	0.340210	0.066030
N31	N3	0.597700	0.292150	0.510540
N41	N4	0.694000	0.353770	0.434950
N51	N5	0.625400	0.609340	0.388870
N61	N6	0.816500	0.659790	0.433970
N71	N7	0.097700	0.707850	0.989460
N81	N8	0.194000	0.646230	0.065050
N91	N9	0.625400	0.890660	0.888870
N101	N10	0.816500	0.840210	0.933970
N111	N11	0.097700	0.792150	0.489460
N121	N12	0.194000	0.853770	0.565050
N131	N13	0.125400	0.109340	0.611130
N141	N14	0.316500	0.159790	0.566030
N151	N15	0.597700	0.207850	0.010540
N161	N16	0.694000	0.146230	0.934950
O11	O1	0.864700	0.475720	0.871170
O21	O2	0.077500	0.521860	0.838910
O31	O3	0.222600	0.440610	0.759810
O41	O4	0.457900	0.419270	0.807140
O51	O5	0.749800	0.389500	0.785550
O61	O6	0.960100	0.339260	0.765060
O71	O7	0.912200	0.469740	0.711080
O81	O8	0.063500	0.476350	0.611430
O91	O9	0.364700	0.524280	0.628830
O101	O10	0.577500	0.478140	0.661090
O111	O11	0.722600	0.559390	0.740190
O121	O12	0.957900	0.580730	0.692860
O131	O13	0.249800	0.610500	0.714450
O141	O14	0.460100	0.660740	0.734940
O151	O15	0.412200	0.530260	0.788920
O161	O16	0.563500	0.523650	0.888570
O171	O17	0.364700	0.975720	0.128830
O181	O18	0.577500	0.021860	0.161090
O191	O19	0.722600	0.940610	0.240190
O201	O20	0.957900	0.919270	0.192860
O211	O21	0.249800	0.889500	0.214450
O221	O22	0.460100	0.839260	0.234940
O231	O23	0.412200	0.969740	0.288920
O241	O24	0.563500	0.976350	0.388570
O251	O25	0.864700	0.024280	0.371170
O261	O26	0.077500	0.978140	0.338910
O271	O27	0.222600	0.059390	0.259810
O281	O28	0.457900	0.080730	0.307140
O291	O29	0.749800	0.110500	0.285550
O301	O30	0.960100	0.160740	0.265060
O311	O31	0.912200	0.030260	0.211080
O321	O32	0.063500	0.023650	0.111430
Dy51	Dy5	0.834560	0.023840	0.782300
Dy61	Dy6	0.334560	0.976160	0.717700
Dy71	Dy7	0.334560	0.523840	0.217690
Dy81	Dy8	0.834560	0.476160	0.282300
Ag51	Ag5	0.037970	0.272680	0.550030
Ag61	Ag6	0.537970	0.727320	0.949970
Ag71	Ag7	0.537970	0.772680	0.449970
Ag81	Ag8	0.037970	0.227320	0.050030
H331	H33	0.441000	0.096000	0.142500
H341	H34	0.787100	0.129000	0.394200
H351	H35	0.535600	0.044900	0.007900
H361	H36	0.251400	0.160900	0.174400
H371	H37	0.097300	0.138900	0.917800
H381	H38	0.808300	0.201900	0.660000
H391	H39	0.947000	0.204200	0.400300
H401	H40	0.619500	0.065800	0.502900
H411	H41	0.941000	0.904000	0.357500
H421	H42	0.287100	0.871000	0.105800
H431	H43	0.035600	0.955100	0.492100
H441	H44	0.751400	0.839100	0.325600
H451	H45	0.597300	0.861100	0.582200
H461	H46	0.308300	0.798100	0.840000
H471	H47	0.447000	0.795800	0.099700
H481	H48	0.119500	0.934200	0.997100
H491	H49	0.941000	0.596000	0.857500
H501	H50	0.287100	0.629000	0.605800
H511	H51	0.035600	0.544900	0.992100
H521	H52	0.751400	0.660900	0.825600
H531	H53	0.597300	0.638900	0.082200
H541	H54	0.308300	0.701900	0.340000
H551	H55	0.447000	0.704200	0.599700
H561	H56	0.119500	0.565800	0.497100
H571	H57	0.441000	0.404000	0.642500
H581	H58	0.787100	0.371000	0.894200
H591	H59	0.535600	0.455100	0.507900
H601	H60	0.251400	0.339100	0.674400
H611	H61	0.097300	0.361100	0.417800
H621	H62	0.808300	0.298100	0.160000
H631	H63	0.947000	0.295800	0.900300
H641	H64	0.619500	0.434200	0.002900
C731	C73	0.489700	0.017540	0.870690
C741	C74	0.394300	0.055570	0.916610
C751	C75	0.446400	0.062470	0.990170
C761	C76	0.361200	0.096360	0.036300
C771	C77	0.266600	0.146320	0.126800
C781	C78	0.237900	0.127200	0.008500
C791	C79	0.182900	0.119670	0.936000
C801	C80	0.258300	0.082770	0.891080
C811	C81	0.190200	0.073780	0.813500
C821	C82	0.650700	0.134370	0.742100
C831	C83	0.688400	0.132260	0.659000
C841	C84	0.774600	0.174300	0.629350
C851	C85	0.808700	0.173960	0.552900
C861	C86	0.894800	0.188870	0.440900
C871	C87	0.749400	0.134300	0.505200
C881	C88	0.659300	0.092080	0.534300
C891	C89	0.632300	0.091100	0.611400
C901	C90	0.547800	0.045700	0.644800
C911	C91	0.989700	0.982460	0.629310
C921	C92	0.894300	0.944430	0.583390
C931	C93	0.946400	0.937530	0.509830
C941	C94	0.861200	0.903640	0.463700
C951	C95	0.766600	0.853680	0.373200
C961	C96	0.737900	0.872800	0.491500
C971	C97	0.682900	0.880330	0.564000
C981	C98	0.758300	0.917230	0.608920
C991	C99	0.690200	0.926220	0.686500
C1001	C100	0.150700	0.865630	0.757900
C1011	C101	0.188400	0.867740	0.841000
C1021	C102	0.274600	0.825700	0.870650
C1031	C103	0.308700	0.826040	0.947100
C1041	C104	0.394800	0.811130	0.059100
C1051	C105	0.249400	0.865700	0.994800
C1061	C106	0.159300	0.907920	0.965700
C1071	C107	0.132300	0.908900	0.888600
C1081	C108	0.047800	0.954300	0.855200
C1091	C109	0.989700	0.517540	0.129310
C1101	C110	0.894300	0.555570	0.083390
C1111	C111	0.946400	0.562470	0.009830
C1121	C112	0.861200	0.596360	0.963700
C1131	C113	0.766600	0.646320	0.873200
C1141	C114	0.737900	0.627200	0.991500
C1151	C115	0.682900	0.619670	0.064000
C1161	C116	0.758300	0.582770	0.108920
C1171	C117	0.690200	0.573780	0.186500
C1181	C118	0.150700	0.634370	0.257900
C1191	C119	0.188400	0.632260	0.341000
C1201	C120	0.274600	0.674300	0.370650
C1211	C121	0.308700	0.673960	0.447100
C1221	C122	0.394800	0.688870	0.559100
C1231	C123	0.249400	0.634300	0.494800
C1241	C124	0.159300	0.592080	0.465700
C1251	C125	0.132300	0.591100	0.388600
C1261	C126	0.047800	0.545700	0.355200
C1271	C127	0.489700	0.482460	0.370690
C1281	C128	0.394300	0.444430	0.416610
C1291	C129	0.446400	0.437530	0.490170
C1301	C130	0.361200	0.403640	0.536300
C1311	C131	0.266600	0.353680	0.626800
C1321	C132	0.237900	0.372800	0.508500
C1331	C133	0.182900	0.380330	0.436000
C1341	C134	0.258300	0.417230	0.391080
C1351	C135	0.190200	0.426220	0.313500
C1361	C136	0.650700	0.365630	0.242100
C1371	C137	0.688400	0.367740	0.159000
C1381	C138	0.774600	0.325700	0.129350
C1391	C139	0.808700	0.326040	0.052900
C1401	C140	0.894800	0.311130	0.940900
C1411	C141	0.749400	0.365700	0.005200
C1421	C142	0.659300	0.407920	0.034300
C1431	C143	0.632300	0.408900	0.111400
C1441	C144	0.547800	0.454300	0.144800
N171	N17	0.374600	0.109340	0.111130
N181	N18	0.183500	0.159790	0.066030
N191	N19	0.902300	0.207850	0.510540
N201	N20	0.806000	0.146230	0.434950
N211	N21	0.874600	0.890660	0.388870
N221	N22	0.683500	0.840210	0.433970
N231	N23	0.402300	0.792150	0.989460
N241	N24	0.306000	0.853770	0.065050
N251	N25	0.874600	0.609340	0.888870
N261	N26	0.683500	0.659790	0.933970
N271	N27	0.402300	0.707850	0.489460
N281	N28	0.306000	0.646230	0.565050
N291	N29	0.374600	0.390660	0.611130
N301	N30	0.183500	0.340210	0.566030
N311	N31	0.902300	0.292150	0.010540
N321	N32	0.806000	0.353770	0.934950
O331	O33	0.635300	0.024280	0.871170
O341	O34	0.422500	0.978140	0.838910
O351	O35	0.277400	0.059390	0.759810
O361	O36	0.042100	0.080730	0.807140
O371	O37	0.750200	0.110500	0.785550
O381	O38	0.539900	0.160740	0.765060
O391	O39	0.587800	0.030260	0.711080
O401	O40	0.436500	0.023650	0.611430
O411	O41	0.135300	0.975720	0.628830
O421	O42	0.922500	0.021860	0.661090
O431	O43	0.777400	0.940610	0.740190
O441	O44	0.542100	0.919270	0.692860
O451	O45	0.250200	0.889500	0.714450
O461	O46	0.039900	0.839260	0.734940
O471	O47	0.087800	0.969740	0.788920
O481	O48	0.936500	0.976350	0.888570
O491	O49	0.135300	0.524280	0.128830
O501	O50	0.922500	0.478140	0.161090
O511	O51	0.777400	0.559390	0.240190
O521	O52	0.542100	0.580730	0.192860
O531	O53	0.250200	0.610500	0.214450
O541	O54	0.039900	0.660740	0.234940
O551	O55	0.087800	0.530260	0.288920
O561	O56	0.936500	0.523650	0.388570
O571	O57	0.635300	0.475720	0.371170
O581	O58	0.422500	0.521860	0.338910
O591	O59	0.277400	0.440610	0.259810
O601	O60	0.042100	0.419270	0.307140
O611	O61	0.750200	0.389500	0.285550
O621	O62	0.539900	0.339260	0.265060
O631	O63	0.587800	0.469740	0.211080
O641	O64	0.436500	0.476350	0.111430
