data_BASTEW_freeONLY_PM
_symmetry_space_group_name_H-M	'P1'
_cell_length_a	8.595500
_cell_length_b	25.363000
_cell_length_c	17.822000
_cell_angle_alpha	90.000000
_cell_angle_beta	90.000000
_cell_angle_gamma	90.000000
_symmetry_Int_Tables_number 1

loop_
_symmetry_equiv_pos_as_xyz
'x,y,z'

loop_
_atom_site_label
_atom_site_type_symbol
_atom_site_fract_x
_atom_site_fract_y
_atom_site_fract_z
Sm11	Sm1	0.663040	0.976130	0.716370
Sm21	Sm2	0.163040	0.023870	0.783630
Sm31	Sm3	0.163040	0.476130	0.283630
Sm41	Sm4	0.663040	0.523870	0.216370
Ag11	Ag1	0.961000	0.273430	0.549460
Ag21	Ag2	0.461000	0.726570	0.950540
Ag31	Ag3	0.461000	0.773430	0.450540
Ag41	Ag4	0.961000	0.226570	0.049460
H11	H1	0.466900	0.045800	0.009100
H21	H2	0.747000	0.162500	0.174000
H31	H3	0.898400	0.139600	0.919300
H41	H4	0.380900	0.069400	0.503400
H51	H5	0.055500	0.207000	0.400400
H61	H6	0.183500	0.202800	0.660600
H71	H7	0.571000	0.096700	0.150900
H81	H8	0.219000	0.132500	0.391600
H91	H9	0.966900	0.954200	0.490900
H101	H10	0.247000	0.837500	0.326000
H111	H11	0.398400	0.860400	0.580700
H121	H12	0.880900	0.930600	0.996600
H131	H13	0.555500	0.793000	0.099600
H141	H14	0.683500	0.797200	0.839400
H151	H15	0.071000	0.903300	0.349100
H161	H16	0.719000	0.867500	0.108400
H171	H17	0.966900	0.545800	0.990900
H181	H18	0.247000	0.662500	0.826000
H191	H19	0.398400	0.639600	0.080700
H201	H20	0.880900	0.569400	0.496600
H211	H21	0.555500	0.707000	0.599600
H221	H22	0.683500	0.702800	0.339400
H231	H23	0.071000	0.596700	0.849100
H241	H24	0.719000	0.632500	0.608400
H251	H25	0.466900	0.454200	0.509100
H261	H26	0.747000	0.337500	0.674000
H271	H27	0.898400	0.360400	0.419300
H281	H28	0.380900	0.430600	0.003400
H291	H29	0.055500	0.293000	0.900400
H301	H30	0.183500	0.297200	0.160600
H311	H31	0.571000	0.403300	0.650900
H321	H32	0.219000	0.367500	0.891600
C11	C1	0.509700	0.018420	0.872500
C21	C2	0.605500	0.056670	0.918200
C31	C3	0.554500	0.063330	0.991400
C41	C4	0.638800	0.097240	0.037500
C51	C5	0.732600	0.147510	0.126900
C61	C6	0.760600	0.127650	0.009400
C71	C7	0.813900	0.120390	0.937100
C81	C8	0.739700	0.084090	0.891400
C91	C9	0.806500	0.074740	0.814800
C101	C10	0.449500	0.048220	0.644500
C111	C11	0.363900	0.094230	0.611600
C121	C12	0.339400	0.095200	0.534600
C131	C13	0.249900	0.136570	0.505900
C141	C14	0.105900	0.191510	0.440900
C151	C15	0.188100	0.175490	0.553200
C161	C16	0.219800	0.175760	0.629900
C171	C17	0.306100	0.134950	0.659000
C181	C18	0.340500	0.137300	0.742100
C191	C19	0.009700	0.981580	0.627500
C201	C20	0.105500	0.943330	0.581800
C211	C21	0.054500	0.936670	0.508600
C221	C22	0.138800	0.902760	0.462500
C231	C23	0.232600	0.852490	0.373100
C241	C24	0.260600	0.872350	0.490600
C251	C25	0.313900	0.879610	0.562900
C261	C26	0.239700	0.915910	0.608600
C271	C27	0.306500	0.925260	0.685200
C281	C28	0.949500	0.951780	0.855500
C291	C29	0.863900	0.905770	0.888400
C301	C30	0.839400	0.904800	0.965400
C311	C31	0.749900	0.863430	0.994100
C321	C32	0.605900	0.808490	0.059100
C331	C33	0.688100	0.824510	0.946800
C341	C34	0.719800	0.824240	0.870100
C351	C35	0.806100	0.865050	0.841000
C361	C36	0.840500	0.862700	0.757900
C371	C37	0.009700	0.518420	0.127500
C381	C38	0.105500	0.556670	0.081800
C391	C39	0.054500	0.563330	0.008600
C401	C40	0.138800	0.597240	0.962500
C411	C41	0.232600	0.647510	0.873100
C421	C42	0.260600	0.627650	0.990600
C431	C43	0.313900	0.620390	0.062900
C441	C44	0.239700	0.584090	0.108600
C451	C45	0.306500	0.574740	0.185200
C461	C46	0.949500	0.548220	0.355500
C471	C47	0.863900	0.594230	0.388400
C481	C48	0.839400	0.595200	0.465400
C491	C49	0.749900	0.636570	0.494100
C501	C50	0.605900	0.691510	0.559100
C511	C51	0.688100	0.675490	0.446800
C521	C52	0.719800	0.675760	0.370100
C531	C53	0.806100	0.634950	0.341000
C541	C54	0.840500	0.637300	0.257900
C551	C55	0.509700	0.481580	0.372500
C561	C56	0.605500	0.443330	0.418200
C571	C57	0.554500	0.436670	0.491400
C581	C58	0.638800	0.402760	0.537500
C591	C59	0.732600	0.352490	0.626900
C601	C60	0.760600	0.372350	0.509400
C611	C61	0.813900	0.379610	0.437100
C621	C62	0.739700	0.415910	0.391400
C631	C63	0.806500	0.425260	0.314800
C641	C64	0.449500	0.451780	0.144500
C651	C65	0.363900	0.405770	0.111600
C661	C66	0.339400	0.404800	0.034600
C671	C67	0.249900	0.363430	0.005900
C681	C68	0.105900	0.308490	0.940900
C691	C69	0.188100	0.324510	0.053200
C701	C70	0.219800	0.324240	0.129900
C711	C71	0.306100	0.365050	0.159000
C721	C72	0.340500	0.362700	0.242100
N11	N1	0.626000	0.110140	0.112200
N21	N2	0.814700	0.160480	0.067000
N31	N3	0.096000	0.209340	0.510200
N41	N4	0.196000	0.148650	0.435100
N51	N5	0.126000	0.889860	0.387800
N61	N6	0.314700	0.839520	0.433000
N71	N7	0.596000	0.790660	0.989800
N81	N8	0.696000	0.851350	0.064900
N91	N9	0.126000	0.610140	0.887800
N101	N10	0.314700	0.660480	0.933000
N111	N11	0.596000	0.709340	0.489800
N121	N12	0.696000	0.648650	0.564900
N131	N13	0.626000	0.389860	0.612200
N141	N14	0.814700	0.339520	0.567000
N151	N15	0.096000	0.290660	0.010200
N161	N16	0.196000	0.351350	0.935100
O11	O1	0.575500	0.979540	0.840910
O21	O2	0.365600	0.025260	0.873580
O31	O3	0.720300	0.061370	0.761250
O41	O4	0.951600	0.081670	0.807850
O51	O5	0.559100	0.027100	0.609820
O61	O6	0.410500	0.031690	0.710020
O71	O7	0.246300	0.112960	0.785700
O81	O8	0.450300	0.163700	0.764400
O91	O9	0.075500	0.020460	0.659090
O101	O10	0.865600	0.974740	0.626420
O111	O11	0.220300	0.938630	0.738750
O121	O12	0.451600	0.918330	0.692150
O131	O13	0.059100	0.972900	0.890180
O141	O14	0.910500	0.968310	0.789980
O151	O15	0.746300	0.887040	0.714300
O161	O16	0.950300	0.836300	0.735600
O171	O17	0.075500	0.479540	0.159090
O181	O18	0.865600	0.525260	0.126420
O191	O19	0.220300	0.561370	0.238750
O201	O20	0.451600	0.581670	0.192150
O211	O21	0.059100	0.527100	0.390180
O221	O22	0.910500	0.531690	0.289980
O231	O23	0.746300	0.612960	0.214300
O241	O24	0.950300	0.663700	0.235600
O251	O25	0.575500	0.520460	0.340910
O261	O26	0.365600	0.474740	0.373580
O271	O27	0.720300	0.438630	0.261250
O281	O28	0.951600	0.418330	0.307850
O291	O29	0.559100	0.472900	0.109820
O301	O30	0.410500	0.468310	0.210020
O311	O31	0.246300	0.387040	0.285700
O321	O32	0.450300	0.336300	0.264400
Sm51	Sm5	0.836960	0.523870	0.716370
Sm61	Sm6	0.336960	0.476130	0.783630
Sm71	Sm7	0.336960	0.023870	0.283630
Sm81	Sm8	0.836960	0.976130	0.216370
Ag51	Ag5	0.539000	0.226570	0.549460
Ag61	Ag6	0.039000	0.773430	0.950540
Ag71	Ag7	0.039000	0.726570	0.450540
Ag81	Ag8	0.539000	0.273430	0.049460
H331	H33	0.033100	0.454200	0.009100
H341	H34	0.753000	0.337500	0.174000
H351	H35	0.601600	0.360400	0.919300
H361	H36	0.119100	0.430600	0.503400
H371	H37	0.444500	0.293000	0.400400
H381	H38	0.316500	0.297200	0.660600
H391	H39	0.929000	0.403300	0.150900
H401	H40	0.281000	0.367500	0.391600
H411	H41	0.533100	0.545800	0.490900
H421	H42	0.253000	0.662500	0.326000
H431	H43	0.101600	0.639600	0.580700
H441	H44	0.619100	0.569400	0.996600
H451	H45	0.944500	0.707000	0.099600
H461	H46	0.816500	0.702800	0.839400
H471	H47	0.429000	0.596700	0.349100
H481	H48	0.781000	0.632500	0.108400
H491	H49	0.533100	0.954200	0.990900
H501	H50	0.253000	0.837500	0.826000
H511	H51	0.101600	0.860400	0.080700
H521	H52	0.619100	0.930600	0.496600
H531	H53	0.944500	0.793000	0.599600
H541	H54	0.816500	0.797200	0.339400
H551	H55	0.429000	0.903300	0.849100
H561	H56	0.781000	0.867500	0.608400
H571	H57	0.033100	0.045800	0.509100
H581	H58	0.753000	0.162500	0.674000
H591	H59	0.601600	0.139600	0.419300
H601	H60	0.119100	0.069400	0.003400
H611	H61	0.444500	0.207000	0.900400
H621	H62	0.316500	0.202800	0.160600
H631	H63	0.929000	0.096700	0.650900
H641	H64	0.281000	0.132500	0.891600
C731	C73	0.990300	0.481580	0.872500
C741	C74	0.894500	0.443330	0.918200
C751	C75	0.945500	0.436670	0.991400
C761	C76	0.861200	0.402760	0.037500
C771	C77	0.767400	0.352490	0.126900
C781	C78	0.739400	0.372350	0.009400
C791	C79	0.686100	0.379610	0.937100
C801	C80	0.760300	0.415910	0.891400
C811	C81	0.693500	0.425260	0.814800
C821	C82	0.050500	0.451780	0.644500
C831	C83	0.136100	0.405770	0.611600
C841	C84	0.160600	0.404800	0.534600
C851	C85	0.250100	0.363430	0.505900
C861	C86	0.394100	0.308490	0.440900
C871	C87	0.311900	0.324510	0.553200
C881	C88	0.280200	0.324240	0.629900
C891	C89	0.193900	0.365050	0.659000
C901	C90	0.159500	0.362700	0.742100
C911	C91	0.490300	0.518420	0.627500
C921	C92	0.394500	0.556670	0.581800
C931	C93	0.445500	0.563330	0.508600
C941	C94	0.361200	0.597240	0.462500
C951	C95	0.267400	0.647510	0.373100
C961	C96	0.239400	0.627650	0.490600
C971	C97	0.186100	0.620390	0.562900
C981	C98	0.260300	0.584090	0.608600
C991	C99	0.193500	0.574740	0.685200
C1001	C100	0.550500	0.548220	0.855500
C1011	C101	0.636100	0.594230	0.888400
C1021	C102	0.660600	0.595200	0.965400
C1031	C103	0.750100	0.636570	0.994100
C1041	C104	0.894100	0.691510	0.059100
C1051	C105	0.811900	0.675490	0.946800
C1061	C106	0.780200	0.675760	0.870100
C1071	C107	0.693900	0.634950	0.841000
C1081	C108	0.659500	0.637300	0.757900
C1091	C109	0.490300	0.981580	0.127500
C1101	C110	0.394500	0.943330	0.081800
C1111	C111	0.445500	0.936670	0.008600
C1121	C112	0.361200	0.902760	0.962500
C1131	C113	0.267400	0.852490	0.873100
C1141	C114	0.239400	0.872350	0.990600
C1151	C115	0.186100	0.879610	0.062900
C1161	C116	0.260300	0.915910	0.108600
C1171	C117	0.193500	0.925260	0.185200
C1181	C118	0.550500	0.951780	0.355500
C1191	C119	0.636100	0.905770	0.388400
C1201	C120	0.660600	0.904800	0.465400
C1211	C121	0.750100	0.863430	0.494100
C1221	C122	0.894100	0.808490	0.559100
C1231	C123	0.811900	0.824510	0.446800
C1241	C124	0.780200	0.824240	0.370100
C1251	C125	0.693900	0.865050	0.341000
C1261	C126	0.659500	0.862700	0.257900
C1271	C127	0.990300	0.018420	0.372500
C1281	C128	0.894500	0.056670	0.418200
C1291	C129	0.945500	0.063330	0.491400
C1301	C130	0.861200	0.097240	0.537500
C1311	C131	0.767400	0.147510	0.626900
C1321	C132	0.739400	0.127650	0.509400
C1331	C133	0.686100	0.120390	0.437100
C1341	C134	0.760300	0.084090	0.391400
C1351	C135	0.693500	0.074740	0.314800
C1361	C136	0.050500	0.048220	0.144500
C1371	C137	0.136100	0.094230	0.111600
C1381	C138	0.160600	0.095200	0.034600
C1391	C139	0.250100	0.136570	0.005900
C1401	C140	0.394100	0.191510	0.940900
C1411	C141	0.311900	0.175490	0.053200
C1421	C142	0.280200	0.175760	0.129900
C1431	C143	0.193900	0.134950	0.159000
C1441	C144	0.159500	0.137300	0.242100
N171	N17	0.874000	0.389860	0.112200
N181	N18	0.685300	0.339520	0.067000
N191	N19	0.404000	0.290660	0.510200
N201	N20	0.304000	0.351350	0.435100
N211	N21	0.374000	0.610140	0.387800
N221	N22	0.185300	0.660480	0.433000
N231	N23	0.904000	0.709340	0.989800
N241	N24	0.804000	0.648650	0.064900
N251	N25	0.374000	0.889860	0.887800
N261	N26	0.185300	0.839520	0.933000
N271	N27	0.904000	0.790660	0.489800
N281	N28	0.804000	0.851350	0.564900
N291	N29	0.874000	0.110140	0.612200
N301	N30	0.685300	0.160480	0.567000
N311	N31	0.404000	0.209340	0.010200
N321	N32	0.304000	0.148650	0.935100
O331	O33	0.924500	0.520460	0.840910
O341	O34	0.134400	0.474740	0.873580
O351	O35	0.779700	0.438630	0.761250
O361	O36	0.548400	0.418330	0.807850
O371	O37	0.940900	0.472900	0.609820
O381	O38	0.089500	0.468310	0.710020
O391	O39	0.253700	0.387040	0.785700
O401	O40	0.049700	0.336300	0.764400
O411	O41	0.424500	0.479540	0.659090
O421	O42	0.634400	0.525260	0.626420
O431	O43	0.279700	0.561370	0.738750
O441	O44	0.048400	0.581670	0.692150
O451	O45	0.440900	0.527100	0.890180
O461	O46	0.589500	0.531690	0.789980
O471	O47	0.753700	0.612960	0.714300
O481	O48	0.549700	0.663700	0.735600
O491	O49	0.424500	0.020460	0.159090
O501	O50	0.634400	0.974740	0.126420
O511	O51	0.279700	0.938630	0.238750
O521	O52	0.048400	0.918330	0.192150
O531	O53	0.440900	0.972900	0.390180
O541	O54	0.589500	0.968310	0.289980
O551	O55	0.753700	0.887040	0.214300
O561	O56	0.549700	0.836300	0.235600
O571	O57	0.924500	0.979540	0.340910
O581	O58	0.134400	0.025260	0.373580
O591	O59	0.779700	0.061370	0.261250
O601	O60	0.548400	0.081670	0.307850
O611	O61	0.940900	0.027100	0.109820
O621	O62	0.089500	0.031690	0.210020
O631	O63	0.253700	0.112960	0.285700
O641	O64	0.049700	0.163700	0.264400
