data_BAWROI_freeONLY_PM
_symmetry_space_group_name_H-M	'P1'
_cell_length_a	28.368000
_cell_length_b	28.368000
_cell_length_c	33.958000
_cell_angle_alpha	90.000000
_cell_angle_beta	90.000000
_cell_angle_gamma	90.000000
_symmetry_Int_Tables_number 1

loop_
_symmetry_equiv_pos_as_xyz
'x,y,z'

loop_
_atom_site_label
_atom_site_type_symbol
_atom_site_fract_x
_atom_site_fract_y
_atom_site_fract_z
Zn11	Zn1	0.834820	0.253120	0.164790
Zn21	Zn2	0.752710	0.172350	0.313540
N11	N1	0.812400	0.204300	0.301000
N21	N2	0.855800	0.197700	0.316000
N31	N3	0.812900	0.239000	0.273800
C11	C1	0.957500	0.203000	0.333600
H11	H1	0.939800	0.181900	0.349600
C21	C2	0.884300	0.228000	0.298300
C31	C3	0.005500	0.204900	0.337400
H21	H2	0.021400	0.185100	0.355700
C41	C4	0.858600	0.255600	0.270100
H31	H3	0.870200	0.279500	0.253100
C51	C5	0.934100	0.231700	0.306600
O11	O1	0.788300	0.900900	0.132000
O21	O2	0.102700	0.210100	0.338900
C61	C6	0.030100	0.235800	0.314300
C71	C7	0.761900	0.923500	0.157300
C81	C8	0.799900	0.000800	0.147400
H41	H4	0.825000	0.984900	0.134500
C91	C9	0.959100	0.261600	0.282200
H51	H5	0.943600	0.280700	0.263200
O31	O3	0.737300	0.899000	0.176100
C101	C10	0.800600	0.048900	0.152100
H61	H6	0.826900	0.066100	0.142400
C111	C11	0.762100	0.976300	0.161700
C121	C12	0.007600	0.262700	0.286400
H71	H7	0.025700	0.282600	0.269700
C131	C13	0.083000	0.239500	0.317500
C141	C14	0.806500	0.152400	0.158800
H81	H8	0.826100	0.145000	0.137000
C151	C15	0.764500	0.072900	0.170400
N41	N4	0.803900	0.194000	0.176700
C161	C16	0.774700	0.121000	0.178100
C171	C17	0.724600	0.998100	0.180000
H91	H9	0.698400	0.980500	0.189300
O41	O4	0.102900	0.268300	0.300100
C181	C18	0.726500	0.046700	0.184200
H101	H10	0.701100	0.062500	0.196900
N51	N5	0.770200	0.192600	0.202700
N61	N6	0.753800	0.149200	0.204900
O51	O5	0.817800	0.267000	0.110900
N71	N7	0.774300	0.308300	0.864600
C191	C19	0.822000	0.262100	0.029200
H111	H11	0.842700	0.241800	0.043200
C201	C20	0.819700	0.264800	0.900700
H121	H12	0.742500	0.342500	0.909200
N81	N8	0.764800	0.319700	0.900700
C211	C21	0.821100	0.262000	0.988700
H131	H13	0.841600	0.241400	0.974800
Zn31	Zn3	0.334820	0.753120	0.664790
Zn41	Zn4	0.252710	0.672350	0.813540
N91	N9	0.312400	0.704300	0.801000
N101	N10	0.355800	0.697700	0.816000
N111	N11	0.312900	0.739000	0.773800
C221	C22	0.457500	0.703000	0.833600
H141	H14	0.439800	0.681900	0.849600
C231	C23	0.384300	0.728000	0.798300
C241	C24	0.505500	0.704900	0.837400
H151	H15	0.521400	0.685100	0.855700
C251	C25	0.358600	0.755600	0.770100
H161	H16	0.370200	0.779500	0.753100
C261	C26	0.434100	0.731700	0.806600
O61	O6	0.288300	0.400900	0.632000
O71	O7	0.602700	0.710100	0.838900
C271	C27	0.530100	0.735800	0.814300
C281	C28	0.261900	0.423500	0.657300
C291	C29	0.299900	0.500800	0.647400
H171	H17	0.325000	0.484900	0.634500
C301	C30	0.459100	0.761600	0.782200
H181	H18	0.443600	0.780700	0.763200
O81	O8	0.237300	0.399000	0.676100
C311	C31	0.300600	0.548900	0.652100
H191	H19	0.326900	0.566100	0.642400
C321	C32	0.262100	0.476300	0.661700
C331	C33	0.507600	0.762700	0.786400
H201	H20	0.525700	0.782600	0.769700
C341	C34	0.583000	0.739500	0.817500
C351	C35	0.306500	0.652400	0.658800
H211	H21	0.326100	0.645000	0.637000
C361	C36	0.264500	0.572900	0.670400
N121	N12	0.303900	0.694000	0.676700
C371	C37	0.274700	0.621000	0.678100
C381	C38	0.224600	0.498100	0.680000
H221	H22	0.198400	0.480500	0.689300
O91	O9	0.602900	0.768300	0.800100
C391	C39	0.226500	0.546700	0.684200
H231	H23	0.201100	0.562500	0.696900
N131	N13	0.270200	0.692600	0.702700
N141	N14	0.253800	0.649200	0.704900
O101	O10	0.317800	0.767000	0.610900
N151	N15	0.274300	0.808300	0.364600
C401	C40	0.322000	0.762100	0.529200
H241	H24	0.342700	0.741800	0.543200
C411	C41	0.319700	0.764800	0.400700
H251	H25	0.242500	0.842500	0.409200
N161	N16	0.264800	0.819700	0.400700
C421	C42	0.321100	0.762000	0.488700
H261	H26	0.341600	0.741400	0.474800
Zn51	Zn5	0.165180	0.746880	0.164790
Zn61	Zn6	0.247290	0.827650	0.313540
N171	N17	0.187600	0.795700	0.301000
N181	N18	0.144200	0.802300	0.316000
N191	N19	0.187100	0.761000	0.273800
C431	C43	0.042500	0.797000	0.333600
H271	H27	0.060200	0.818100	0.349600
C441	C44	0.115700	0.772000	0.298300
C451	C45	0.994500	0.795100	0.337400
H281	H28	0.978600	0.814900	0.355700
C461	C46	0.141400	0.744400	0.270100
H291	H29	0.129800	0.720500	0.253100
C471	C47	0.065900	0.768300	0.306600
O111	O11	0.211700	0.099100	0.132000
O121	O12	0.897300	0.789900	0.338900
C481	C48	0.969900	0.764200	0.314300
C491	C49	0.238100	0.076500	0.157300
C501	C50	0.200100	0.999200	0.147400
H301	H30	0.175000	0.015100	0.134500
C511	C51	0.040900	0.738400	0.282200
H311	H31	0.056400	0.719300	0.263200
O131	O13	0.262700	0.101000	0.176100
C521	C52	0.199400	0.951100	0.152100
H321	H32	0.173100	0.933900	0.142400
C531	C53	0.237900	0.023700	0.161700
C541	C54	0.992400	0.737300	0.286400
H331	H33	0.974300	0.717400	0.269700
C551	C55	0.917000	0.760500	0.317500
C561	C56	0.193500	0.847600	0.158800
H341	H34	0.173900	0.855000	0.137000
C571	C57	0.235500	0.927100	0.170400
N201	N20	0.196100	0.806000	0.176700
C581	C58	0.225300	0.879000	0.178100
C591	C59	0.275400	0.001900	0.180000
H351	H35	0.301600	0.019500	0.189300
O141	O14	0.897100	0.731700	0.300100
C601	C60	0.273500	0.953300	0.184200
H361	H36	0.298900	0.937500	0.196900
N211	N21	0.229800	0.807400	0.202700
N221	N22	0.246200	0.850800	0.204900
O151	O15	0.182200	0.733000	0.110900
N231	N23	0.225700	0.691700	0.864600
C611	C61	0.178000	0.737900	0.029200
H371	H37	0.157300	0.758200	0.043200
C621	C62	0.180300	0.735200	0.900700
H381	H38	0.257500	0.657500	0.909200
N241	N24	0.235200	0.680300	0.900700
C631	C63	0.178900	0.738000	0.988700
H391	H39	0.158400	0.758600	0.974800
Zn71	Zn7	0.665180	0.246880	0.664790
Zn81	Zn8	0.747290	0.327650	0.813540
N251	N25	0.687600	0.295700	0.801000
N261	N26	0.644200	0.302300	0.816000
N271	N27	0.687100	0.261000	0.773800
C641	C64	0.542500	0.297000	0.833600
H401	H40	0.560200	0.318100	0.849600
C651	C65	0.615700	0.272000	0.798300
C661	C66	0.494500	0.295100	0.837400
H411	H41	0.478600	0.314900	0.855700
C671	C67	0.641400	0.244400	0.770100
H421	H42	0.629800	0.220500	0.753100
C681	C68	0.565900	0.268300	0.806600
O161	O16	0.711700	0.599100	0.632000
O171	O17	0.397300	0.289900	0.838900
C691	C69	0.469900	0.264200	0.814300
C701	C70	0.738100	0.576500	0.657300
C711	C71	0.700100	0.499200	0.647400
H431	H43	0.675000	0.515100	0.634500
C721	C72	0.540900	0.238400	0.782200
H441	H44	0.556400	0.219300	0.763200
O181	O18	0.762700	0.601000	0.676100
C731	C73	0.699400	0.451100	0.652100
H451	H45	0.673100	0.433900	0.642400
C741	C74	0.737900	0.523700	0.661700
C751	C75	0.492400	0.237300	0.786400
H461	H46	0.474300	0.217400	0.769700
C761	C76	0.417000	0.260500	0.817500
C771	C77	0.693500	0.347600	0.658800
H471	H47	0.673900	0.355000	0.637000
C781	C78	0.735500	0.427100	0.670400
N281	N28	0.696100	0.306000	0.676700
C791	C79	0.725300	0.379000	0.678100
C801	C80	0.775400	0.501900	0.680000
H481	H48	0.801600	0.519500	0.689300
O191	O19	0.397100	0.231700	0.800100
C811	C81	0.773500	0.453300	0.684200
H491	H49	0.798900	0.437500	0.696900
N291	N29	0.729800	0.307400	0.702700
N301	N30	0.746200	0.350800	0.704900
O201	O20	0.682200	0.233000	0.610900
N311	N31	0.725700	0.191700	0.364600
C821	C82	0.678000	0.237900	0.529200
H501	H50	0.657300	0.258200	0.543200
C831	C83	0.680300	0.235200	0.400700
H511	H51	0.757500	0.157500	0.409200
N321	N32	0.735200	0.180300	0.400700
C841	C84	0.678900	0.238000	0.488700
H521	H52	0.658400	0.258600	0.474800
Zn91	Zn9	0.746880	0.834820	0.164790
Zn101	Zn10	0.827650	0.752710	0.313540
N331	N33	0.795700	0.812400	0.301000
N341	N34	0.802300	0.855800	0.316000
N351	N35	0.761000	0.812900	0.273800
C851	C85	0.797000	0.957500	0.333600
H531	H53	0.818100	0.939800	0.349600
C861	C86	0.772000	0.884300	0.298300
C871	C87	0.795100	0.005500	0.337400
H541	H54	0.814900	0.021400	0.355700
C881	C88	0.744400	0.858600	0.270100
H551	H55	0.720500	0.870200	0.253100
C891	C89	0.768300	0.934100	0.306600
O211	O21	0.099100	0.788300	0.132000
O221	O22	0.789900	0.102700	0.338900
C901	C90	0.764200	0.030100	0.314300
C911	C91	0.076500	0.761900	0.157300
C921	C92	0.999200	0.799900	0.147400
H561	H56	0.015100	0.825000	0.134500
C931	C93	0.738400	0.959100	0.282200
H571	H57	0.719300	0.943600	0.263200
O231	O23	0.101000	0.737300	0.176100
C941	C94	0.951100	0.800600	0.152100
H581	H58	0.933900	0.826900	0.142400
C951	C95	0.023700	0.762100	0.161700
C961	C96	0.737300	0.007600	0.286400
H591	H59	0.717400	0.025700	0.269700
C971	C97	0.760500	0.083000	0.317500
C981	C98	0.847600	0.806500	0.158800
H601	H60	0.855000	0.826100	0.137000
C991	C99	0.927100	0.764500	0.170400
N361	N36	0.806000	0.803900	0.176700
C1001	C100	0.879000	0.774700	0.178100
C1011	C101	0.001900	0.724600	0.180000
H611	H61	0.019500	0.698400	0.189300
O241	O24	0.731700	0.102900	0.300100
C1021	C102	0.953300	0.726500	0.184200
H621	H62	0.937500	0.701100	0.196900
N371	N37	0.807400	0.770200	0.202700
N381	N38	0.850800	0.753800	0.204900
O251	O25	0.733000	0.817800	0.110900
N391	N39	0.691700	0.774300	0.864600
C1031	C103	0.737900	0.822000	0.029200
H631	H63	0.758200	0.842700	0.043200
C1041	C104	0.735200	0.819700	0.900700
H641	H64	0.657500	0.742500	0.909200
N401	N40	0.680300	0.764800	0.900700
C1051	C105	0.738000	0.821100	0.988700
H651	H65	0.758600	0.841600	0.974800
Zn111	Zn11	0.246880	0.334820	0.664790
Zn121	Zn12	0.327650	0.252710	0.813540
N411	N41	0.295700	0.312400	0.801000
N421	N42	0.302300	0.355800	0.816000
N431	N43	0.261000	0.312900	0.773800
C1061	C106	0.297000	0.457500	0.833600
H661	H66	0.318100	0.439800	0.849600
C1071	C107	0.272000	0.384300	0.798300
C1081	C108	0.295100	0.505500	0.837400
H671	H67	0.314900	0.521400	0.855700
C1091	C109	0.244400	0.358600	0.770100
H681	H68	0.220500	0.370200	0.753100
C1101	C110	0.268300	0.434100	0.806600
O261	O26	0.599100	0.288300	0.632000
O271	O27	0.289900	0.602700	0.838900
C1111	C111	0.264200	0.530100	0.814300
C1121	C112	0.576500	0.261900	0.657300
C1131	C113	0.499200	0.299900	0.647400
H691	H69	0.515100	0.325000	0.634500
C1141	C114	0.238400	0.459100	0.782200
H701	H70	0.219300	0.443600	0.763200
O281	O28	0.601000	0.237300	0.676100
C1151	C115	0.451100	0.300600	0.652100
H711	H71	0.433900	0.326900	0.642400
C1161	C116	0.523700	0.262100	0.661700
C1171	C117	0.237300	0.507600	0.786400
H721	H72	0.217400	0.525700	0.769700
C1181	C118	0.260500	0.583000	0.817500
C1191	C119	0.347600	0.306500	0.658800
H731	H73	0.355000	0.326100	0.637000
C1201	C120	0.427100	0.264500	0.670400
N441	N44	0.306000	0.303900	0.676700
C1211	C121	0.379000	0.274700	0.678100
C1221	C122	0.501900	0.224600	0.680000
H741	H74	0.519500	0.198400	0.689300
O291	O29	0.231700	0.602900	0.800100
C1231	C123	0.453300	0.226500	0.684200
H751	H75	0.437500	0.201100	0.696900
N451	N45	0.307400	0.270200	0.702700
N461	N46	0.350800	0.253800	0.704900
O301	O30	0.233000	0.317800	0.610900
N471	N47	0.191700	0.274300	0.364600
C1241	C124	0.237900	0.322000	0.529200
H761	H76	0.258200	0.342700	0.543200
C1251	C125	0.235200	0.319700	0.400700
H771	H77	0.157500	0.242500	0.409200
N481	N48	0.180300	0.264800	0.400700
C1261	C126	0.238000	0.321100	0.488700
H781	H78	0.258600	0.341600	0.474800
Zn131	Zn13	0.253120	0.165180	0.164790
Zn141	Zn14	0.172350	0.247290	0.313540
N491	N49	0.204300	0.187600	0.301000
N501	N50	0.197700	0.144200	0.316000
N511	N51	0.239000	0.187100	0.273800
C1271	C127	0.203000	0.042500	0.333600
H791	H79	0.181900	0.060200	0.349600
C1281	C128	0.228000	0.115700	0.298300
C1291	C129	0.204900	0.994500	0.337400
H801	H80	0.185100	0.978600	0.355700
C1301	C130	0.255600	0.141400	0.270100
H811	H81	0.279500	0.129800	0.253100
C1311	C131	0.231700	0.065900	0.306600
O311	O31	0.900900	0.211700	0.132000
O321	O32	0.210100	0.897300	0.338900
C1321	C132	0.235800	0.969900	0.314300
C1331	C133	0.923500	0.238100	0.157300
C1341	C134	0.000800	0.200100	0.147400
H821	H82	0.984900	0.175000	0.134500
C1351	C135	0.261600	0.040900	0.282200
H831	H83	0.280700	0.056400	0.263200
O331	O33	0.899000	0.262700	0.176100
C1361	C136	0.048900	0.199400	0.152100
H841	H84	0.066100	0.173100	0.142400
C1371	C137	0.976300	0.237900	0.161700
C1381	C138	0.262700	0.992400	0.286400
H851	H85	0.282600	0.974300	0.269700
C1391	C139	0.239500	0.917000	0.317500
C1401	C140	0.152400	0.193500	0.158800
H861	H86	0.145000	0.173900	0.137000
C1411	C141	0.072900	0.235500	0.170400
N521	N52	0.194000	0.196100	0.176700
C1421	C142	0.121000	0.225300	0.178100
C1431	C143	0.998100	0.275400	0.180000
H871	H87	0.980500	0.301600	0.189300
O341	O34	0.268300	0.897100	0.300100
C1441	C144	0.046700	0.273500	0.184200
H881	H88	0.062500	0.298900	0.196900
N531	N53	0.192600	0.229800	0.202700
N541	N54	0.149200	0.246200	0.204900
O351	O35	0.267000	0.182200	0.110900
N551	N55	0.308300	0.225700	0.864600
C1451	C145	0.262100	0.178000	0.029200
H891	H89	0.241800	0.157300	0.043200
C1461	C146	0.264800	0.180300	0.900700
H901	H90	0.342500	0.257500	0.909200
N561	N56	0.319700	0.235200	0.900700
C1471	C147	0.262000	0.178900	0.988700
H911	H91	0.241400	0.158400	0.974800
Zn151	Zn15	0.753120	0.665180	0.664790
Zn161	Zn16	0.672350	0.747290	0.813540
N571	N57	0.704300	0.687600	0.801000
N581	N58	0.697700	0.644200	0.816000
N591	N59	0.739000	0.687100	0.773800
C1481	C148	0.703000	0.542500	0.833600
H921	H92	0.681900	0.560200	0.849600
C1491	C149	0.728000	0.615700	0.798300
C1501	C150	0.704900	0.494500	0.837400
H931	H93	0.685100	0.478600	0.855700
C1511	C151	0.755600	0.641400	0.770100
H941	H94	0.779500	0.629800	0.753100
C1521	C152	0.731700	0.565900	0.806600
O361	O36	0.400900	0.711700	0.632000
O371	O37	0.710100	0.397300	0.838900
C1531	C153	0.735800	0.469900	0.814300
C1541	C154	0.423500	0.738100	0.657300
C1551	C155	0.500800	0.700100	0.647400
H951	H95	0.484900	0.675000	0.634500
C1561	C156	0.761600	0.540900	0.782200
H961	H96	0.780700	0.556400	0.763200
O381	O38	0.399000	0.762700	0.676100
C1571	C157	0.548900	0.699400	0.652100
H971	H97	0.566100	0.673100	0.642400
C1581	C158	0.476300	0.737900	0.661700
C1591	C159	0.762700	0.492400	0.786400
H981	H98	0.782600	0.474300	0.769700
C1601	C160	0.739500	0.417000	0.817500
C1611	C161	0.652400	0.693500	0.658800
H991	H99	0.645000	0.673900	0.637000
C1621	C162	0.572900	0.735500	0.670400
N601	N60	0.694000	0.696100	0.676700
C1631	C163	0.621000	0.725300	0.678100
C1641	C164	0.498100	0.775400	0.680000
H1001	H100	0.480500	0.801600	0.689300
O391	O39	0.768300	0.397100	0.800100
C1651	C165	0.546700	0.773500	0.684200
H1011	H101	0.562500	0.798900	0.696900
N611	N61	0.692600	0.729800	0.702700
N621	N62	0.649200	0.746200	0.704900
O401	O40	0.767000	0.682200	0.610900
N631	N63	0.808300	0.725700	0.364600
C1661	C166	0.762100	0.678000	0.529200
H1021	H102	0.741800	0.657300	0.543200
C1671	C167	0.764800	0.680300	0.400700
H1031	H103	0.842500	0.757500	0.409200
N641	N64	0.819700	0.735200	0.400700
C1681	C168	0.762000	0.678900	0.488700
H1041	H104	0.741400	0.658400	0.474800
Zn171	Zn17	0.834820	0.746880	0.664790
Zn181	Zn18	0.752710	0.827650	0.813540
N651	N65	0.812400	0.795700	0.801000
N661	N66	0.855800	0.802300	0.816000
N671	N67	0.812900	0.761000	0.773800
C1691	C169	0.957500	0.797000	0.833600
H1051	H105	0.939800	0.818100	0.849600
C1701	C170	0.884300	0.772000	0.798300
C1711	C171	0.005500	0.795100	0.837400
H1061	H106	0.021400	0.814900	0.855700
C1721	C172	0.858600	0.744400	0.770100
H1071	H107	0.870200	0.720500	0.753100
C1731	C173	0.934100	0.768300	0.806600
O411	O41	0.788300	0.099100	0.632000
O421	O42	0.102700	0.789900	0.838900
C1741	C174	0.030100	0.764200	0.814300
C1751	C175	0.761900	0.076500	0.657300
C1761	C176	0.799900	0.999200	0.647400
H1081	H108	0.825000	0.015100	0.634500
C1771	C177	0.959100	0.738400	0.782200
H1091	H109	0.943600	0.719300	0.763200
O431	O43	0.737300	0.101000	0.676100
C1781	C178	0.800600	0.951100	0.652100
H1101	H110	0.826900	0.933900	0.642400
C1791	C179	0.762100	0.023700	0.661700
C1801	C180	0.007600	0.737300	0.786400
H1111	H111	0.025700	0.717400	0.769700
C1811	C181	0.083000	0.760500	0.817500
C1821	C182	0.806500	0.847600	0.658800
H1121	H112	0.826100	0.855000	0.637000
C1831	C183	0.764500	0.927100	0.670400
N681	N68	0.803900	0.806000	0.676700
C1841	C184	0.774700	0.879000	0.678100
C1851	C185	0.724600	0.001900	0.680000
H1131	H113	0.698400	0.019500	0.689300
O441	O44	0.102900	0.731700	0.800100
C1861	C186	0.726500	0.953300	0.684200
H1141	H114	0.701100	0.937500	0.696900
N691	N69	0.770200	0.807400	0.702700
N701	N70	0.753800	0.850800	0.704900
O451	O45	0.817800	0.733000	0.610900
N711	N71	0.774300	0.691700	0.364600
C1871	C187	0.822000	0.737900	0.529200
H1151	H115	0.842700	0.758200	0.543200
H1161	H116	0.742500	0.657500	0.409200
C1881	C188	0.821100	0.738000	0.488700
H1171	H117	0.841600	0.758600	0.474800
Zn191	Zn19	0.334820	0.246880	0.164790
Zn201	Zn20	0.252710	0.327650	0.313540
N721	N72	0.312400	0.295700	0.301000
N731	N73	0.355800	0.302300	0.316000
N741	N74	0.312900	0.261000	0.273800
C1891	C189	0.457500	0.297000	0.333600
H1181	H118	0.439800	0.318100	0.349600
C1901	C190	0.384300	0.272000	0.298300
C1911	C191	0.505500	0.295100	0.337400
H1191	H119	0.521400	0.314900	0.355700
C1921	C192	0.358600	0.244400	0.270100
H1201	H120	0.370200	0.220500	0.253100
C1931	C193	0.434100	0.268300	0.306600
O461	O46	0.288300	0.599100	0.132000
O471	O47	0.602700	0.289900	0.338900
C1941	C194	0.530100	0.264200	0.314300
C1951	C195	0.261900	0.576500	0.157300
C1961	C196	0.299900	0.499200	0.147400
H1211	H121	0.325000	0.515100	0.134500
C1971	C197	0.459100	0.238400	0.282200
H1221	H122	0.443600	0.219300	0.263200
O481	O48	0.237300	0.601000	0.176100
C1981	C198	0.300600	0.451100	0.152100
H1231	H123	0.326900	0.433900	0.142400
C1991	C199	0.262100	0.523700	0.161700
C2001	C200	0.507600	0.237300	0.286400
H1241	H124	0.525700	0.217400	0.269700
C2011	C201	0.583000	0.260500	0.317500
C2021	C202	0.306500	0.347600	0.158800
H1251	H125	0.326100	0.355000	0.137000
C2031	C203	0.264500	0.427100	0.170400
N751	N75	0.303900	0.306000	0.176700
C2041	C204	0.274700	0.379000	0.178100
C2051	C205	0.224600	0.501900	0.180000
H1261	H126	0.198400	0.519500	0.189300
O491	O49	0.602900	0.231700	0.300100
C2061	C206	0.226500	0.453300	0.184200
H1271	H127	0.201100	0.437500	0.196900
N761	N76	0.270200	0.307400	0.202700
N771	N77	0.253800	0.350800	0.204900
O501	O50	0.317800	0.233000	0.110900
N781	N78	0.274300	0.191700	0.864600
C2071	C207	0.322000	0.237900	0.029200
H1281	H128	0.342700	0.258200	0.043200
H1291	H129	0.242500	0.157500	0.909200
C2081	C208	0.321100	0.238000	0.988700
H1301	H130	0.341600	0.258600	0.974800
Zn211	Zn21	0.165180	0.253120	0.664790
Zn221	Zn22	0.247290	0.172350	0.813540
N791	N79	0.187600	0.204300	0.801000
N801	N80	0.144200	0.197700	0.816000
N811	N81	0.187100	0.239000	0.773800
C2091	C209	0.042500	0.203000	0.833600
H1311	H131	0.060200	0.181900	0.849600
C2101	C210	0.115700	0.228000	0.798300
C2111	C211	0.994500	0.204900	0.837400
H1321	H132	0.978600	0.185100	0.855700
C2121	C212	0.141400	0.255600	0.770100
H1331	H133	0.129800	0.279500	0.753100
C2131	C213	0.065900	0.231700	0.806600
O511	O51	0.211700	0.900900	0.632000
O521	O52	0.897300	0.210100	0.838900
C2141	C214	0.969900	0.235800	0.814300
C2151	C215	0.238100	0.923500	0.657300
C2161	C216	0.200100	0.000800	0.647400
H1341	H134	0.175000	0.984900	0.634500
C2171	C217	0.040900	0.261600	0.782200
H1351	H135	0.056400	0.280700	0.763200
O531	O53	0.262700	0.899000	0.676100
C2181	C218	0.199400	0.048900	0.652100
H1361	H136	0.173100	0.066100	0.642400
C2191	C219	0.237900	0.976300	0.661700
C2201	C220	0.992400	0.262700	0.786400
H1371	H137	0.974300	0.282600	0.769700
C2211	C221	0.917000	0.239500	0.817500
C2221	C222	0.193500	0.152400	0.658800
H1381	H138	0.173900	0.145000	0.637000
C2231	C223	0.235500	0.072900	0.670400
N821	N82	0.196100	0.194000	0.676700
C2241	C224	0.225300	0.121000	0.678100
C2251	C225	0.275400	0.998100	0.680000
H1391	H139	0.301600	0.980500	0.689300
O541	O54	0.897100	0.268300	0.800100
C2261	C226	0.273500	0.046700	0.684200
H1401	H140	0.298900	0.062500	0.696900
N831	N83	0.229800	0.192600	0.702700
N841	N84	0.246200	0.149200	0.704900
O551	O55	0.182200	0.267000	0.610900
N851	N85	0.225700	0.308300	0.364600
C2271	C227	0.178000	0.262100	0.529200
H1411	H141	0.157300	0.241800	0.543200
H1421	H142	0.257500	0.342500	0.409200
C2281	C228	0.178900	0.262000	0.488700
H1431	H143	0.158400	0.241400	0.474800
Zn231	Zn23	0.665180	0.753120	0.164790
Zn241	Zn24	0.747290	0.672350	0.313540
N861	N86	0.687600	0.704300	0.301000
N871	N87	0.644200	0.697700	0.316000
N881	N88	0.687100	0.739000	0.273800
C2291	C229	0.542500	0.703000	0.333600
H1441	H144	0.560200	0.681900	0.349600
C2301	C230	0.615700	0.728000	0.298300
C2311	C231	0.494500	0.704900	0.337400
H1451	H145	0.478600	0.685100	0.355700
C2321	C232	0.641400	0.755600	0.270100
H1461	H146	0.629800	0.779500	0.253100
C2331	C233	0.565900	0.731700	0.306600
O561	O56	0.711700	0.400900	0.132000
O571	O57	0.397300	0.710100	0.338900
C2341	C234	0.469900	0.735800	0.314300
C2351	C235	0.738100	0.423500	0.157300
C2361	C236	0.700100	0.500800	0.147400
H1471	H147	0.675000	0.484900	0.134500
C2371	C237	0.540900	0.761600	0.282200
H1481	H148	0.556400	0.780700	0.263200
O581	O58	0.762700	0.399000	0.176100
C2381	C238	0.699400	0.548900	0.152100
H1491	H149	0.673100	0.566100	0.142400
C2391	C239	0.737900	0.476300	0.161700
C2401	C240	0.492400	0.762700	0.286400
H1501	H150	0.474300	0.782600	0.269700
C2411	C241	0.417000	0.739500	0.317500
C2421	C242	0.693500	0.652400	0.158800
H1511	H151	0.673900	0.645000	0.137000
C2431	C243	0.735500	0.572900	0.170400
N891	N89	0.696100	0.694000	0.176700
C2441	C244	0.725300	0.621000	0.178100
C2451	C245	0.775400	0.498100	0.180000
H1521	H152	0.801600	0.480500	0.189300
O591	O59	0.397100	0.768300	0.300100
C2461	C246	0.773500	0.546700	0.184200
H1531	H153	0.798900	0.562500	0.196900
N901	N90	0.729800	0.692600	0.202700
N911	N91	0.746200	0.649200	0.204900
O601	O60	0.682200	0.767000	0.110900
N921	N92	0.725700	0.808300	0.864600
C2471	C247	0.678000	0.762100	0.029200
H1541	H154	0.657300	0.741800	0.043200
H1551	H155	0.757500	0.842500	0.909200
C2481	C248	0.678900	0.762000	0.988700
H1561	H156	0.658400	0.741400	0.974800
Zn251	Zn25	0.746880	0.165180	0.664790
Zn261	Zn26	0.827650	0.247290	0.813540
N931	N93	0.795700	0.187600	0.801000
N941	N94	0.802300	0.144200	0.816000
N951	N95	0.761000	0.187100	0.773800
C2491	C249	0.797000	0.042500	0.833600
H1571	H157	0.818100	0.060200	0.849600
C2501	C250	0.772000	0.115700	0.798300
C2511	C251	0.795100	0.994500	0.837400
H1581	H158	0.814900	0.978600	0.855700
C2521	C252	0.744400	0.141400	0.770100
H1591	H159	0.720500	0.129800	0.753100
C2531	C253	0.768300	0.065900	0.806600
O611	O61	0.099100	0.211700	0.632000
O621	O62	0.789900	0.897300	0.838900
C2541	C254	0.764200	0.969900	0.814300
C2551	C255	0.076500	0.238100	0.657300
C2561	C256	0.999200	0.200100	0.647400
H1601	H160	0.015100	0.175000	0.634500
C2571	C257	0.738400	0.040900	0.782200
H1611	H161	0.719300	0.056400	0.763200
O631	O63	0.101000	0.262700	0.676100
C2581	C258	0.951100	0.199400	0.652100
H1621	H162	0.933900	0.173100	0.642400
C2591	C259	0.023700	0.237900	0.661700
C2601	C260	0.737300	0.992400	0.786400
H1631	H163	0.717400	0.974300	0.769700
C2611	C261	0.760500	0.917000	0.817500
C2621	C262	0.847600	0.193500	0.658800
H1641	H164	0.855000	0.173900	0.637000
C2631	C263	0.927100	0.235500	0.670400
N961	N96	0.806000	0.196100	0.676700
C2641	C264	0.879000	0.225300	0.678100
C2651	C265	0.001900	0.275400	0.680000
H1651	H165	0.019500	0.301600	0.689300
O641	O64	0.731700	0.897100	0.800100
C2661	C266	0.953300	0.273500	0.684200
H1661	H166	0.937500	0.298900	0.696900
N971	N97	0.807400	0.229800	0.702700
N981	N98	0.850800	0.246200	0.704900
O651	O65	0.733000	0.182200	0.610900
N991	N99	0.691700	0.225700	0.364600
C2671	C267	0.737900	0.178000	0.529200
H1671	H167	0.758200	0.157300	0.543200
H1681	H168	0.657500	0.257500	0.409200
C2681	C268	0.738000	0.178900	0.488700
H1691	H169	0.758600	0.158400	0.474800
Zn271	Zn27	0.246880	0.665180	0.164790
Zn281	Zn28	0.327650	0.747290	0.313540
N1001	N100	0.295700	0.687600	0.301000
N1011	N101	0.302300	0.644200	0.316000
N1021	N102	0.261000	0.687100	0.273800
C2691	C269	0.297000	0.542500	0.333600
H1701	H170	0.318100	0.560200	0.349600
C2701	C270	0.272000	0.615700	0.298300
C2711	C271	0.295100	0.494500	0.337400
H1711	H171	0.314900	0.478600	0.355700
C2721	C272	0.244400	0.641400	0.270100
H1721	H172	0.220500	0.629800	0.253100
C2731	C273	0.268300	0.565900	0.306600
O661	O66	0.599100	0.711700	0.132000
O671	O67	0.289900	0.397300	0.338900
C2741	C274	0.264200	0.469900	0.314300
C2751	C275	0.576500	0.738100	0.157300
C2761	C276	0.499200	0.700100	0.147400
H1731	H173	0.515100	0.675000	0.134500
C2771	C277	0.238400	0.540900	0.282200
H1741	H174	0.219300	0.556400	0.263200
O681	O68	0.601000	0.762700	0.176100
C2781	C278	0.451100	0.699400	0.152100
H1751	H175	0.433900	0.673100	0.142400
C2791	C279	0.523700	0.737900	0.161700
C2801	C280	0.237300	0.492400	0.286400
H1761	H176	0.217400	0.474300	0.269700
C2811	C281	0.260500	0.417000	0.317500
C2821	C282	0.347600	0.693500	0.158800
H1771	H177	0.355000	0.673900	0.137000
C2831	C283	0.427100	0.735500	0.170400
N1031	N103	0.306000	0.696100	0.176700
C2841	C284	0.379000	0.725300	0.178100
C2851	C285	0.501900	0.775400	0.180000
H1781	H178	0.519500	0.801600	0.189300
O691	O69	0.231700	0.397100	0.300100
C2861	C286	0.453300	0.773500	0.184200
H1791	H179	0.437500	0.798900	0.196900
N1041	N104	0.307400	0.729800	0.202700
N1051	N105	0.350800	0.746200	0.204900
O701	O70	0.233000	0.682200	0.110900
N1061	N106	0.191700	0.725700	0.864600
C2871	C287	0.237900	0.678000	0.029200
H1801	H180	0.258200	0.657300	0.043200
H1811	H181	0.157500	0.757500	0.909200
C2881	C288	0.238000	0.678900	0.988700
H1821	H182	0.258600	0.658400	0.974800
Zn291	Zn29	0.253120	0.834820	0.664790
Zn301	Zn30	0.172350	0.752710	0.813540
N1071	N107	0.204300	0.812400	0.801000
N1081	N108	0.197700	0.855800	0.816000
N1091	N109	0.239000	0.812900	0.773800
C2891	C289	0.203000	0.957500	0.833600
H1831	H183	0.181900	0.939800	0.849600
C2901	C290	0.228000	0.884300	0.798300
C2911	C291	0.204900	0.005500	0.837400
H1841	H184	0.185100	0.021400	0.855700
C2921	C292	0.255600	0.858600	0.770100
H1851	H185	0.279500	0.870200	0.753100
C2931	C293	0.231700	0.934100	0.806600
O711	O71	0.900900	0.788300	0.632000
O721	O72	0.210100	0.102700	0.838900
C2941	C294	0.235800	0.030100	0.814300
C2951	C295	0.923500	0.761900	0.657300
C2961	C296	0.000800	0.799900	0.647400
H1861	H186	0.984900	0.825000	0.634500
C2971	C297	0.261600	0.959100	0.782200
H1871	H187	0.280700	0.943600	0.763200
O731	O73	0.899000	0.737300	0.676100
C2981	C298	0.048900	0.800600	0.652100
H1881	H188	0.066100	0.826900	0.642400
C2991	C299	0.976300	0.762100	0.661700
C3001	C300	0.262700	0.007600	0.786400
H1891	H189	0.282600	0.025700	0.769700
C3011	C301	0.239500	0.083000	0.817500
C3021	C302	0.152400	0.806500	0.658800
H1901	H190	0.145000	0.826100	0.637000
C3031	C303	0.072900	0.764500	0.670400
N1101	N110	0.194000	0.803900	0.676700
C3041	C304	0.121000	0.774700	0.678100
C3051	C305	0.998100	0.724600	0.680000
H1911	H191	0.980500	0.698400	0.689300
O741	O74	0.268300	0.102900	0.800100
C3061	C306	0.046700	0.726500	0.684200
H1921	H192	0.062500	0.701100	0.696900
N1111	N111	0.192600	0.770200	0.702700
N1121	N112	0.149200	0.753800	0.704900
O751	O75	0.267000	0.817800	0.610900
N1131	N113	0.308300	0.774300	0.364600
C3071	C307	0.262100	0.822000	0.529200
H1931	H193	0.241800	0.842700	0.543200
H1941	H194	0.342500	0.742500	0.409200
C3081	C308	0.262000	0.821100	0.488700
H1951	H195	0.241400	0.841600	0.474800
Zn311	Zn31	0.753120	0.334820	0.164790
Zn321	Zn32	0.672350	0.252710	0.313540
N1141	N114	0.704300	0.312400	0.301000
N1151	N115	0.697700	0.355800	0.316000
N1161	N116	0.739000	0.312900	0.273800
C3091	C309	0.703000	0.457500	0.333600
H1961	H196	0.681900	0.439800	0.349600
C3101	C310	0.728000	0.384300	0.298300
C3111	C311	0.704900	0.505500	0.337400
H1971	H197	0.685100	0.521400	0.355700
C3121	C312	0.755600	0.358600	0.270100
H1981	H198	0.779500	0.370200	0.253100
C3131	C313	0.731700	0.434100	0.306600
O761	O76	0.400900	0.288300	0.132000
O771	O77	0.710100	0.602700	0.338900
C3141	C314	0.735800	0.530100	0.314300
C3151	C315	0.423500	0.261900	0.157300
C3161	C316	0.500800	0.299900	0.147400
H1991	H199	0.484900	0.325000	0.134500
C3171	C317	0.761600	0.459100	0.282200
H2001	H200	0.780700	0.443600	0.263200
O781	O78	0.399000	0.237300	0.176100
C3181	C318	0.548900	0.300600	0.152100
H2011	H201	0.566100	0.326900	0.142400
C3191	C319	0.476300	0.262100	0.161700
C3201	C320	0.762700	0.507600	0.286400
H2021	H202	0.782600	0.525700	0.269700
C3211	C321	0.739500	0.583000	0.317500
C3221	C322	0.652400	0.306500	0.158800
H2031	H203	0.645000	0.326100	0.137000
C3231	C323	0.572900	0.264500	0.170400
N1171	N117	0.694000	0.303900	0.176700
C3241	C324	0.621000	0.274700	0.178100
C3251	C325	0.498100	0.224600	0.180000
H2041	H204	0.480500	0.198400	0.189300
O791	O79	0.768300	0.602900	0.300100
C3261	C326	0.546700	0.226500	0.184200
H2051	H205	0.562500	0.201100	0.196900
N1181	N118	0.692600	0.270200	0.202700
N1191	N119	0.649200	0.253800	0.204900
O801	O80	0.767000	0.317800	0.110900
N1201	N120	0.808300	0.274300	0.864600
C3271	C327	0.762100	0.322000	0.029200
H2061	H206	0.741800	0.342700	0.043200
H2071	H207	0.842500	0.242500	0.909200
C3281	C328	0.762000	0.321100	0.988700
H2081	H208	0.741400	0.341600	0.974800
Zn331	Zn33	0.753150	0.253150	0.239640
O811	O81	0.797000	0.297000	0.196600
C3291	C329	0.792500	0.292500	0.092400
C3301	C330	0.792300	0.292300	0.049000
C3311	C331	0.792800	0.292800	0.924000
C3321	C332	0.791100	0.291100	0.967400
O821	O82	0.710400	0.210400	0.279200
Zn341	Zn34	0.246850	0.746850	0.239640
O831	O83	0.203000	0.703000	0.196600
C3331	C333	0.207500	0.707500	0.092400
C3341	C334	0.207700	0.707700	0.049000
C3351	C335	0.207200	0.707200	0.924000
C3361	C336	0.208900	0.708900	0.967400
O841	O84	0.289600	0.789600	0.279200
Zn351	Zn35	0.746850	0.753150	0.239640
O851	O85	0.703000	0.797000	0.196600
C3371	C337	0.707500	0.792500	0.092400
C3381	C338	0.707700	0.792300	0.049000
C3391	C339	0.707200	0.792800	0.924000
C3401	C340	0.708900	0.791100	0.967400
O861	O86	0.789600	0.710400	0.279200
Zn361	Zn36	0.253150	0.246850	0.239640
O871	O87	0.297000	0.203000	0.196600
C3411	C341	0.292500	0.207500	0.092400
C3421	C342	0.292300	0.207700	0.049000
C3431	C343	0.292800	0.207200	0.924000
C3441	C344	0.291100	0.208900	0.967400
O881	O88	0.210400	0.289600	0.279200
Zn371	Zn37	0.753150	0.746850	0.739640
O891	O89	0.797000	0.703000	0.696600
C3451	C345	0.792500	0.707500	0.592400
C3461	C346	0.792300	0.707700	0.549000
C3471	C347	0.792800	0.707200	0.424000
C3481	C348	0.791100	0.708900	0.467400
O901	O90	0.710400	0.789600	0.779200
Zn381	Zn38	0.246850	0.253150	0.739640
O911	O91	0.203000	0.297000	0.696600
C3491	C349	0.207500	0.292500	0.592400
C3501	C350	0.207700	0.292300	0.549000
C3511	C351	0.207200	0.292800	0.424000
C3521	C352	0.208900	0.291100	0.467400
O921	O92	0.289600	0.210400	0.779200
Zn391	Zn39	0.746850	0.246850	0.739640
O931	O93	0.703000	0.203000	0.696600
C3531	C353	0.707500	0.207500	0.592400
C3541	C354	0.707700	0.207700	0.549000
C3551	C355	0.707200	0.207200	0.424000
C3561	C356	0.708900	0.208900	0.467400
O941	O94	0.789600	0.289600	0.779200
Zn401	Zn40	0.253150	0.753150	0.739640
O951	O95	0.297000	0.797000	0.696600
C3571	C357	0.292500	0.792500	0.592400
C3581	C358	0.292300	0.792300	0.549000
C3591	C359	0.292800	0.792800	0.424000
C3601	C360	0.291100	0.791100	0.467400
O961	O96	0.210400	0.710400	0.779200
