data_BAWRUO_freeONLY_PM
_symmetry_space_group_name_H-M	'P1'
_cell_length_a	15.497400
_cell_length_b	15.497400
_cell_length_c	16.723000
_cell_angle_alpha	78.820200
_cell_angle_beta	78.820200
_cell_angle_gamma	66.618300
_symmetry_Int_Tables_number 1

loop_
_symmetry_equiv_pos_as_xyz
'x,y,z'

loop_
_atom_site_label
_atom_site_type_symbol
_atom_site_fract_x
_atom_site_fract_y
_atom_site_fract_z
U11	U1	0.616140	0.570080	0.551900
U21	U2	0.627520	0.102700	0.626100
U31	U3	0.924200	0.872720	0.468790
U41	U4	0.744420	0.741400	0.769440
U51	U5	0.429920	0.383860	0.948100
U61	U6	0.897300	0.372480	0.873900
U71	U7	0.127280	0.075800	0.031210
U81	U8	0.258600	0.255580	0.730560
U91	U9	0.383860	0.429920	0.448100
U101	U10	0.372480	0.897300	0.373900
U111	U11	0.075800	0.127280	0.531210
U121	U12	0.255580	0.258600	0.230560
U131	U13	0.570080	0.616140	0.051900
U141	U14	0.102700	0.627520	0.126100
U151	U15	0.872720	0.924200	0.968790
U161	U16	0.741400	0.744420	0.269440
P11	P1	0.467840	0.284920	0.756820
P21	P2	0.711910	0.864070	0.564840
P31	P3	0.787710	0.951530	0.774920
P41	P4	0.558510	0.361350	0.594540
P51	P5	0.881920	0.037920	0.617010
P61	P6	0.598690	0.806370	0.465410
P71	P7	0.715080	0.532160	0.743180
P81	P8	0.135930	0.288090	0.935160
P91	P9	0.048470	0.212290	0.725080
P101	P10	0.638650	0.441490	0.905460
P111	P11	0.962080	0.118080	0.882990
P121	P12	0.193630	0.401310	0.034590
P131	P13	0.532160	0.715080	0.243180
P141	P14	0.288090	0.135930	0.435160
P151	P15	0.212290	0.048470	0.225080
P161	P16	0.441490	0.638650	0.405460
P171	P17	0.118080	0.962080	0.382990
P181	P18	0.401310	0.193630	0.534590
P191	P19	0.284920	0.467840	0.256820
P201	P20	0.864070	0.711910	0.064840
P211	P21	0.951530	0.787710	0.274920
P221	P22	0.361350	0.558510	0.094540
P231	P23	0.037920	0.881920	0.117010
P241	P24	0.806370	0.598690	0.965410
H11	H1	0.579100	0.353300	0.728900
H21	H2	0.479800	0.429800	0.711700
H31	H3	0.940300	0.945300	0.732600
H41	H4	0.874400	0.047000	0.752700
H51	H5	0.617000	0.945000	0.465500
H61	H6	0.556300	0.922500	0.546700
H71	H7	0.646700	0.420900	0.771100
H81	H8	0.570200	0.520200	0.788300
H91	H9	0.054700	0.059700	0.767400
H101	H10	0.953000	0.125600	0.747300
H111	H11	0.055000	0.383000	0.034500
H121	H12	0.077500	0.443700	0.953300
H131	H13	0.420900	0.646700	0.271100
H141	H14	0.520200	0.570200	0.288300
H151	H15	0.059700	0.054700	0.267400
H161	H16	0.125600	0.953000	0.247300
H171	H17	0.383000	0.055000	0.534500
H181	H18	0.443700	0.077500	0.453300
H191	H19	0.353300	0.579100	0.228900
H201	H20	0.429800	0.479800	0.211700
H211	H21	0.945300	0.940300	0.232600
H221	H22	0.047000	0.874400	0.252700
H231	H23	0.945000	0.617000	0.965500
H241	H24	0.922500	0.556300	0.046700
C11	C1	0.523200	0.365800	0.703600
C21	C2	0.879600	0.995800	0.724400
C31	C3	0.613600	0.895200	0.509700
C41	C4	0.634200	0.476800	0.796400
C51	C5	0.004200	0.120400	0.775600
C61	C6	0.104800	0.386400	0.990300
C71	C7	0.476800	0.634200	0.296400
C81	C8	0.120400	0.004200	0.275600
C91	C9	0.386400	0.104800	0.490300
C101	C10	0.365800	0.523200	0.203600
C111	C11	0.995800	0.879600	0.224400
C121	C12	0.895200	0.613600	0.009700
O11	O1	0.816500	0.850100	0.757600
O21	O2	0.694700	0.018500	0.744200
O31	O3	0.946500	0.094500	0.596500
O41	O4	0.698200	0.799600	0.643400
O51	O5	0.624700	0.416900	0.567000
O61	O6	0.529600	0.186400	0.734100
O71	O7	0.613400	0.257800	0.582900
O81	O8	0.539000	0.996600	0.701000
O91	O9	0.368300	0.320300	0.732300
O101	O10	0.804300	0.814100	0.512100
O111	O11	0.465900	0.285500	0.849700
O121	O12	0.719900	0.544500	0.478100
O131	O13	0.781800	0.956000	0.867100
O141	O14	0.632900	0.826100	0.808200
O151	O15	0.857400	0.661600	0.728800
O161	O16	0.779800	0.103400	0.602700
O171	O17	0.470000	0.405200	0.551000
O181	O18	0.711900	0.957300	0.582100
O191	O19	0.683600	0.770200	0.401900
O201	O20	0.514600	0.593400	0.628300
O211	O21	0.848100	0.975900	0.412300
O221	O22	0.591600	0.727600	0.533100
O231	O23	0.506400	0.856600	0.426900
O241	O24	0.999500	0.770100	0.525700
O251	O25	0.671200	0.121600	0.470000
O261	O26	0.921200	0.952200	0.570200
O271	O27	0.149900	0.183500	0.742400
O281	O28	0.981500	0.305300	0.755800
O291	O29	0.905500	0.053500	0.903500
O301	O30	0.200400	0.301800	0.856600
O311	O31	0.583100	0.375300	0.933000
O321	O32	0.813600	0.470400	0.765900
O331	O33	0.742200	0.386600	0.917100
O341	O34	0.003400	0.461000	0.799000
O351	O35	0.679700	0.631700	0.767700
O361	O36	0.185900	0.195700	0.987900
O371	O37	0.714500	0.534100	0.650300
O381	O38	0.455500	0.280100	0.021900
O391	O39	0.044000	0.218200	0.632900
O401	O40	0.173900	0.367100	0.691800
O411	O41	0.338400	0.142600	0.771200
O421	O42	0.896600	0.220200	0.897300
O431	O43	0.594800	0.530000	0.949000
O441	O44	0.042700	0.288100	0.917900
O451	O45	0.229800	0.316400	0.098100
O461	O46	0.406600	0.485400	0.871700
O471	O47	0.024100	0.151900	0.087700
O481	O48	0.272400	0.408400	0.966900
O491	O49	0.143400	0.493600	0.073100
O501	O50	0.229900	0.000500	0.974300
O511	O51	0.878400	0.328800	0.030000
O521	O52	0.047800	0.078800	0.929800
O531	O53	0.183500	0.149900	0.242400
O541	O54	0.305300	0.981500	0.255800
O551	O55	0.053500	0.905500	0.403500
O561	O56	0.301800	0.200400	0.356600
O571	O57	0.375300	0.583100	0.433000
O581	O58	0.470400	0.813600	0.265900
O591	O59	0.386600	0.742200	0.417100
O601	O60	0.461000	0.003400	0.299000
O611	O61	0.631700	0.679700	0.267700
O621	O62	0.195700	0.185900	0.487900
O631	O63	0.534100	0.714500	0.150300
O641	O64	0.280100	0.455500	0.521900
O651	O65	0.218200	0.044000	0.132900
O661	O66	0.367100	0.173900	0.191800
O671	O67	0.142600	0.338400	0.271200
O681	O68	0.220200	0.896600	0.397300
O691	O69	0.530000	0.594800	0.449000
O701	O70	0.288100	0.042700	0.417900
O711	O71	0.316400	0.229800	0.598100
O721	O72	0.485400	0.406600	0.371700
O731	O73	0.151900	0.024100	0.587700
O741	O74	0.408400	0.272400	0.466900
O751	O75	0.493600	0.143400	0.573100
O761	O76	0.000500	0.229900	0.474300
O771	O77	0.328800	0.878400	0.530000
O781	O78	0.078800	0.047800	0.429800
O791	O79	0.850100	0.816500	0.257600
O801	O80	0.018500	0.694700	0.244200
O811	O81	0.094500	0.946500	0.096500
O821	O82	0.799600	0.698200	0.143400
O831	O83	0.416900	0.624700	0.067000
O841	O84	0.186400	0.529600	0.234100
O851	O85	0.257800	0.613400	0.082900
O861	O86	0.996600	0.539000	0.201000
O871	O87	0.320300	0.368300	0.232300
O881	O88	0.814100	0.804300	0.012100
O891	O89	0.285500	0.465900	0.349700
O901	O90	0.544500	0.719900	0.978100
O911	O91	0.956000	0.781800	0.367100
O921	O92	0.826100	0.632900	0.308200
O931	O93	0.661600	0.857400	0.228800
O941	O94	0.103400	0.779800	0.102700
O951	O95	0.405200	0.470000	0.051000
O961	O96	0.957300	0.711900	0.082100
O971	O97	0.770200	0.683600	0.901900
O981	O98	0.593400	0.514600	0.128300
O991	O99	0.975900	0.848100	0.912300
O1001	O100	0.727600	0.591600	0.033100
O1011	O101	0.856600	0.506400	0.926900
O1021	O102	0.770100	0.999500	0.025700
O1031	O103	0.121600	0.671200	0.970000
O1041	O104	0.952200	0.921200	0.070200
