data_BAZGEQ_freeONLY_PM
_symmetry_space_group_name_H-M	'P1'
_cell_length_a	38.342000
_cell_length_b	39.707000
_cell_length_c	39.707000
_cell_angle_alpha	90.000000
_cell_angle_beta	90.000000
_cell_angle_gamma	90.000000
_symmetry_Int_Tables_number 1

loop_
_symmetry_equiv_pos_as_xyz
'x,y,z'

loop_
_atom_site_label
_atom_site_type_symbol
_atom_site_fract_x
_atom_site_fract_y
_atom_site_fract_z
Cu11	Cu1	0.046780	0.250000	0.250000
Cu21	Cu2	0.116290	0.250000	0.250000
Cu31	Cu3	0.546780	0.250000	0.250000
Cu41	Cu4	0.616290	0.250000	0.250000
Cu51	Cu5	0.316220	0.460400	0.750000
Cu61	Cu6	0.318460	0.527500	0.750000
Cu71	Cu7	0.316220	0.039600	0.750000
Cu81	Cu8	0.318460	0.972500	0.750000
Cu91	Cu9	0.816220	0.750000	0.460400
Cu101	Cu10	0.818460	0.750000	0.527500
Cu111	Cu11	0.816220	0.750000	0.039600
Cu121	Cu12	0.818460	0.750000	0.972500
H11	H1	0.027900	0.463400	0.423600
H21	H2	0.028500	0.419700	0.384600
H31	H3	0.125800	0.394600	0.413600
H41	H4	0.124300	0.437100	0.452900
H51	H5	0.024900	0.363000	0.365700
H61	H6	0.029900	0.320000	0.325300
H71	H7	0.132600	0.336300	0.323200
H81	H8	0.127300	0.378300	0.362900
H91	H9	0.142300	0.455600	0.535200
H101	H10	0.183400	0.454900	0.578000
H111	H11	0.140700	0.541100	0.611300
H121	H12	0.105500	0.543600	0.565900
H131	H13	0.191500	0.448700	0.629000
H141	H14	0.233400	0.444000	0.669700
H151	H15	0.242200	0.546200	0.673300
H161	H16	0.201000	0.548700	0.630100
H171	H17	0.038400	0.574500	0.532700
H181	H18	0.996500	0.618100	0.533400
H191	H19	0.952400	0.573600	0.451600
H201	H20	0.992500	0.530400	0.451900
H211	H21	0.940200	0.631100	0.540900
H221	H22	0.900300	0.675300	0.542300
H231	H23	0.892400	0.674500	0.444000
H241	H24	0.933400	0.630900	0.437800
H251	H25	0.027900	0.036600	0.076400
H261	H26	0.028500	0.080300	0.115400
H271	H27	0.125800	0.105400	0.086400
H281	H28	0.124300	0.062900	0.047100
H291	H29	0.024900	0.137000	0.134300
H301	H30	0.029900	0.180000	0.174700
H311	H31	0.132600	0.163700	0.176800
H321	H32	0.127300	0.121700	0.137100
H331	H33	0.142300	0.044400	0.964800
H341	H34	0.183400	0.045100	0.922000
H351	H35	0.140700	0.958900	0.888700
H361	H36	0.105500	0.956400	0.934100
H371	H37	0.191500	0.051300	0.871000
H381	H38	0.233400	0.056000	0.830300
H391	H39	0.242200	0.953800	0.826700
H401	H40	0.201000	0.951300	0.869900
H411	H41	0.038400	0.925500	0.967300
H421	H42	0.996500	0.881900	0.966600
H431	H43	0.952400	0.926400	0.048400
H441	H44	0.992500	0.969600	0.048100
H451	H45	0.940200	0.868900	0.959100
H461	H46	0.900300	0.824700	0.957700
H471	H47	0.892400	0.825500	0.056000
H481	H48	0.933400	0.869100	0.062200
H491	H49	0.527900	0.076400	0.463400
H501	H50	0.528500	0.115400	0.419700
H511	H51	0.625800	0.086400	0.394600
H521	H52	0.624300	0.047100	0.437100
H531	H53	0.524900	0.134300	0.363000
H541	H54	0.529900	0.174700	0.320000
H551	H55	0.632600	0.176800	0.336300
H561	H56	0.627300	0.137100	0.378300
H571	H57	0.642300	0.964800	0.455600
H581	H58	0.683400	0.922000	0.454900
H591	H59	0.640700	0.888700	0.541100
H601	H60	0.605500	0.934100	0.543600
H611	H61	0.691500	0.871000	0.448700
H621	H62	0.733400	0.830300	0.444000
H631	H63	0.742200	0.826700	0.546200
H641	H64	0.701000	0.869900	0.548700
H651	H65	0.538400	0.967300	0.574500
H661	H66	0.496500	0.966600	0.618100
H671	H67	0.452400	0.048400	0.573600
H681	H68	0.492500	0.048100	0.530400
H691	H69	0.440200	0.959100	0.631100
H701	H70	0.400300	0.957700	0.675300
H711	H71	0.392400	0.056000	0.674500
H721	H72	0.433400	0.062200	0.630900
H731	H73	0.527900	0.423600	0.036600
H741	H74	0.528500	0.384600	0.080300
H751	H75	0.625800	0.413600	0.105400
H761	H76	0.624300	0.452900	0.062900
H771	H77	0.524900	0.365700	0.137000
H781	H78	0.529900	0.325300	0.180000
H791	H79	0.632600	0.323200	0.163700
H801	H80	0.627300	0.362900	0.121700
H811	H81	0.642300	0.535200	0.044400
H821	H82	0.683400	0.578000	0.045100
H831	H83	0.640700	0.611300	0.958900
H841	H84	0.605500	0.565900	0.956400
H851	H85	0.691500	0.629000	0.051300
H861	H86	0.733400	0.669700	0.056000
H871	H87	0.742200	0.673300	0.953800
H881	H88	0.701000	0.630100	0.951300
H891	H89	0.538400	0.532700	0.925500
H901	H90	0.496500	0.533400	0.881900
H911	H91	0.452400	0.451600	0.926400
H921	H92	0.492500	0.451900	0.969600
H931	H93	0.440200	0.540900	0.868900
H941	H94	0.400300	0.542300	0.824700
H951	H95	0.392400	0.444000	0.825500
H961	H96	0.433400	0.437800	0.869100
H971	H97	0.027900	0.463400	0.076400
H981	H98	0.028500	0.419700	0.115400
H991	H99	0.125800	0.394600	0.086400
H1001	H100	0.124300	0.437100	0.047100
H1011	H101	0.024900	0.363000	0.134300
H1021	H102	0.029900	0.320000	0.174700
H1031	H103	0.132600	0.336300	0.176800
H1041	H104	0.127300	0.378300	0.137100
H1051	H105	0.142300	0.455600	0.964800
H1061	H106	0.183400	0.454900	0.922000
H1071	H107	0.140700	0.541100	0.888700
H1081	H108	0.105500	0.543600	0.934100
H1091	H109	0.191500	0.448700	0.871000
H1101	H110	0.233400	0.444000	0.830300
H1111	H111	0.242200	0.546200	0.826700
H1121	H112	0.201000	0.548700	0.869900
H1131	H113	0.038400	0.574500	0.967300
H1141	H114	0.996500	0.618100	0.966600
H1151	H115	0.952400	0.573600	0.048400
H1161	H116	0.992500	0.530400	0.048100
H1171	H117	0.940200	0.631100	0.959100
H1181	H118	0.900300	0.675300	0.957700
H1191	H119	0.892400	0.674500	0.056000
H1201	H120	0.933400	0.630900	0.062200
H1211	H121	0.027900	0.036600	0.423600
H1221	H122	0.028500	0.080300	0.384600
H1231	H123	0.125800	0.105400	0.413600
H1241	H124	0.124300	0.062900	0.452900
H1251	H125	0.024900	0.137000	0.365700
H1261	H126	0.029900	0.180000	0.325300
H1271	H127	0.132600	0.163700	0.323200
H1281	H128	0.127300	0.121700	0.362900
H1291	H129	0.142300	0.044400	0.535200
H1301	H130	0.183400	0.045100	0.578000
H1311	H131	0.140700	0.958900	0.611300
H1321	H132	0.105500	0.956400	0.565900
H1331	H133	0.191500	0.051300	0.629000
H1341	H134	0.233400	0.056000	0.669700
H1351	H135	0.242200	0.953800	0.673300
H1361	H136	0.201000	0.951300	0.630100
H1371	H137	0.038400	0.925500	0.532700
H1381	H138	0.996500	0.881900	0.533400
H1391	H139	0.952400	0.926400	0.451600
H1401	H140	0.992500	0.969600	0.451900
H1411	H141	0.940200	0.868900	0.540900
H1421	H142	0.900300	0.824700	0.542300
H1431	H143	0.892400	0.825500	0.444000
H1441	H144	0.933400	0.869100	0.437800
H1451	H145	0.527900	0.076400	0.036600
H1461	H146	0.528500	0.115400	0.080300
H1471	H147	0.625800	0.086400	0.105400
H1481	H148	0.624300	0.047100	0.062900
H1491	H149	0.524900	0.134300	0.137000
H1501	H150	0.529900	0.174700	0.180000
H1511	H151	0.632600	0.176800	0.163700
H1521	H152	0.627300	0.137100	0.121700
H1531	H153	0.642300	0.964800	0.044400
H1541	H154	0.683400	0.922000	0.045100
H1551	H155	0.640700	0.888700	0.958900
H1561	H156	0.605500	0.934100	0.956400
H1571	H157	0.691500	0.871000	0.051300
H1581	H158	0.733400	0.830300	0.056000
H1591	H159	0.742200	0.826700	0.953800
H1601	H160	0.701000	0.869900	0.951300
H1611	H161	0.538400	0.967300	0.925500
H1621	H162	0.496500	0.966600	0.881900
H1631	H163	0.452400	0.048400	0.926400
H1641	H164	0.492500	0.048100	0.969600
H1651	H165	0.440200	0.959100	0.868900
H1661	H166	0.400300	0.957700	0.824700
H1671	H167	0.392400	0.056000	0.825500
H1681	H168	0.433400	0.062200	0.869100
H1691	H169	0.527900	0.423600	0.463400
H1701	H170	0.528500	0.384600	0.419700
H1711	H171	0.625800	0.413600	0.394600
H1721	H172	0.624300	0.452900	0.437100
H1731	H173	0.524900	0.365700	0.363000
H1741	H174	0.529900	0.325300	0.320000
H1751	H175	0.632600	0.323200	0.336300
H1761	H176	0.627300	0.362900	0.378300
H1771	H177	0.642300	0.535200	0.455600
H1781	H178	0.683400	0.578000	0.454900
H1791	H179	0.640700	0.611300	0.541100
H1801	H180	0.605500	0.565900	0.543600
H1811	H181	0.691500	0.629000	0.448700
H1821	H182	0.733400	0.669700	0.444000
H1831	H183	0.742200	0.673300	0.546200
H1841	H184	0.701000	0.630100	0.548700
H1851	H185	0.538400	0.532700	0.574500
H1861	H186	0.496500	0.533400	0.618100
H1871	H187	0.452400	0.451600	0.573600
H1881	H188	0.492500	0.451900	0.530400
H1891	H189	0.440200	0.540900	0.631100
H1901	H190	0.400300	0.542300	0.675300
H1911	H191	0.392400	0.444000	0.674500
H1921	H192	0.433400	0.437800	0.630900
C11	C1	0.074200	0.478200	0.469600
C21	C2	0.094600	0.500700	0.519800
C31	C3	0.047200	0.523000	0.492500
C41	C4	0.075400	0.452700	0.442500
C51	C5	0.047100	0.449200	0.421600
C61	C6	0.048100	0.424200	0.397600
C71	C7	0.078100	0.406100	0.393100
C81	C8	0.106600	0.408900	0.415200
C91	C9	0.105300	0.433300	0.439000
C101	C10	0.076500	0.377500	0.367900
C111	C11	0.046800	0.358100	0.356700
C121	C12	0.049700	0.331600	0.332500
C131	C13	0.082000	0.323500	0.319800
C141	C14	0.110500	0.341500	0.331400
C151	C15	0.107200	0.367600	0.355400
C161	C16	0.078800	0.294100	0.295100
C171	C17	0.120100	0.500400	0.547300
C181	C18	0.143400	0.473200	0.550600
C191	C19	0.167200	0.472200	0.575800
C201	C20	0.165600	0.498300	0.597100
C211	C21	0.141700	0.524500	0.594900
C221	C22	0.120400	0.525300	0.568900
C231	C23	0.192800	0.498600	0.625000
C241	C24	0.202100	0.468000	0.637400
C251	C25	0.226700	0.465200	0.662200
C261	C26	0.242100	0.494000	0.676200
C271	C27	0.232500	0.526700	0.664300
C281	C28	0.207800	0.527900	0.638600
C291	C29	0.271600	0.494600	0.706800
C301	C30	0.019300	0.548300	0.492500
C311	C31	0.020600	0.574600	0.516700
C321	C32	0.995700	0.601000	0.517400
C331	C33	0.969800	0.599400	0.492500
C341	C34	0.969600	0.573300	0.468200
C351	C35	0.993500	0.547500	0.467800
C361	C36	0.941500	0.627700	0.489800
C371	C37	0.931100	0.639900	0.521000
C381	C38	0.906400	0.666100	0.521500
C391	C39	0.890500	0.678900	0.493000
C401	C40	0.902100	0.665500	0.463600
C411	C41	0.927100	0.639400	0.458800
C421	C42	0.863700	0.703600	0.492700
C431	C43	0.074200	0.021800	0.030400
C441	C44	0.094600	0.999300	0.980200
C451	C45	0.047200	0.977000	0.007500
C461	C46	0.075400	0.047300	0.057500
C471	C47	0.047100	0.050800	0.078400
C481	C48	0.048100	0.075800	0.102400
C491	C49	0.078100	0.093900	0.106900
C501	C50	0.106600	0.091100	0.084800
C511	C51	0.105300	0.066700	0.061000
C521	C52	0.076500	0.122500	0.132100
C531	C53	0.046800	0.141900	0.143300
C541	C54	0.049700	0.168400	0.167500
C551	C55	0.082000	0.176500	0.180200
C561	C56	0.110500	0.158500	0.168600
C571	C57	0.107200	0.132400	0.144600
C581	C58	0.078800	0.205900	0.204900
C591	C59	0.120100	0.999600	0.952700
C601	C60	0.143400	0.026800	0.949400
C611	C61	0.167200	0.027800	0.924200
C621	C62	0.165600	0.001700	0.902900
C631	C63	0.141700	0.975500	0.905100
C641	C64	0.120400	0.974700	0.931100
C651	C65	0.192800	0.001400	0.875000
C661	C66	0.202100	0.032000	0.862600
C671	C67	0.226700	0.034800	0.837800
C681	C68	0.242100	0.006000	0.823800
C691	C69	0.232500	0.973300	0.835700
C701	C70	0.207800	0.972100	0.861400
C711	C71	0.271600	0.005400	0.793200
C721	C72	0.019300	0.951700	0.007500
C731	C73	0.020600	0.925400	0.983300
C741	C74	0.995700	0.899000	0.982600
C751	C75	0.969800	0.900600	0.007500
C761	C76	0.969600	0.926700	0.031800
C771	C77	0.993500	0.952500	0.032200
C781	C78	0.941500	0.872300	0.010200
C791	C79	0.931100	0.860100	0.979000
C801	C80	0.906400	0.833900	0.978500
C811	C81	0.890500	0.821100	0.007000
C821	C82	0.902100	0.834500	0.036400
C831	C83	0.927100	0.860600	0.041200
C841	C84	0.863700	0.796400	0.007300
C851	C85	0.574200	0.030400	0.478200
C861	C86	0.594600	0.980200	0.500700
C871	C87	0.547200	0.007500	0.523000
C881	C88	0.575400	0.057500	0.452700
C891	C89	0.547100	0.078400	0.449200
C901	C90	0.548100	0.102400	0.424200
C911	C91	0.578100	0.106900	0.406100
C921	C92	0.606600	0.084800	0.408900
C931	C93	0.605300	0.061000	0.433300
C941	C94	0.576500	0.132100	0.377500
C951	C95	0.546800	0.143300	0.358100
C961	C96	0.549700	0.167500	0.331600
C971	C97	0.582000	0.180200	0.323500
C981	C98	0.610500	0.168600	0.341500
C991	C99	0.607200	0.144600	0.367600
C1001	C100	0.578800	0.204900	0.294100
C1011	C101	0.620100	0.952700	0.500400
C1021	C102	0.643400	0.949400	0.473200
C1031	C103	0.667200	0.924200	0.472200
C1041	C104	0.665600	0.902900	0.498300
C1051	C105	0.641700	0.905100	0.524500
C1061	C106	0.620400	0.931100	0.525300
C1071	C107	0.692800	0.875000	0.498600
C1081	C108	0.702100	0.862600	0.468000
C1091	C109	0.726700	0.837800	0.465200
C1101	C110	0.742100	0.823800	0.494000
C1111	C111	0.732500	0.835700	0.526700
C1121	C112	0.707800	0.861400	0.527900
C1131	C113	0.771600	0.793200	0.494600
C1141	C114	0.519300	0.007500	0.548300
C1151	C115	0.520600	0.983300	0.574600
C1161	C116	0.495700	0.982600	0.601000
C1171	C117	0.469800	0.007500	0.599400
C1181	C118	0.469600	0.031800	0.573300
C1191	C119	0.493500	0.032200	0.547500
C1201	C120	0.441500	0.010200	0.627700
C1211	C121	0.431100	0.979000	0.639900
C1221	C122	0.406400	0.978500	0.666100
C1231	C123	0.390500	0.007000	0.678900
C1241	C124	0.402100	0.036400	0.665500
C1251	C125	0.427100	0.041200	0.639400
C1261	C126	0.363700	0.007300	0.703600
C1271	C127	0.574200	0.469600	0.021800
C1281	C128	0.594600	0.519800	0.999300
C1291	C129	0.547200	0.492500	0.977000
C1301	C130	0.575400	0.442500	0.047300
C1311	C131	0.547100	0.421600	0.050800
C1321	C132	0.548100	0.397600	0.075800
C1331	C133	0.578100	0.393100	0.093900
C1341	C134	0.606600	0.415200	0.091100
C1351	C135	0.605300	0.439000	0.066700
C1361	C136	0.576500	0.367900	0.122500
C1371	C137	0.546800	0.356700	0.141900
C1381	C138	0.549700	0.332500	0.168400
C1391	C139	0.582000	0.319800	0.176500
C1401	C140	0.610500	0.331400	0.158500
C1411	C141	0.607200	0.355400	0.132400
C1421	C142	0.578800	0.295100	0.205900
C1431	C143	0.620100	0.547300	0.999600
C1441	C144	0.643400	0.550600	0.026800
C1451	C145	0.667200	0.575800	0.027800
C1461	C146	0.665600	0.597100	0.001700
C1471	C147	0.641700	0.594900	0.975500
C1481	C148	0.620400	0.568900	0.974700
C1491	C149	0.692800	0.625000	0.001400
C1501	C150	0.702100	0.637400	0.032000
C1511	C151	0.726700	0.662200	0.034800
C1521	C152	0.742100	0.676200	0.006000
C1531	C153	0.732500	0.664300	0.973300
C1541	C154	0.707800	0.638600	0.972100
C1551	C155	0.771600	0.706800	0.005400
C1561	C156	0.519300	0.492500	0.951700
C1571	C157	0.520600	0.516700	0.925400
C1581	C158	0.495700	0.517400	0.899000
C1591	C159	0.469800	0.492500	0.900600
C1601	C160	0.469600	0.468200	0.926700
C1611	C161	0.493500	0.467800	0.952500
C1621	C162	0.441500	0.489800	0.872300
C1631	C163	0.431100	0.521000	0.860100
C1641	C164	0.406400	0.521500	0.833900
C1651	C165	0.390500	0.493000	0.821100
C1661	C166	0.402100	0.463600	0.834500
C1671	C167	0.427100	0.458800	0.860600
C1681	C168	0.363700	0.492700	0.796400
C1691	C169	0.074200	0.478200	0.030400
C1701	C170	0.094600	0.500700	0.980200
C1711	C171	0.047200	0.523000	0.007500
C1721	C172	0.075400	0.452700	0.057500
C1731	C173	0.047100	0.449200	0.078400
C1741	C174	0.048100	0.424200	0.102400
C1751	C175	0.078100	0.406100	0.106900
C1761	C176	0.106600	0.408900	0.084800
C1771	C177	0.105300	0.433300	0.061000
C1781	C178	0.076500	0.377500	0.132100
C1791	C179	0.046800	0.358100	0.143300
C1801	C180	0.049700	0.331600	0.167500
C1811	C181	0.082000	0.323500	0.180200
C1821	C182	0.110500	0.341500	0.168600
C1831	C183	0.107200	0.367600	0.144600
C1841	C184	0.078800	0.294100	0.204900
C1851	C185	0.120100	0.500400	0.952700
C1861	C186	0.143400	0.473200	0.949400
C1871	C187	0.167200	0.472200	0.924200
C1881	C188	0.165600	0.498300	0.902900
C1891	C189	0.141700	0.524500	0.905100
C1901	C190	0.120400	0.525300	0.931100
C1911	C191	0.192800	0.498600	0.875000
C1921	C192	0.202100	0.468000	0.862600
C1931	C193	0.226700	0.465200	0.837800
C1941	C194	0.242100	0.494000	0.823800
C1951	C195	0.232500	0.526700	0.835700
C1961	C196	0.207800	0.527900	0.861400
C1971	C197	0.271600	0.494600	0.793200
C1981	C198	0.019300	0.548300	0.007500
C1991	C199	0.020600	0.574600	0.983300
C2001	C200	0.995700	0.601000	0.982600
C2011	C201	0.969800	0.599400	0.007500
C2021	C202	0.969600	0.573300	0.031800
C2031	C203	0.993500	0.547500	0.032200
C2041	C204	0.941500	0.627700	0.010200
C2051	C205	0.931100	0.639900	0.979000
C2061	C206	0.906400	0.666100	0.978500
C2071	C207	0.890500	0.678900	0.007000
C2081	C208	0.902100	0.665500	0.036400
C2091	C209	0.927100	0.639400	0.041200
C2101	C210	0.863700	0.703600	0.007300
C2111	C211	0.074200	0.021800	0.469600
C2121	C212	0.094600	0.999300	0.519800
C2131	C213	0.047200	0.977000	0.492500
C2141	C214	0.075400	0.047300	0.442500
C2151	C215	0.047100	0.050800	0.421600
C2161	C216	0.048100	0.075800	0.397600
C2171	C217	0.078100	0.093900	0.393100
C2181	C218	0.106600	0.091100	0.415200
C2191	C219	0.105300	0.066700	0.439000
C2201	C220	0.076500	0.122500	0.367900
C2211	C221	0.046800	0.141900	0.356700
C2221	C222	0.049700	0.168400	0.332500
C2231	C223	0.082000	0.176500	0.319800
C2241	C224	0.110500	0.158500	0.331400
C2251	C225	0.107200	0.132400	0.355400
C2261	C226	0.078800	0.205900	0.295100
C2271	C227	0.120100	0.999600	0.547300
C2281	C228	0.143400	0.026800	0.550600
C2291	C229	0.167200	0.027800	0.575800
C2301	C230	0.165600	0.001700	0.597100
C2311	C231	0.141700	0.975500	0.594900
C2321	C232	0.120400	0.974700	0.568900
C2331	C233	0.192800	0.001400	0.625000
C2341	C234	0.202100	0.032000	0.637400
C2351	C235	0.226700	0.034800	0.662200
C2361	C236	0.242100	0.006000	0.676200
C2371	C237	0.232500	0.973300	0.664300
C2381	C238	0.207800	0.972100	0.638600
C2391	C239	0.271600	0.005400	0.706800
C2401	C240	0.019300	0.951700	0.492500
C2411	C241	0.020600	0.925400	0.516700
C2421	C242	0.995700	0.899000	0.517400
C2431	C243	0.969800	0.900600	0.492500
C2441	C244	0.969600	0.926700	0.468200
C2451	C245	0.993500	0.952500	0.467800
C2461	C246	0.941500	0.872300	0.489800
C2471	C247	0.931100	0.860100	0.521000
C2481	C248	0.906400	0.833900	0.521500
C2491	C249	0.890500	0.821100	0.493000
C2501	C250	0.902100	0.834500	0.463600
C2511	C251	0.927100	0.860600	0.458800
C2521	C252	0.863700	0.796400	0.492700
C2531	C253	0.574200	0.030400	0.021800
C2541	C254	0.594600	0.980200	0.999300
C2551	C255	0.547200	0.007500	0.977000
C2561	C256	0.575400	0.057500	0.047300
C2571	C257	0.547100	0.078400	0.050800
C2581	C258	0.548100	0.102400	0.075800
C2591	C259	0.578100	0.106900	0.093900
C2601	C260	0.606600	0.084800	0.091100
C2611	C261	0.605300	0.061000	0.066700
C2621	C262	0.576500	0.132100	0.122500
C2631	C263	0.546800	0.143300	0.141900
C2641	C264	0.549700	0.167500	0.168400
C2651	C265	0.582000	0.180200	0.176500
C2661	C266	0.610500	0.168600	0.158500
C2671	C267	0.607200	0.144600	0.132400
C2681	C268	0.578800	0.204900	0.205900
C2691	C269	0.620100	0.952700	0.999600
C2701	C270	0.643400	0.949400	0.026800
C2711	C271	0.667200	0.924200	0.027800
C2721	C272	0.665600	0.902900	0.001700
C2731	C273	0.641700	0.905100	0.975500
C2741	C274	0.620400	0.931100	0.974700
C2751	C275	0.692800	0.875000	0.001400
C2761	C276	0.702100	0.862600	0.032000
C2771	C277	0.726700	0.837800	0.034800
C2781	C278	0.742100	0.823800	0.006000
C2791	C279	0.732500	0.835700	0.973300
C2801	C280	0.707800	0.861400	0.972100
C2811	C281	0.771600	0.793200	0.005400
C2821	C282	0.519300	0.007500	0.951700
C2831	C283	0.520600	0.983300	0.925400
C2841	C284	0.495700	0.982600	0.899000
C2851	C285	0.469800	0.007500	0.900600
C2861	C286	0.469600	0.031800	0.926700
C2871	C287	0.493500	0.032200	0.952500
C2881	C288	0.441500	0.010200	0.872300
C2891	C289	0.431100	0.979000	0.860100
C2901	C290	0.406400	0.978500	0.833900
C2911	C291	0.390500	0.007000	0.821100
C2921	C292	0.402100	0.036400	0.834500
C2931	C293	0.427100	0.041200	0.860600
C2941	C294	0.363700	0.007300	0.796400
C2951	C295	0.574200	0.469600	0.478200
C2961	C296	0.594600	0.519800	0.500700
C2971	C297	0.547200	0.492500	0.523000
C2981	C298	0.575400	0.442500	0.452700
C2991	C299	0.547100	0.421600	0.449200
C3001	C300	0.548100	0.397600	0.424200
C3011	C301	0.578100	0.393100	0.406100
C3021	C302	0.606600	0.415200	0.408900
C3031	C303	0.605300	0.439000	0.433300
C3041	C304	0.576500	0.367900	0.377500
C3051	C305	0.546800	0.356700	0.358100
C3061	C306	0.549700	0.332500	0.331600
C3071	C307	0.582000	0.319800	0.323500
C3081	C308	0.610500	0.331400	0.341500
C3091	C309	0.607200	0.355400	0.367600
C3101	C310	0.578800	0.295100	0.294100
C3111	C311	0.620100	0.547300	0.500400
C3121	C312	0.643400	0.550600	0.473200
C3131	C313	0.667200	0.575800	0.472200
C3141	C314	0.665600	0.597100	0.498300
C3151	C315	0.641700	0.594900	0.524500
C3161	C316	0.620400	0.568900	0.525300
C3171	C317	0.692800	0.625000	0.498600
C3181	C318	0.702100	0.637400	0.468000
C3191	C319	0.726700	0.662200	0.465200
C3201	C320	0.742100	0.676200	0.494000
C3211	C321	0.732500	0.664300	0.526700
C3221	C322	0.707800	0.638600	0.527900
C3231	C323	0.771600	0.706800	0.494600
C3241	C324	0.519300	0.492500	0.548300
C3251	C325	0.520600	0.516700	0.574600
C3261	C326	0.495700	0.517400	0.601000
C3271	C327	0.469800	0.492500	0.599400
C3281	C328	0.469600	0.468200	0.573300
C3291	C329	0.493500	0.467800	0.547500
C3301	C330	0.441500	0.489800	0.627700
C3311	C331	0.431100	0.521000	0.639900
C3321	C332	0.406400	0.521500	0.666100
C3331	C333	0.390500	0.493000	0.678900
C3341	C334	0.402100	0.463600	0.665500
C3351	C335	0.427100	0.458800	0.639400
C3361	C336	0.363700	0.492700	0.703600
N11	N1	0.047900	0.500600	0.467200
N21	N2	0.097300	0.477100	0.495200
N31	N3	0.069400	0.524100	0.519000
N41	N4	0.047900	0.999400	0.032800
N51	N5	0.097300	0.022900	0.004800
N61	N6	0.069400	0.975900	0.981000
N71	N7	0.547900	0.032800	0.500600
N81	N8	0.597300	0.004800	0.477100
N91	N9	0.569400	0.981000	0.524100
N101	N10	0.547900	0.467200	0.999400
N111	N11	0.597300	0.495200	0.022900
N121	N12	0.569400	0.519000	0.975900
N131	N13	0.047900	0.500600	0.032800
N141	N14	0.097300	0.477100	0.004800
N151	N15	0.069400	0.524100	0.981000
N161	N16	0.047900	0.999400	0.467200
N171	N17	0.097300	0.022900	0.495200
N181	N18	0.069400	0.975900	0.519000
N191	N19	0.547900	0.032800	0.999400
N201	N20	0.597300	0.004800	0.022900
N211	N21	0.569400	0.981000	0.975900
N221	N22	0.547900	0.467200	0.500600
N231	N23	0.597300	0.495200	0.477100
N241	N24	0.569400	0.519000	0.524100
O11	O1	0.051770	0.284200	0.284900
O21	O2	0.109070	0.284790	0.284710
O31	O3	0.280490	0.466470	0.715960
O41	O4	0.281970	0.524110	0.715550
O51	O5	0.854670	0.715610	0.519150
O61	O6	0.852200	0.715500	0.465140
O71	O7	0.051770	0.215800	0.215100
O81	O8	0.109070	0.215210	0.215290
O91	O9	0.280490	0.033530	0.784040
O101	O10	0.281970	0.975890	0.784450
O111	O11	0.854670	0.784390	0.980850
O121	O12	0.852200	0.784500	0.034860
O131	O13	0.551770	0.215100	0.284200
O141	O14	0.609070	0.215290	0.284790
O151	O15	0.780490	0.784040	0.466470
O161	O16	0.781970	0.784450	0.524110
O171	O17	0.354670	0.980850	0.715610
O181	O18	0.352200	0.034860	0.715500
O191	O19	0.551770	0.284900	0.215800
O201	O20	0.609070	0.284710	0.215210
O211	O21	0.780490	0.715960	0.033530
O221	O22	0.781970	0.715550	0.975890
O231	O23	0.354670	0.519150	0.784390
O241	O24	0.352200	0.465140	0.784500
O251	O25	0.051770	0.284200	0.215100
O261	O26	0.109070	0.284790	0.215290
O271	O27	0.280490	0.466470	0.784040
O281	O28	0.281970	0.524110	0.784450
O291	O29	0.854670	0.715610	0.980850
O301	O30	0.852200	0.715500	0.034860
O311	O31	0.051770	0.215800	0.284900
O321	O32	0.109070	0.215210	0.284710
O331	O33	0.280490	0.033530	0.715960
O341	O34	0.281970	0.975890	0.715550
O351	O35	0.854670	0.784390	0.519150
O361	O36	0.852200	0.784500	0.465140
O371	O37	0.551770	0.215100	0.215800
O381	O38	0.609070	0.215290	0.215210
O391	O39	0.780490	0.784040	0.033530
O401	O40	0.781970	0.784450	0.975890
O411	O41	0.354670	0.980850	0.784390
O421	O42	0.352200	0.034860	0.784500
O431	O43	0.551770	0.284900	0.284200
O441	O44	0.609070	0.284710	0.284790
O451	O45	0.780490	0.715960	0.466470
O461	O46	0.781970	0.715550	0.524110
O471	O47	0.354670	0.519150	0.715610
O481	O48	0.352200	0.465140	0.715500
Cu131	Cu13	0.953220	0.750000	0.750000
Cu141	Cu14	0.883710	0.750000	0.750000
Cu151	Cu15	0.453220	0.750000	0.750000
Cu161	Cu16	0.383710	0.750000	0.750000
Cu171	Cu17	0.683780	0.539600	0.250000
Cu181	Cu18	0.681540	0.472500	0.250000
Cu191	Cu19	0.683780	0.960400	0.250000
Cu201	Cu20	0.681540	0.027500	0.250000
Cu211	Cu21	0.183780	0.250000	0.960400
Cu221	Cu22	0.181540	0.250000	0.027500
Cu231	Cu23	0.183780	0.250000	0.539600
Cu241	Cu24	0.181540	0.250000	0.472500
H1931	H193	0.972100	0.536600	0.923600
H1941	H194	0.971500	0.580300	0.884600
H1951	H195	0.874200	0.605400	0.913600
H1961	H196	0.875700	0.562900	0.952900
H1971	H197	0.975100	0.637000	0.865700
H1981	H198	0.970100	0.680000	0.825300
H1991	H199	0.867400	0.663700	0.823200
H2001	H200	0.872700	0.621700	0.862900
H2011	H201	0.857700	0.544400	0.035200
H2021	H202	0.816600	0.545100	0.078000
H2031	H203	0.859300	0.458900	0.111300
H2041	H204	0.894500	0.456400	0.065900
H2051	H205	0.808500	0.551300	0.129000
H2061	H206	0.766600	0.556000	0.169700
H2071	H207	0.757800	0.453800	0.173300
H2081	H208	0.799000	0.451300	0.130100
H2091	H209	0.961600	0.425500	0.032700
H2101	H210	0.003500	0.381900	0.033400
H2111	H211	0.047600	0.426400	0.951600
H2121	H212	0.007500	0.469600	0.951900
H2131	H213	0.059800	0.368900	0.040900
H2141	H214	0.099700	0.324700	0.042300
H2151	H215	0.107600	0.325500	0.944000
H2161	H216	0.066600	0.369100	0.937800
H2171	H217	0.972100	0.963400	0.576400
H2181	H218	0.971500	0.919700	0.615400
H2191	H219	0.874200	0.894600	0.586400
H2201	H220	0.875700	0.937100	0.547100
H2211	H221	0.975100	0.863000	0.634300
H2221	H222	0.970100	0.820000	0.674700
H2231	H223	0.867400	0.836300	0.676800
H2241	H224	0.872700	0.878300	0.637100
H2251	H225	0.857700	0.955600	0.464800
H2261	H226	0.816600	0.954900	0.422000
H2271	H227	0.859300	0.041100	0.388700
H2281	H228	0.894500	0.043600	0.434100
H2291	H229	0.808500	0.948700	0.371000
H2301	H230	0.766600	0.944000	0.330300
H2311	H231	0.757800	0.046200	0.326700
H2321	H232	0.799000	0.048700	0.369900
H2331	H233	0.961600	0.074500	0.467300
H2341	H234	0.003500	0.118100	0.466600
H2351	H235	0.047600	0.073600	0.548400
H2361	H236	0.007500	0.030400	0.548100
H2371	H237	0.059800	0.131100	0.459100
H2381	H238	0.099700	0.175300	0.457700
H2391	H239	0.107600	0.174500	0.556000
H2401	H240	0.066600	0.130900	0.562200
H2411	H241	0.472100	0.923600	0.963400
H2421	H242	0.471500	0.884600	0.919700
H2431	H243	0.374200	0.913600	0.894600
H2441	H244	0.375700	0.952900	0.937100
H2451	H245	0.475100	0.865700	0.863000
H2461	H246	0.470100	0.825300	0.820000
H2471	H247	0.367400	0.823200	0.836300
H2481	H248	0.372700	0.862900	0.878300
H2491	H249	0.357700	0.035200	0.955600
H2501	H250	0.316600	0.078000	0.954900
H2511	H251	0.359300	0.111300	0.041100
H2521	H252	0.394500	0.065900	0.043600
H2531	H253	0.308500	0.129000	0.948700
H2541	H254	0.266600	0.169700	0.944000
H2551	H255	0.257800	0.173300	0.046200
H2561	H256	0.299000	0.130100	0.048700
H2571	H257	0.461600	0.032700	0.074500
H2581	H258	0.503500	0.033400	0.118100
H2591	H259	0.547600	0.951600	0.073600
H2601	H260	0.507500	0.951900	0.030400
H2611	H261	0.559800	0.040900	0.131100
H2621	H262	0.599700	0.042300	0.175300
H2631	H263	0.607600	0.944000	0.174500
H2641	H264	0.566600	0.937800	0.130900
H2651	H265	0.472100	0.576400	0.536600
H2661	H266	0.471500	0.615400	0.580300
H2671	H267	0.374200	0.586400	0.605400
H2681	H268	0.375700	0.547100	0.562900
H2691	H269	0.475100	0.634300	0.637000
H2701	H270	0.470100	0.674700	0.680000
H2711	H271	0.367400	0.676800	0.663700
H2721	H272	0.372700	0.637100	0.621700
H2731	H273	0.357700	0.464800	0.544400
H2741	H274	0.316600	0.422000	0.545100
H2751	H275	0.359300	0.388700	0.458900
H2761	H276	0.394500	0.434100	0.456400
H2771	H277	0.308500	0.371000	0.551300
H2781	H278	0.266600	0.330300	0.556000
H2791	H279	0.257800	0.326700	0.453800
H2801	H280	0.299000	0.369900	0.451300
H2811	H281	0.461600	0.467300	0.425500
H2821	H282	0.503500	0.466600	0.381900
H2831	H283	0.547600	0.548400	0.426400
H2841	H284	0.507500	0.548100	0.469600
H2851	H285	0.559800	0.459100	0.368900
H2861	H286	0.599700	0.457700	0.324700
H2871	H287	0.607600	0.556000	0.325500
H2881	H288	0.566600	0.562200	0.369100
H2891	H289	0.972100	0.536600	0.576400
H2901	H290	0.971500	0.580300	0.615400
H2911	H291	0.874200	0.605400	0.586400
H2921	H292	0.875700	0.562900	0.547100
H2931	H293	0.975100	0.637000	0.634300
H2941	H294	0.970100	0.680000	0.674700
H2951	H295	0.867400	0.663700	0.676800
H2961	H296	0.872700	0.621700	0.637100
H2971	H297	0.857700	0.544400	0.464800
H2981	H298	0.816600	0.545100	0.422000
H2991	H299	0.859300	0.458900	0.388700
H3001	H300	0.894500	0.456400	0.434100
H3011	H301	0.808500	0.551300	0.371000
H3021	H302	0.766600	0.556000	0.330300
H3031	H303	0.757800	0.453800	0.326700
H3041	H304	0.799000	0.451300	0.369900
H3051	H305	0.961600	0.425500	0.467300
H3061	H306	0.003500	0.381900	0.466600
H3071	H307	0.047600	0.426400	0.548400
H3081	H308	0.007500	0.469600	0.548100
H3091	H309	0.059800	0.368900	0.459100
H3101	H310	0.099700	0.324700	0.457700
H3111	H311	0.107600	0.325500	0.556000
H3121	H312	0.066600	0.369100	0.562200
H3131	H313	0.972100	0.963400	0.923600
H3141	H314	0.971500	0.919700	0.884600
H3151	H315	0.874200	0.894600	0.913600
H3161	H316	0.875700	0.937100	0.952900
H3171	H317	0.975100	0.863000	0.865700
H3181	H318	0.970100	0.820000	0.825300
H3191	H319	0.867400	0.836300	0.823200
H3201	H320	0.872700	0.878300	0.862900
H3211	H321	0.857700	0.955600	0.035200
H3221	H322	0.816600	0.954900	0.078000
H3231	H323	0.859300	0.041100	0.111300
H3241	H324	0.894500	0.043600	0.065900
H3251	H325	0.808500	0.948700	0.129000
H3261	H326	0.766600	0.944000	0.169700
H3271	H327	0.757800	0.046200	0.173300
H3281	H328	0.799000	0.048700	0.130100
H3291	H329	0.961600	0.074500	0.032700
H3301	H330	0.003500	0.118100	0.033400
H3311	H331	0.047600	0.073600	0.951600
H3321	H332	0.007500	0.030400	0.951900
H3331	H333	0.059800	0.131100	0.040900
H3341	H334	0.099700	0.175300	0.042300
H3351	H335	0.107600	0.174500	0.944000
H3361	H336	0.066600	0.130900	0.937800
H3371	H337	0.472100	0.923600	0.536600
H3381	H338	0.471500	0.884600	0.580300
H3391	H339	0.374200	0.913600	0.605400
H3401	H340	0.375700	0.952900	0.562900
H3411	H341	0.475100	0.865700	0.637000
H3421	H342	0.470100	0.825300	0.680000
H3431	H343	0.367400	0.823200	0.663700
H3441	H344	0.372700	0.862900	0.621700
H3451	H345	0.357700	0.035200	0.544400
H3461	H346	0.316600	0.078000	0.545100
H3471	H347	0.359300	0.111300	0.458900
H3481	H348	0.394500	0.065900	0.456400
H3491	H349	0.308500	0.129000	0.551300
H3501	H350	0.266600	0.169700	0.556000
H3511	H351	0.257800	0.173300	0.453800
H3521	H352	0.299000	0.130100	0.451300
H3531	H353	0.461600	0.032700	0.425500
H3541	H354	0.503500	0.033400	0.381900
H3551	H355	0.547600	0.951600	0.426400
H3561	H356	0.507500	0.951900	0.469600
H3571	H357	0.559800	0.040900	0.368900
H3581	H358	0.599700	0.042300	0.324700
H3591	H359	0.607600	0.944000	0.325500
H3601	H360	0.566600	0.937800	0.369100
H3611	H361	0.472100	0.576400	0.963400
H3621	H362	0.471500	0.615400	0.919700
H3631	H363	0.374200	0.586400	0.894600
H3641	H364	0.375700	0.547100	0.937100
H3651	H365	0.475100	0.634300	0.863000
H3661	H366	0.470100	0.674700	0.820000
H3671	H367	0.367400	0.676800	0.836300
H3681	H368	0.372700	0.637100	0.878300
H3691	H369	0.357700	0.464800	0.955600
H3701	H370	0.316600	0.422000	0.954900
H3711	H371	0.359300	0.388700	0.041100
H3721	H372	0.394500	0.434100	0.043600
H3731	H373	0.308500	0.371000	0.948700
H3741	H374	0.266600	0.330300	0.944000
H3751	H375	0.257800	0.326700	0.046200
H3761	H376	0.299000	0.369900	0.048700
H3771	H377	0.461600	0.467300	0.074500
H3781	H378	0.503500	0.466600	0.118100
H3791	H379	0.547600	0.548400	0.073600
H3801	H380	0.507500	0.548100	0.030400
H3811	H381	0.559800	0.459100	0.131100
H3821	H382	0.599700	0.457700	0.175300
H3831	H383	0.607600	0.556000	0.174500
H3841	H384	0.566600	0.562200	0.130900
C3371	C337	0.925800	0.521800	0.969600
C3381	C338	0.905400	0.499300	0.019800
C3391	C339	0.952800	0.477000	0.992500
C3401	C340	0.924600	0.547300	0.942500
C3411	C341	0.952900	0.550800	0.921600
C3421	C342	0.951900	0.575800	0.897600
C3431	C343	0.921900	0.593900	0.893100
C3441	C344	0.893400	0.591100	0.915200
C3451	C345	0.894700	0.566700	0.939000
C3461	C346	0.923500	0.622500	0.867900
C3471	C347	0.953200	0.641900	0.856700
C3481	C348	0.950300	0.668400	0.832500
C3491	C349	0.918000	0.676500	0.819800
C3501	C350	0.889500	0.658500	0.831400
C3511	C351	0.892800	0.632400	0.855400
C3521	C352	0.921200	0.705900	0.795100
C3531	C353	0.879900	0.499600	0.047300
C3541	C354	0.856600	0.526800	0.050600
C3551	C355	0.832800	0.527800	0.075800
C3561	C356	0.834400	0.501700	0.097100
C3571	C357	0.858300	0.475500	0.094900
C3581	C358	0.879600	0.474700	0.068900
C3591	C359	0.807200	0.501400	0.125000
C3601	C360	0.797900	0.532000	0.137400
C3611	C361	0.773300	0.534800	0.162200
C3621	C362	0.757900	0.506000	0.176200
C3631	C363	0.767500	0.473300	0.164300
C3641	C364	0.792200	0.472100	0.138600
C3651	C365	0.728400	0.505400	0.206800
C3661	C366	0.980700	0.451700	0.992500
C3671	C367	0.979400	0.425400	0.016700
C3681	C368	0.004300	0.399000	0.017400
C3691	C369	0.030200	0.400600	0.992500
C3701	C370	0.030400	0.426700	0.968200
C3711	C371	0.006500	0.452500	0.967800
C3721	C372	0.058500	0.372300	0.989800
C3731	C373	0.068900	0.360100	0.021000
C3741	C374	0.093600	0.333900	0.021500
C3751	C375	0.109500	0.321100	0.993000
C3761	C376	0.097900	0.334500	0.963600
C3771	C377	0.072900	0.360600	0.958800
C3781	C378	0.136300	0.296400	0.992700
C3791	C379	0.925800	0.978200	0.530400
C3801	C380	0.905400	0.000700	0.480200
C3811	C381	0.952800	0.023000	0.507500
C3821	C382	0.924600	0.952700	0.557500
C3831	C383	0.952900	0.949200	0.578400
C3841	C384	0.951900	0.924200	0.602400
C3851	C385	0.921900	0.906100	0.606900
C3861	C386	0.893400	0.908900	0.584800
C3871	C387	0.894700	0.933300	0.561000
C3881	C388	0.923500	0.877500	0.632100
C3891	C389	0.953200	0.858100	0.643300
C3901	C390	0.950300	0.831600	0.667500
C3911	C391	0.918000	0.823500	0.680200
C3921	C392	0.889500	0.841500	0.668600
C3931	C393	0.892800	0.867600	0.644600
C3941	C394	0.921200	0.794100	0.704900
C3951	C395	0.879900	0.000400	0.452700
C3961	C396	0.856600	0.973200	0.449400
C3971	C397	0.832800	0.972200	0.424200
C3981	C398	0.834400	0.998300	0.402900
C3991	C399	0.858300	0.024500	0.405100
C4001	C400	0.879600	0.025300	0.431100
C4011	C401	0.807200	0.998600	0.375000
C4021	C402	0.797900	0.968000	0.362600
C4031	C403	0.773300	0.965200	0.337800
C4041	C404	0.757900	0.994000	0.323800
C4051	C405	0.767500	0.026700	0.335700
C4061	C406	0.792200	0.027900	0.361400
C4071	C407	0.728400	0.994600	0.293200
C4081	C408	0.980700	0.048300	0.507500
C4091	C409	0.979400	0.074600	0.483300
C4101	C410	0.004300	0.101000	0.482600
C4111	C411	0.030200	0.099400	0.507500
C4121	C412	0.030400	0.073300	0.531800
C4131	C413	0.006500	0.047500	0.532200
C4141	C414	0.058500	0.127700	0.510200
C4151	C415	0.068900	0.139900	0.479000
C4161	C416	0.093600	0.166100	0.478500
C4171	C417	0.109500	0.178900	0.507000
C4181	C418	0.097900	0.165500	0.536400
C4191	C419	0.072900	0.139400	0.541200
C4201	C420	0.136300	0.203600	0.507300
C4211	C421	0.425800	0.969600	0.978200
C4221	C422	0.405400	0.019800	0.000700
C4231	C423	0.452800	0.992500	0.023000
C4241	C424	0.424600	0.942500	0.952700
C4251	C425	0.452900	0.921600	0.949200
C4261	C426	0.451900	0.897600	0.924200
C4271	C427	0.421900	0.893100	0.906100
C4281	C428	0.393400	0.915200	0.908900
C4291	C429	0.394700	0.939000	0.933300
C4301	C430	0.423500	0.867900	0.877500
C4311	C431	0.453200	0.856700	0.858100
C4321	C432	0.450300	0.832500	0.831600
C4331	C433	0.418000	0.819800	0.823500
C4341	C434	0.389500	0.831400	0.841500
C4351	C435	0.392800	0.855400	0.867600
C4361	C436	0.421200	0.795100	0.794100
C4371	C437	0.379900	0.047300	0.000400
C4381	C438	0.356600	0.050600	0.973200
C4391	C439	0.332800	0.075800	0.972200
C4401	C440	0.334400	0.097100	0.998300
C4411	C441	0.358300	0.094900	0.024500
C4421	C442	0.379600	0.068900	0.025300
C4431	C443	0.307200	0.125000	0.998600
C4441	C444	0.297900	0.137400	0.968000
C4451	C445	0.273300	0.162200	0.965200
C4461	C446	0.257900	0.176200	0.994000
C4471	C447	0.267500	0.164300	0.026700
C4481	C448	0.292200	0.138600	0.027900
C4491	C449	0.228400	0.206800	0.994600
C4501	C450	0.480700	0.992500	0.048300
C4511	C451	0.479400	0.016700	0.074600
C4521	C452	0.504300	0.017400	0.101000
C4531	C453	0.530200	0.992500	0.099400
C4541	C454	0.530400	0.968200	0.073300
C4551	C455	0.506500	0.967800	0.047500
C4561	C456	0.558500	0.989800	0.127700
C4571	C457	0.568900	0.021000	0.139900
C4581	C458	0.593600	0.021500	0.166100
C4591	C459	0.609500	0.993000	0.178900
C4601	C460	0.597900	0.963600	0.165500
C4611	C461	0.572900	0.958800	0.139400
C4621	C462	0.636300	0.992700	0.203600
C4631	C463	0.425800	0.530400	0.521800
C4641	C464	0.405400	0.480200	0.499300
C4651	C465	0.452800	0.507500	0.477000
C4661	C466	0.424600	0.557500	0.547300
C4671	C467	0.452900	0.578400	0.550800
C4681	C468	0.451900	0.602400	0.575800
C4691	C469	0.421900	0.606900	0.593900
C4701	C470	0.393400	0.584800	0.591100
C4711	C471	0.394700	0.561000	0.566700
C4721	C472	0.423500	0.632100	0.622500
C4731	C473	0.453200	0.643300	0.641900
C4741	C474	0.450300	0.667500	0.668400
C4751	C475	0.418000	0.680200	0.676500
C4761	C476	0.389500	0.668600	0.658500
C4771	C477	0.392800	0.644600	0.632400
C4781	C478	0.421200	0.704900	0.705900
C4791	C479	0.379900	0.452700	0.499600
C4801	C480	0.356600	0.449400	0.526800
C4811	C481	0.332800	0.424200	0.527800
C4821	C482	0.334400	0.402900	0.501700
C4831	C483	0.358300	0.405100	0.475500
C4841	C484	0.379600	0.431100	0.474700
C4851	C485	0.307200	0.375000	0.501400
C4861	C486	0.297900	0.362600	0.532000
C4871	C487	0.273300	0.337800	0.534800
C4881	C488	0.257900	0.323800	0.506000
C4891	C489	0.267500	0.335700	0.473300
C4901	C490	0.292200	0.361400	0.472100
C4911	C491	0.228400	0.293200	0.505400
C4921	C492	0.480700	0.507500	0.451700
C4931	C493	0.479400	0.483300	0.425400
C4941	C494	0.504300	0.482600	0.399000
C4951	C495	0.530200	0.507500	0.400600
C4961	C496	0.530400	0.531800	0.426700
C4971	C497	0.506500	0.532200	0.452500
C4981	C498	0.558500	0.510200	0.372300
C4991	C499	0.568900	0.479000	0.360100
C5001	C500	0.593600	0.478500	0.333900
C5011	C501	0.609500	0.507000	0.321100
C5021	C502	0.597900	0.536400	0.334500
C5031	C503	0.572900	0.541200	0.360600
C5041	C504	0.636300	0.507300	0.296400
C5051	C505	0.925800	0.521800	0.530400
C5061	C506	0.905400	0.499300	0.480200
C5071	C507	0.952800	0.477000	0.507500
C5081	C508	0.924600	0.547300	0.557500
C5091	C509	0.952900	0.550800	0.578400
C5101	C510	0.951900	0.575800	0.602400
C5111	C511	0.921900	0.593900	0.606900
C5121	C512	0.893400	0.591100	0.584800
C5131	C513	0.894700	0.566700	0.561000
C5141	C514	0.923500	0.622500	0.632100
C5151	C515	0.953200	0.641900	0.643300
C5161	C516	0.950300	0.668400	0.667500
C5171	C517	0.918000	0.676500	0.680200
C5181	C518	0.889500	0.658500	0.668600
C5191	C519	0.892800	0.632400	0.644600
C5201	C520	0.921200	0.705900	0.704900
C5211	C521	0.879900	0.499600	0.452700
C5221	C522	0.856600	0.526800	0.449400
C5231	C523	0.832800	0.527800	0.424200
C5241	C524	0.834400	0.501700	0.402900
C5251	C525	0.858300	0.475500	0.405100
C5261	C526	0.879600	0.474700	0.431100
C5271	C527	0.807200	0.501400	0.375000
C5281	C528	0.797900	0.532000	0.362600
C5291	C529	0.773300	0.534800	0.337800
C5301	C530	0.757900	0.506000	0.323800
C5311	C531	0.767500	0.473300	0.335700
C5321	C532	0.792200	0.472100	0.361400
C5331	C533	0.728400	0.505400	0.293200
C5341	C534	0.980700	0.451700	0.507500
C5351	C535	0.979400	0.425400	0.483300
C5361	C536	0.004300	0.399000	0.482600
C5371	C537	0.030200	0.400600	0.507500
C5381	C538	0.030400	0.426700	0.531800
C5391	C539	0.006500	0.452500	0.532200
C5401	C540	0.058500	0.372300	0.510200
C5411	C541	0.068900	0.360100	0.479000
C5421	C542	0.093600	0.333900	0.478500
C5431	C543	0.109500	0.321100	0.507000
C5441	C544	0.097900	0.334500	0.536400
C5451	C545	0.072900	0.360600	0.541200
C5461	C546	0.136300	0.296400	0.507300
C5471	C547	0.925800	0.978200	0.969600
C5481	C548	0.905400	0.000700	0.019800
C5491	C549	0.952800	0.023000	0.992500
C5501	C550	0.924600	0.952700	0.942500
C5511	C551	0.952900	0.949200	0.921600
C5521	C552	0.951900	0.924200	0.897600
C5531	C553	0.921900	0.906100	0.893100
C5541	C554	0.893400	0.908900	0.915200
C5551	C555	0.894700	0.933300	0.939000
C5561	C556	0.923500	0.877500	0.867900
C5571	C557	0.953200	0.858100	0.856700
C5581	C558	0.950300	0.831600	0.832500
C5591	C559	0.918000	0.823500	0.819800
C5601	C560	0.889500	0.841500	0.831400
C5611	C561	0.892800	0.867600	0.855400
C5621	C562	0.921200	0.794100	0.795100
C5631	C563	0.879900	0.000400	0.047300
C5641	C564	0.856600	0.973200	0.050600
C5651	C565	0.832800	0.972200	0.075800
C5661	C566	0.834400	0.998300	0.097100
C5671	C567	0.858300	0.024500	0.094900
C5681	C568	0.879600	0.025300	0.068900
C5691	C569	0.807200	0.998600	0.125000
C5701	C570	0.797900	0.968000	0.137400
C5711	C571	0.773300	0.965200	0.162200
C5721	C572	0.757900	0.994000	0.176200
C5731	C573	0.767500	0.026700	0.164300
C5741	C574	0.792200	0.027900	0.138600
C5751	C575	0.728400	0.994600	0.206800
C5761	C576	0.980700	0.048300	0.992500
C5771	C577	0.979400	0.074600	0.016700
C5781	C578	0.004300	0.101000	0.017400
C5791	C579	0.030200	0.099400	0.992500
C5801	C580	0.030400	0.073300	0.968200
C5811	C581	0.006500	0.047500	0.967800
C5821	C582	0.058500	0.127700	0.989800
C5831	C583	0.068900	0.139900	0.021000
C5841	C584	0.093600	0.166100	0.021500
C5851	C585	0.109500	0.178900	0.993000
C5861	C586	0.097900	0.165500	0.963600
C5871	C587	0.072900	0.139400	0.958800
C5881	C588	0.136300	0.203600	0.992700
C5891	C589	0.425800	0.969600	0.521800
C5901	C590	0.405400	0.019800	0.499300
C5911	C591	0.452800	0.992500	0.477000
C5921	C592	0.424600	0.942500	0.547300
C5931	C593	0.452900	0.921600	0.550800
C5941	C594	0.451900	0.897600	0.575800
C5951	C595	0.421900	0.893100	0.593900
C5961	C596	0.393400	0.915200	0.591100
C5971	C597	0.394700	0.939000	0.566700
C5981	C598	0.423500	0.867900	0.622500
C5991	C599	0.453200	0.856700	0.641900
C6001	C600	0.450300	0.832500	0.668400
C6011	C601	0.418000	0.819800	0.676500
C6021	C602	0.389500	0.831400	0.658500
C6031	C603	0.392800	0.855400	0.632400
C6041	C604	0.421200	0.795100	0.705900
C6051	C605	0.379900	0.047300	0.499600
C6061	C606	0.356600	0.050600	0.526800
C6071	C607	0.332800	0.075800	0.527800
C6081	C608	0.334400	0.097100	0.501700
C6091	C609	0.358300	0.094900	0.475500
C6101	C610	0.379600	0.068900	0.474700
C6111	C611	0.307200	0.125000	0.501400
C6121	C612	0.297900	0.137400	0.532000
C6131	C613	0.273300	0.162200	0.534800
C6141	C614	0.257900	0.176200	0.506000
C6151	C615	0.267500	0.164300	0.473300
C6161	C616	0.292200	0.138600	0.472100
C6171	C617	0.228400	0.206800	0.505400
C6181	C618	0.480700	0.992500	0.451700
C6191	C619	0.479400	0.016700	0.425400
C6201	C620	0.504300	0.017400	0.399000
C6211	C621	0.530200	0.992500	0.400600
C6221	C622	0.530400	0.968200	0.426700
C6231	C623	0.506500	0.967800	0.452500
C6241	C624	0.558500	0.989800	0.372300
C6251	C625	0.568900	0.021000	0.360100
C6261	C626	0.593600	0.021500	0.333900
C6271	C627	0.609500	0.993000	0.321100
C6281	C628	0.597900	0.963600	0.334500
C6291	C629	0.572900	0.958800	0.360600
C6301	C630	0.636300	0.992700	0.296400
C6311	C631	0.425800	0.530400	0.978200
C6321	C632	0.405400	0.480200	0.000700
C6331	C633	0.452800	0.507500	0.023000
C6341	C634	0.424600	0.557500	0.952700
C6351	C635	0.452900	0.578400	0.949200
C6361	C636	0.451900	0.602400	0.924200
C6371	C637	0.421900	0.606900	0.906100
C6381	C638	0.393400	0.584800	0.908900
C6391	C639	0.394700	0.561000	0.933300
C6401	C640	0.423500	0.632100	0.877500
C6411	C641	0.453200	0.643300	0.858100
C6421	C642	0.450300	0.667500	0.831600
C6431	C643	0.418000	0.680200	0.823500
C6441	C644	0.389500	0.668600	0.841500
C6451	C645	0.392800	0.644600	0.867600
C6461	C646	0.421200	0.704900	0.794100
C6471	C647	0.379900	0.452700	0.000400
C6481	C648	0.356600	0.449400	0.973200
C6491	C649	0.332800	0.424200	0.972200
C6501	C650	0.334400	0.402900	0.998300
C6511	C651	0.358300	0.405100	0.024500
C6521	C652	0.379600	0.431100	0.025300
C6531	C653	0.307200	0.375000	0.998600
C6541	C654	0.297900	0.362600	0.968000
C6551	C655	0.273300	0.337800	0.965200
C6561	C656	0.257900	0.323800	0.994000
C6571	C657	0.267500	0.335700	0.026700
C6581	C658	0.292200	0.361400	0.027900
C6591	C659	0.228400	0.293200	0.994600
C6601	C660	0.480700	0.507500	0.048300
C6611	C661	0.479400	0.483300	0.074600
C6621	C662	0.504300	0.482600	0.101000
C6631	C663	0.530200	0.507500	0.099400
C6641	C664	0.530400	0.531800	0.073300
C6651	C665	0.506500	0.532200	0.047500
C6661	C666	0.558500	0.510200	0.127700
C6671	C667	0.568900	0.479000	0.139900
C6681	C668	0.593600	0.478500	0.166100
C6691	C669	0.609500	0.507000	0.178900
C6701	C670	0.597900	0.536400	0.165500
C6711	C671	0.572900	0.541200	0.139400
C6721	C672	0.636300	0.507300	0.203600
N251	N25	0.952100	0.499400	0.967200
N261	N26	0.902700	0.522900	0.995200
N271	N27	0.930600	0.475900	0.019000
N281	N28	0.952100	0.000600	0.532800
N291	N29	0.902700	0.977100	0.504800
N301	N30	0.930600	0.024100	0.481000
N311	N31	0.452100	0.967200	0.000600
N321	N32	0.402700	0.995200	0.977100
N331	N33	0.430600	0.019000	0.024100
N341	N34	0.452100	0.532800	0.499400
N351	N35	0.402700	0.504800	0.522900
N361	N36	0.430600	0.481000	0.475900
N371	N37	0.952100	0.499400	0.532800
N381	N38	0.902700	0.522900	0.504800
N391	N39	0.930600	0.475900	0.481000
N401	N40	0.952100	0.000600	0.967200
N411	N41	0.902700	0.977100	0.995200
N421	N42	0.930600	0.024100	0.019000
N431	N43	0.452100	0.967200	0.499400
N441	N44	0.402700	0.995200	0.522900
N451	N45	0.430600	0.019000	0.475900
N461	N46	0.452100	0.532800	0.000600
N471	N47	0.402700	0.504800	0.977100
N481	N48	0.430600	0.481000	0.024100
O491	O49	0.948230	0.715800	0.784900
O501	O50	0.890930	0.715210	0.784710
O511	O51	0.719510	0.533530	0.215960
O521	O52	0.718030	0.475890	0.215550
O531	O53	0.145330	0.284390	0.019150
O541	O54	0.147800	0.284500	0.965140
O551	O55	0.948230	0.784200	0.715100
O561	O56	0.890930	0.784790	0.715290
O571	O57	0.719510	0.966470	0.284040
O581	O58	0.718030	0.024110	0.284450
O591	O59	0.145330	0.215610	0.480850
O601	O60	0.147800	0.215500	0.534860
O611	O61	0.448230	0.784900	0.784200
O621	O62	0.390930	0.784710	0.784790
O631	O63	0.219510	0.215960	0.966470
O641	O64	0.218030	0.215550	0.024110
O651	O65	0.645330	0.019150	0.215610
O661	O66	0.647800	0.965140	0.215500
O671	O67	0.448230	0.715100	0.715800
O681	O68	0.390930	0.715290	0.715210
O691	O69	0.219510	0.284040	0.533530
O701	O70	0.218030	0.284450	0.475890
O711	O71	0.645330	0.480850	0.284390
O721	O72	0.647800	0.534860	0.284500
O731	O73	0.948230	0.715800	0.715100
O741	O74	0.890930	0.715210	0.715290
O751	O75	0.719510	0.533530	0.284040
O761	O76	0.718030	0.475890	0.284450
O771	O77	0.145330	0.284390	0.480850
O781	O78	0.147800	0.284500	0.534860
O791	O79	0.948230	0.784200	0.784900
O801	O80	0.890930	0.784790	0.784710
O811	O81	0.719510	0.966470	0.215960
O821	O82	0.718030	0.024110	0.215550
O831	O83	0.145330	0.215610	0.019150
O841	O84	0.147800	0.215500	0.965140
O851	O85	0.448230	0.784900	0.715800
O861	O86	0.390930	0.784710	0.715210
O871	O87	0.219510	0.215960	0.533530
O881	O88	0.218030	0.215550	0.475890
O891	O89	0.645330	0.019150	0.284390
O901	O90	0.647800	0.965140	0.284500
O911	O91	0.448230	0.715100	0.784200
O921	O92	0.390930	0.715290	0.784790
O931	O93	0.219510	0.284040	0.966470
O941	O94	0.218030	0.284450	0.024110
O951	O95	0.645330	0.480850	0.215610
O961	O96	0.647800	0.534860	0.215500
