data_BAZJIX_freeONLY_PM
_symmetry_space_group_name_H-M	'P1'
_cell_length_a	15.904000
_cell_length_b	20.042500
_cell_length_c	21.504300
_cell_angle_alpha	80.114600
_cell_angle_beta	68.297600
_cell_angle_gamma	66.624400
_symmetry_Int_Tables_number 1

loop_
_symmetry_equiv_pos_as_xyz
'x,y,z'

loop_
_atom_site_label
_atom_site_type_symbol
_atom_site_fract_x
_atom_site_fract_y
_atom_site_fract_z
Mn11	Mn1	0.850380	0.153650	0.872150
Mn21	Mn2	0.888230	0.309920	0.912900
Mn31	Mn3	0.876180	0.346350	0.627850
Mn41	Mn4	0.111050	0.190080	0.587100
Mn51	Mn5	0.149620	0.846350	0.127850
Mn61	Mn6	0.111770	0.690080	0.087100
Mn71	Mn7	0.123820	0.653650	0.372150
Mn81	Mn8	0.888950	0.809920	0.412900
Mn91	Mn9	0.000700	0.250000	0.750000
Mn101	Mn10	0.999300	0.750000	0.250000
H11	H1	0.015900	0.373800	0.963200
H21	H2	0.034200	0.543200	0.832600
H31	H3	0.986000	0.387600	0.083800
H41	H4	0.025300	0.109400	0.535600
H51	H5	0.912400	0.973500	0.671500
H61	H6	0.924900	0.909900	0.586500
H71	H7	0.577500	0.145500	0.126700
H81	H8	0.611000	0.320200	0.171000
H91	H9	0.508100	0.378800	0.281800
H101	H10	0.391200	0.380800	0.385600
H111	H11	0.363700	0.202200	0.342600
H121	H12	0.464200	0.145300	0.231300
H131	H13	0.796700	0.367700	0.059100
H141	H14	0.696700	0.554700	0.007700
H151	H15	0.742700	0.576100	0.052500
H161	H16	0.812000	0.531500	0.985700
H171	H17	0.740200	0.425500	0.154700
H181	H18	0.752400	0.502100	0.148700
H191	H19	0.651800	0.499400	0.151600
H201	H20	0.821600	0.006200	0.955600
H211	H21	0.755400	0.930200	0.029000
H221	H22	0.658700	0.985600	0.078200
H231	H23	0.651100	0.935000	0.032000
H241	H24	0.567100	0.074100	0.951500
H251	H25	0.540400	0.067000	0.031200
H261	H26	0.587700	0.125000	0.989400
H271	H27	0.082500	0.073300	0.850900
H281	H28	0.018000	0.929500	0.935700
H291	H29	0.128100	0.873900	0.918700
H301	H30	0.080100	0.926100	0.980900
H311	H31	0.231100	0.007100	0.848100
H321	H32	0.242600	0.948200	0.907800
H331	H33	0.254100	0.923900	0.837100
H341	H34	0.642900	0.233700	0.941100
H351	H35	0.619400	0.308900	0.786700
H361	H36	0.503300	0.335800	0.814000
H371	H37	0.555900	0.386200	0.821000
H381	H38	0.487600	0.286200	0.987400
H391	H39	0.456500	0.369500	0.962300
H401	H40	0.420400	0.315500	0.941300
H411	H41	0.352900	0.126200	0.536800
H421	H42	0.410000	0.956800	0.667400
H431	H43	0.457400	0.112400	0.416200
H441	H44	0.670300	0.390600	0.964400
H451	H45	0.557400	0.526500	0.828500
H461	H46	0.421300	0.590100	0.913500
H471	H47	0.849700	0.354500	0.373300
H481	H48	0.102200	0.179800	0.329000
H491	H49	0.168700	0.121200	0.218200
H501	H50	0.157600	0.119200	0.114400
H511	H51	0.908500	0.297800	0.157400
H521	H52	0.840800	0.354700	0.268700
H531	H53	0.223500	0.132300	0.440900
H541	H54	0.259100	0.945300	0.492300
H551	H55	0.371300	0.923900	0.447500
H561	H56	0.329200	0.968500	0.514300
H571	H57	0.320400	0.074500	0.345300
H581	H58	0.403200	0.997900	0.351300
H591	H59	0.302800	0.000600	0.348400
H601	H60	0.783400	0.493800	0.544400
H611	H61	0.714600	0.569800	0.471000
H621	H62	0.722500	0.514400	0.421800
H631	H63	0.618100	0.565000	0.468000
H641	H64	0.592700	0.425900	0.548500
H651	H65	0.638600	0.433000	0.468800
H661	H66	0.702100	0.375000	0.510600
H671	H67	0.006700	0.426700	0.649100
H681	H68	0.883200	0.570500	0.564300
H691	H69	0.920700	0.626100	0.581300
H701	H70	0.987100	0.573900	0.519100
H711	H71	0.086300	0.492900	0.651900
H721	H72	0.098600	0.551800	0.592200
H731	H73	0.015100	0.576100	0.662900
H741	H74	0.817700	0.266300	0.558900
H751	H75	0.715000	0.191100	0.713300
H761	H76	0.653100	0.164200	0.686000
H771	H77	0.763100	0.113800	0.679000
H781	H78	0.761200	0.213800	0.512600
H791	H79	0.788300	0.130500	0.537700
H801	H80	0.677200	0.184500	0.558700
H811	H81	0.984100	0.626200	0.036800
H821	H82	0.965800	0.456800	0.167400
H831	H83	0.014000	0.612400	0.916200
H841	H84	0.974700	0.890600	0.464400
H851	H85	0.087600	0.026500	0.328500
H861	H86	0.075100	0.090100	0.413500
H871	H87	0.422500	0.854500	0.873300
H881	H88	0.389000	0.679800	0.829000
H891	H89	0.491900	0.621200	0.718200
H901	H90	0.608800	0.619200	0.614400
H911	H91	0.636300	0.797800	0.657400
H921	H92	0.535800	0.854700	0.768700
H931	H93	0.203300	0.632300	0.940900
H941	H94	0.303300	0.445300	0.992300
H951	H95	0.257300	0.423900	0.947500
H961	H96	0.188000	0.468500	0.014300
H971	H97	0.259800	0.574500	0.845300
H981	H98	0.247600	0.497900	0.851300
H991	H99	0.348200	0.500600	0.848400
H1001	H100	0.178400	0.993800	0.044400
H1011	H101	0.244600	0.069800	0.971000
H1021	H102	0.341300	0.014400	0.921800
H1031	H103	0.348900	0.065000	0.968000
H1041	H104	0.432900	0.925900	0.048500
H1051	H105	0.459600	0.933000	0.968800
H1061	H106	0.412300	0.875000	0.010600
H1071	H107	0.917500	0.926700	0.149100
H1081	H108	0.982000	0.070500	0.064300
H1091	H109	0.871900	0.126100	0.081300
H1101	H110	0.919900	0.073900	0.019100
H1111	H111	0.768900	0.992900	0.151900
H1121	H112	0.757400	0.051800	0.092200
H1131	H113	0.745900	0.076100	0.162900
H1141	H114	0.357100	0.766300	0.058900
H1151	H115	0.380600	0.691100	0.213300
H1161	H116	0.496700	0.664200	0.186000
H1171	H117	0.444100	0.613800	0.179000
H1181	H118	0.512400	0.713800	0.012600
H1191	H119	0.543500	0.630500	0.037700
H1201	H120	0.579600	0.684500	0.058700
H1211	H121	0.647100	0.873800	0.463200
H1221	H122	0.590000	0.043200	0.332600
H1231	H123	0.542600	0.887600	0.583800
H1241	H124	0.329700	0.609400	0.035600
H1251	H125	0.442600	0.473500	0.171500
H1261	H126	0.578700	0.409900	0.086500
H1271	H127	0.150300	0.645500	0.626700
H1281	H128	0.897800	0.820200	0.671000
H1291	H129	0.831300	0.878800	0.781800
H1301	H130	0.842400	0.880800	0.885600
H1311	H131	0.091500	0.702200	0.842600
H1321	H132	0.159200	0.645300	0.731300
H1331	H133	0.776500	0.867700	0.559100
H1341	H134	0.740900	0.054700	0.507700
H1351	H135	0.628700	0.076100	0.552500
H1361	H136	0.670800	0.031500	0.485700
H1371	H137	0.679600	0.925500	0.654700
H1381	H138	0.596800	0.002100	0.648700
H1391	H139	0.697200	0.999400	0.651600
H1401	H140	0.216600	0.506200	0.455600
H1411	H141	0.285400	0.430200	0.529000
H1421	H142	0.277500	0.485600	0.578200
H1431	H143	0.381900	0.435000	0.532000
H1441	H144	0.407300	0.574100	0.451500
H1451	H145	0.361400	0.567000	0.531200
H1461	H146	0.297900	0.625000	0.489400
H1471	H147	0.993300	0.573300	0.350900
H1481	H148	0.116800	0.429500	0.435700
H1491	H149	0.079300	0.373900	0.418700
H1501	H150	0.012900	0.426100	0.480900
H1511	H151	0.913700	0.507100	0.348100
H1521	H152	0.901400	0.448200	0.407800
H1531	H153	0.984900	0.423900	0.337100
H1541	H154	0.182300	0.733700	0.441100
H1551	H155	0.285000	0.808900	0.286700
H1561	H156	0.346900	0.835800	0.314000
H1571	H157	0.236900	0.886200	0.321000
H1581	H158	0.238800	0.786200	0.487400
H1591	H159	0.211700	0.869500	0.462300
H1601	H160	0.322800	0.815500	0.441300
C11	C1	0.038280	0.409800	0.835440
C21	C2	0.001260	0.463770	0.006510
C31	C3	0.014250	0.422440	0.954260
C41	C4	0.024510	0.452550	0.890430
C51	C5	0.025090	0.523470	0.876950
C61	C6	0.987110	0.435340	0.073440
C71	C7	0.960590	0.087560	0.665780
C81	C8	0.006180	0.068540	0.545440
C91	C9	0.970240	0.047030	0.610810
C101	C10	0.938730	0.987400	0.626140
C111	C11	0.946070	0.949890	0.575770
C121	C12	0.015010	0.030050	0.492570
C131	C13	0.680400	0.230910	0.072690
C141	C14	0.560990	0.180730	0.157890
C151	C15	0.607480	0.232850	0.139390
C161	C16	0.581040	0.285050	0.183470
C171	C17	0.509520	0.287730	0.247630
C181	C18	0.479730	0.342670	0.293870
C191	C19	0.410580	0.343840	0.355400
C201	C20	0.367640	0.290170	0.374550
C211	C21	0.394000	0.237090	0.330310
C221	C22	0.466380	0.234620	0.266620
C231	C23	0.493500	0.180870	0.219530
C241	C24	0.294120	0.290190	0.441170
C251	C25	0.792620	0.410830	0.032130
C261	C26	0.751790	0.538920	0.023900
C271	C27	0.722620	0.474960	0.135400
C281	C28	0.762960	0.034280	0.946600
C291	C29	0.688300	0.962800	0.034600
C301	C30	0.586800	0.076400	0.989000
C311	C31	0.054860	0.039380	0.877700
C321	C32	0.082900	0.922300	0.935300
C331	C33	0.219300	0.963000	0.869400
C341	C34	0.644600	0.253700	0.897500
C351	C35	0.560100	0.336000	0.821800
C361	C36	0.474200	0.319500	0.950300
C371	C37	0.283520	0.090200	0.664560
C381	C38	0.471540	0.036230	0.493490
C391	C39	0.390950	0.077560	0.545740
C401	C40	0.367490	0.047450	0.609570
C411	C41	0.425510	0.976530	0.623050
C421	C42	0.495890	0.064660	0.426560
C431	C43	0.713930	0.412440	0.834220
C441	C44	0.620160	0.431460	0.954560
C451	C45	0.628080	0.452970	0.889190
C461	C46	0.552270	0.512600	0.873860
C471	C47	0.471730	0.550110	0.924230
C481	C48	0.537630	0.469950	0.007430
C491	C49	0.984000	0.269090	0.427310
C501	C50	0.899610	0.319270	0.342110
C511	C51	0.979720	0.267150	0.360610
C521	C52	0.049560	0.214950	0.316530
C531	C53	0.044880	0.212270	0.252370
C541	C54	0.116270	0.157330	0.206130
C551	C55	0.109820	0.156160	0.144600
C561	C56	0.032360	0.209830	0.125450
C571	C57	0.961400	0.262910	0.169690
C581	C58	0.967620	0.265380	0.233380
C591	C59	0.893900	0.319130	0.280470
C601	C60	0.025480	0.209810	0.058830
C611	C61	0.235580	0.089170	0.467870
C621	C62	0.314610	0.961080	0.476100
C631	C63	0.332980	0.025040	0.364600
C641	C64	0.743840	0.465720	0.553400
C651	C65	0.685700	0.537200	0.465400
C661	C66	0.652200	0.423600	0.511000
C671	C67	0.971940	0.460620	0.622300
C681	C68	0.940500	0.577700	0.564700
C691	C69	0.051700	0.537000	0.630600
C701	C70	0.795800	0.246300	0.602500
C711	C71	0.717900	0.164000	0.678200
C721	C72	0.744000	0.180500	0.549700
C731	C73	0.961720	0.590200	0.164560
C741	C74	0.998740	0.536230	0.993490
C751	C75	0.985750	0.577560	0.045740
C761	C76	0.975490	0.547450	0.109570
C771	C77	0.974910	0.476530	0.123050
C781	C78	0.012890	0.564660	0.926560
C791	C79	0.039410	0.912440	0.334220
C801	C80	0.993820	0.931460	0.454560
C811	C81	0.029760	0.952970	0.389190
C821	C82	0.061270	0.012600	0.373860
C831	C83	0.053930	0.050110	0.424230
C841	C84	0.984990	0.969950	0.507430
C851	C85	0.319600	0.769090	0.927310
C861	C86	0.439010	0.819270	0.842110
C871	C87	0.392520	0.767150	0.860610
C881	C88	0.418960	0.714950	0.816530
C891	C89	0.490480	0.712270	0.752370
C901	C90	0.520270	0.657330	0.706130
C911	C91	0.589420	0.656160	0.644600
C921	C92	0.632360	0.709830	0.625450
C931	C93	0.606000	0.762910	0.669690
C941	C94	0.533620	0.765380	0.733380
C951	C95	0.506500	0.819130	0.780470
C961	C96	0.705880	0.709810	0.558830
C971	C97	0.207380	0.589170	0.967870
C981	C98	0.248210	0.461080	0.976100
C991	C99	0.277380	0.525040	0.864600
C1001	C100	0.237040	0.965720	0.053400
C1011	C101	0.311700	0.037200	0.965400
C1021	C102	0.413200	0.923600	0.011000
C1031	C103	0.945140	0.960620	0.122300
C1041	C104	0.917100	0.077700	0.064700
C1051	C105	0.780700	0.037000	0.130600
C1061	C106	0.355400	0.746300	0.102500
C1071	C107	0.439900	0.664000	0.178200
C1081	C108	0.525800	0.680500	0.049700
C1091	C109	0.716480	0.909800	0.335440
C1101	C110	0.528460	0.963770	0.506510
C1111	C111	0.609050	0.922440	0.454260
C1121	C112	0.632510	0.952550	0.390430
C1131	C113	0.574490	0.023470	0.376950
C1141	C114	0.504110	0.935340	0.573440
C1151	C115	0.286070	0.587560	0.165780
C1161	C116	0.379840	0.568540	0.045440
C1171	C117	0.371920	0.547030	0.110810
C1181	C118	0.447730	0.487400	0.126140
C1191	C119	0.528270	0.449890	0.075770
C1201	C120	0.462370	0.530050	0.992570
C1211	C121	0.016000	0.730910	0.572690
C1221	C122	0.100390	0.680730	0.657890
C1231	C123	0.020280	0.732850	0.639390
C1241	C124	0.950440	0.785050	0.683470
C1251	C125	0.955120	0.787730	0.747630
C1261	C126	0.883730	0.842670	0.793870
C1271	C127	0.890180	0.843840	0.855400
C1281	C128	0.967640	0.790170	0.874550
C1291	C129	0.038600	0.737090	0.830310
C1301	C130	0.032380	0.734620	0.766620
C1311	C131	0.106100	0.680870	0.719530
C1321	C132	0.974520	0.790190	0.941170
C1331	C133	0.764420	0.910830	0.532130
C1341	C134	0.685390	0.038920	0.523900
C1351	C135	0.667020	0.974960	0.635400
C1361	C136	0.256160	0.534280	0.446600
C1371	C137	0.314300	0.462800	0.534600
C1381	C138	0.347800	0.576400	0.489000
C1391	C139	0.028060	0.539380	0.377700
C1401	C140	0.059500	0.422300	0.435300
C1411	C141	0.948300	0.463000	0.369400
C1421	C142	0.204200	0.753700	0.397500
C1431	C143	0.282100	0.836000	0.321800
C1441	C144	0.256000	0.819500	0.450300
N11	N1	0.005050	0.356410	0.842050
N21	N2	0.038810	0.332940	0.778700
N31	N3	0.089520	0.371060	0.737140
N41	N4	0.090650	0.419900	0.771600
N51	N5	0.998210	0.138870	0.658610
N61	N6	0.966680	0.162980	0.720760
N71	N7	0.913390	0.127330	0.762810
N81	N8	0.908460	0.079050	0.729410
N91	N9	0.713680	0.179070	0.028170
N101	N10	0.777360	0.198970	0.975250
N111	N11	0.780910	0.259290	0.987650
N121	N12	0.721150	0.280830	0.049130
N131	N13	0.269010	0.233500	0.465940
N141	N14	0.202210	0.255310	0.525910
N151	N15	0.185670	0.322770	0.535550
N161	N16	0.246160	0.345800	0.482680
N171	N17	0.757680	0.471970	0.061870
N181	N18	0.687600	0.019900	0.980900
N191	N19	0.115900	0.977000	0.892200
N201	N20	0.563000	0.300400	0.889000
N211	N21	0.203510	0.143590	0.657950
N221	N22	0.150450	0.167060	0.721300
N231	N23	0.197720	0.128940	0.762860
N241	N24	0.282150	0.080100	0.728400
N251	N25	0.795690	0.361130	0.841390
N261	N26	0.850420	0.337020	0.779240
N271	N27	0.803530	0.372670	0.737190
N281	N28	0.716920	0.420950	0.770590
N291	N29	0.920920	0.320930	0.471830
N301	N30	0.951580	0.301030	0.524750
N311	N31	0.027850	0.240710	0.512350
N321	N32	0.051110	0.219170	0.450870
N331	N33	0.968450	0.266500	0.034060
N341	N34	0.983430	0.244690	0.974090
N351	N35	0.043990	0.177230	0.964450
N361	N36	0.074640	0.154200	0.017320
N371	N37	0.291520	0.028030	0.438130
N381	N38	0.688400	0.480100	0.519100
N391	N39	0.985100	0.523000	0.607800
N401	N40	0.752400	0.199600	0.611000
N411	N41	0.994950	0.643590	0.157950
N421	N42	0.961190	0.667060	0.221300
N431	N43	0.910480	0.628940	0.262860
N441	N44	0.909350	0.580100	0.228400
N451	N45	0.001790	0.861130	0.341390
N461	N46	0.033320	0.837020	0.279240
N471	N47	0.086610	0.872670	0.237190
N481	N48	0.091540	0.920950	0.270590
N491	N49	0.286320	0.820930	0.971830
N501	N50	0.222640	0.801030	0.024750
N511	N51	0.219090	0.740710	0.012350
N521	N52	0.278850	0.719170	0.950870
N531	N53	0.730990	0.766500	0.534060
N541	N54	0.797790	0.744690	0.474090
N551	N55	0.814330	0.677230	0.464450
N561	N56	0.753840	0.654200	0.517320
N571	N57	0.242320	0.528030	0.938130
N581	N58	0.312400	0.980100	0.019100
N591	N59	0.884100	0.023000	0.107800
N601	N60	0.437000	0.699600	0.111000
N611	N61	0.796490	0.856410	0.342050
N621	N62	0.849550	0.832940	0.278700
N631	N63	0.802280	0.871060	0.237140
N641	N64	0.717850	0.919900	0.271600
N651	N65	0.204310	0.638870	0.158610
N661	N66	0.149580	0.662980	0.220760
N671	N67	0.196470	0.627330	0.262810
N681	N68	0.283080	0.579050	0.229410
N691	N69	0.079080	0.679070	0.528170
N701	N70	0.048420	0.698970	0.475250
N711	N71	0.972150	0.759290	0.487650
N721	N72	0.948890	0.780830	0.549130
N731	N73	0.031550	0.733500	0.965940
N741	N74	0.016570	0.755310	0.025910
N751	N75	0.956010	0.822770	0.035550
N761	N76	0.925360	0.845800	0.982680
N771	N77	0.708480	0.971970	0.561870
N781	N78	0.311600	0.519900	0.480900
N791	N79	0.014900	0.477000	0.392200
N801	N80	0.247600	0.800400	0.389000
O11	O1	0.946210	0.215500	0.852720
O21	O2	0.821280	0.405480	0.970140
O31	O3	0.765330	0.084560	0.900380
O41	O4	0.963320	0.059110	0.895570
O51	O5	0.720990	0.235110	0.852390
O61	O6	0.014430	0.284500	0.647280
O71	O7	0.196900	0.094520	0.529860
O81	O8	0.750270	0.415440	0.599620
O91	O9	0.918000	0.440890	0.604430
O101	O10	0.808490	0.264890	0.647610
O111	O11	0.053790	0.784500	0.147280
O121	O12	0.178720	0.594520	0.029860
O131	O13	0.234670	0.915440	0.099620
O141	O14	0.036680	0.940890	0.104430
O151	O15	0.279010	0.764890	0.147610
O161	O16	0.985570	0.715500	0.352720
O171	O17	0.803100	0.905480	0.470140
O181	O18	0.249730	0.584560	0.400380
O191	O19	0.082000	0.559110	0.395570
O201	O20	0.191510	0.735110	0.352390
