data_BEFLIJ_freeONLY_PM
_symmetry_space_group_name_H-M	'P1'
_cell_length_a	10.220300
_cell_length_b	14.145000
_cell_length_c	14.601000
_cell_angle_alpha	90.000000
_cell_angle_beta	90.000000
_cell_angle_gamma	90.000000
_symmetry_Int_Tables_number 1

loop_
_symmetry_equiv_pos_as_xyz
'x,y,z'

loop_
_atom_site_label
_atom_site_type_symbol
_atom_site_fract_x
_atom_site_fract_y
_atom_site_fract_z
O11	O1	0.986700	0.101400	0.405400
O21	O2	0.921200	0.978100	0.296900
O31	O3	0.986700	0.601400	0.905400
O41	O4	0.921200	0.478100	0.796900
O51	O5	0.486700	0.101400	0.905400
O61	O6	0.421200	0.978100	0.796900
O71	O7	0.486700	0.601400	0.405400
O81	O8	0.421200	0.478100	0.296900
O91	O9	0.763300	0.648600	0.405400
O101	O10	0.828800	0.771900	0.296900
O111	O11	0.763300	0.148600	0.905400
O121	O12	0.828800	0.271900	0.796900
O131	O13	0.263300	0.648600	0.905400
O141	O14	0.328800	0.771900	0.796900
O151	O15	0.263300	0.148600	0.405400
O161	O16	0.328800	0.271900	0.296900
O171	O17	0.763300	0.101400	0.344600
O181	O18	0.828800	0.978100	0.453100
O191	O19	0.763300	0.601400	0.844600
O201	O20	0.828800	0.478100	0.953100
O211	O21	0.263300	0.101400	0.844600
O221	O22	0.328800	0.978100	0.953100
O231	O23	0.263300	0.601400	0.344600
O241	O24	0.328800	0.478100	0.453100
O251	O25	0.986700	0.648600	0.344600
O261	O26	0.921200	0.771900	0.453100
O271	O27	0.986700	0.148600	0.844600
O281	O28	0.921200	0.271900	0.953100
O291	O29	0.486700	0.648600	0.844600
O301	O30	0.421200	0.771900	0.953100
O311	O31	0.486700	0.148600	0.344600
O321	O32	0.421200	0.271900	0.453100
O331	O33	0.013300	0.898600	0.594600
O341	O34	0.078800	0.021900	0.703100
O351	O35	0.013300	0.398600	0.094600
O361	O36	0.078800	0.521900	0.203100
O371	O37	0.513300	0.898600	0.094600
O381	O38	0.578800	0.021900	0.203100
O391	O39	0.513300	0.398600	0.594600
O401	O40	0.578800	0.521900	0.703100
O411	O41	0.236700	0.351400	0.594600
O421	O42	0.171200	0.228100	0.703100
O431	O43	0.236700	0.851400	0.094600
O441	O44	0.171200	0.728100	0.203100
O451	O45	0.736700	0.351400	0.094600
O461	O46	0.671200	0.228100	0.203100
O471	O47	0.736700	0.851400	0.594600
O481	O48	0.671200	0.728100	0.703100
O491	O49	0.236700	0.898600	0.655400
O501	O50	0.171200	0.021900	0.546900
O511	O51	0.236700	0.398600	0.155400
O521	O52	0.171200	0.521900	0.046900
O531	O53	0.736700	0.898600	0.155400
O541	O54	0.671200	0.021900	0.046900
O551	O55	0.736700	0.398600	0.655400
O561	O56	0.671200	0.521900	0.546900
O571	O57	0.013300	0.351400	0.655400
O581	O58	0.078800	0.228100	0.546900
O591	O59	0.013300	0.851400	0.155400
O601	O60	0.078800	0.728100	0.046900
O611	O61	0.513300	0.351400	0.155400
O621	O62	0.578800	0.228100	0.046900
O631	O63	0.513300	0.851400	0.655400
O641	O64	0.578800	0.728100	0.546900
Al11	Al1	0.125000	0.125000	0.479500
Al21	Al2	0.125000	0.625000	0.979500
Al31	Al3	0.625000	0.625000	0.479500
Al41	Al4	0.625000	0.125000	0.979500
Al51	Al5	0.625000	0.125000	0.270500
Al61	Al6	0.625000	0.625000	0.770500
Al71	Al7	0.125000	0.625000	0.270500
Al81	Al8	0.125000	0.125000	0.770500
Al91	Al9	0.875000	0.875000	0.520500
Al101	Al10	0.875000	0.375000	0.020500
Al111	Al11	0.375000	0.375000	0.520500
Al121	Al12	0.375000	0.875000	0.020500
Al131	Al13	0.375000	0.875000	0.729500
Al141	Al14	0.375000	0.375000	0.229500
Al151	Al15	0.875000	0.375000	0.729500
Al161	Al16	0.875000	0.875000	0.229500
P11	P1	0.875000	0.039000	0.375000
P21	P2	0.875000	0.539000	0.875000
P31	P3	0.375000	0.039000	0.875000
P41	P4	0.375000	0.539000	0.375000
P51	P5	0.875000	0.711000	0.375000
P61	P6	0.875000	0.211000	0.875000
P71	P7	0.375000	0.711000	0.875000
P81	P8	0.375000	0.211000	0.375000
P91	P9	0.125000	0.961000	0.625000
P101	P10	0.125000	0.461000	0.125000
P111	P11	0.625000	0.961000	0.125000
P121	P12	0.625000	0.461000	0.625000
P131	P13	0.125000	0.289000	0.625000
P141	P14	0.125000	0.789000	0.125000
P151	P15	0.625000	0.289000	0.125000
P161	P16	0.625000	0.789000	0.625000
