data_BEFLAB01_freeONLY_PM
_symmetry_space_group_name_H-M	'P1'
_cell_length_a	20.146900
_cell_length_b	20.514700
_cell_length_c	10.024200
_cell_angle_alpha	90.000000
_cell_angle_beta	90.000000
_cell_angle_gamma	90.000000
_symmetry_Int_Tables_number 1

loop_
_symmetry_equiv_pos_as_xyz
'x,y,z'

loop_
_atom_site_label
_atom_site_type_symbol
_atom_site_fract_x
_atom_site_fract_y
_atom_site_fract_z
Al11	Al1	0.198300	0.328900	0.380100
Al21	Al2	0.930600	0.434400	0.405900
P11	P1	0.176200	0.321200	0.067800
P21	P2	0.086700	0.442200	0.408600
O11	O1	0.214300	0.334500	0.192700
O21	O2	0.163800	0.249300	0.055200
O31	O3	0.019000	0.416600	0.442300
O41	O4	0.108900	0.355600	0.066000
O51	O5	0.138500	0.391700	0.436500
O61	O6	0.103900	0.500800	0.490500
O71	O7	0.090600	0.463100	0.262800
O81	O8	0.218600	0.343300	0.949200
Al31	Al3	0.698300	0.828900	0.380100
Al41	Al4	0.430600	0.934400	0.405900
P31	P3	0.676200	0.821200	0.067800
P41	P4	0.586700	0.942200	0.408600
O91	O9	0.714300	0.834500	0.192700
O101	O10	0.663800	0.749300	0.055200
O111	O11	0.519000	0.916600	0.442300
O121	O12	0.608900	0.855600	0.066000
O131	O13	0.638500	0.891700	0.436500
O141	O14	0.603900	0.000800	0.490500
O151	O15	0.590600	0.963100	0.262800
O161	O16	0.718600	0.843300	0.949200
Al51	Al5	0.301700	0.671100	0.380100
Al61	Al6	0.569400	0.565600	0.405900
P51	P5	0.323800	0.678800	0.067800
P61	P6	0.413300	0.557800	0.408600
O171	O17	0.285700	0.665500	0.192700
O181	O18	0.336200	0.750700	0.055200
O191	O19	0.481000	0.583400	0.442300
O201	O20	0.391100	0.644400	0.066000
O211	O21	0.361500	0.608300	0.436500
O221	O22	0.396100	0.499200	0.490500
O231	O23	0.409400	0.536900	0.262800
O241	O24	0.281400	0.656700	0.949200
Al71	Al7	0.801700	0.171100	0.380100
Al81	Al8	0.069400	0.065600	0.405900
P71	P7	0.823800	0.178800	0.067800
P81	P8	0.913300	0.057800	0.408600
O251	O25	0.785700	0.165500	0.192700
O261	O26	0.836200	0.250700	0.055200
O271	O27	0.981000	0.083400	0.442300
O281	O28	0.891100	0.144400	0.066000
O291	O29	0.861500	0.108300	0.436500
O301	O30	0.896100	0.999200	0.490500
O311	O31	0.909400	0.036900	0.262800
O321	O32	0.781400	0.156700	0.949200
Al91	Al9	0.801700	0.328900	0.119900
Al101	Al10	0.069400	0.434400	0.094100
P91	P9	0.823800	0.321200	0.432200
P101	P10	0.913300	0.442200	0.091400
O331	O33	0.785700	0.334500	0.307300
O341	O34	0.836200	0.249300	0.444800
O351	O35	0.981000	0.416600	0.057700
O361	O36	0.891100	0.355600	0.434000
O371	O37	0.861500	0.391700	0.063500
O381	O38	0.896100	0.500800	0.009500
O391	O39	0.909400	0.463100	0.237200
O401	O40	0.781400	0.343300	0.550800
Al111	Al11	0.301700	0.828900	0.119900
Al121	Al12	0.569400	0.934400	0.094100
P111	P11	0.323800	0.821200	0.432200
P121	P12	0.413300	0.942200	0.091400
O411	O41	0.285700	0.834500	0.307300
O421	O42	0.336200	0.749300	0.444800
O431	O43	0.481000	0.916600	0.057700
O441	O44	0.391100	0.855600	0.434000
O451	O45	0.361500	0.891700	0.063500
O461	O46	0.396100	0.000800	0.009500
O471	O47	0.409400	0.963100	0.237200
O481	O48	0.281400	0.843300	0.550800
Al131	Al13	0.698300	0.671100	0.119900
Al141	Al14	0.430600	0.565600	0.094100
P131	P13	0.676200	0.678800	0.432200
P141	P14	0.586700	0.557800	0.091400
O491	O49	0.714300	0.665500	0.307300
O501	O50	0.663800	0.750700	0.444800
O511	O51	0.519000	0.583400	0.057700
O521	O52	0.608900	0.644400	0.434000
O531	O53	0.638500	0.608300	0.063500
O541	O54	0.603900	0.499200	0.009500
O551	O55	0.590600	0.536900	0.237200
O561	O56	0.718600	0.656700	0.550800
Al151	Al15	0.198300	0.171100	0.119900
Al161	Al16	0.930600	0.065600	0.094100
P151	P15	0.176200	0.178800	0.432200
P161	P16	0.086700	0.057800	0.091400
O571	O57	0.214300	0.165500	0.307300
O581	O58	0.163800	0.250700	0.444800
O591	O59	0.019000	0.083400	0.057700
O601	O60	0.108900	0.144400	0.434000
O611	O61	0.138500	0.108300	0.063500
O621	O62	0.103900	0.999200	0.009500
O631	O63	0.090600	0.036900	0.237200
O641	O64	0.218600	0.156700	0.550800
Al171	Al17	0.801700	0.671100	0.619900
Al181	Al18	0.069400	0.565600	0.594100
P171	P17	0.823800	0.678800	0.932200
P181	P18	0.913300	0.557800	0.591400
O651	O65	0.785700	0.665500	0.807300
O661	O66	0.836200	0.750700	0.944800
O671	O67	0.981000	0.583400	0.557700
O681	O68	0.891100	0.644400	0.934000
O691	O69	0.861500	0.608300	0.563500
O701	O70	0.896100	0.499200	0.509500
O711	O71	0.909400	0.536900	0.737200
O721	O72	0.781400	0.656700	0.050800
Al191	Al19	0.301700	0.171100	0.619900
Al201	Al20	0.569400	0.065600	0.594100
P191	P19	0.323800	0.178800	0.932200
P201	P20	0.413300	0.057800	0.591400
O731	O73	0.285700	0.165500	0.807300
O741	O74	0.336200	0.250700	0.944800
O751	O75	0.481000	0.083400	0.557700
O761	O76	0.391100	0.144400	0.934000
O771	O77	0.361500	0.108300	0.563500
O781	O78	0.396100	0.999200	0.509500
O791	O79	0.409400	0.036900	0.737200
O801	O80	0.281400	0.156700	0.050800
Al211	Al21	0.698300	0.328900	0.619900
Al221	Al22	0.430600	0.434400	0.594100
P211	P21	0.676200	0.321200	0.932200
P221	P22	0.586700	0.442200	0.591400
O811	O81	0.714300	0.334500	0.807300
O821	O82	0.663800	0.249300	0.944800
O831	O83	0.519000	0.416600	0.557700
O841	O84	0.608900	0.355600	0.934000
O851	O85	0.638500	0.391700	0.563500
O861	O86	0.603900	0.500800	0.509500
O871	O87	0.590600	0.463100	0.737200
O881	O88	0.718600	0.343300	0.050800
Al231	Al23	0.198300	0.828900	0.619900
Al241	Al24	0.930600	0.934400	0.594100
P231	P23	0.176200	0.821200	0.932200
P241	P24	0.086700	0.942200	0.591400
O891	O89	0.214300	0.834500	0.807300
O901	O90	0.163800	0.749300	0.944800
O911	O91	0.019000	0.916600	0.557700
O921	O92	0.108900	0.855600	0.934000
O931	O93	0.138500	0.891700	0.563500
O941	O94	0.103900	0.000800	0.509500
O951	O95	0.090600	0.963100	0.737200
O961	O96	0.218600	0.843300	0.050800
Al251	Al25	0.198300	0.671100	0.880100
Al261	Al26	0.930600	0.565600	0.905900
P251	P25	0.176200	0.678800	0.567800
P261	P26	0.086700	0.557800	0.908600
O971	O97	0.214300	0.665500	0.692700
O981	O98	0.163800	0.750700	0.555200
O991	O99	0.019000	0.583400	0.942300
O1001	O100	0.108900	0.644400	0.566000
O1011	O101	0.138500	0.608300	0.936500
O1021	O102	0.103900	0.499200	0.990500
O1031	O103	0.090600	0.536900	0.762800
O1041	O104	0.218600	0.656700	0.449200
Al271	Al27	0.698300	0.171100	0.880100
Al281	Al28	0.430600	0.065600	0.905900
P271	P27	0.676200	0.178800	0.567800
P281	P28	0.586700	0.057800	0.908600
O1051	O105	0.714300	0.165500	0.692700
O1061	O106	0.663800	0.250700	0.555200
O1071	O107	0.519000	0.083400	0.942300
O1081	O108	0.608900	0.144400	0.566000
O1091	O109	0.638500	0.108300	0.936500
O1101	O110	0.603900	0.999200	0.990500
O1111	O111	0.590600	0.036900	0.762800
O1121	O112	0.718600	0.156700	0.449200
Al291	Al29	0.301700	0.328900	0.880100
Al301	Al30	0.569400	0.434400	0.905900
P291	P29	0.323800	0.321200	0.567800
P301	P30	0.413300	0.442200	0.908600
O1131	O113	0.285700	0.334500	0.692700
O1141	O114	0.336200	0.249300	0.555200
O1151	O115	0.481000	0.416600	0.942300
O1161	O116	0.391100	0.355600	0.566000
O1171	O117	0.361500	0.391700	0.936500
O1181	O118	0.396100	0.500800	0.990500
O1191	O119	0.409400	0.463100	0.762800
O1201	O120	0.281400	0.343300	0.449200
Al311	Al31	0.801700	0.828900	0.880100
Al321	Al32	0.069400	0.934400	0.905900
P311	P31	0.823800	0.821200	0.567800
P321	P32	0.913300	0.942200	0.908600
O1211	O121	0.785700	0.834500	0.692700
O1221	O122	0.836200	0.749300	0.555200
O1231	O123	0.981000	0.916600	0.942300
O1241	O124	0.891100	0.855600	0.566000
O1251	O125	0.861500	0.891700	0.936500
O1261	O126	0.896100	0.000800	0.990500
O1271	O127	0.909400	0.963100	0.762800
O1281	O128	0.781400	0.843300	0.449200
