data_BEFLEF_freeONLY_PM
_symmetry_space_group_name_H-M	'P1'
_cell_length_a	13.825700
_cell_length_b	14.478800
_cell_length_c	10.165800
_cell_angle_alpha	90.000000
_cell_angle_beta	90.000000
_cell_angle_gamma	90.000000
_symmetry_Int_Tables_number 1

loop_
_symmetry_equiv_pos_as_xyz
'x,y,z'

loop_
_atom_site_label
_atom_site_type_symbol
_atom_site_fract_x
_atom_site_fract_y
_atom_site_fract_z
Al11	Al1	0.263600	0.147200	0.532700
P11	P1	0.332700	0.263000	0.284200
O11	O1	0.391200	0.185100	0.224900
O21	O2	0.156900	0.084500	0.479600
O31	O3	0.369200	0.070200	0.569800
O41	O4	0.399000	0.344800	0.306400
O51	O5	0.253800	0.286800	0.190400
O61	O6	0.496800	0.046500	0.395400
O71	O7	0.287900	0.239900	0.410600
O81	O8	0.031200	0.015500	0.615500
Al21	Al2	0.763600	0.647200	0.532700
P21	P2	0.832700	0.763000	0.284200
O91	O9	0.891200	0.685100	0.224900
O101	O10	0.656900	0.584500	0.479600
O111	O11	0.869200	0.570200	0.569800
O121	O12	0.899000	0.844800	0.306400
O131	O13	0.753800	0.786800	0.190400
O141	O14	0.996800	0.546500	0.395400
O151	O15	0.787900	0.739900	0.410600
O161	O16	0.531200	0.515500	0.615500
Al31	Al3	0.736400	0.852800	0.032700
P31	P3	0.667300	0.737000	0.784200
O171	O17	0.608800	0.814900	0.724900
O181	O18	0.843100	0.915500	0.979600
O191	O19	0.630800	0.929800	0.069800
O201	O20	0.601000	0.655200	0.806400
O211	O21	0.746200	0.713200	0.690400
O221	O22	0.503200	0.953500	0.895400
O231	O23	0.712100	0.760100	0.910600
O241	O24	0.968800	0.984500	0.115500
Al41	Al4	0.236400	0.352800	0.032700
P41	P4	0.167300	0.237000	0.784200
O251	O25	0.108800	0.314900	0.724900
O261	O26	0.343100	0.415500	0.979600
O271	O27	0.130800	0.429800	0.069800
O281	O28	0.101000	0.155200	0.806400
O291	O29	0.246200	0.213200	0.690400
O301	O30	0.003200	0.453500	0.895400
O311	O31	0.212100	0.260100	0.910600
O321	O32	0.468800	0.484500	0.115500
Al51	Al5	0.736400	0.147200	0.967300
P51	P5	0.667300	0.263000	0.215800
O331	O33	0.608800	0.185100	0.275100
O341	O34	0.843100	0.084500	0.020400
O351	O35	0.630800	0.070200	0.930200
O361	O36	0.601000	0.344800	0.193600
O371	O37	0.746200	0.286800	0.309600
O381	O38	0.503200	0.046500	0.104600
O391	O39	0.712100	0.239900	0.089400
O401	O40	0.968800	0.015500	0.884500
Al61	Al6	0.236400	0.647200	0.967300
P61	P6	0.167300	0.763000	0.215800
O411	O41	0.108800	0.685100	0.275100
O421	O42	0.343100	0.584500	0.020400
O431	O43	0.130800	0.570200	0.930200
O441	O44	0.101000	0.844800	0.193600
O451	O45	0.246200	0.786800	0.309600
O461	O46	0.003200	0.546500	0.104600
O471	O47	0.212100	0.739900	0.089400
O481	O48	0.468800	0.515500	0.884500
Al71	Al7	0.263600	0.852800	0.467300
P71	P7	0.332700	0.737000	0.715800
O491	O49	0.391200	0.814900	0.775100
O501	O50	0.156900	0.915500	0.520400
O511	O51	0.369200	0.929800	0.430200
O521	O52	0.399000	0.655200	0.693600
O531	O53	0.253800	0.713200	0.809600
O541	O54	0.496800	0.953500	0.604600
O551	O55	0.287900	0.760100	0.589400
O561	O56	0.031200	0.984500	0.384500
Al81	Al8	0.763600	0.352800	0.467300
P81	P8	0.832700	0.237000	0.715800
O571	O57	0.891200	0.314900	0.775100
O581	O58	0.656900	0.415500	0.520400
O591	O59	0.869200	0.429800	0.430200
O601	O60	0.899000	0.155200	0.693600
O611	O61	0.753800	0.213200	0.809600
O621	O62	0.996800	0.453500	0.604600
O631	O63	0.787900	0.260100	0.589400
O641	O64	0.531200	0.484500	0.384500
Al91	Al9	0.500000	0.115700	0.250000
Al101	Al10	0.500000	0.410300	0.250000
Al111	Al11	0.000000	0.615700	0.250000
Al121	Al12	0.000000	0.910300	0.250000
Al131	Al13	0.500000	0.884300	0.750000
Al141	Al14	0.500000	0.589700	0.750000
Al151	Al15	0.000000	0.384300	0.750000
Al161	Al16	0.000000	0.089700	0.750000
P91	P9	0.095000	0.000000	0.500000
P101	P10	0.431600	0.000000	0.500000
P111	P11	0.595000	0.500000	0.500000
P121	P12	0.931600	0.500000	0.500000
P131	P13	0.905000	0.000000	0.000000
P141	P14	0.568400	0.000000	0.000000
P151	P15	0.405000	0.500000	0.000000
P161	P16	0.068400	0.500000	0.000000
