data_BEFMAC_freeONLY_PM
_symmetry_space_group_name_H-M	'P1'
_cell_length_a	10.223300
_cell_length_b	14.605200
_cell_length_c	14.304100
_cell_angle_alpha	90.000000
_cell_angle_beta	90.162000
_cell_angle_gamma	90.000000
_symmetry_Int_Tables_number 1

loop_
_symmetry_equiv_pos_as_xyz
'x,y,z'

loop_
_atom_site_label
_atom_site_type_symbol
_atom_site_fract_x
_atom_site_fract_y
_atom_site_fract_z
Al11	Al1	0.358200	0.386100	0.016300
Al21	Al2	0.633800	0.230700	0.871100
P11	P1	0.332600	0.235200	0.857400
P21	P2	0.669500	0.397700	0.013000
O11	O1	0.533400	0.391200	0.052100
O21	O2	0.678000	0.345200	0.921900
O31	O3	0.462100	0.191400	0.886400
O41	O4	0.325900	0.251800	0.753800
O51	O5	0.316900	0.328600	0.903900
O61	O6	0.708600	0.496300	0.992100
O71	O7	0.221500	0.172700	0.883000
O81	O8	0.765300	0.361700	0.083800
Al31	Al3	0.858200	0.886100	0.016300
Al41	Al4	0.133800	0.730700	0.871100
P31	P3	0.832600	0.735200	0.857400
P41	P4	0.169500	0.897700	0.013000
O91	O9	0.033400	0.891200	0.052100
O101	O10	0.178000	0.845200	0.921900
O111	O11	0.962100	0.691400	0.886400
O121	O12	0.825900	0.751800	0.753800
O131	O13	0.816900	0.828600	0.903900
O141	O14	0.208600	0.996300	0.992100
O151	O15	0.721500	0.672700	0.883000
O161	O16	0.265300	0.861700	0.083800
Al51	Al5	0.641800	0.386100	0.483700
Al61	Al6	0.366200	0.230700	0.628900
P51	P5	0.667400	0.235200	0.642600
P61	P6	0.330500	0.397700	0.487000
O171	O17	0.466600	0.391200	0.447900
O181	O18	0.322000	0.345200	0.578100
O191	O19	0.537900	0.191400	0.613600
O201	O20	0.674100	0.251800	0.746200
O211	O21	0.683100	0.328600	0.596100
O221	O22	0.291400	0.496300	0.507900
O231	O23	0.778500	0.172700	0.617000
O241	O24	0.234700	0.361700	0.416200
Al71	Al7	0.141800	0.886100	0.483700
Al81	Al8	0.866200	0.730700	0.628900
P71	P7	0.167400	0.735200	0.642600
P81	P8	0.830500	0.897700	0.487000
O251	O25	0.966600	0.891200	0.447900
O261	O26	0.822000	0.845200	0.578100
O271	O27	0.037900	0.691400	0.613600
O281	O28	0.174100	0.751800	0.746200
O291	O29	0.183100	0.828600	0.596100
O301	O30	0.791400	0.996300	0.507900
O311	O31	0.278500	0.672700	0.617000
O321	O32	0.734700	0.861700	0.416200
Al91	Al9	0.641800	0.613900	0.983700
Al101	Al10	0.366200	0.769300	0.128900
P91	P9	0.667400	0.764800	0.142600
P101	P10	0.330500	0.602300	0.987000
O331	O33	0.466600	0.608800	0.947900
O341	O34	0.322000	0.654800	0.078100
O351	O35	0.537900	0.808600	0.113600
O361	O36	0.674100	0.748200	0.246200
O371	O37	0.683100	0.671400	0.096100
O381	O38	0.291400	0.503700	0.007900
O391	O39	0.778500	0.827300	0.117000
O401	O40	0.234700	0.638300	0.916200
Al111	Al11	0.141800	0.113900	0.983700
Al121	Al12	0.866200	0.269300	0.128900
P111	P11	0.167400	0.264800	0.142600
P121	P12	0.830500	0.102300	0.987000
O411	O41	0.966600	0.108800	0.947900
O421	O42	0.822000	0.154800	0.078100
O431	O43	0.037900	0.308600	0.113600
O441	O44	0.174100	0.248200	0.246200
O451	O45	0.183100	0.171400	0.096100
O461	O46	0.791400	0.003700	0.007900
O471	O47	0.278500	0.327300	0.117000
O481	O48	0.734700	0.138300	0.916200
Al131	Al13	0.358200	0.613900	0.516300
Al141	Al14	0.633800	0.769300	0.371100
P131	P13	0.332600	0.764800	0.357400
P141	P14	0.669500	0.602300	0.513000
O491	O49	0.533400	0.608800	0.552100
O501	O50	0.678000	0.654800	0.421900
O511	O51	0.462100	0.808600	0.386400
O521	O52	0.325900	0.748200	0.253800
O531	O53	0.316900	0.671400	0.403900
O541	O54	0.708600	0.503700	0.492100
O551	O55	0.221500	0.827300	0.383000
O561	O56	0.765300	0.638300	0.583800
Al151	Al15	0.858200	0.113900	0.516300
Al161	Al16	0.133800	0.269300	0.371100
P151	P15	0.832600	0.264800	0.357400
P161	P16	0.169500	0.102300	0.513000
O571	O57	0.033400	0.108800	0.552100
O581	O58	0.178000	0.154800	0.421900
O591	O59	0.962100	0.308600	0.386400
O601	O60	0.825900	0.248200	0.253800
O611	O61	0.816900	0.171400	0.403900
O621	O62	0.208600	0.003700	0.492100
O631	O63	0.721500	0.327300	0.383000
O641	O64	0.265300	0.138300	0.583800
