data_BEFMUW_freeONLY_PM
_symmetry_space_group_name_H-M	'P1'
_cell_length_a	13.820100
_cell_length_b	13.187000
_cell_length_c	13.852700
_cell_angle_alpha	90.000000
_cell_angle_beta	90.804000
_cell_angle_gamma	90.000000
_symmetry_Int_Tables_number 1

loop_
_symmetry_equiv_pos_as_xyz
'x,y,z'

loop_
_atom_site_label
_atom_site_type_symbol
_atom_site_fract_x
_atom_site_fract_y
_atom_site_fract_z
Al11	Al1	0.123900	0.859000	0.225400
Al21	Al2	0.025000	0.740600	0.623600
Co11	Co1	0.123900	0.141000	0.725400
Co21	Co2	0.025000	0.259400	0.123600
P11	P1	0.029200	0.260700	0.894600
P21	P2	0.144700	0.625100	0.780600
O11	O1	0.068900	0.260300	0.998300
O21	O2	0.991100	0.365900	0.869600
O31	O3	0.120400	0.517900	0.748000
O41	O4	0.080000	0.654600	0.863500
O51	O5	0.089600	0.004800	0.757100
O61	O6	0.133200	0.700300	0.698400
O71	O7	0.001600	0.875700	0.658700
O81	O8	0.113200	0.235000	0.828400
O91	O9	0.247900	0.627200	0.818900
O101	O10	0.948600	0.183100	0.885000
Al31	Al3	0.623900	0.359000	0.225400
Al41	Al4	0.525000	0.240600	0.623600
Co31	Co3	0.623900	0.641000	0.725400
Co41	Co4	0.525000	0.759400	0.123600
P31	P3	0.529200	0.760700	0.894600
P41	P4	0.644700	0.125100	0.780600
O111	O11	0.568900	0.760300	0.998300
O121	O12	0.491100	0.865900	0.869600
O131	O13	0.620400	0.017900	0.748000
O141	O14	0.580000	0.154600	0.863500
O151	O15	0.589600	0.504800	0.757100
O161	O16	0.633200	0.200300	0.698400
O171	O17	0.501600	0.375700	0.658700
O181	O18	0.613200	0.735000	0.828400
O191	O19	0.747900	0.127200	0.818900
O201	O20	0.448600	0.683100	0.885000
Al51	Al5	0.876100	0.859000	0.274600
Al61	Al6	0.975000	0.740600	0.876400
Co51	Co5	0.876100	0.141000	0.774600
Co61	Co6	0.975000	0.259400	0.376400
P51	P5	0.970800	0.260700	0.605400
P61	P6	0.855300	0.625100	0.719400
O211	O21	0.931100	0.260300	0.501700
O221	O22	0.008900	0.365900	0.630400
O231	O23	0.879600	0.517900	0.752000
O241	O24	0.920000	0.654600	0.636500
O251	O25	0.910400	0.004800	0.742900
O261	O26	0.866800	0.700300	0.801600
O271	O27	0.998400	0.875700	0.841300
O281	O28	0.886800	0.235000	0.671600
O291	O29	0.752100	0.627200	0.681100
O301	O30	0.051400	0.183100	0.615000
Al71	Al7	0.376100	0.359000	0.274600
Al81	Al8	0.475000	0.240600	0.876400
Co71	Co7	0.376100	0.641000	0.774600
Co81	Co8	0.475000	0.759400	0.376400
P71	P7	0.470800	0.760700	0.605400
P81	P8	0.355300	0.125100	0.719400
O311	O31	0.431100	0.760300	0.501700
O321	O32	0.508900	0.865900	0.630400
O331	O33	0.379600	0.017900	0.752000
O341	O34	0.420000	0.154600	0.636500
O351	O35	0.410400	0.504800	0.742900
O361	O36	0.366800	0.200300	0.801600
O371	O37	0.498400	0.375700	0.841300
O381	O38	0.386800	0.735000	0.671600
O391	O39	0.252100	0.127200	0.681100
O401	O40	0.551400	0.683100	0.615000
P91	P9	0.970800	0.739300	0.105400
P101	P10	0.855300	0.374900	0.219400
O411	O41	0.931100	0.739700	0.001700
O421	O42	0.008900	0.634100	0.130400
O431	O43	0.879600	0.482100	0.252000
O441	O44	0.920000	0.345400	0.136500
O451	O45	0.910400	0.995200	0.242900
O461	O46	0.866800	0.299700	0.301600
O471	O47	0.998400	0.124300	0.341300
O481	O48	0.886800	0.765000	0.171600
O491	O49	0.752100	0.372800	0.181100
O501	O50	0.051400	0.816900	0.115000
P111	P11	0.470800	0.239300	0.105400
P121	P12	0.355300	0.874900	0.219400
O511	O51	0.431100	0.239700	0.001700
O521	O52	0.508900	0.134100	0.130400
O531	O53	0.379600	0.982100	0.252000
O541	O54	0.420000	0.845400	0.136500
O551	O55	0.410400	0.495200	0.242900
O561	O56	0.366800	0.799700	0.301600
O571	O57	0.498400	0.624300	0.341300
O581	O58	0.386800	0.265000	0.171600
O591	O59	0.252100	0.872800	0.181100
O601	O60	0.551400	0.316900	0.115000
P131	P13	0.029200	0.739300	0.394600
P141	P14	0.144700	0.374900	0.280600
O611	O61	0.068900	0.739700	0.498300
O621	O62	0.991100	0.634100	0.369600
O631	O63	0.120400	0.482100	0.248000
O641	O64	0.080000	0.345400	0.363500
O651	O65	0.089600	0.995200	0.257100
O661	O66	0.133200	0.299700	0.198400
O671	O67	0.001600	0.124300	0.158700
O681	O68	0.113200	0.765000	0.328400
O691	O69	0.247900	0.372800	0.318900
O701	O70	0.948600	0.816900	0.385000
P151	P15	0.529200	0.239300	0.394600
P161	P16	0.644700	0.874900	0.280600
O711	O71	0.568900	0.239700	0.498300
O721	O72	0.491100	0.134100	0.369600
O731	O73	0.620400	0.982100	0.248000
O741	O74	0.580000	0.845400	0.363500
O751	O75	0.589600	0.495200	0.257100
O761	O76	0.633200	0.799700	0.198400
O771	O77	0.501600	0.624300	0.158700
O781	O78	0.613200	0.265000	0.328400
O791	O79	0.747900	0.872800	0.318900
O801	O80	0.448600	0.316900	0.385000
Co91	Co9	0.000000	0.442200	0.750000
P171	P17	0.000000	0.940600	0.750000
Co101	Co10	0.500000	0.942200	0.750000
P181	P18	0.500000	0.440600	0.750000
Co111	Co11	0.000000	0.557800	0.250000
P191	P19	0.000000	0.059400	0.250000
Co121	Co12	0.500000	0.057800	0.250000
P201	P20	0.500000	0.559400	0.250000
