data_BEFNEH_freeONLY_PM
_symmetry_space_group_name_H-M	'P1'
_cell_length_a	12.922800
_cell_length_b	14.226200
_cell_length_c	14.197800
_cell_angle_alpha	90.000000
_cell_angle_beta	92.795000
_cell_angle_gamma	90.000000
_symmetry_Int_Tables_number 1

loop_
_symmetry_equiv_pos_as_xyz
'x,y,z'

loop_
_atom_site_label
_atom_site_type_symbol
_atom_site_fract_x
_atom_site_fract_y
_atom_site_fract_z
Co11	Co1	0.092500	0.237600	0.871700
Co21	Co2	0.505200	0.373700	0.771500
Co31	Co3	0.513100	0.125600	0.757600
Ga11	Ga1	0.805900	0.258800	0.726300
Ga21	Ga2	0.108900	0.266500	0.603300
Co41	Co4	0.120700	0.256800	0.616000
P11	P1	0.098300	0.234700	0.103500
P21	P2	0.987500	0.106700	0.713600
P31	P3	0.990100	0.393600	0.744600
P41	P4	0.153300	0.252800	0.392200
P51	P5	0.306100	0.246200	0.775300
O11	O1	0.080200	0.145600	0.160600
O21	O2	0.062700	0.126800	0.797700
O31	O3	0.060600	0.187000	0.382500
O41	O4	0.887900	0.367400	0.691700
O51	O5	0.236300	0.259300	0.858700
O61	O6	0.081200	0.370100	0.685500
O71	O7	0.998300	0.337000	0.836900
O81	O8	0.021500	0.156000	0.624700
O91	O9	0.212100	0.260400	0.116100
O101	O10	0.383500	0.168800	0.804500
O111	O11	0.878100	0.138300	0.733200
O121	O12	0.125400	0.348000	0.347100
O131	O13	0.245900	0.211400	0.342900
O141	O14	0.067500	0.215500	0.000900
O151	O15	0.361700	0.339500	0.762100
O161	O16	0.245500	0.218300	0.686000
O171	O17	0.029800	0.313500	0.138000
O181	O18	0.186500	0.264900	0.495600
O191	O19	0.984300	0.002300	0.693900
O201	O20	0.991300	0.495900	0.770900
Co51	Co5	0.407500	0.737600	0.628300
Co61	Co6	0.994800	0.873700	0.728500
Co71	Co7	0.986900	0.625600	0.742400
Ga31	Ga3	0.694100	0.758800	0.773700
Ga41	Ga4	0.391100	0.766500	0.896700
Co81	Co8	0.379300	0.756800	0.884000
P61	P6	0.401700	0.734700	0.396500
P71	P7	0.512500	0.606700	0.786400
P81	P8	0.509900	0.893600	0.755400
P91	P9	0.346700	0.752800	0.107800
P101	P10	0.193900	0.746200	0.724700
O211	O21	0.419800	0.645600	0.339400
O221	O22	0.437300	0.626800	0.702300
O231	O23	0.439400	0.687000	0.117500
O241	O24	0.612100	0.867400	0.808300
O251	O25	0.263700	0.759300	0.641300
O261	O26	0.418800	0.870100	0.814500
O271	O27	0.501700	0.837000	0.663100
O281	O28	0.478500	0.656000	0.875300
O291	O29	0.287900	0.760400	0.383900
O301	O30	0.116500	0.668800	0.695500
O311	O31	0.621900	0.638300	0.766800
O321	O32	0.374600	0.848000	0.152900
O331	O33	0.254100	0.711400	0.157100
O341	O34	0.432500	0.715500	0.499100
O351	O35	0.138300	0.839500	0.737900
O361	O36	0.254500	0.718300	0.814000
O371	O37	0.470200	0.813500	0.362000
O381	O38	0.313500	0.764900	0.004400
O391	O39	0.515700	0.502300	0.806100
O401	O40	0.508700	0.995900	0.729100
Co91	Co9	0.907500	0.762400	0.128300
Co101	Co10	0.494800	0.626300	0.228500
Co111	Co11	0.486900	0.874400	0.242400
Ga51	Ga5	0.194100	0.741200	0.273700
Ga61	Ga6	0.891100	0.733500	0.396700
Co121	Co12	0.879300	0.743200	0.384000
P111	P11	0.901700	0.765300	0.896500
P121	P12	0.012500	0.893300	0.286400
P131	P13	0.009900	0.606400	0.255400
P141	P14	0.846700	0.747200	0.607800
P151	P15	0.693900	0.753800	0.224700
O411	O41	0.919800	0.854400	0.839400
O421	O42	0.937300	0.873200	0.202300
O431	O43	0.939400	0.813000	0.617500
O441	O44	0.112100	0.632600	0.308300
O451	O45	0.763700	0.740700	0.141300
O461	O46	0.918800	0.629900	0.314500
O471	O47	0.001700	0.663000	0.163100
O481	O48	0.978500	0.844000	0.375300
O491	O49	0.787900	0.739600	0.883900
O501	O50	0.616500	0.831200	0.195500
O511	O51	0.121900	0.861700	0.266800
O521	O52	0.874600	0.652000	0.652900
O531	O53	0.754100	0.788600	0.657100
O541	O54	0.932500	0.784500	0.999100
O551	O55	0.638300	0.660500	0.237900
O561	O56	0.754500	0.781700	0.314000
O571	O57	0.970200	0.686500	0.862000
O581	O58	0.813500	0.735100	0.504400
O591	O59	0.015700	0.997700	0.306100
O601	O60	0.008700	0.504100	0.229100
Co131	Co13	0.592500	0.262400	0.371700
Co141	Co14	0.005200	0.126300	0.271500
Co151	Co15	0.013100	0.374400	0.257600
Ga71	Ga7	0.305900	0.241200	0.226300
Ga81	Ga8	0.608900	0.233500	0.103300
Co161	Co16	0.620700	0.243200	0.116000
P161	P16	0.598300	0.265300	0.603500
P171	P17	0.487500	0.393300	0.213600
P181	P18	0.490100	0.106400	0.244600
P191	P19	0.653300	0.247200	0.892200
P201	P20	0.806100	0.253800	0.275300
O611	O61	0.580200	0.354400	0.660600
O621	O62	0.562700	0.373200	0.297700
O631	O63	0.560600	0.313000	0.882500
O641	O64	0.387900	0.132600	0.191700
O651	O65	0.736300	0.240700	0.358700
O661	O66	0.581200	0.129900	0.185500
O671	O67	0.498300	0.163000	0.336900
O681	O68	0.521500	0.344000	0.124700
O691	O69	0.712100	0.239600	0.616100
O701	O70	0.883500	0.331200	0.304500
O711	O71	0.378100	0.361700	0.233200
O721	O72	0.625400	0.152000	0.847100
O731	O73	0.745900	0.288600	0.842900
O741	O74	0.567500	0.284500	0.500900
O751	O75	0.861700	0.160500	0.262100
O761	O76	0.745500	0.281700	0.186000
O771	O77	0.529800	0.186500	0.638000
O781	O78	0.686500	0.235100	0.995600
O791	O79	0.484300	0.497700	0.193900
O801	O80	0.491300	0.004100	0.270900
