data_BEGBOG_freeONLY_PM
_symmetry_space_group_name_H-M	'P1'
_cell_length_a	11.084500
_cell_length_b	11.084500
_cell_length_c	11.084500
_cell_angle_alpha	90.000000
_cell_angle_beta	90.000000
_cell_angle_gamma	90.000000
_symmetry_Int_Tables_number 1

loop_
_symmetry_equiv_pos_as_xyz
'x,y,z'

loop_
_atom_site_label
_atom_site_type_symbol
_atom_site_fract_x
_atom_site_fract_y
_atom_site_fract_z
Na11	Na1	0.152100	0.347900	0.652100
Na21	Na2	0.347900	0.652100	0.152100
Na31	Na3	0.847900	0.847900	0.847900
Na41	Na4	0.652100	0.152100	0.347900
H11	H1	0.428800	0.343800	0.024300
H21	H2	0.350900	0.251400	0.950900
H31	H3	0.444700	0.333500	0.884200
H41	H4	0.071200	0.656200	0.524300
H51	H5	0.149100	0.748600	0.450900
H61	H6	0.055300	0.666500	0.384200
H71	H7	0.571200	0.843800	0.475700
H81	H8	0.649100	0.751400	0.549100
H91	H9	0.555300	0.833500	0.615800
H101	H10	0.928800	0.156200	0.975700
H111	H11	0.850900	0.248600	0.049100
H121	H12	0.944700	0.166500	0.115800
H131	H13	0.024300	0.428800	0.343800
H141	H14	0.950900	0.350900	0.251400
H151	H15	0.884200	0.444700	0.333500
H161	H16	0.524300	0.071200	0.656200
H171	H17	0.450900	0.149100	0.748600
H181	H18	0.384200	0.055300	0.666500
H191	H19	0.475700	0.571200	0.843800
H201	H20	0.549100	0.649100	0.751400
H211	H21	0.615800	0.555300	0.833500
H221	H22	0.975700	0.928800	0.156200
H231	H23	0.049100	0.850900	0.248600
H241	H24	0.115800	0.944700	0.166500
H251	H25	0.343800	0.024300	0.428800
H261	H26	0.251400	0.950900	0.350900
H271	H27	0.333500	0.884200	0.444700
H281	H28	0.656200	0.524300	0.071200
H291	H29	0.748600	0.450900	0.149100
H301	H30	0.666500	0.384200	0.055300
H311	H31	0.843800	0.475700	0.571200
H321	H32	0.751400	0.549100	0.649100
H331	H33	0.833500	0.615800	0.555300
H341	H34	0.156200	0.975700	0.928800
H351	H35	0.248600	0.049100	0.850900
H361	H36	0.166500	0.115800	0.944700
C11	C1	0.291900	0.424800	0.931500
C21	C2	0.387800	0.329700	0.949300
C31	C3	0.208100	0.575200	0.431500
C41	C4	0.112200	0.670300	0.449300
C51	C5	0.708100	0.924800	0.568500
C61	C6	0.612200	0.829700	0.550700
C71	C7	0.791900	0.075200	0.068500
C81	C8	0.887800	0.170300	0.050700
C91	C9	0.931500	0.291900	0.424800
C101	C10	0.949300	0.387800	0.329700
C111	C11	0.431500	0.208100	0.575200
C121	C12	0.449300	0.112200	0.670300
C131	C13	0.568500	0.708100	0.924800
C141	C14	0.550700	0.612200	0.829700
C151	C15	0.068500	0.791900	0.075200
C161	C16	0.050700	0.887800	0.170300
C171	C17	0.424800	0.931500	0.291900
C181	C18	0.329700	0.949300	0.387800
C191	C19	0.575200	0.431500	0.208100
C201	C20	0.670300	0.449300	0.112200
C211	C21	0.924800	0.568500	0.708100
C221	C22	0.829700	0.550700	0.612200
C231	C23	0.075200	0.068500	0.791900
C241	C24	0.170300	0.050700	0.887800
O11	O1	0.227900	0.422300	0.837200
O21	O2	0.275900	0.503900	0.012300
O31	O3	0.272100	0.577700	0.337200
O41	O4	0.224100	0.496100	0.512300
O51	O5	0.772100	0.922300	0.662800
O61	O6	0.724100	0.003900	0.487700
O71	O7	0.727900	0.077700	0.162800
O81	O8	0.775900	0.996100	0.987700
O91	O9	0.837200	0.227900	0.422300
O101	O10	0.012300	0.275900	0.503900
O111	O11	0.337200	0.272100	0.577700
O121	O12	0.512300	0.224100	0.496100
O131	O13	0.662800	0.772100	0.922300
O141	O14	0.487700	0.724100	0.003900
O151	O15	0.162800	0.727900	0.077700
O161	O16	0.987700	0.775900	0.996100
O171	O17	0.422300	0.837200	0.227900
O181	O18	0.503900	0.012300	0.275900
O191	O19	0.577700	0.337200	0.272100
O201	O20	0.496100	0.512300	0.224100
O211	O21	0.922300	0.662800	0.772100
O221	O22	0.003900	0.487700	0.724100
O231	O23	0.077700	0.162800	0.727900
O241	O24	0.996100	0.987700	0.775900
