data_BEKYOG01_freeONLY_PM
_symmetry_space_group_name_H-M	'P1'
_cell_length_a	18.400000
_cell_length_b	14.566000
_cell_length_c	12.313000
_cell_angle_alpha	90.000000
_cell_angle_beta	113.190000
_cell_angle_gamma	90.000000
_symmetry_Int_Tables_number 1

loop_
_symmetry_equiv_pos_as_xyz
'x,y,z'

loop_
_atom_site_label
_atom_site_type_symbol
_atom_site_fract_x
_atom_site_fract_y
_atom_site_fract_z
Ag11	Ag1	0.746930	0.696450	0.745440
Ag21	Ag2	0.578070	0.689740	0.869990
Cr11	Cr1	0.290820	0.495180	0.474640
O11	O1	0.352400	0.420100	0.613800
O21	O2	0.207800	0.406800	0.462600
O31	O3	0.839100	0.801300	0.716200
O41	O4	0.682000	0.787900	0.552400
C11	C1	0.311900	0.355400	0.632600
C21	C2	0.225500	0.347400	0.542800
O51	O5	0.221900	0.569700	0.340200
O61	O6	0.742500	0.584200	0.934500
O71	O7	0.645100	0.803900	0.799700
O81	O8	0.685400	0.788800	0.042300
C31	C3	0.190900	0.638700	0.370700
C41	C4	0.788600	0.646600	0.997300
O91	O9	0.617700	0.571100	0.010200
O101	O10	0.670800	0.578000	0.628600
O111	O11	0.524300	0.411000	0.581300
O121	O12	0.578200	0.579300	0.701500
C51	C5	0.581200	0.546000	0.075500
C61	C6	0.610900	0.544500	0.643800
Ag31	Ag3	0.924700	0.652800	0.699100
Ag41	Ag4	0.541200	0.242800	0.932500
Ag51	Ag5	0.457100	0.231300	0.875400
O131	O13	0.495600	0.807000	0.893700
Ag61	Ag6	0.246930	0.196450	0.745440
Ag71	Ag7	0.078070	0.189740	0.869990
Cr21	Cr2	0.790820	0.995180	0.474640
O141	O14	0.852400	0.920100	0.613800
O151	O15	0.707800	0.906800	0.462600
O161	O16	0.339100	0.301300	0.716200
O171	O17	0.182000	0.287900	0.552400
C71	C7	0.811900	0.855400	0.632600
C81	C8	0.725500	0.847400	0.542800
O181	O18	0.721900	0.069700	0.340200
O191	O19	0.242500	0.084200	0.934500
O201	O20	0.145100	0.303900	0.799700
O211	O21	0.185400	0.288800	0.042300
C91	C9	0.690900	0.138700	0.370700
C101	C10	0.288600	0.146600	0.997300
O221	O22	0.117700	0.071100	0.010200
O231	O23	0.170800	0.078000	0.628600
O241	O24	0.024300	0.911000	0.581300
O251	O25	0.078200	0.079300	0.701500
C111	C11	0.081200	0.046000	0.075500
C121	C12	0.110900	0.044500	0.643800
Ag81	Ag8	0.424700	0.152800	0.699100
Ag91	Ag9	0.041200	0.742800	0.932500
Ag101	Ag10	0.957100	0.731300	0.875400
O261	O26	0.995600	0.307000	0.893700
Ag111	Ag11	0.253070	0.696450	0.754560
Ag121	Ag12	0.421930	0.689740	0.630010
Cr31	Cr3	0.709180	0.495180	0.025360
O271	O27	0.647600	0.420100	0.886200
O281	O28	0.792200	0.406800	0.037400
O291	O29	0.160900	0.801300	0.783800
O301	O30	0.318000	0.787900	0.947600
C131	C13	0.688100	0.355400	0.867400
C141	C14	0.774500	0.347400	0.957200
O311	O31	0.778100	0.569700	0.159800
O321	O32	0.257500	0.584200	0.565500
O331	O33	0.354900	0.803900	0.700300
O341	O34	0.314600	0.788800	0.457700
C151	C15	0.809100	0.638700	0.129300
C161	C16	0.211400	0.646600	0.502700
O351	O35	0.382300	0.571100	0.489800
O361	O36	0.329200	0.578000	0.871400
O371	O37	0.475700	0.411000	0.918700
O381	O38	0.421800	0.579300	0.798500
C171	C17	0.418800	0.546000	0.424500
C181	C18	0.389100	0.544500	0.856200
Ag131	Ag13	0.075300	0.652800	0.800900
Ag141	Ag14	0.458800	0.242800	0.567500
Ag151	Ag15	0.542900	0.231300	0.624600
O391	O39	0.504400	0.807000	0.606300
Ag161	Ag16	0.753070	0.196450	0.754560
Ag171	Ag17	0.921930	0.189740	0.630010
Cr41	Cr4	0.209180	0.995180	0.025360
O401	O40	0.147600	0.920100	0.886200
O411	O41	0.292200	0.906800	0.037400
O421	O42	0.660900	0.301300	0.783800
O431	O43	0.818000	0.287900	0.947600
C191	C19	0.188100	0.855400	0.867400
C201	C20	0.274500	0.847400	0.957200
O441	O44	0.278100	0.069700	0.159800
O451	O45	0.757500	0.084200	0.565500
O461	O46	0.854900	0.303900	0.700300
O471	O47	0.814600	0.288800	0.457700
C211	C21	0.309100	0.138700	0.129300
C221	C22	0.711400	0.146600	0.502700
O481	O48	0.882300	0.071100	0.489800
O491	O49	0.829200	0.078000	0.871400
O501	O50	0.975700	0.911000	0.918700
O511	O51	0.921800	0.079300	0.798500
C231	C23	0.918800	0.046000	0.424500
C241	C24	0.889100	0.044500	0.856200
Ag181	Ag18	0.575300	0.152800	0.800900
Ag191	Ag19	0.958800	0.742800	0.567500
Ag201	Ag20	0.042900	0.731300	0.624600
O521	O52	0.004400	0.307000	0.606300
Ag211	Ag21	0.253070	0.303550	0.254560
Ag221	Ag22	0.421930	0.310260	0.130010
Cr51	Cr5	0.709180	0.504820	0.525360
O531	O53	0.647600	0.579900	0.386200
O541	O54	0.792200	0.593200	0.537400
O551	O55	0.160900	0.198700	0.283800
O561	O56	0.318000	0.212100	0.447600
C251	C25	0.688100	0.644600	0.367400
C261	C26	0.774500	0.652600	0.457200
O571	O57	0.778100	0.430300	0.659800
O581	O58	0.257500	0.415800	0.065500
O591	O59	0.354900	0.196100	0.200300
O601	O60	0.314600	0.211200	0.957700
C271	C27	0.809100	0.361300	0.629300
C281	C28	0.211400	0.353400	0.002700
O611	O61	0.382300	0.428900	0.989800
O621	O62	0.329200	0.422000	0.371400
O631	O63	0.475700	0.589000	0.418700
O641	O64	0.421800	0.420700	0.298500
C291	C29	0.418800	0.454000	0.924500
C301	C30	0.389100	0.455500	0.356200
Ag231	Ag23	0.075300	0.347200	0.300900
Ag241	Ag24	0.458800	0.757200	0.067500
Ag251	Ag25	0.542900	0.768700	0.124600
O651	O65	0.504400	0.193000	0.106300
Ag261	Ag26	0.753070	0.803550	0.254560
Ag271	Ag27	0.921930	0.810260	0.130010
Cr61	Cr6	0.209180	0.004820	0.525360
O661	O66	0.147600	0.079900	0.386200
O671	O67	0.292200	0.093200	0.537400
O681	O68	0.660900	0.698700	0.283800
O691	O69	0.818000	0.712100	0.447600
C311	C31	0.188100	0.144600	0.367400
C321	C32	0.274500	0.152600	0.457200
O701	O70	0.278100	0.930300	0.659800
O711	O71	0.757500	0.915800	0.065500
O721	O72	0.854900	0.696100	0.200300
O731	O73	0.814600	0.711200	0.957700
C331	C33	0.309100	0.861300	0.629300
C341	C34	0.711400	0.853400	0.002700
O741	O74	0.882300	0.928900	0.989800
O751	O75	0.829200	0.922000	0.371400
O761	O76	0.975700	0.089000	0.418700
O771	O77	0.921800	0.920700	0.298500
C351	C35	0.918800	0.954000	0.924500
C361	C36	0.889100	0.955500	0.356200
Ag281	Ag28	0.575300	0.847200	0.300900
Ag291	Ag29	0.958800	0.257200	0.067500
Ag301	Ag30	0.042900	0.268700	0.124600
O781	O78	0.004400	0.693000	0.106300
Ag311	Ag31	0.746930	0.303550	0.245440
Ag321	Ag32	0.578070	0.310260	0.369990
Cr71	Cr7	0.290820	0.504820	0.974640
O791	O79	0.352400	0.579900	0.113800
O801	O80	0.207800	0.593200	0.962600
O811	O81	0.839100	0.198700	0.216200
O821	O82	0.682000	0.212100	0.052400
C371	C37	0.311900	0.644600	0.132600
C381	C38	0.225500	0.652600	0.042800
O831	O83	0.221900	0.430300	0.840200
O841	O84	0.742500	0.415800	0.434500
O851	O85	0.645100	0.196100	0.299700
O861	O86	0.685400	0.211200	0.542300
C391	C39	0.190900	0.361300	0.870700
C401	C40	0.788600	0.353400	0.497300
O871	O87	0.617700	0.428900	0.510200
O881	O88	0.670800	0.422000	0.128600
O891	O89	0.524300	0.589000	0.081300
O901	O90	0.578200	0.420700	0.201500
C411	C41	0.581200	0.454000	0.575500
C421	C42	0.610900	0.455500	0.143800
Ag331	Ag33	0.924700	0.347200	0.199100
Ag341	Ag34	0.541200	0.757200	0.432500
Ag351	Ag35	0.457100	0.768700	0.375400
O911	O91	0.495600	0.193000	0.393700
Ag361	Ag36	0.246930	0.803550	0.245440
Ag371	Ag37	0.078070	0.810260	0.369990
Cr81	Cr8	0.790820	0.004820	0.974640
O921	O92	0.852400	0.079900	0.113800
O931	O93	0.707800	0.093200	0.962600
O941	O94	0.339100	0.698700	0.216200
O951	O95	0.182000	0.712100	0.052400
C431	C43	0.811900	0.144600	0.132600
C441	C44	0.725500	0.152600	0.042800
O961	O96	0.721900	0.930300	0.840200
O971	O97	0.242500	0.915800	0.434500
O981	O98	0.145100	0.696100	0.299700
O991	O99	0.185400	0.711200	0.542300
C451	C45	0.690900	0.861300	0.870700
C461	C46	0.288600	0.853400	0.497300
O1001	O100	0.117700	0.928900	0.510200
O1011	O101	0.170800	0.922000	0.128600
O1021	O102	0.024300	0.089000	0.081300
O1031	O103	0.078200	0.920700	0.201500
C471	C47	0.081200	0.954000	0.575500
C481	C48	0.110900	0.955500	0.143800
Ag381	Ag38	0.424700	0.847200	0.199100
Ag391	Ag39	0.041200	0.257200	0.432500
Ag401	Ag40	0.957100	0.268700	0.375400
O1041	O104	0.995600	0.693000	0.393700
Ag411	Ag41	0.500000	0.452800	0.750000
Ag421	Ag42	0.000000	0.952800	0.750000
Ag431	Ag43	0.500000	0.547200	0.250000
Ag441	Ag44	0.000000	0.047200	0.250000
