data_BENXUP_freeONLY_PM
_symmetry_space_group_name_H-M	'P1'
_cell_length_a	9.004980
_cell_length_b	11.166000
_cell_length_c	16.672000
_cell_angle_alpha	108.447000
_cell_angle_beta	90.000000
_cell_angle_gamma	113.780000
_symmetry_Int_Tables_number 1

loop_
_symmetry_equiv_pos_as_xyz
'x,y,z'

loop_
_atom_site_label
_atom_site_type_symbol
_atom_site_fract_x
_atom_site_fract_y
_atom_site_fract_z
Zn11	Zn1	0.144480	0.678380	0.732490
Zn21	Zn2	0.466100	0.321620	0.767510
Zn31	Zn3	0.855520	0.321620	0.267510
Zn41	Zn4	0.533900	0.678380	0.232490
Zn51	Zn5	0.248150	0.000000	0.750000
Zn61	Zn6	0.751850	0.000000	0.250000
H11	H1	0.932900	0.544000	0.467900
H21	H2	0.746100	0.862000	0.423600
H31	H3	0.893200	0.912400	0.555000
H41	H4	0.795600	0.375800	0.112800
H51	H5	0.600900	0.449600	0.122700
H61	H6	0.405300	0.203000	0.102200
H71	H7	0.484000	0.214000	0.191800
H81	H8	0.373700	0.295400	0.189800
H91	H9	0.332000	0.870000	0.815000
H101	H10	0.388900	0.456000	0.032100
H111	H11	0.884100	0.138000	0.076400
H121	H12	0.980800	0.087600	0.945000
H131	H13	0.419800	0.624200	0.387200
H141	H14	0.151300	0.550400	0.377300
H151	H15	0.202300	0.797000	0.397800
H161	H16	0.270000	0.786000	0.308200
H171	H17	0.078300	0.704600	0.310200
H181	H18	0.462000	0.130000	0.685000
H191	H19	0.067100	0.456000	0.532100
H201	H20	0.253900	0.138000	0.576400
H211	H21	0.106800	0.087600	0.445000
H221	H22	0.204400	0.624200	0.887200
H231	H23	0.399100	0.550400	0.877300
H241	H24	0.594700	0.797000	0.897800
H251	H25	0.516000	0.786000	0.808200
H261	H26	0.626300	0.704600	0.810200
H271	H27	0.668000	0.130000	0.185000
H281	H28	0.611100	0.544000	0.967900
H291	H29	0.115900	0.862000	0.923600
H301	H30	0.019200	0.912400	0.055000
H311	H31	0.580200	0.375800	0.612800
H321	H32	0.848700	0.449600	0.622700
H331	H33	0.797700	0.203000	0.602200
H341	H34	0.730000	0.214000	0.691800
H351	H35	0.921700	0.295400	0.689800
H361	H36	0.538000	0.870000	0.315000
C11	C1	0.898400	0.609000	0.458400
C21	C2	0.023900	0.770600	0.606800
C31	C3	0.929200	0.735600	0.522700
C41	C4	0.785400	0.799200	0.432500
C51	C5	0.816100	0.582400	0.380700
C61	C6	0.697400	0.499000	0.249800
C71	C7	0.758200	0.674000	0.368100
C81	C8	0.872000	0.827800	0.509700
C91	C9	0.619500	0.402200	0.160900
C101	C10	0.453700	0.264600	0.161200
C111	C11	0.289400	0.391000	0.041600
C121	C12	0.253300	0.229400	0.893200
C131	C13	0.193600	0.264400	0.977300
C141	C14	0.986200	0.200800	0.067500
C151	C15	0.233700	0.417600	0.119300
C161	C16	0.198400	0.501000	0.250200
C171	C17	0.084200	0.326000	0.131900
C181	C18	0.044200	0.172200	0.990300
C191	C19	0.217300	0.597800	0.339100
C201	C20	0.189100	0.735400	0.338800
C211	C21	0.101600	0.391000	0.541600
C221	C22	0.976100	0.229400	0.393200
C231	C23	0.070800	0.264400	0.477300
C241	C24	0.214600	0.200800	0.567500
C251	C25	0.183900	0.417600	0.619300
C261	C26	0.302600	0.501000	0.750200
C271	C27	0.241800	0.326000	0.631900
C281	C28	0.128000	0.172200	0.490300
C291	C29	0.380500	0.597800	0.839100
C301	C30	0.546300	0.735400	0.838800
C311	C31	0.710600	0.609000	0.958400
C321	C32	0.746700	0.770600	0.106800
C331	C33	0.806400	0.735600	0.022700
C341	C34	0.013800	0.799200	0.932500
C351	C35	0.766300	0.582400	0.880700
C361	C36	0.801600	0.499000	0.749800
C371	C37	0.915800	0.674000	0.868100
C381	C38	0.955800	0.827800	0.009700
C391	C39	0.782700	0.402200	0.660900
C401	C40	0.810900	0.264600	0.661200
N11	N1	0.776300	0.469800	0.303900
N21	N2	0.679400	0.618000	0.283500
N31	N3	0.306500	0.530200	0.196100
N41	N4	0.061400	0.382000	0.216500
N51	N5	0.223700	0.530200	0.696100
N61	N6	0.320600	0.382000	0.716500
N71	N7	0.693500	0.469800	0.803900
N81	N8	0.938600	0.618000	0.783500
O11	O1	0.055800	0.889400	0.662000
O21	O2	0.300700	0.870600	0.780800
O31	O3	0.070100	0.685200	0.618800
O41	O4	0.711700	0.326200	0.128800
O51	O5	0.166400	0.110600	0.838000
O61	O6	0.430100	0.129400	0.719200
O71	O7	0.384900	0.314800	0.881200
O81	O8	0.385500	0.673800	0.371200
O91	O9	0.944200	0.110600	0.338000
O101	O10	0.699300	0.129400	0.219200
O111	O11	0.929900	0.314800	0.381200
O121	O12	0.288300	0.673800	0.871200
O131	O13	0.833600	0.889400	0.162000
O141	O14	0.569900	0.870600	0.280800
O151	O15	0.615100	0.685200	0.118800
O161	O16	0.614500	0.326200	0.628800
