data_BENZOL_freeONLY_PM
_symmetry_space_group_name_H-M	'P1'
_cell_length_a	9.781000
_cell_length_b	11.007000
_cell_length_c	11.382000
_cell_angle_alpha	80.460000
_cell_angle_beta	82.420000
_cell_angle_gamma	81.980000
_symmetry_Int_Tables_number 1

loop_
_symmetry_equiv_pos_as_xyz
'x,y,z'

loop_
_atom_site_label
_atom_site_type_symbol
_atom_site_fract_x
_atom_site_fract_y
_atom_site_fract_z
Sr11	Sr1	0.928630	0.337280	0.997270
C11	C1	0.579600	0.393100	0.858200
C21	C2	0.461300	0.396500	0.797000
C31	C3	0.329200	0.416100	0.862900
C41	C4	0.475300	0.372200	0.677300
C51	C5	0.356100	0.363900	0.619600
H11	H1	0.268100	0.374500	0.661600
C61	C6	0.368900	0.341000	0.505300
H21	H2	0.289400	0.335900	0.470500
C71	C7	0.500700	0.324500	0.437200
C81	C8	0.619000	0.332100	0.495600
H31	H3	0.707100	0.321600	0.453800
C91	C9	0.606500	0.354100	0.609900
H41	H4	0.686200	0.357400	0.645100
C101	C10	0.516200	0.301200	0.317200
C111	C11	0.400300	0.292400	0.258800
C121	C12	0.648300	0.287200	0.249800
C131	C13	0.980200	0.346900	0.464300
C141	C14	0.988700	0.242800	0.556100
C151	C15	0.987600	0.269000	0.674200
C161	C16	0.994600	0.101300	0.408800
H51	H5	0.991400	0.168900	0.347700
C171	C17	0.994600	0.121800	0.528500
C181	C18	0.001000	0.016000	0.618800
H61	H6	0.002100	0.026500	0.698100
N11	N1	0.676900	0.391200	0.905100
N21	N2	0.220600	0.434100	0.912600
N31	N3	0.304600	0.285900	0.213300
N41	N4	0.755500	0.278100	0.196200
N51	N5	0.986000	0.292300	0.768700
N61	N6	0.972000	0.426400	0.386500
O11	O1	0.945590	0.552380	0.862210
H71	H7	0.993800	0.549600	0.795900
H81	H8	0.865400	0.589300	0.850300
O21	O2	0.883400	0.121140	0.982900
H91	H9	0.814300	0.122400	0.946400
H101	H10	0.883800	0.061700	0.038300
O31	O3	0.113600	0.181100	0.090200
H111	H11	0.155100	0.116600	0.062500
H121	H12	0.173700	0.217500	0.112100
Sr21	Sr2	0.071370	0.662720	0.002730
C191	C19	0.420400	0.606900	0.141800
C201	C20	0.538700	0.603500	0.203000
C211	C21	0.670800	0.583900	0.137100
C221	C22	0.524700	0.627800	0.322700
C231	C23	0.643900	0.636100	0.380400
H131	H13	0.731900	0.625500	0.338400
C241	C24	0.631100	0.659000	0.494700
H141	H14	0.710600	0.664100	0.529500
C251	C25	0.499300	0.675500	0.562800
C261	C26	0.381000	0.667900	0.504400
H151	H15	0.292900	0.678400	0.546200
C271	C27	0.393500	0.645900	0.390100
H161	H16	0.313800	0.642600	0.354900
C281	C28	0.483800	0.698800	0.682800
C291	C29	0.599700	0.707600	0.741200
C301	C30	0.351700	0.712800	0.750200
C311	C31	0.019800	0.653100	0.535700
C321	C32	0.011300	0.757200	0.443900
C331	C33	0.012400	0.731000	0.325800
C341	C34	0.005400	0.898700	0.591200
H171	H17	0.008600	0.831100	0.652300
C351	C35	0.005400	0.878200	0.471500
C361	C36	0.999000	0.984000	0.381200
H181	H18	0.997900	0.973500	0.301900
N71	N7	0.323100	0.608800	0.094900
N81	N8	0.779400	0.565900	0.087400
N91	N9	0.695400	0.714100	0.786700
N101	N10	0.244500	0.721900	0.803800
N111	N11	0.014000	0.707700	0.231300
N121	N12	0.028000	0.573600	0.613500
O41	O4	0.054410	0.447620	0.137790
H191	H19	0.006200	0.450400	0.204100
H201	H20	0.134600	0.410700	0.149700
O51	O5	0.116600	0.878860	0.017100
H211	H21	0.185700	0.877600	0.053600
H221	H22	0.116200	0.938300	0.961700
O61	O6	0.886400	0.818900	0.909800
H231	H23	0.844900	0.883400	0.937500
H241	H24	0.826300	0.782500	0.887900
