data_BEPNER_freeONLY_PM
_symmetry_space_group_name_H-M	'P1'
_cell_length_a	25.117000
_cell_length_b	5.780200
_cell_length_c	21.993000
_cell_angle_alpha	90.000000
_cell_angle_beta	120.744000
_cell_angle_gamma	90.000000
_symmetry_Int_Tables_number 1

loop_
_symmetry_equiv_pos_as_xyz
'x,y,z'

loop_
_atom_site_label
_atom_site_type_symbol
_atom_site_fract_x
_atom_site_fract_y
_atom_site_fract_z
C11	C1	0.525900	0.376000	0.384100
H11	H1	0.546300	0.516500	0.399700
C21	C2	0.524000	0.268000	0.328500
H21	H2	0.546200	0.329000	0.308900
C31	C3	0.488700	0.062800	0.299300
C41	C4	0.460900	0.975000	0.333300
H31	H3	0.438400	0.838100	0.316900
C51	C5	0.465300	0.082000	0.391000
H41	H4	0.444900	0.016700	0.412100
C61	C6	0.484800	0.956000	0.234700
H51	H5	0.494800	0.793000	0.242900
H61	H6	0.514800	0.029700	0.225600
C71	C7	0.414600	0.882800	0.105600
H71	H7	0.433000	0.727900	0.116600
C81	C8	0.448500	0.033600	0.078900
C91	C9	0.345900	0.865000	0.047900
H81	H8	0.325400	0.785500	0.069800
C101	C10	0.336600	0.712000	0.987100
H91	H9	0.338500	0.804700	0.952000
H101	H10	0.296900	0.637700	0.966400
H111	H11	0.368600	0.596400	0.004400
C111	C11	0.312700	0.097000	0.021100
H121	H12	0.330600	0.180100	0.998200
H131	H13	0.317100	0.185500	0.060300
H141	H14	0.269500	0.069900	0.988000
C121	C12	0.129200	0.850000	0.109500
H151	H15	0.117000	0.977500	0.079400
C131	C13	0.188700	0.851000	0.168700
H161	H16	0.214300	0.978800	0.178500
C141	C14	0.209700	0.660000	0.212800
C151	C15	0.168500	0.481000	0.195000
H171	H17	0.180400	0.349100	0.223100
C161	C16	0.110100	0.493000	0.136500
H181	H18	0.083900	0.367000	0.126000
C171	C17	0.271800	0.663000	0.277200
H191	H19	0.293900	0.801100	0.277500
H201	H20	0.295300	0.529400	0.277400
C181	C18	0.323900	0.748900	0.407000
H211	H21	0.335300	0.897500	0.395300
C191	C19	0.377100	0.578500	0.428200
C201	C20	0.310300	0.787100	0.466000
H221	H22	0.270700	0.870500	0.444300
C211	C21	0.357600	0.948000	0.523700
H231	H23	0.339200	0.020700	0.547700
H241	H24	0.370400	0.063800	0.502600
H251	H25	0.393000	0.859200	0.557000
C221	C22	0.299900	0.565000	0.496200
H261	H26	0.336000	0.468600	0.514100
H271	H27	0.264700	0.484200	0.459500
H281	H28	0.292600	0.602700	0.533800
N11	N1	0.497400	0.277800	0.418600
N21	N2	0.420000	0.986500	0.170700
H291	H29	0.392400	0.919100	0.179400
H301	H30	0.411000	0.138300	0.163300
N31	N3	0.088800	0.680000	0.093500
N41	N4	0.266300	0.659500	0.342200
H311	H31	0.259000	0.513600	0.350300
H321	H32	0.233700	0.746800	0.334400
O11	O1	0.430700	0.674800	0.468400
O21	O2	0.366900	0.377000	0.410000
O31	O3	0.466000	0.925400	0.041700
O41	O4	0.457100	0.244100	0.093600
H331	H33	0.515000	0.614000	0.980000
C231	C23	0.025900	0.876000	0.384100
H341	H34	0.046300	0.016500	0.399700
C241	C24	0.024000	0.768000	0.328500
H351	H35	0.046200	0.829000	0.308900
C251	C25	0.988700	0.562800	0.299300
C261	C26	0.960900	0.475000	0.333300
H361	H36	0.938400	0.338100	0.316900
C271	C27	0.965300	0.582000	0.391000
H371	H37	0.944900	0.516700	0.412100
C281	C28	0.984800	0.456000	0.234700
H381	H38	0.994800	0.293000	0.242900
H391	H39	0.014800	0.529700	0.225600
C291	C29	0.914600	0.382800	0.105600
H401	H40	0.933000	0.227900	0.116600
C301	C30	0.948500	0.533600	0.078900
C311	C31	0.845900	0.365000	0.047900
H411	H41	0.825400	0.285500	0.069800
C321	C32	0.836600	0.212000	0.987100
H421	H42	0.838500	0.304700	0.952000
H431	H43	0.796900	0.137700	0.966400
H441	H44	0.868600	0.096400	0.004400
C331	C33	0.812700	0.597000	0.021100
H451	H45	0.830600	0.680100	0.998200
H461	H46	0.817100	0.685500	0.060300
H471	H47	0.769500	0.569900	0.988000
C341	C34	0.629200	0.350000	0.109500
H481	H48	0.617000	0.477500	0.079400
C351	C35	0.688700	0.351000	0.168700
H491	H49	0.714300	0.478800	0.178500
C361	C36	0.709700	0.160000	0.212800
C371	C37	0.668500	0.981000	0.195000
H501	H50	0.680400	0.849100	0.223100
C381	C38	0.610100	0.993000	0.136500
H511	H51	0.583900	0.867000	0.126000
C391	C39	0.771800	0.163000	0.277200
H521	H52	0.793900	0.301100	0.277500
H531	H53	0.795300	0.029400	0.277400
C401	C40	0.823900	0.248900	0.407000
H541	H54	0.835300	0.397500	0.395300
C411	C41	0.877100	0.078500	0.428200
C421	C42	0.810300	0.287100	0.466000
H551	H55	0.770700	0.370500	0.444300
C431	C43	0.857600	0.448000	0.523700
H561	H56	0.839200	0.520700	0.547700
H571	H57	0.870400	0.563800	0.502600
H581	H58	0.893000	0.359200	0.557000
C441	C44	0.799900	0.065000	0.496200
H591	H59	0.836000	0.968600	0.514100
H601	H60	0.764700	0.984200	0.459500
H611	H61	0.792600	0.102700	0.533800
N51	N5	0.997400	0.777800	0.418600
N61	N6	0.920000	0.486500	0.170700
H621	H62	0.892400	0.419100	0.179400
H631	H63	0.911000	0.638300	0.163300
N71	N7	0.588800	0.180000	0.093500
N81	N8	0.766300	0.159500	0.342200
H641	H64	0.759000	0.013600	0.350300
H651	H65	0.733700	0.246800	0.334400
O51	O5	0.930700	0.174800	0.468400
O61	O6	0.866900	0.877000	0.410000
O71	O7	0.966000	0.425400	0.041700
O81	O8	0.957100	0.744100	0.093600
H661	H66	0.015000	0.114000	0.980000
C451	C45	0.474100	0.376000	0.615900
H671	H67	0.453700	0.516500	0.600300
C461	C46	0.476000	0.268000	0.671500
H681	H68	0.453800	0.329000	0.691100
C471	C47	0.511300	0.062800	0.700700
C481	C48	0.539100	0.975000	0.666700
H691	H69	0.561600	0.838100	0.683100
C491	C49	0.534700	0.082000	0.609000
H701	H70	0.555100	0.016700	0.587900
C501	C50	0.515200	0.956000	0.765300
H711	H71	0.505200	0.793000	0.757100
H721	H72	0.485200	0.029700	0.774400
C511	C51	0.585400	0.882800	0.894400
H731	H73	0.567000	0.727900	0.883400
C521	C52	0.551500	0.033600	0.921100
C531	C53	0.654100	0.865000	0.952100
H741	H74	0.674600	0.785500	0.930200
C541	C54	0.663400	0.712000	0.012900
H751	H75	0.661500	0.804700	0.048000
H761	H76	0.703100	0.637700	0.033600
H771	H77	0.631400	0.596400	0.995600
C551	C55	0.687300	0.097000	0.978900
H781	H78	0.669400	0.180100	0.001800
H791	H79	0.682900	0.185500	0.939700
H801	H80	0.730500	0.069900	0.012000
C561	C56	0.870800	0.850000	0.890500
H811	H81	0.883000	0.977500	0.920600
C571	C57	0.811300	0.851000	0.831300
H821	H82	0.785700	0.978800	0.821500
C581	C58	0.790300	0.660000	0.787200
C591	C59	0.831500	0.481000	0.805000
H831	H83	0.819600	0.349100	0.776900
C601	C60	0.889900	0.493000	0.863500
H841	H84	0.916100	0.367000	0.874000
C611	C61	0.728200	0.663000	0.722800
H851	H85	0.706100	0.801100	0.722500
H861	H86	0.704700	0.529400	0.722600
C621	C62	0.676100	0.748900	0.593000
H871	H87	0.664700	0.897500	0.604700
C631	C63	0.622900	0.578500	0.571800
C641	C64	0.689700	0.787100	0.534000
H881	H88	0.729300	0.870500	0.555700
C651	C65	0.642400	0.948000	0.476300
H891	H89	0.660800	0.020700	0.452300
H901	H90	0.629600	0.063800	0.497400
H911	H91	0.607000	0.859200	0.443000
C661	C66	0.700100	0.565000	0.503800
H921	H92	0.664000	0.468600	0.485900
H931	H93	0.735300	0.484200	0.540500
H941	H94	0.707400	0.602700	0.466200
N91	N9	0.502600	0.277800	0.581400
N101	N10	0.580000	0.986500	0.829300
H951	H95	0.607600	0.919100	0.820600
H961	H96	0.589000	0.138300	0.836700
N111	N11	0.911200	0.680000	0.906500
N121	N12	0.733700	0.659500	0.657800
H971	H97	0.741000	0.513600	0.649700
H981	H98	0.766300	0.746800	0.665600
O91	O9	0.569300	0.674800	0.531600
O101	O10	0.633100	0.377000	0.590000
O111	O11	0.534000	0.925400	0.958300
O121	O12	0.542900	0.244100	0.906400
H991	H99	0.485000	0.614000	0.020000
C671	C67	0.974100	0.876000	0.615900
H1001	H100	0.953700	0.016500	0.600300
C681	C68	0.976000	0.768000	0.671500
H1011	H101	0.953800	0.829000	0.691100
C691	C69	0.011300	0.562800	0.700700
C701	C70	0.039100	0.475000	0.666700
H1021	H102	0.061600	0.338100	0.683100
C711	C71	0.034700	0.582000	0.609000
H1031	H103	0.055100	0.516700	0.587900
C721	C72	0.015200	0.456000	0.765300
H1041	H104	0.005200	0.293000	0.757100
H1051	H105	0.985200	0.529700	0.774400
C731	C73	0.085400	0.382800	0.894400
H1061	H106	0.067000	0.227900	0.883400
C741	C74	0.051500	0.533600	0.921100
C751	C75	0.154100	0.365000	0.952100
H1071	H107	0.174600	0.285500	0.930200
C761	C76	0.163400	0.212000	0.012900
H1081	H108	0.161500	0.304700	0.048000
H1091	H109	0.203100	0.137700	0.033600
H1101	H110	0.131400	0.096400	0.995600
C771	C77	0.187300	0.597000	0.978900
H1111	H111	0.169400	0.680100	0.001800
H1121	H112	0.182900	0.685500	0.939700
H1131	H113	0.230500	0.569900	0.012000
C781	C78	0.370800	0.350000	0.890500
H1141	H114	0.383000	0.477500	0.920600
C791	C79	0.311300	0.351000	0.831300
H1151	H115	0.285700	0.478800	0.821500
C801	C80	0.290300	0.160000	0.787200
C811	C81	0.331500	0.981000	0.805000
H1161	H116	0.319600	0.849100	0.776900
C821	C82	0.389900	0.993000	0.863500
H1171	H117	0.416100	0.867000	0.874000
C831	C83	0.228200	0.163000	0.722800
H1181	H118	0.206100	0.301100	0.722500
H1191	H119	0.204700	0.029400	0.722600
C841	C84	0.176100	0.248900	0.593000
H1201	H120	0.164700	0.397500	0.604700
C851	C85	0.122900	0.078500	0.571800
C861	C86	0.189700	0.287100	0.534000
H1211	H121	0.229300	0.370500	0.555700
C871	C87	0.142400	0.448000	0.476300
H1221	H122	0.160800	0.520700	0.452300
H1231	H123	0.129600	0.563800	0.497400
H1241	H124	0.107000	0.359200	0.443000
C881	C88	0.200100	0.065000	0.503800
H1251	H125	0.164000	0.968600	0.485900
H1261	H126	0.235300	0.984200	0.540500
H1271	H127	0.207400	0.102700	0.466200
N131	N13	0.002600	0.777800	0.581400
N141	N14	0.080000	0.486500	0.829300
H1281	H128	0.107600	0.419100	0.820600
H1291	H129	0.089000	0.638300	0.836700
N151	N15	0.411200	0.180000	0.906500
N161	N16	0.233700	0.159500	0.657800
H1301	H130	0.241000	0.013600	0.649700
H1311	H131	0.266300	0.246800	0.665600
O131	O13	0.069300	0.174800	0.531600
O141	O14	0.133100	0.877000	0.590000
O151	O15	0.034000	0.425400	0.958300
O161	O16	0.042900	0.744100	0.906400
H1321	H132	0.985000	0.114000	0.020000
O171	O17	0.500000	0.528700	0.000000
Zn11	Zn1	0.500000	0.169000	0.000000
O181	O18	0.000000	0.028700	0.000000
Zn21	Zn2	0.000000	0.669000	0.000000
Zn31	Zn3	0.500000	0.450900	0.500000
Zn41	Zn4	0.000000	0.950900	0.500000
