data_BEPNIV_freeONLY_PM
_symmetry_space_group_name_H-M	'P1'
_cell_length_a	10.148600
_cell_length_b	17.580600
_cell_length_c	17.580600
_cell_angle_alpha	120.000000
_cell_angle_beta	90.000000
_cell_angle_gamma	90.000000
_symmetry_Int_Tables_number 1

loop_
_symmetry_equiv_pos_as_xyz
'x,y,z'

loop_
_atom_site_label
_atom_site_type_symbol
_atom_site_fract_x
_atom_site_fract_y
_atom_site_fract_z
Zn11	Zn1	0.960180	0.466850	0.926330
Zn21	Zn2	0.626850	0.459480	0.533150
Zn31	Zn3	0.293510	0.073670	0.540520
Zn41	Zn4	0.460180	0.533150	0.073670
Zn51	Zn5	0.126850	0.540520	0.466850
Zn61	Zn6	0.793510	0.926330	0.459480
H11	H1	0.016700	0.891900	0.326500
H21	H2	0.673000	0.780000	0.304500
H31	H3	0.066700	0.796600	0.186200
H41	H4	0.722800	0.675800	0.160700
H51	H5	0.952000	0.537400	0.206100
H61	H6	0.060600	0.468200	0.150800
H71	H7	0.920900	0.462300	0.110200
H81	H8	0.980100	0.189900	0.900400
H91	H9	0.983400	0.175000	0.804700
H101	H10	0.850600	0.164600	0.844100
H111	H11	0.870900	0.655500	0.021000
H121	H12	0.021100	0.666900	0.046300
H131	H13	0.054700	0.619700	0.161100
H141	H14	0.683370	0.434600	0.108100
H151	H15	0.339670	0.524500	0.220000
H161	H16	0.733370	0.389600	0.203400
H171	H17	0.389470	0.484900	0.324200
H181	H18	0.618670	0.668700	0.462600
H191	H19	0.727270	0.682600	0.531800
H201	H20	0.587570	0.647900	0.537700
H211	H21	0.646770	0.710500	0.810100
H221	H22	0.650070	0.629700	0.825000
H231	H23	0.517270	0.679500	0.835400
H241	H24	0.537570	0.365500	0.344500
H251	H25	0.687770	0.379400	0.333100
H261	H26	0.721370	0.541400	0.380300
H271	H27	0.350030	0.673500	0.565400
H281	H28	0.006330	0.695500	0.475500
H291	H29	0.400030	0.813800	0.610400
H301	H30	0.056130	0.839300	0.515100
H311	H31	0.285330	0.793900	0.331300
H321	H32	0.393930	0.849200	0.317400
H331	H33	0.254230	0.889800	0.352100
H341	H34	0.313430	0.099600	0.289500
H351	H35	0.316730	0.195300	0.370300
H361	H36	0.183930	0.155900	0.320500
H371	H37	0.204230	0.979000	0.634500
H381	H38	0.354430	0.953700	0.620600
H391	H39	0.388030	0.838900	0.458600
H401	H40	0.516700	0.108100	0.673500
H411	H41	0.173000	0.220000	0.695500
H421	H42	0.566700	0.203400	0.813800
H431	H43	0.222800	0.324200	0.839300
H441	H44	0.452000	0.462600	0.793900
H451	H45	0.560600	0.531800	0.849200
H461	H46	0.420900	0.537700	0.889800
H471	H47	0.480100	0.810100	0.099600
H481	H48	0.483400	0.825000	0.195300
H491	H49	0.350600	0.835400	0.155900
H501	H50	0.370900	0.344500	0.979000
H511	H51	0.521100	0.333100	0.953700
H521	H52	0.554700	0.380300	0.838900
H531	H53	0.183370	0.565400	0.891900
H541	H54	0.839670	0.475500	0.780000
H551	H55	0.233370	0.610400	0.796600
H561	H56	0.889470	0.515100	0.675800
H571	H57	0.118670	0.331300	0.537400
H581	H58	0.227270	0.317400	0.468200
H591	H59	0.087570	0.352100	0.462300
H601	H60	0.146770	0.289500	0.189900
H611	H61	0.150070	0.370300	0.175000
H621	H62	0.017270	0.320500	0.164600
H631	H63	0.037570	0.634500	0.655500
H641	H64	0.187770	0.620600	0.666900
H651	H65	0.221370	0.458600	0.619700
H661	H66	0.850030	0.326500	0.434600
H671	H67	0.506330	0.304500	0.524500
H681	H68	0.900030	0.186200	0.389600
H691	H69	0.556130	0.160700	0.484900
H701	H70	0.785330	0.206100	0.668700
H711	H71	0.893930	0.150800	0.682600
H721	H72	0.754230	0.110200	0.647900
H731	H73	0.813430	0.900400	0.710500
H741	H74	0.816730	0.804700	0.629700
H751	H75	0.683930	0.844100	0.679500
H761	H76	0.704230	0.021000	0.365500
H771	H77	0.854430	0.046300	0.379400
H781	H78	0.888030	0.161100	0.541400
C11	C1	0.956300	0.848100	0.292800
C21	C2	0.754000	0.782500	0.281200
C31	C3	0.902000	0.292600	0.892600
C41	C4	0.986500	0.791300	0.208700
C51	C5	0.900300	0.724900	0.154800
C61	C6	0.782800	0.720400	0.193400
C71	C7	0.987700	0.501600	0.148200
C81	C8	0.159800	0.520900	0.058600
C91	C9	0.932000	0.196900	0.857300
C101	C10	0.934900	0.655000	0.061800
C111	C11	0.035300	0.560900	0.112200
C121	C12	0.622970	0.444700	0.151900
C131	C13	0.420670	0.498700	0.217500
C141	C14	0.568670	0.600000	0.707400
C151	C15	0.653170	0.417400	0.208700
C161	C16	0.566970	0.429900	0.275100
C171	C17	0.449470	0.473000	0.279600
C181	C18	0.654370	0.646600	0.498400
C191	C19	0.826470	0.537700	0.479100
C201	C20	0.598670	0.660400	0.803100
C211	C21	0.601570	0.406800	0.345000
C221	C22	0.701970	0.551300	0.439100
C231	C23	0.289630	0.707200	0.555300
C241	C24	0.087330	0.718800	0.501300
C251	C25	0.235330	0.107400	0.400000
C261	C26	0.319830	0.791300	0.582600
C271	C27	0.233630	0.845200	0.570100
C281	C28	0.116130	0.806600	0.527000
C291	C29	0.321030	0.851800	0.353400
C301	C30	0.493130	0.941400	0.462300
C311	C31	0.265330	0.142700	0.339600
C321	C32	0.268230	0.938200	0.593200
C331	C33	0.368630	0.887800	0.448700
C341	C34	0.456300	0.151900	0.707200
C351	C35	0.254000	0.217500	0.718800
C361	C36	0.402000	0.707400	0.107400
C371	C37	0.486500	0.208700	0.791300
C381	C38	0.400300	0.275100	0.845200
C391	C39	0.282800	0.279600	0.806600
C401	C40	0.487700	0.498400	0.851800
C411	C41	0.659800	0.479100	0.941400
C421	C42	0.432000	0.803100	0.142700
C431	C43	0.434900	0.345000	0.938200
C441	C44	0.535300	0.439100	0.887800
C451	C45	0.122970	0.555300	0.848100
C461	C46	0.920670	0.501300	0.782500
C471	C47	0.068670	0.400000	0.292600
C481	C48	0.153170	0.582600	0.791300
C491	C49	0.066970	0.570100	0.724900
C501	C50	0.949470	0.527000	0.720400
C511	C51	0.154370	0.353400	0.501600
C521	C52	0.326470	0.462300	0.520900
C531	C53	0.098670	0.339600	0.196900
C541	C54	0.101570	0.593200	0.655000
C551	C55	0.201970	0.448700	0.560900
C561	C56	0.789630	0.292800	0.444700
C571	C57	0.587330	0.281200	0.498700
C581	C58	0.735330	0.892600	0.600000
C591	C59	0.819830	0.208700	0.417400
C601	C60	0.733630	0.154800	0.429900
C611	C61	0.616130	0.193400	0.473000
C621	C62	0.821030	0.148200	0.646600
C631	C63	0.993130	0.058600	0.537700
C641	C64	0.765330	0.857300	0.660400
C651	C65	0.768230	0.061800	0.406800
C661	C66	0.868630	0.112200	0.551300
N11	N1	0.935000	0.566800	0.055800
N21	N2	0.840000	0.844800	0.331900
N31	N3	0.601670	0.489000	0.433200
N41	N4	0.506670	0.487100	0.155200
N51	N5	0.268330	0.944200	0.511000
N61	N6	0.173330	0.668100	0.512900
N71	N7	0.435000	0.433200	0.944200
N81	N8	0.340000	0.155200	0.668100
N91	N9	0.101670	0.511000	0.566800
N101	N10	0.006670	0.512900	0.844800
N111	N11	0.768330	0.055800	0.489000
N121	N12	0.673330	0.331900	0.487100
O11	O1	0.154600	0.479900	0.976700
O21	O2	0.263600	0.531800	0.104300
O31	O3	0.973800	0.336200	0.861300
O41	O4	0.833000	0.336800	0.962500
O51	O5	0.821270	0.496800	0.520100
O61	O6	0.930270	0.572500	0.468200
O71	O7	0.640470	0.525100	0.663800
O81	O8	0.499670	0.625700	0.663200
O91	O9	0.487930	0.023300	0.503200
O101	O10	0.596930	0.895700	0.427500
O111	O11	0.307130	0.138700	0.474900
O121	O12	0.166330	0.037500	0.374300
O131	O13	0.654600	0.520100	0.023300
O141	O14	0.763600	0.468200	0.895700
O151	O15	0.473800	0.663800	0.138700
O161	O16	0.333000	0.663200	0.037500
O171	O17	0.321270	0.503200	0.479900
O181	O18	0.430270	0.427500	0.531800
O191	O19	0.140470	0.474900	0.336200
O201	O20	0.999670	0.374300	0.336800
O211	O21	0.987930	0.976700	0.496800
O221	O22	0.096930	0.104300	0.572500
O231	O23	0.807130	0.861300	0.525100
O241	O24	0.666330	0.962500	0.625700
