data_BEPREV01_freeONLY_PM
_symmetry_space_group_name_H-M	'P1'
_cell_length_a	29.151000
_cell_length_b	29.151000
_cell_length_c	23.070000
_cell_angle_alpha	90.000000
_cell_angle_beta	90.000000
_cell_angle_gamma	120.000000
_symmetry_Int_Tables_number 1

loop_
_symmetry_equiv_pos_as_xyz
'x,y,z'

loop_
_atom_site_label
_atom_site_type_symbol
_atom_site_fract_x
_atom_site_fract_y
_atom_site_fract_z
O11	O1	0.434880	0.713280	0.982300
O21	O2	0.396100	0.625340	0.975500
C11	C1	0.433600	0.670000	0.988800
C21	C2	0.482200	0.671800	0.015000
C31	C3	0.529400	0.718400	0.020900
H11	H1	0.531000	0.751000	0.011800
C41	C4	0.574800	0.718700	0.040200
H21	H2	0.606900	0.751500	0.043600
C51	C5	0.574000	0.672600	0.054200
C61	C6	0.524100	0.625900	0.054500
H31	H3	0.521000	0.594000	0.069100
C71	C7	0.479800	0.625700	0.034000
H41	H4	0.447000	0.593400	0.032800
C81	C8	0.622800	0.671100	0.069700
C91	C9	0.621700	0.622600	0.069700
H51	H5	0.589900	0.590900	0.060300
C101	C10	0.713600	0.568000	0.087600
H61	H6	0.746600	0.599900	0.090700
C111	C11	0.711400	0.519900	0.087200
H71	H7	0.743800	0.519700	0.089900
O31	O3	0.101550	0.046610	0.315630
O41	O4	0.062770	0.958670	0.308830
C121	C12	0.100270	0.003330	0.322130
C131	C13	0.148870	0.005130	0.348330
C141	C14	0.196070	0.051730	0.354230
H81	H8	0.197670	0.084330	0.345130
C151	C15	0.241470	0.052030	0.373530
H91	H9	0.273570	0.084830	0.376930
C161	C16	0.240670	0.005930	0.387530
C171	C17	0.190770	0.959230	0.387830
H101	H10	0.187670	0.927330	0.402430
C181	C18	0.146470	0.959030	0.367330
H111	H11	0.113670	0.926730	0.366130
C191	C19	0.289470	0.004430	0.403030
C201	C20	0.288370	0.955930	0.403030
H121	H12	0.256570	0.924230	0.393630
C211	C21	0.380270	0.901330	0.420930
H131	H13	0.413270	0.933230	0.424030
C221	C22	0.378070	0.853230	0.420530
H141	H14	0.410470	0.853030	0.423230
O51	O5	0.768210	0.379950	0.648970
O61	O6	0.729430	0.292010	0.642170
C231	C23	0.766930	0.336670	0.655470
C241	C24	0.815530	0.338470	0.681670
C251	C25	0.862730	0.385070	0.687570
H151	H15	0.864330	0.417670	0.678470
C261	C26	0.908130	0.385370	0.706870
H161	H16	0.940230	0.418170	0.710270
C271	C27	0.907330	0.339270	0.720870
C281	C28	0.857430	0.292570	0.721170
H171	H17	0.854330	0.260670	0.735770
C291	C29	0.813130	0.292370	0.700670
H181	H18	0.780330	0.260070	0.699470
C301	C30	0.956130	0.337770	0.736370
C311	C31	0.955030	0.289270	0.736370
H191	H19	0.923230	0.257570	0.726970
C321	C32	0.046930	0.234670	0.754270
H201	H20	0.079930	0.266570	0.757370
C331	C33	0.044730	0.186570	0.753870
H211	H21	0.077130	0.186370	0.756570
O71	O7	0.286720	0.721600	0.982300
O81	O8	0.374660	0.770760	0.975500
C341	C34	0.330000	0.763600	0.988800
C351	C35	0.328200	0.810400	0.015000
C361	C36	0.281600	0.811000	0.020900
H221	H22	0.249000	0.780000	0.011800
C371	C37	0.281300	0.856100	0.040200
H231	H23	0.248500	0.855400	0.043600
C381	C38	0.327400	0.901400	0.054200
C391	C39	0.374100	0.898200	0.054500
H241	H24	0.406000	0.927000	0.069100
C401	C40	0.374300	0.854100	0.034000
H251	H25	0.406600	0.853600	0.032800
C411	C41	0.328900	0.951700	0.069700
C421	C42	0.377400	0.999100	0.069700
H261	H26	0.409100	0.999000	0.060300
C431	C43	0.432000	0.145600	0.087600
H271	H27	0.400100	0.146700	0.090700
C441	C44	0.480100	0.191500	0.087200
H281	H28	0.480300	0.224100	0.089900
O91	O9	0.953390	0.054930	0.315630
O101	O10	0.041330	0.104090	0.308830
C451	C45	0.996670	0.096930	0.322130
C461	C46	0.994870	0.143730	0.348330
C471	C47	0.948270	0.144330	0.354230
H291	H29	0.915670	0.113330	0.345130
C481	C48	0.947970	0.189430	0.373530
H301	H30	0.915170	0.188730	0.376930
C491	C49	0.994070	0.234730	0.387530
C501	C50	0.040770	0.231530	0.387830
H311	H31	0.072670	0.260330	0.402430
C511	C51	0.040970	0.187430	0.367330
H321	H32	0.073270	0.186930	0.366130
C521	C52	0.995570	0.285030	0.403030
C531	C53	0.044070	0.332430	0.403030
H331	H33	0.075770	0.332330	0.393630
C541	C54	0.098670	0.478930	0.420930
H341	H34	0.066770	0.480030	0.424030
C551	C55	0.146770	0.524830	0.420530
H351	H35	0.146970	0.557430	0.423230
O111	O11	0.620050	0.388270	0.648970
O121	O12	0.707990	0.437430	0.642170
C561	C56	0.663330	0.430270	0.655470
C571	C57	0.661530	0.477070	0.681670
C581	C58	0.614930	0.477670	0.687570
H361	H36	0.582330	0.446670	0.678470
C591	C59	0.614630	0.522770	0.706870
H371	H37	0.581830	0.522070	0.710270
C601	C60	0.660730	0.568070	0.720870
C611	C61	0.707430	0.564870	0.721170
H381	H38	0.739330	0.593670	0.735770
C621	C62	0.707630	0.520770	0.700670
H391	H39	0.739930	0.520270	0.699470
C631	C63	0.662230	0.618370	0.736370
C641	C64	0.710730	0.665770	0.736370
H401	H40	0.742430	0.665670	0.726970
C651	C65	0.765330	0.812270	0.754270
H411	H41	0.733430	0.813370	0.757370
C661	C66	0.813430	0.858170	0.753870
H421	H42	0.813630	0.890770	0.756570
O131	O13	0.278400	0.565120	0.982300
O141	O14	0.229240	0.603900	0.975500
C671	C67	0.236400	0.566400	0.988800
C681	C68	0.189600	0.517800	0.015000
C691	C69	0.189000	0.470600	0.020900
H431	H43	0.220000	0.469000	0.011800
C701	C70	0.143900	0.425200	0.040200
H441	H44	0.144600	0.393100	0.043600
C711	C71	0.098600	0.426000	0.054200
C721	C72	0.101800	0.475900	0.054500
H451	H45	0.073000	0.479000	0.069100
C731	C73	0.145900	0.520200	0.034000
H461	H46	0.146400	0.553000	0.032800
C741	C74	0.048300	0.377200	0.069700
C751	C75	0.000900	0.378300	0.069700
H471	H47	0.001000	0.410100	0.060300
C761	C76	0.854400	0.286400	0.087600
H481	H48	0.853300	0.253400	0.090700
C771	C77	0.808500	0.288600	0.087200
H491	H49	0.775900	0.256200	0.089900
O151	O15	0.945070	0.898450	0.315630
O161	O16	0.895910	0.937230	0.308830
C781	C78	0.903070	0.899730	0.322130
C791	C79	0.856270	0.851130	0.348330
C801	C80	0.855670	0.803930	0.354230
H501	H50	0.886670	0.802330	0.345130
C811	C81	0.810570	0.758530	0.373530
H511	H51	0.811270	0.726430	0.376930
C821	C82	0.765270	0.759330	0.387530
C831	C83	0.768470	0.809230	0.387830
H521	H52	0.739670	0.812330	0.402430
C841	C84	0.812570	0.853530	0.367330
H531	H53	0.813070	0.886330	0.366130
C851	C85	0.714970	0.710530	0.403030
C861	C86	0.667570	0.711630	0.403030
H541	H54	0.667670	0.743430	0.393630
C871	C87	0.521070	0.619730	0.420930
H551	H55	0.519970	0.586730	0.424030
C881	C88	0.475170	0.621930	0.420530
H561	H56	0.442570	0.589530	0.423230
O171	O17	0.611730	0.231790	0.648970
O181	O18	0.562570	0.270570	0.642170
C891	C89	0.569730	0.233070	0.655470
C901	C90	0.522930	0.184470	0.681670
C911	C91	0.522330	0.137270	0.687570
H571	H57	0.553330	0.135670	0.678470
C921	C92	0.477230	0.091870	0.706870
H581	H58	0.477930	0.059770	0.710270
C931	C93	0.431930	0.092670	0.720870
C941	C94	0.435130	0.142570	0.721170
H591	H59	0.406330	0.145670	0.735770
C951	C95	0.479230	0.186870	0.700670
H601	H60	0.479730	0.219670	0.699470
C961	C96	0.381630	0.043870	0.736370
C971	C97	0.334230	0.044970	0.736370
H611	H61	0.334330	0.076770	0.726970
C981	C98	0.187730	0.953070	0.754270
H621	H62	0.186630	0.920070	0.757370
C991	C99	0.141830	0.955270	0.753870
H631	H63	0.109230	0.922870	0.756570
O191	O19	0.713280	0.434880	0.517700
O201	O20	0.625340	0.396100	0.524500
C1001	C100	0.670000	0.433600	0.511200
C1011	C101	0.671800	0.482200	0.485000
C1021	C102	0.718400	0.529400	0.479100
H641	H64	0.751000	0.531000	0.488200
C1031	C103	0.718700	0.574800	0.459800
H651	H65	0.751500	0.606900	0.456400
C1041	C104	0.672600	0.574000	0.445800
C1051	C105	0.625900	0.524100	0.445500
H661	H66	0.594000	0.521000	0.430900
C1061	C106	0.625700	0.479800	0.466000
H671	H67	0.593400	0.447000	0.467200
C1071	C107	0.671100	0.622800	0.430300
C1081	C108	0.622600	0.621700	0.430300
H681	H68	0.590900	0.589900	0.439700
C1091	C109	0.568000	0.713600	0.412400
H691	H69	0.599900	0.746600	0.409300
C1101	C110	0.519900	0.711400	0.412800
H701	H70	0.519700	0.743800	0.410100
O211	O21	0.379950	0.768210	0.851030
O221	O22	0.292010	0.729430	0.857830
C1111	C111	0.336670	0.766930	0.844530
C1121	C112	0.338470	0.815530	0.818330
C1131	C113	0.385070	0.862730	0.812430
H711	H71	0.417670	0.864330	0.821530
C1141	C114	0.385370	0.908130	0.793130
H721	H72	0.418170	0.940230	0.789730
C1151	C115	0.339270	0.907330	0.779130
C1161	C116	0.292570	0.857430	0.778830
H731	H73	0.260670	0.854330	0.764230
C1171	C117	0.292370	0.813130	0.799330
H741	H74	0.260070	0.780330	0.800530
C1181	C118	0.337770	0.956130	0.763630
C1191	C119	0.289270	0.955030	0.763630
H751	H75	0.257570	0.923230	0.773030
C1201	C120	0.234670	0.046930	0.745730
H761	H76	0.266570	0.079930	0.742630
C1211	C121	0.186570	0.044730	0.746130
H771	H77	0.186370	0.077130	0.743430
O231	O23	0.046610	0.101550	0.184370
O241	O24	0.958670	0.062770	0.191170
C1221	C122	0.003330	0.100270	0.177870
C1231	C123	0.005130	0.148870	0.151670
C1241	C124	0.051730	0.196070	0.145770
H781	H78	0.084330	0.197670	0.154870
C1251	C125	0.052030	0.241470	0.126470
H791	H79	0.084830	0.273570	0.123070
C1261	C126	0.005930	0.240670	0.112470
C1271	C127	0.959230	0.190770	0.112170
H801	H80	0.927330	0.187670	0.097570
C1281	C128	0.959030	0.146470	0.132670
H811	H81	0.926730	0.113670	0.133870
C1291	C129	0.004430	0.289470	0.096970
C1301	C130	0.955930	0.288370	0.096970
H821	H82	0.924230	0.256570	0.106370
C1311	C131	0.901330	0.380270	0.079070
H831	H83	0.933230	0.413270	0.075970
C1321	C132	0.853230	0.378070	0.079470
H841	H84	0.853030	0.410470	0.076770
O251	O25	0.721600	0.286720	0.517700
O261	O26	0.770760	0.374660	0.524500
C1331	C133	0.763600	0.330000	0.511200
C1341	C134	0.810400	0.328200	0.485000
C1351	C135	0.811000	0.281600	0.479100
H851	H85	0.780000	0.249000	0.488200
C1361	C136	0.856100	0.281300	0.459800
H861	H86	0.855400	0.248500	0.456400
C1371	C137	0.901400	0.327400	0.445800
C1381	C138	0.898200	0.374100	0.445500
H871	H87	0.927000	0.406000	0.430900
C1391	C139	0.854100	0.374300	0.466000
H881	H88	0.853600	0.406600	0.467200
C1401	C140	0.951700	0.328900	0.430300
C1411	C141	0.999100	0.377400	0.430300
H891	H89	0.999000	0.409100	0.439700
C1421	C142	0.145600	0.432000	0.412400
H901	H90	0.146700	0.400100	0.409300
C1431	C143	0.191500	0.480100	0.412800
H911	H91	0.224100	0.480300	0.410100
O271	O27	0.388270	0.620050	0.851030
O281	O28	0.437430	0.707990	0.857830
C1441	C144	0.430270	0.663330	0.844530
C1451	C145	0.477070	0.661530	0.818330
C1461	C146	0.477670	0.614930	0.812430
H921	H92	0.446670	0.582330	0.821530
C1471	C147	0.522770	0.614630	0.793130
H931	H93	0.522070	0.581830	0.789730
C1481	C148	0.568070	0.660730	0.779130
C1491	C149	0.564870	0.707430	0.778830
H941	H94	0.593670	0.739330	0.764230
C1501	C150	0.520770	0.707630	0.799330
H951	H95	0.520270	0.739930	0.800530
C1511	C151	0.618370	0.662230	0.763630
C1521	C152	0.665770	0.710730	0.763630
H961	H96	0.665670	0.742430	0.773030
C1531	C153	0.812270	0.765330	0.745730
H971	H97	0.813370	0.733430	0.742630
C1541	C154	0.858170	0.813430	0.746130
H981	H98	0.890770	0.813630	0.743430
O291	O29	0.054930	0.953390	0.184370
O301	O30	0.104090	0.041330	0.191170
C1551	C155	0.096930	0.996670	0.177870
C1561	C156	0.143730	0.994870	0.151670
C1571	C157	0.144330	0.948270	0.145770
H991	H99	0.113330	0.915670	0.154870
C1581	C158	0.189430	0.947970	0.126470
H1001	H100	0.188730	0.915170	0.123070
C1591	C159	0.234730	0.994070	0.112470
C1601	C160	0.231530	0.040770	0.112170
H1011	H101	0.260330	0.072670	0.097570
C1611	C161	0.187430	0.040970	0.132670
H1021	H102	0.186930	0.073270	0.133870
C1621	C162	0.285030	0.995570	0.096970
C1631	C163	0.332430	0.044070	0.096970
H1031	H103	0.332330	0.075770	0.106370
C1641	C164	0.478930	0.098670	0.079070
H1041	H104	0.480030	0.066770	0.075970
C1651	C165	0.524830	0.146770	0.079470
H1051	H105	0.557430	0.146970	0.076770
O311	O31	0.565120	0.278400	0.517700
O321	O32	0.603900	0.229240	0.524500
C1661	C166	0.566400	0.236400	0.511200
C1671	C167	0.517800	0.189600	0.485000
C1681	C168	0.470600	0.189000	0.479100
H1061	H106	0.469000	0.220000	0.488200
C1691	C169	0.425200	0.143900	0.459800
H1071	H107	0.393100	0.144600	0.456400
C1701	C170	0.426000	0.098600	0.445800
C1711	C171	0.475900	0.101800	0.445500
H1081	H108	0.479000	0.073000	0.430900
C1721	C172	0.520200	0.145900	0.466000
H1091	H109	0.553000	0.146400	0.467200
C1731	C173	0.377200	0.048300	0.430300
C1741	C174	0.378300	0.000900	0.430300
H1101	H110	0.410100	0.001000	0.439700
C1751	C175	0.286400	0.854400	0.412400
H1111	H111	0.253400	0.853300	0.409300
C1761	C176	0.288600	0.808500	0.412800
H1121	H112	0.256200	0.775900	0.410100
O331	O33	0.231790	0.611730	0.851030
O341	O34	0.270570	0.562570	0.857830
C1771	C177	0.233070	0.569730	0.844530
C1781	C178	0.184470	0.522930	0.818330
C1791	C179	0.137270	0.522330	0.812430
H1131	H113	0.135670	0.553330	0.821530
C1801	C180	0.091870	0.477230	0.793130
H1141	H114	0.059770	0.477930	0.789730
C1811	C181	0.092670	0.431930	0.779130
C1821	C182	0.142570	0.435130	0.778830
H1151	H115	0.145670	0.406330	0.764230
C1831	C183	0.186870	0.479230	0.799330
H1161	H116	0.219670	0.479730	0.800530
C1841	C184	0.043870	0.381630	0.763630
C1851	C185	0.044970	0.334230	0.763630
H1171	H117	0.076770	0.334330	0.773030
C1861	C186	0.953070	0.187730	0.745730
H1181	H118	0.920070	0.186630	0.742630
C1871	C187	0.955270	0.141830	0.746130
H1191	H119	0.922870	0.109230	0.743430
O351	O35	0.898450	0.945070	0.184370
O361	O36	0.937230	0.895910	0.191170
C1881	C188	0.899730	0.903070	0.177870
C1891	C189	0.851130	0.856270	0.151670
C1901	C190	0.803930	0.855670	0.145770
H1201	H120	0.802330	0.886670	0.154870
C1911	C191	0.758530	0.810570	0.126470
H1211	H121	0.726430	0.811270	0.123070
C1921	C192	0.759330	0.765270	0.112470
C1931	C193	0.809230	0.768470	0.112170
H1221	H122	0.812330	0.739670	0.097570
C1941	C194	0.853530	0.812570	0.132670
H1231	H123	0.886330	0.813070	0.133870
C1951	C195	0.710530	0.714970	0.096970
C1961	C196	0.711630	0.667570	0.096970
H1241	H124	0.743430	0.667670	0.106370
C1971	C197	0.619730	0.521070	0.079070
H1251	H125	0.586730	0.519970	0.075970
C1981	C198	0.621930	0.475170	0.079470
H1261	H126	0.589530	0.442570	0.076770
O371	O37	0.565120	0.286720	0.017700
O381	O38	0.603900	0.374660	0.024500
C1991	C199	0.566400	0.330000	0.011200
C2001	C200	0.517800	0.328200	0.985000
C2011	C201	0.470600	0.281600	0.979100
H1271	H127	0.469000	0.249000	0.988200
C2021	C202	0.425200	0.281300	0.959800
H1281	H128	0.393100	0.248500	0.956400
C2031	C203	0.426000	0.327400	0.945800
C2041	C204	0.475900	0.374100	0.945500
H1291	H129	0.479000	0.406000	0.930900
C2051	C205	0.520200	0.374300	0.966000
H1301	H130	0.553000	0.406600	0.967200
C2061	C206	0.377200	0.328900	0.930300
C2071	C207	0.378300	0.377400	0.930300
H1311	H131	0.410100	0.409100	0.939700
C2081	C208	0.286400	0.432000	0.912400
H1321	H132	0.253400	0.400100	0.909300
C2091	C209	0.288600	0.480100	0.912800
H1331	H133	0.256200	0.480300	0.910100
O391	O39	0.231790	0.620050	0.351030
O401	O40	0.270570	0.707990	0.357830
C2101	C210	0.233070	0.663330	0.344530
C2111	C211	0.184470	0.661530	0.318330
C2121	C212	0.137270	0.614930	0.312430
H1341	H134	0.135670	0.582330	0.321530
C2131	C213	0.091870	0.614630	0.293130
H1351	H135	0.059770	0.581830	0.289730
C2141	C214	0.092670	0.660730	0.279130
C2151	C215	0.142570	0.707430	0.278830
H1361	H136	0.145670	0.739330	0.264230
C2161	C216	0.186870	0.707630	0.299330
H1371	H137	0.219670	0.739930	0.300530
C2171	C217	0.043870	0.662230	0.263630
C2181	C218	0.044970	0.710730	0.263630
H1381	H138	0.076770	0.742430	0.273030
C2191	C219	0.953070	0.765330	0.245730
H1391	H139	0.920070	0.733430	0.242630
C2201	C220	0.955270	0.813430	0.246130
H1401	H140	0.922870	0.813630	0.243430
O411	O41	0.898450	0.953390	0.684370
O421	O42	0.937230	0.041330	0.691170
C2211	C221	0.899730	0.996670	0.677870
C2221	C222	0.851130	0.994870	0.651670
C2231	C223	0.803930	0.948270	0.645770
H1411	H141	0.802330	0.915670	0.654870
C2241	C224	0.758530	0.947970	0.626470
H1421	H142	0.726430	0.915170	0.623070
C2251	C225	0.759330	0.994070	0.612470
C2261	C226	0.809230	0.040770	0.612170
H1431	H143	0.812330	0.072670	0.597570
C2271	C227	0.853530	0.040970	0.632670
H1441	H144	0.886330	0.073270	0.633870
C2281	C228	0.710530	0.995570	0.596970
C2291	C229	0.711630	0.044070	0.596970
H1451	H145	0.743430	0.075770	0.606370
C2301	C230	0.619730	0.098670	0.579070
H1461	H146	0.586730	0.066770	0.575970
C2311	C231	0.621930	0.146770	0.579470
H1471	H147	0.589530	0.146970	0.576770
O431	O43	0.713280	0.278400	0.017700
O441	O44	0.625340	0.229240	0.024500
C2321	C232	0.670000	0.236400	0.011200
C2331	C233	0.671800	0.189600	0.985000
C2341	C234	0.718400	0.189000	0.979100
H1481	H148	0.751000	0.220000	0.988200
C2351	C235	0.718700	0.143900	0.959800
H1491	H149	0.751500	0.144600	0.956400
C2361	C236	0.672600	0.098600	0.945800
C2371	C237	0.625900	0.101800	0.945500
H1501	H150	0.594000	0.073000	0.930900
C2381	C238	0.625700	0.145900	0.966000
H1511	H151	0.593400	0.146400	0.967200
C2391	C239	0.671100	0.048300	0.930300
C2401	C240	0.622600	0.000900	0.930300
H1521	H152	0.590900	0.001000	0.939700
C2411	C241	0.568000	0.854400	0.912400
H1531	H153	0.599900	0.853300	0.909300
C2421	C242	0.519900	0.808500	0.912800
H1541	H154	0.519700	0.775900	0.910100
O451	O45	0.379950	0.611730	0.351030
O461	O46	0.292010	0.562570	0.357830
C2431	C243	0.336670	0.569730	0.344530
C2441	C244	0.338470	0.522930	0.318330
C2451	C245	0.385070	0.522330	0.312430
H1551	H155	0.417670	0.553330	0.321530
C2461	C246	0.385370	0.477230	0.293130
H1561	H156	0.418170	0.477930	0.289730
C2471	C247	0.339270	0.431930	0.279130
C2481	C248	0.292570	0.435130	0.278830
H1571	H157	0.260670	0.406330	0.264230
C2491	C249	0.292370	0.479230	0.299330
H1581	H158	0.260070	0.479730	0.300530
C2501	C250	0.337770	0.381630	0.263630
C2511	C251	0.289270	0.334230	0.263630
H1591	H159	0.257570	0.334330	0.273030
C2521	C252	0.234670	0.187730	0.245730
H1601	H160	0.266570	0.186630	0.242630
C2531	C253	0.186570	0.141830	0.246130
H1611	H161	0.186370	0.109230	0.243430
O471	O47	0.046610	0.945070	0.684370
O481	O48	0.958670	0.895910	0.691170
C2541	C254	0.003330	0.903070	0.677870
C2551	C255	0.005130	0.856270	0.651670
C2561	C256	0.051730	0.855670	0.645770
H1621	H162	0.084330	0.886670	0.654870
C2571	C257	0.052030	0.810570	0.626470
H1631	H163	0.084830	0.811270	0.623070
C2581	C258	0.005930	0.765270	0.612470
C2591	C259	0.959230	0.768470	0.612170
H1641	H164	0.927330	0.739670	0.597570
C2601	C260	0.959030	0.812570	0.632670
H1651	H165	0.926730	0.813070	0.633870
C2611	C261	0.004430	0.714970	0.596970
C2621	C262	0.955930	0.667570	0.596970
H1661	H166	0.924230	0.667670	0.606370
C2631	C263	0.901330	0.521070	0.579070
H1671	H167	0.933230	0.519970	0.575970
C2641	C264	0.853230	0.475170	0.579470
H1681	H168	0.853030	0.442570	0.576770
O491	O49	0.721600	0.434880	0.017700
O501	O50	0.770760	0.396100	0.024500
C2651	C265	0.763600	0.433600	0.011200
C2661	C266	0.810400	0.482200	0.985000
C2671	C267	0.811000	0.529400	0.979100
H1691	H169	0.780000	0.531000	0.988200
C2681	C268	0.856100	0.574800	0.959800
H1701	H170	0.855400	0.606900	0.956400
C2691	C269	0.901400	0.574000	0.945800
C2701	C270	0.898200	0.524100	0.945500
H1711	H171	0.927000	0.521000	0.930900
C2711	C271	0.854100	0.479800	0.966000
H1721	H172	0.853600	0.447000	0.967200
C2721	C272	0.951700	0.622800	0.930300
C2731	C273	0.999100	0.621700	0.930300
H1731	H173	0.999000	0.589900	0.939700
C2741	C274	0.145600	0.713600	0.912400
H1741	H174	0.146700	0.746600	0.909300
C2751	C275	0.191500	0.711400	0.912800
H1751	H175	0.224100	0.743800	0.910100
O511	O51	0.388270	0.768210	0.351030
O521	O52	0.437430	0.729430	0.357830
C2761	C276	0.430270	0.766930	0.344530
C2771	C277	0.477070	0.815530	0.318330
C2781	C278	0.477670	0.862730	0.312430
H1761	H176	0.446670	0.864330	0.321530
C2791	C279	0.522770	0.908130	0.293130
H1771	H177	0.522070	0.940230	0.289730
C2801	C280	0.568070	0.907330	0.279130
C2811	C281	0.564870	0.857430	0.278830
H1781	H178	0.593670	0.854330	0.264230
C2821	C282	0.520770	0.813130	0.299330
H1791	H179	0.520270	0.780330	0.300530
C2831	C283	0.618370	0.956130	0.263630
C2841	C284	0.665770	0.955030	0.263630
H1801	H180	0.665670	0.923230	0.273030
C2851	C285	0.812270	0.046930	0.245730
H1811	H181	0.813370	0.079930	0.242630
C2861	C286	0.858170	0.044730	0.246130
H1821	H182	0.890770	0.077130	0.243430
O531	O53	0.054930	0.101550	0.684370
O541	O54	0.104090	0.062770	0.691170
C2871	C287	0.096930	0.100270	0.677870
C2881	C288	0.143730	0.148870	0.651670
C2891	C289	0.144330	0.196070	0.645770
H1831	H183	0.113330	0.197670	0.654870
C2901	C290	0.189430	0.241470	0.626470
H1841	H184	0.188730	0.273570	0.623070
C2911	C291	0.234730	0.240670	0.612470
C2921	C292	0.231530	0.190770	0.612170
H1851	H185	0.260330	0.187670	0.597570
C2931	C293	0.187430	0.146470	0.632670
H1861	H186	0.186930	0.113670	0.633870
C2941	C294	0.285030	0.289470	0.596970
C2951	C295	0.332430	0.288370	0.596970
H1871	H187	0.332330	0.256570	0.606370
C2961	C296	0.478930	0.380270	0.579070
H1881	H188	0.480030	0.413270	0.575970
C2971	C297	0.524830	0.378070	0.579470
H1891	H189	0.557430	0.410470	0.576770
O551	O55	0.286720	0.565120	0.482300
O561	O56	0.374660	0.603900	0.475500
C2981	C298	0.330000	0.566400	0.488800
C2991	C299	0.328200	0.517800	0.515000
C3001	C300	0.281600	0.470600	0.520900
H1901	H190	0.249000	0.469000	0.511800
C3011	C301	0.281300	0.425200	0.540200
H1911	H191	0.248500	0.393100	0.543600
C3021	C302	0.327400	0.426000	0.554200
C3031	C303	0.374100	0.475900	0.554500
H1921	H192	0.406000	0.479000	0.569100
C3041	C304	0.374300	0.520200	0.534000
H1931	H193	0.406600	0.553000	0.532800
C3051	C305	0.328900	0.377200	0.569700
C3061	C306	0.377400	0.378300	0.569700
H1941	H194	0.409100	0.410100	0.560300
C3071	C307	0.432000	0.286400	0.587600
H1951	H195	0.400100	0.253400	0.590700
C3081	C308	0.480100	0.288600	0.587200
H1961	H196	0.480300	0.256200	0.589900
O571	O57	0.953390	0.898450	0.815630
O581	O58	0.041330	0.937230	0.808830
C3091	C309	0.996670	0.899730	0.822130
C3101	C310	0.994870	0.851130	0.848330
C3111	C311	0.948270	0.803930	0.854230
H1971	H197	0.915670	0.802330	0.845130
C3121	C312	0.947970	0.758530	0.873530
H1981	H198	0.915170	0.726430	0.876930
C3131	C313	0.994070	0.759330	0.887530
C3141	C314	0.040770	0.809230	0.887830
H1991	H199	0.072670	0.812330	0.902430
C3151	C315	0.040970	0.853530	0.867330
H2001	H200	0.073270	0.886330	0.866130
C3161	C316	0.995570	0.710530	0.903030
C3171	C317	0.044070	0.711630	0.903030
H2011	H201	0.075770	0.743430	0.893630
C3181	C318	0.098670	0.619730	0.920930
H2021	H202	0.066770	0.586730	0.924030
C3191	C319	0.146770	0.621930	0.920530
H2031	H203	0.146970	0.589530	0.923230
O591	O59	0.620050	0.231790	0.148970
O601	O60	0.707990	0.270570	0.142170
C3201	C320	0.663330	0.233070	0.155470
C3211	C321	0.661530	0.184470	0.181670
C3221	C322	0.614930	0.137270	0.187570
H2041	H204	0.582330	0.135670	0.178470
C3231	C323	0.614630	0.091870	0.206870
H2051	H205	0.581830	0.059770	0.210270
C3241	C324	0.660730	0.092670	0.220870
C3251	C325	0.707430	0.142570	0.221170
H2061	H206	0.739330	0.145670	0.235770
C3261	C326	0.707630	0.186870	0.200670
H2071	H207	0.739930	0.219670	0.199470
C3271	C327	0.662230	0.043870	0.236370
C3281	C328	0.710730	0.044970	0.236370
H2081	H208	0.742430	0.076770	0.226970
C3291	C329	0.765330	0.953070	0.254270
H2091	H209	0.733430	0.920070	0.257370
C3301	C330	0.813430	0.955270	0.253870
H2101	H210	0.813630	0.922870	0.256570
O611	O61	0.278400	0.713280	0.482300
O621	O62	0.229240	0.625340	0.475500
C3311	C331	0.236400	0.670000	0.488800
C3321	C332	0.189600	0.671800	0.515000
C3331	C333	0.189000	0.718400	0.520900
H2111	H211	0.220000	0.751000	0.511800
C3341	C334	0.143900	0.718700	0.540200
H2121	H212	0.144600	0.751500	0.543600
C3351	C335	0.098600	0.672600	0.554200
C3361	C336	0.101800	0.625900	0.554500
H2131	H213	0.073000	0.594000	0.569100
C3371	C337	0.145900	0.625700	0.534000
H2141	H214	0.146400	0.593400	0.532800
C3381	C338	0.048300	0.671100	0.569700
C3391	C339	0.000900	0.622600	0.569700
H2151	H215	0.001000	0.590900	0.560300
C3401	C340	0.854400	0.568000	0.587600
H2161	H216	0.853300	0.599900	0.590700
C3411	C341	0.808500	0.519900	0.587200
H2171	H217	0.775900	0.519700	0.589900
O631	O63	0.945070	0.046610	0.815630
O641	O64	0.895910	0.958670	0.808830
C3421	C342	0.903070	0.003330	0.822130
C3431	C343	0.856270	0.005130	0.848330
C3441	C344	0.855670	0.051730	0.854230
H2181	H218	0.886670	0.084330	0.845130
C3451	C345	0.810570	0.052030	0.873530
H2191	H219	0.811270	0.084830	0.876930
C3461	C346	0.765270	0.005930	0.887530
C3471	C347	0.768470	0.959230	0.887830
H2201	H220	0.739670	0.927330	0.902430
C3481	C348	0.812570	0.959030	0.867330
H2211	H221	0.813070	0.926730	0.866130
C3491	C349	0.714970	0.004430	0.903030
C3501	C350	0.667570	0.955930	0.903030
H2221	H222	0.667670	0.924230	0.893630
C3511	C351	0.521070	0.901330	0.920930
H2231	H223	0.519970	0.933230	0.924030
C3521	C352	0.475170	0.853230	0.920530
H2241	H224	0.442570	0.853030	0.923230
O651	O65	0.611730	0.379950	0.148970
O661	O66	0.562570	0.292010	0.142170
C3531	C353	0.569730	0.336670	0.155470
C3541	C354	0.522930	0.338470	0.181670
C3551	C355	0.522330	0.385070	0.187570
H2251	H225	0.553330	0.417670	0.178470
C3561	C356	0.477230	0.385370	0.206870
H2261	H226	0.477930	0.418170	0.210270
C3571	C357	0.431930	0.339270	0.220870
C3581	C358	0.435130	0.292570	0.221170
H2271	H227	0.406330	0.260670	0.235770
C3591	C359	0.479230	0.292370	0.200670
H2281	H228	0.479730	0.260070	0.199470
C3601	C360	0.381630	0.337770	0.236370
C3611	C361	0.334230	0.289270	0.236370
H2291	H229	0.334330	0.257570	0.226970
C3621	C362	0.187730	0.234670	0.254270
H2301	H230	0.186630	0.266570	0.257370
C3631	C363	0.141830	0.186570	0.253870
H2311	H231	0.109230	0.186370	0.256570
O671	O67	0.434880	0.721600	0.482300
O681	O68	0.396100	0.770760	0.475500
C3641	C364	0.433600	0.763600	0.488800
C3651	C365	0.482200	0.810400	0.515000
C3661	C366	0.529400	0.811000	0.520900
H2321	H232	0.531000	0.780000	0.511800
C3671	C367	0.574800	0.856100	0.540200
H2331	H233	0.606900	0.855400	0.543600
C3681	C368	0.574000	0.901400	0.554200
C3691	C369	0.524100	0.898200	0.554500
H2341	H234	0.521000	0.927000	0.569100
C3701	C370	0.479800	0.854100	0.534000
H2351	H235	0.447000	0.853600	0.532800
C3711	C371	0.622800	0.951700	0.569700
C3721	C372	0.621700	0.999100	0.569700
H2361	H236	0.589900	0.999000	0.560300
C3731	C373	0.713600	0.145600	0.587600
H2371	H237	0.746600	0.146700	0.590700
C3741	C374	0.711400	0.191500	0.587200
H2381	H238	0.743800	0.224100	0.589900
O691	O69	0.101550	0.054930	0.815630
O701	O70	0.062770	0.104090	0.808830
C3751	C375	0.100270	0.096930	0.822130
C3761	C376	0.148870	0.143730	0.848330
C3771	C377	0.196070	0.144330	0.854230
H2391	H239	0.197670	0.113330	0.845130
C3781	C378	0.241470	0.189430	0.873530
H2401	H240	0.273570	0.188730	0.876930
C3791	C379	0.240670	0.234730	0.887530
C3801	C380	0.190770	0.231530	0.887830
H2411	H241	0.187670	0.260330	0.902430
C3811	C381	0.146470	0.187430	0.867330
H2421	H242	0.113670	0.186930	0.866130
C3821	C382	0.289470	0.285030	0.903030
C3831	C383	0.288370	0.332430	0.903030
H2431	H243	0.256570	0.332330	0.893630
C3841	C384	0.380270	0.478930	0.920930
H2441	H244	0.413270	0.480030	0.924030
C3851	C385	0.378070	0.524830	0.920530
H2451	H245	0.410470	0.557430	0.923230
O711	O71	0.768210	0.388270	0.148970
O721	O72	0.729430	0.437430	0.142170
C3861	C386	0.766930	0.430270	0.155470
C3871	C387	0.815530	0.477070	0.181670
C3881	C388	0.862730	0.477670	0.187570
H2461	H246	0.864330	0.446670	0.178470
C3891	C389	0.908130	0.522770	0.206870
H2471	H247	0.940230	0.522070	0.210270
C3901	C390	0.907330	0.568070	0.220870
C3911	C391	0.857430	0.564870	0.221170
H2481	H248	0.854330	0.593670	0.235770
C3921	C392	0.813130	0.520770	0.200670
H2491	H249	0.780330	0.520270	0.199470
C3931	C393	0.956130	0.618370	0.236370
C3941	C394	0.955030	0.665770	0.236370
H2501	H250	0.923230	0.665670	0.226970
C3951	C395	0.046930	0.812270	0.254270
H2511	H251	0.079930	0.813370	0.257370
C3961	C396	0.044730	0.858170	0.253870
H2521	H252	0.077130	0.890770	0.256570
Ni11	Ni1	0.666670	0.401930	0.083330
N11	N1	0.666670	0.473280	0.083330
N21	N2	0.666670	0.716880	0.083330
C3971	C397	0.666670	0.620680	0.083330
C3981	C398	0.666670	0.569280	0.083330
Ni21	Ni2	0.598070	0.264730	0.083330
N31	N3	0.526720	0.193380	0.083330
N41	N4	0.283120	0.949780	0.083330
C3991	C399	0.379320	0.045980	0.083330
C4001	C400	0.430720	0.097380	0.083330
Ni31	Ni3	0.735270	0.333330	0.083330
N51	N5	0.806620	0.333330	0.083330
N61	N6	0.050220	0.333330	0.083330
C4011	C401	0.954020	0.333330	0.083330
C4021	C402	0.902620	0.333330	0.083330
Ni41	Ni4	0.401930	0.666670	0.416670
N71	N7	0.473280	0.666670	0.416670
N81	N8	0.716880	0.666670	0.416670
C4031	C403	0.620680	0.666670	0.416670
C4041	C404	0.569280	0.666670	0.416670
Ni51	Ni5	0.068600	0.000000	0.750000
N91	N9	0.139950	0.000000	0.750000
N101	N10	0.383550	0.000000	0.750000
C4051	C405	0.287350	0.000000	0.750000
C4061	C406	0.235950	0.000000	0.750000
Ni61	Ni6	0.264730	0.598070	0.416670
N111	N11	0.193380	0.526720	0.416670
N121	N12	0.949780	0.283120	0.416670
C4071	C407	0.045980	0.379320	0.416670
C4081	C408	0.097380	0.430720	0.416670
Ni71	Ni7	0.931400	0.931400	0.750000
N131	N13	0.860050	0.860050	0.750000
N141	N14	0.616450	0.616450	0.750000
C4091	C409	0.712650	0.712650	0.750000
C4101	C410	0.764050	0.764050	0.750000
Ni81	Ni8	0.333330	0.735270	0.416670
N151	N15	0.333330	0.806620	0.416670
N161	N16	0.333330	0.050220	0.416670
C4111	C411	0.333330	0.954020	0.416670
C4121	C412	0.333330	0.902620	0.416670
Ni91	Ni9	0.000000	0.068600	0.750000
N171	N17	0.000000	0.139950	0.750000
N181	N18	0.000000	0.383550	0.750000
C4131	C413	0.000000	0.287350	0.750000
C4141	C414	0.000000	0.235950	0.750000
Ni101	Ni10	0.333330	0.598070	0.916670
N191	N19	0.333330	0.526720	0.916670
N201	N20	0.333330	0.283120	0.916670
C4151	C415	0.333330	0.379320	0.916670
C4161	C416	0.333330	0.430720	0.916670
Ni111	Ni11	0.000000	0.931400	0.250000
N211	N21	0.000000	0.860050	0.250000
N221	N22	0.000000	0.616450	0.250000
C4171	C417	0.000000	0.712650	0.250000
C4181	C418	0.000000	0.764050	0.250000
Ni121	Ni12	0.401930	0.735270	0.916670
N231	N23	0.473280	0.806620	0.916670
N241	N24	0.716880	0.050220	0.916670
C4191	C419	0.620680	0.954020	0.916670
C4201	C420	0.569280	0.902620	0.916670
Ni131	Ni13	0.068600	0.068600	0.250000
N251	N25	0.139950	0.139950	0.250000
N261	N26	0.383550	0.383550	0.250000
C4211	C421	0.287350	0.287350	0.250000
C4221	C422	0.235950	0.235950	0.250000
Ni141	Ni14	0.264730	0.666670	0.916670
N271	N27	0.193380	0.666670	0.916670
N281	N28	0.949780	0.666670	0.916670
C4231	C423	0.045980	0.666670	0.916670
C4241	C424	0.097380	0.666670	0.916670
Ni151	Ni15	0.931400	0.000000	0.250000
N291	N29	0.860050	0.000000	0.250000
N301	N30	0.616450	0.000000	0.250000
C4251	C425	0.712650	0.000000	0.250000
C4261	C426	0.764050	0.000000	0.250000
Ni161	Ni16	0.598070	0.333330	0.583330
N311	N31	0.526720	0.333330	0.583330
N321	N32	0.283120	0.333330	0.583330
C4271	C427	0.379320	0.333330	0.583330
C4281	C428	0.430720	0.333330	0.583330
Ni171	Ni17	0.735270	0.401930	0.583330
N331	N33	0.806620	0.473280	0.583330
N341	N34	0.050220	0.716880	0.583330
C4291	C429	0.954020	0.620680	0.583330
C4301	C430	0.902620	0.569280	0.583330
Ni181	Ni18	0.666670	0.264730	0.583330
N351	N35	0.666670	0.193380	0.583330
N361	N36	0.666670	0.949780	0.583330
C4311	C431	0.666670	0.045980	0.583330
C4321	C432	0.666670	0.097380	0.583330
O731	O73	0.666670	0.333330	0.083330
O741	O74	0.000000	0.000000	0.750000
O751	O75	0.333330	0.666670	0.416670
O761	O76	0.333330	0.666670	0.916670
O771	O77	0.000000	0.000000	0.250000
O781	O78	0.666670	0.333330	0.583330
H2531	H253	0.666670	0.333330	0.126700
H2541	H254	0.333330	0.666670	0.460030
H2551	H255	0.000000	0.000000	0.793370
H2561	H256	0.333330	0.666670	0.373300
H2571	H257	0.000000	0.000000	0.706630
H2581	H258	0.666670	0.333330	0.039970
H2591	H259	0.333330	0.666670	0.873300
H2601	H260	0.000000	0.000000	0.206630
H2611	H261	0.666670	0.333330	0.539970
H2621	H262	0.666670	0.333330	0.626700
H2631	H263	0.333330	0.666670	0.960030
H2641	H264	0.000000	0.000000	0.293370
