data_BEPREV03_freeONLY_PM
_symmetry_space_group_name_H-M	'P1'
_cell_length_a	29.106000
_cell_length_b	29.106000
_cell_length_c	23.417000
_cell_angle_alpha	90.000000
_cell_angle_beta	90.000000
_cell_angle_gamma	120.000000
_symmetry_Int_Tables_number 1

loop_
_symmetry_equiv_pos_as_xyz
'x,y,z'

loop_
_atom_site_label
_atom_site_type_symbol
_atom_site_fract_x
_atom_site_fract_y
_atom_site_fract_z
O11	O1	0.434170	0.713870	0.983000
O21	O2	0.396810	0.625720	0.973100
C11	C1	0.433600	0.670300	0.988300
C21	C2	0.482300	0.672600	0.014300
C31	C3	0.529300	0.719300	0.021000
H11	H1	0.531000	0.751900	0.012200
C41	C4	0.574800	0.719400	0.040800
H21	H2	0.607000	0.752200	0.045000
C51	C5	0.573700	0.673200	0.054200
C61	C6	0.524800	0.626400	0.052200
H31	H3	0.522100	0.594200	0.065000
C71	C7	0.480000	0.626000	0.031700
H41	H4	0.447400	0.593500	0.029600
C81	C8	0.622500	0.671700	0.069800
C91	C9	0.621900	0.623300	0.068700
H51	H5	0.590500	0.591700	0.058000
C101	C10	0.713400	0.568400	0.086700
H61	H6	0.746500	0.600500	0.089100
C111	C11	0.711700	0.520100	0.086600
H71	H7	0.744200	0.519900	0.089100
O31	O3	0.100840	0.047200	0.316330
O41	O4	0.063480	0.959050	0.306430
C121	C12	0.100270	0.003630	0.321630
C131	C13	0.148970	0.005930	0.347630
C141	C14	0.195970	0.052630	0.354330
H81	H8	0.197670	0.085230	0.345530
C151	C15	0.241470	0.052730	0.374130
H91	H9	0.273670	0.085530	0.378330
C161	C16	0.240370	0.006530	0.387530
C171	C17	0.191470	0.959730	0.385530
H101	H10	0.188770	0.927530	0.398330
C181	C18	0.146670	0.959330	0.365030
H111	H11	0.114070	0.926830	0.362930
C191	C19	0.289170	0.005030	0.403130
C201	C20	0.288570	0.956630	0.402030
H121	H12	0.257170	0.925030	0.391330
C211	C21	0.380070	0.901730	0.420030
H131	H13	0.413170	0.933830	0.422430
C221	C22	0.378370	0.853430	0.419930
H141	H14	0.410870	0.853230	0.422430
O51	O5	0.767500	0.380540	0.649670
O61	O6	0.730140	0.292390	0.639770
C231	C23	0.766930	0.336970	0.654970
C241	C24	0.815630	0.339270	0.680970
C251	C25	0.862630	0.385970	0.687670
H151	H15	0.864330	0.418570	0.678870
C261	C26	0.908130	0.386070	0.707470
H161	H16	0.940330	0.418870	0.711670
C271	C27	0.907030	0.339870	0.720870
C281	C28	0.858130	0.293070	0.718870
H171	H17	0.855430	0.260870	0.731670
C291	C29	0.813330	0.292670	0.698370
H181	H18	0.780730	0.260170	0.696270
C301	C30	0.955830	0.338370	0.736470
C311	C31	0.955230	0.289970	0.735370
H191	H19	0.923830	0.258370	0.724670
C321	C32	0.046730	0.235070	0.753370
H201	H20	0.079830	0.267170	0.755770
C331	C33	0.045030	0.186770	0.753270
H211	H21	0.077530	0.186570	0.755770
O71	O7	0.286130	0.720300	0.983000
O81	O8	0.374280	0.771090	0.973100
C341	C34	0.329700	0.763300	0.988300
C351	C35	0.327400	0.809700	0.014300
C361	C36	0.280700	0.810000	0.021000
H221	H22	0.248100	0.779100	0.012200
C371	C37	0.280600	0.855400	0.040800
H231	H23	0.247800	0.854800	0.045000
C381	C38	0.326800	0.900500	0.054200
C391	C39	0.373600	0.898400	0.052200
H241	H24	0.405800	0.927900	0.065000
C401	C40	0.374000	0.854000	0.031700
H251	H25	0.406500	0.853900	0.029600
C411	C41	0.328300	0.950800	0.069800
C421	C42	0.376700	0.998600	0.068700
H261	H26	0.408300	0.998800	0.058000
C431	C43	0.431600	0.145000	0.086700
H271	H27	0.399500	0.146000	0.089100
C441	C44	0.479900	0.191600	0.086600
H281	H28	0.480100	0.224300	0.089100
O91	O9	0.952800	0.053630	0.316330
O101	O10	0.040950	0.104420	0.306430
C451	C45	0.996370	0.096630	0.321630
C461	C46	0.994070	0.143030	0.347630
C471	C47	0.947370	0.143330	0.354330
H291	H29	0.914770	0.112430	0.345530
C481	C48	0.947270	0.188730	0.374130
H301	H30	0.914470	0.188130	0.378330
C491	C49	0.993470	0.233830	0.387530
C501	C50	0.040270	0.231730	0.385530
H311	H31	0.072470	0.261230	0.398330
C511	C51	0.040670	0.187330	0.365030
H321	H32	0.073170	0.187230	0.362930
C521	C52	0.994970	0.284130	0.403130
C531	C53	0.043370	0.331930	0.402030
H331	H33	0.074970	0.332130	0.391330
C541	C54	0.098270	0.478330	0.420030
H341	H34	0.066170	0.479330	0.422430
C551	C55	0.146570	0.524930	0.419930
H351	H35	0.146770	0.557630	0.422430
O111	O11	0.619460	0.386970	0.649670
O121	O12	0.707610	0.437760	0.639770
C561	C56	0.663030	0.429970	0.654970
C571	C57	0.660730	0.476370	0.680970
C581	C58	0.614030	0.476670	0.687670
H361	H36	0.581430	0.445770	0.678870
C591	C59	0.613930	0.522070	0.707470
H371	H37	0.581130	0.521470	0.711670
C601	C60	0.660130	0.567170	0.720870
C611	C61	0.706930	0.565070	0.718870
H381	H38	0.739130	0.594570	0.731670
C621	C62	0.707330	0.520670	0.698370
H391	H39	0.739830	0.520570	0.696270
C631	C63	0.661630	0.617470	0.736470
C641	C64	0.710030	0.665270	0.735370
H401	H40	0.741630	0.665470	0.724670
C651	C65	0.764930	0.811670	0.753370
H411	H41	0.732830	0.812670	0.755770
C661	C66	0.813230	0.858270	0.753270
H421	H42	0.813430	0.890970	0.755770
O131	O13	0.279700	0.565830	0.983000
O141	O14	0.228910	0.603190	0.973100
C671	C67	0.236700	0.566400	0.988300
C681	C68	0.190300	0.517700	0.014300
C691	C69	0.190000	0.470700	0.021000
H431	H43	0.220900	0.469000	0.012200
C701	C70	0.144600	0.425200	0.040800
H441	H44	0.145200	0.393000	0.045000
C711	C71	0.099500	0.426300	0.054200
C721	C72	0.101600	0.475200	0.052200
H451	H45	0.072100	0.477900	0.065000
C731	C73	0.146000	0.520000	0.031700
H461	H46	0.146100	0.552600	0.029600
C741	C74	0.049200	0.377500	0.069800
C751	C75	0.001400	0.378100	0.068700
H471	H47	0.001200	0.409500	0.058000
C761	C76	0.855000	0.286600	0.086700
H481	H48	0.854000	0.253500	0.089100
C771	C77	0.808400	0.288300	0.086600
H491	H49	0.775700	0.255800	0.089100
O151	O15	0.946370	0.899160	0.316330
O161	O16	0.895580	0.936520	0.306430
C781	C78	0.903370	0.899730	0.321630
C791	C79	0.856970	0.851030	0.347630
C801	C80	0.856670	0.804030	0.354330
H501	H50	0.887570	0.802330	0.345530
C811	C81	0.811270	0.758530	0.374130
H511	H51	0.811870	0.726330	0.378330
C821	C82	0.766170	0.759630	0.387530
C831	C83	0.768270	0.808530	0.385530
H521	H52	0.738770	0.811230	0.398330
C841	C84	0.812670	0.853330	0.365030
H531	H53	0.812770	0.885930	0.362930
C851	C85	0.715870	0.710830	0.403130
C861	C86	0.668070	0.711430	0.402030
H541	H54	0.667870	0.742830	0.391330
C871	C87	0.521670	0.619930	0.420030
H551	H55	0.520670	0.586830	0.422430
C881	C88	0.475070	0.621630	0.419930
H561	H56	0.442370	0.589130	0.422430
O171	O17	0.613030	0.232500	0.649670
O181	O18	0.562240	0.269860	0.639770
C891	C89	0.570030	0.233070	0.654970
C901	C90	0.523630	0.184370	0.680970
C911	C91	0.523330	0.137370	0.687670
H571	H57	0.554230	0.135670	0.678870
C921	C92	0.477930	0.091870	0.707470
H581	H58	0.478530	0.059670	0.711670
C931	C93	0.432830	0.092970	0.720870
C941	C94	0.434930	0.141870	0.718870
H591	H59	0.405430	0.144570	0.731670
C951	C95	0.479330	0.186670	0.698370
H601	H60	0.479430	0.219270	0.696270
C961	C96	0.382530	0.044170	0.736470
C971	C97	0.334730	0.044770	0.735370
H611	H61	0.334530	0.076170	0.724670
C981	C98	0.188330	0.953270	0.753370
H621	H62	0.187330	0.920170	0.755770
C991	C99	0.141730	0.954970	0.753270
H631	H63	0.109030	0.922470	0.755770
O191	O19	0.713870	0.434170	0.517000
O201	O20	0.625720	0.396810	0.526900
C1001	C100	0.670300	0.433600	0.511700
C1011	C101	0.672600	0.482300	0.485700
C1021	C102	0.719300	0.529300	0.479000
H641	H64	0.751900	0.531000	0.487800
C1031	C103	0.719400	0.574800	0.459200
H651	H65	0.752200	0.607000	0.455000
C1041	C104	0.673200	0.573700	0.445800
C1051	C105	0.626400	0.524800	0.447800
H661	H66	0.594200	0.522100	0.435000
C1061	C106	0.626000	0.480000	0.468300
H671	H67	0.593500	0.447400	0.470400
C1071	C107	0.671700	0.622500	0.430200
C1081	C108	0.623300	0.621900	0.431300
H681	H68	0.591700	0.590500	0.442000
C1091	C109	0.568400	0.713400	0.413300
H691	H69	0.600500	0.746500	0.410900
C1101	C110	0.520100	0.711700	0.413400
H701	H70	0.519900	0.744200	0.410900
O211	O21	0.380540	0.767500	0.850330
O221	O22	0.292390	0.730140	0.860230
C1111	C111	0.336970	0.766930	0.845030
C1121	C112	0.339270	0.815630	0.819030
C1131	C113	0.385970	0.862630	0.812330
H711	H71	0.418570	0.864330	0.821130
C1141	C114	0.386070	0.908130	0.792530
H721	H72	0.418870	0.940330	0.788330
C1151	C115	0.339870	0.907030	0.779130
C1161	C116	0.293070	0.858130	0.781130
H731	H73	0.260870	0.855430	0.768330
C1171	C117	0.292670	0.813330	0.801630
H741	H74	0.260170	0.780730	0.803730
C1181	C118	0.338370	0.955830	0.763530
C1191	C119	0.289970	0.955230	0.764630
H751	H75	0.258370	0.923830	0.775330
C1201	C120	0.235070	0.046730	0.746630
H761	H76	0.267170	0.079830	0.744230
C1211	C121	0.186770	0.045030	0.746730
H771	H77	0.186570	0.077530	0.744230
O231	O23	0.047200	0.100840	0.183670
O241	O24	0.959050	0.063480	0.193570
C1221	C122	0.003630	0.100270	0.178370
C1231	C123	0.005930	0.148970	0.152370
C1241	C124	0.052630	0.195970	0.145670
H781	H78	0.085230	0.197670	0.154470
C1251	C125	0.052730	0.241470	0.125870
H791	H79	0.085530	0.273670	0.121670
C1261	C126	0.006530	0.240370	0.112470
C1271	C127	0.959730	0.191470	0.114470
H801	H80	0.927530	0.188770	0.101670
C1281	C128	0.959330	0.146670	0.134970
H811	H81	0.926830	0.114070	0.137070
C1291	C129	0.005030	0.289170	0.096870
C1301	C130	0.956630	0.288570	0.097970
H821	H82	0.925030	0.257170	0.108670
C1311	C131	0.901730	0.380070	0.079970
H831	H83	0.933830	0.413170	0.077570
C1321	C132	0.853430	0.378370	0.080070
H841	H84	0.853230	0.410870	0.077570
O251	O25	0.720300	0.286130	0.517000
O261	O26	0.771090	0.374280	0.526900
C1331	C133	0.763300	0.329700	0.511700
C1341	C134	0.809700	0.327400	0.485700
C1351	C135	0.810000	0.280700	0.479000
H851	H85	0.779100	0.248100	0.487800
C1361	C136	0.855400	0.280600	0.459200
H861	H86	0.854800	0.247800	0.455000
C1371	C137	0.900500	0.326800	0.445800
C1381	C138	0.898400	0.373600	0.447800
H871	H87	0.927900	0.405800	0.435000
C1391	C139	0.854000	0.374000	0.468300
H881	H88	0.853900	0.406500	0.470400
C1401	C140	0.950800	0.328300	0.430200
C1411	C141	0.998600	0.376700	0.431300
H891	H89	0.998800	0.408300	0.442000
C1421	C142	0.145000	0.431600	0.413300
H901	H90	0.146000	0.399500	0.410900
C1431	C143	0.191600	0.479900	0.413400
H911	H91	0.224300	0.480100	0.410900
O271	O27	0.386970	0.619460	0.850330
O281	O28	0.437760	0.707610	0.860230
C1441	C144	0.429970	0.663030	0.845030
C1451	C145	0.476370	0.660730	0.819030
C1461	C146	0.476670	0.614030	0.812330
H921	H92	0.445770	0.581430	0.821130
C1471	C147	0.522070	0.613930	0.792530
H931	H93	0.521470	0.581130	0.788330
C1481	C148	0.567170	0.660130	0.779130
C1491	C149	0.565070	0.706930	0.781130
H941	H94	0.594570	0.739130	0.768330
C1501	C150	0.520670	0.707330	0.801630
H951	H95	0.520570	0.739830	0.803730
C1511	C151	0.617470	0.661630	0.763530
C1521	C152	0.665270	0.710030	0.764630
H961	H96	0.665470	0.741630	0.775330
C1531	C153	0.811670	0.764930	0.746630
H971	H97	0.812670	0.732830	0.744230
C1541	C154	0.858270	0.813230	0.746730
H981	H98	0.890970	0.813430	0.744230
O291	O29	0.053630	0.952800	0.183670
O301	O30	0.104420	0.040950	0.193570
C1551	C155	0.096630	0.996370	0.178370
C1561	C156	0.143030	0.994070	0.152370
C1571	C157	0.143330	0.947370	0.145670
H991	H99	0.112430	0.914770	0.154470
C1581	C158	0.188730	0.947270	0.125870
H1001	H100	0.188130	0.914470	0.121670
C1591	C159	0.233830	0.993470	0.112470
C1601	C160	0.231730	0.040270	0.114470
H1011	H101	0.261230	0.072470	0.101670
C1611	C161	0.187330	0.040670	0.134970
H1021	H102	0.187230	0.073170	0.137070
C1621	C162	0.284130	0.994970	0.096870
C1631	C163	0.331930	0.043370	0.097970
H1031	H103	0.332130	0.074970	0.108670
C1641	C164	0.478330	0.098270	0.079970
H1041	H104	0.479330	0.066170	0.077570
C1651	C165	0.524930	0.146570	0.080070
H1051	H105	0.557630	0.146770	0.077570
O311	O31	0.565830	0.279700	0.517000
O321	O32	0.603190	0.228910	0.526900
C1661	C166	0.566400	0.236700	0.511700
C1671	C167	0.517700	0.190300	0.485700
C1681	C168	0.470700	0.190000	0.479000
H1061	H106	0.469000	0.220900	0.487800
C1691	C169	0.425200	0.144600	0.459200
H1071	H107	0.393000	0.145200	0.455000
C1701	C170	0.426300	0.099500	0.445800
C1711	C171	0.475200	0.101600	0.447800
H1081	H108	0.477900	0.072100	0.435000
C1721	C172	0.520000	0.146000	0.468300
H1091	H109	0.552600	0.146100	0.470400
C1731	C173	0.377500	0.049200	0.430200
C1741	C174	0.378100	0.001400	0.431300
H1101	H110	0.409500	0.001200	0.442000
C1751	C175	0.286600	0.855000	0.413300
H1111	H111	0.253500	0.854000	0.410900
C1761	C176	0.288300	0.808400	0.413400
H1121	H112	0.255800	0.775700	0.410900
O331	O33	0.232500	0.613030	0.850330
O341	O34	0.269860	0.562240	0.860230
C1771	C177	0.233070	0.570030	0.845030
C1781	C178	0.184370	0.523630	0.819030
C1791	C179	0.137370	0.523330	0.812330
H1131	H113	0.135670	0.554230	0.821130
C1801	C180	0.091870	0.477930	0.792530
H1141	H114	0.059670	0.478530	0.788330
C1811	C181	0.092970	0.432830	0.779130
C1821	C182	0.141870	0.434930	0.781130
H1151	H115	0.144570	0.405430	0.768330
C1831	C183	0.186670	0.479330	0.801630
H1161	H116	0.219270	0.479430	0.803730
C1841	C184	0.044170	0.382530	0.763530
C1851	C185	0.044770	0.334730	0.764630
H1171	H117	0.076170	0.334530	0.775330
C1861	C186	0.953270	0.188330	0.746630
H1181	H118	0.920170	0.187330	0.744230
C1871	C187	0.954970	0.141730	0.746730
H1191	H119	0.922470	0.109030	0.744230
O351	O35	0.899160	0.946370	0.183670
O361	O36	0.936520	0.895580	0.193570
C1881	C188	0.899730	0.903370	0.178370
C1891	C189	0.851030	0.856970	0.152370
C1901	C190	0.804030	0.856670	0.145670
H1201	H120	0.802330	0.887570	0.154470
C1911	C191	0.758530	0.811270	0.125870
H1211	H121	0.726330	0.811870	0.121670
C1921	C192	0.759630	0.766170	0.112470
C1931	C193	0.808530	0.768270	0.114470
H1221	H122	0.811230	0.738770	0.101670
C1941	C194	0.853330	0.812670	0.134970
H1231	H123	0.885930	0.812770	0.137070
C1951	C195	0.710830	0.715870	0.096870
C1961	C196	0.711430	0.668070	0.097970
H1241	H124	0.742830	0.667870	0.108670
C1971	C197	0.619930	0.521670	0.079970
H1251	H125	0.586830	0.520670	0.077570
C1981	C198	0.621630	0.475070	0.080070
H1261	H126	0.589130	0.442370	0.077570
O371	O37	0.565830	0.286130	0.017000
O381	O38	0.603190	0.374280	0.026900
C1991	C199	0.566400	0.329700	0.011700
C2001	C200	0.517700	0.327400	0.985700
C2011	C201	0.470700	0.280700	0.979000
H1271	H127	0.469000	0.248100	0.987800
C2021	C202	0.425200	0.280600	0.959200
H1281	H128	0.393000	0.247800	0.955000
C2031	C203	0.426300	0.326800	0.945800
C2041	C204	0.475200	0.373600	0.947800
H1291	H129	0.477900	0.405800	0.935000
C2051	C205	0.520000	0.374000	0.968300
H1301	H130	0.552600	0.406500	0.970400
C2061	C206	0.377500	0.328300	0.930200
C2071	C207	0.378100	0.376700	0.931300
H1311	H131	0.409500	0.408300	0.942000
C2081	C208	0.286600	0.431600	0.913300
H1321	H132	0.253500	0.399500	0.910900
C2091	C209	0.288300	0.479900	0.913400
H1331	H133	0.255800	0.480100	0.910900
O391	O39	0.232500	0.619460	0.350330
O401	O40	0.269860	0.707610	0.360230
C2101	C210	0.233070	0.663030	0.345030
C2111	C211	0.184370	0.660730	0.319030
C2121	C212	0.137370	0.614030	0.312330
H1341	H134	0.135670	0.581430	0.321130
C2131	C213	0.091870	0.613930	0.292530
H1351	H135	0.059670	0.581130	0.288330
C2141	C214	0.092970	0.660130	0.279130
C2151	C215	0.141870	0.706930	0.281130
H1361	H136	0.144570	0.739130	0.268330
C2161	C216	0.186670	0.707330	0.301630
H1371	H137	0.219270	0.739830	0.303730
C2171	C217	0.044170	0.661630	0.263530
C2181	C218	0.044770	0.710030	0.264630
H1381	H138	0.076170	0.741630	0.275330
C2191	C219	0.953270	0.764930	0.246630
H1391	H139	0.920170	0.732830	0.244230
C2201	C220	0.954970	0.813230	0.246730
H1401	H140	0.922470	0.813430	0.244230
O411	O41	0.899160	0.952800	0.683670
O421	O42	0.936520	0.040950	0.693570
C2211	C221	0.899730	0.996370	0.678370
C2221	C222	0.851030	0.994070	0.652370
C2231	C223	0.804030	0.947370	0.645670
H1411	H141	0.802330	0.914770	0.654470
C2241	C224	0.758530	0.947270	0.625870
H1421	H142	0.726330	0.914470	0.621670
C2251	C225	0.759630	0.993470	0.612470
C2261	C226	0.808530	0.040270	0.614470
H1431	H143	0.811230	0.072470	0.601670
C2271	C227	0.853330	0.040670	0.634970
H1441	H144	0.885930	0.073170	0.637070
C2281	C228	0.710830	0.994970	0.596870
C2291	C229	0.711430	0.043370	0.597970
H1451	H145	0.742830	0.074970	0.608670
C2301	C230	0.619930	0.098270	0.579970
H1461	H146	0.586830	0.066170	0.577570
C2311	C231	0.621630	0.146570	0.580070
H1471	H147	0.589130	0.146770	0.577570
O431	O43	0.713870	0.279700	0.017000
O441	O44	0.625720	0.228910	0.026900
C2321	C232	0.670300	0.236700	0.011700
C2331	C233	0.672600	0.190300	0.985700
C2341	C234	0.719300	0.190000	0.979000
H1481	H148	0.751900	0.220900	0.987800
C2351	C235	0.719400	0.144600	0.959200
H1491	H149	0.752200	0.145200	0.955000
C2361	C236	0.673200	0.099500	0.945800
C2371	C237	0.626400	0.101600	0.947800
H1501	H150	0.594200	0.072100	0.935000
C2381	C238	0.626000	0.146000	0.968300
H1511	H151	0.593500	0.146100	0.970400
C2391	C239	0.671700	0.049200	0.930200
C2401	C240	0.623300	0.001400	0.931300
H1521	H152	0.591700	0.001200	0.942000
C2411	C241	0.568400	0.855000	0.913300
H1531	H153	0.600500	0.854000	0.910900
C2421	C242	0.520100	0.808400	0.913400
H1541	H154	0.519900	0.775700	0.910900
O451	O45	0.380540	0.613030	0.350330
O461	O46	0.292390	0.562240	0.360230
C2431	C243	0.336970	0.570030	0.345030
C2441	C244	0.339270	0.523630	0.319030
C2451	C245	0.385970	0.523330	0.312330
H1551	H155	0.418570	0.554230	0.321130
C2461	C246	0.386070	0.477930	0.292530
H1561	H156	0.418870	0.478530	0.288330
C2471	C247	0.339870	0.432830	0.279130
C2481	C248	0.293070	0.434930	0.281130
H1571	H157	0.260870	0.405430	0.268330
C2491	C249	0.292670	0.479330	0.301630
H1581	H158	0.260170	0.479430	0.303730
C2501	C250	0.338370	0.382530	0.263530
C2511	C251	0.289970	0.334730	0.264630
H1591	H159	0.258370	0.334530	0.275330
C2521	C252	0.235070	0.188330	0.246630
H1601	H160	0.267170	0.187330	0.244230
C2531	C253	0.186770	0.141730	0.246730
H1611	H161	0.186570	0.109030	0.244230
O471	O47	0.047200	0.946370	0.683670
O481	O48	0.959050	0.895580	0.693570
C2541	C254	0.003630	0.903370	0.678370
C2551	C255	0.005930	0.856970	0.652370
C2561	C256	0.052630	0.856670	0.645670
H1621	H162	0.085230	0.887570	0.654470
C2571	C257	0.052730	0.811270	0.625870
H1631	H163	0.085530	0.811870	0.621670
C2581	C258	0.006530	0.766170	0.612470
C2591	C259	0.959730	0.768270	0.614470
H1641	H164	0.927530	0.738770	0.601670
C2601	C260	0.959330	0.812670	0.634970
H1651	H165	0.926830	0.812770	0.637070
C2611	C261	0.005030	0.715870	0.596870
C2621	C262	0.956630	0.668070	0.597970
H1661	H166	0.925030	0.667870	0.608670
C2631	C263	0.901730	0.521670	0.579970
H1671	H167	0.933830	0.520670	0.577570
C2641	C264	0.853430	0.475070	0.580070
H1681	H168	0.853230	0.442370	0.577570
O491	O49	0.720300	0.434170	0.017000
O501	O50	0.771090	0.396810	0.026900
C2651	C265	0.763300	0.433600	0.011700
C2661	C266	0.809700	0.482300	0.985700
C2671	C267	0.810000	0.529300	0.979000
H1691	H169	0.779100	0.531000	0.987800
C2681	C268	0.855400	0.574800	0.959200
H1701	H170	0.854800	0.607000	0.955000
C2691	C269	0.900500	0.573700	0.945800
C2701	C270	0.898400	0.524800	0.947800
H1711	H171	0.927900	0.522100	0.935000
C2711	C271	0.854000	0.480000	0.968300
H1721	H172	0.853900	0.447400	0.970400
C2721	C272	0.950800	0.622500	0.930200
C2731	C273	0.998600	0.621900	0.931300
H1731	H173	0.998800	0.590500	0.942000
C2741	C274	0.145000	0.713400	0.913300
H1741	H174	0.146000	0.746500	0.910900
C2751	C275	0.191600	0.711700	0.913400
H1751	H175	0.224300	0.744200	0.910900
O511	O51	0.386970	0.767500	0.350330
O521	O52	0.437760	0.730140	0.360230
C2761	C276	0.429970	0.766930	0.345030
C2771	C277	0.476370	0.815630	0.319030
C2781	C278	0.476670	0.862630	0.312330
H1761	H176	0.445770	0.864330	0.321130
C2791	C279	0.522070	0.908130	0.292530
H1771	H177	0.521470	0.940330	0.288330
C2801	C280	0.567170	0.907030	0.279130
C2811	C281	0.565070	0.858130	0.281130
H1781	H178	0.594570	0.855430	0.268330
C2821	C282	0.520670	0.813330	0.301630
H1791	H179	0.520570	0.780730	0.303730
C2831	C283	0.617470	0.955830	0.263530
C2841	C284	0.665270	0.955230	0.264630
H1801	H180	0.665470	0.923830	0.275330
C2851	C285	0.811670	0.046730	0.246630
H1811	H181	0.812670	0.079830	0.244230
C2861	C286	0.858270	0.045030	0.246730
H1821	H182	0.890970	0.077530	0.244230
O531	O53	0.053630	0.100840	0.683670
O541	O54	0.104420	0.063480	0.693570
C2871	C287	0.096630	0.100270	0.678370
C2881	C288	0.143030	0.148970	0.652370
C2891	C289	0.143330	0.195970	0.645670
H1831	H183	0.112430	0.197670	0.654470
C2901	C290	0.188730	0.241470	0.625870
H1841	H184	0.188130	0.273670	0.621670
C2911	C291	0.233830	0.240370	0.612470
C2921	C292	0.231730	0.191470	0.614470
H1851	H185	0.261230	0.188770	0.601670
C2931	C293	0.187330	0.146670	0.634970
H1861	H186	0.187230	0.114070	0.637070
C2941	C294	0.284130	0.289170	0.596870
C2951	C295	0.331930	0.288570	0.597970
H1871	H187	0.332130	0.257170	0.608670
C2961	C296	0.478330	0.380070	0.579970
H1881	H188	0.479330	0.413170	0.577570
C2971	C297	0.524930	0.378370	0.580070
H1891	H189	0.557630	0.410870	0.577570
O551	O55	0.286130	0.565830	0.483000
O561	O56	0.374280	0.603190	0.473100
C2981	C298	0.329700	0.566400	0.488300
C2991	C299	0.327400	0.517700	0.514300
C3001	C300	0.280700	0.470700	0.521000
H1901	H190	0.248100	0.469000	0.512200
C3011	C301	0.280600	0.425200	0.540800
H1911	H191	0.247800	0.393000	0.545000
C3021	C302	0.326800	0.426300	0.554200
C3031	C303	0.373600	0.475200	0.552200
H1921	H192	0.405800	0.477900	0.565000
C3041	C304	0.374000	0.520000	0.531700
H1931	H193	0.406500	0.552600	0.529600
C3051	C305	0.328300	0.377500	0.569800
C3061	C306	0.376700	0.378100	0.568700
H1941	H194	0.408300	0.409500	0.558000
C3071	C307	0.431600	0.286600	0.586700
H1951	H195	0.399500	0.253500	0.589100
C3081	C308	0.479900	0.288300	0.586600
H1961	H196	0.480100	0.255800	0.589100
O571	O57	0.952800	0.899160	0.816330
O581	O58	0.040950	0.936520	0.806430
C3091	C309	0.996370	0.899730	0.821630
C3101	C310	0.994070	0.851030	0.847630
C3111	C311	0.947370	0.804030	0.854330
H1971	H197	0.914770	0.802330	0.845530
C3121	C312	0.947270	0.758530	0.874130
H1981	H198	0.914470	0.726330	0.878330
C3131	C313	0.993470	0.759630	0.887530
C3141	C314	0.040270	0.808530	0.885530
H1991	H199	0.072470	0.811230	0.898330
C3151	C315	0.040670	0.853330	0.865030
H2001	H200	0.073170	0.885930	0.862930
C3161	C316	0.994970	0.710830	0.903130
C3171	C317	0.043370	0.711430	0.902030
H2011	H201	0.074970	0.742830	0.891330
C3181	C318	0.098270	0.619930	0.920030
H2021	H202	0.066170	0.586830	0.922430
C3191	C319	0.146570	0.621630	0.919930
H2031	H203	0.146770	0.589130	0.922430
O591	O59	0.619460	0.232500	0.149670
O601	O60	0.707610	0.269860	0.139770
C3201	C320	0.663030	0.233070	0.154970
C3211	C321	0.660730	0.184370	0.180970
C3221	C322	0.614030	0.137370	0.187670
H2041	H204	0.581430	0.135670	0.178870
C3231	C323	0.613930	0.091870	0.207470
H2051	H205	0.581130	0.059670	0.211670
C3241	C324	0.660130	0.092970	0.220870
C3251	C325	0.706930	0.141870	0.218870
H2061	H206	0.739130	0.144570	0.231670
C3261	C326	0.707330	0.186670	0.198370
H2071	H207	0.739830	0.219270	0.196270
C3271	C327	0.661630	0.044170	0.236470
C3281	C328	0.710030	0.044770	0.235370
H2081	H208	0.741630	0.076170	0.224670
C3291	C329	0.764930	0.953270	0.253370
H2091	H209	0.732830	0.920170	0.255770
C3301	C330	0.813230	0.954970	0.253270
H2101	H210	0.813430	0.922470	0.255770
O611	O61	0.279700	0.713870	0.483000
O621	O62	0.228910	0.625720	0.473100
C3311	C331	0.236700	0.670300	0.488300
C3321	C332	0.190300	0.672600	0.514300
C3331	C333	0.190000	0.719300	0.521000
H2111	H211	0.220900	0.751900	0.512200
C3341	C334	0.144600	0.719400	0.540800
H2121	H212	0.145200	0.752200	0.545000
C3351	C335	0.099500	0.673200	0.554200
C3361	C336	0.101600	0.626400	0.552200
H2131	H213	0.072100	0.594200	0.565000
C3371	C337	0.146000	0.626000	0.531700
H2141	H214	0.146100	0.593500	0.529600
C3381	C338	0.049200	0.671700	0.569800
C3391	C339	0.001400	0.623300	0.568700
H2151	H215	0.001200	0.591700	0.558000
C3401	C340	0.855000	0.568400	0.586700
H2161	H216	0.854000	0.600500	0.589100
C3411	C341	0.808400	0.520100	0.586600
H2171	H217	0.775700	0.519900	0.589100
O631	O63	0.946370	0.047200	0.816330
O641	O64	0.895580	0.959050	0.806430
C3421	C342	0.903370	0.003630	0.821630
C3431	C343	0.856970	0.005930	0.847630
C3441	C344	0.856670	0.052630	0.854330
H2181	H218	0.887570	0.085230	0.845530
C3451	C345	0.811270	0.052730	0.874130
H2191	H219	0.811870	0.085530	0.878330
C3461	C346	0.766170	0.006530	0.887530
C3471	C347	0.768270	0.959730	0.885530
H2201	H220	0.738770	0.927530	0.898330
C3481	C348	0.812670	0.959330	0.865030
H2211	H221	0.812770	0.926830	0.862930
C3491	C349	0.715870	0.005030	0.903130
C3501	C350	0.668070	0.956630	0.902030
H2221	H222	0.667870	0.925030	0.891330
C3511	C351	0.521670	0.901730	0.920030
H2231	H223	0.520670	0.933830	0.922430
C3521	C352	0.475070	0.853430	0.919930
H2241	H224	0.442370	0.853230	0.922430
O651	O65	0.613030	0.380540	0.149670
O661	O66	0.562240	0.292390	0.139770
C3531	C353	0.570030	0.336970	0.154970
C3541	C354	0.523630	0.339270	0.180970
C3551	C355	0.523330	0.385970	0.187670
H2251	H225	0.554230	0.418570	0.178870
C3561	C356	0.477930	0.386070	0.207470
H2261	H226	0.478530	0.418870	0.211670
C3571	C357	0.432830	0.339870	0.220870
C3581	C358	0.434930	0.293070	0.218870
H2271	H227	0.405430	0.260870	0.231670
C3591	C359	0.479330	0.292670	0.198370
H2281	H228	0.479430	0.260170	0.196270
C3601	C360	0.382530	0.338370	0.236470
C3611	C361	0.334730	0.289970	0.235370
H2291	H229	0.334530	0.258370	0.224670
C3621	C362	0.188330	0.235070	0.253370
H2301	H230	0.187330	0.267170	0.255770
C3631	C363	0.141730	0.186770	0.253270
H2311	H231	0.109030	0.186570	0.255770
O671	O67	0.434170	0.720300	0.483000
O681	O68	0.396810	0.771090	0.473100
C3641	C364	0.433600	0.763300	0.488300
C3651	C365	0.482300	0.809700	0.514300
C3661	C366	0.529300	0.810000	0.521000
H2321	H232	0.531000	0.779100	0.512200
C3671	C367	0.574800	0.855400	0.540800
H2331	H233	0.607000	0.854800	0.545000
C3681	C368	0.573700	0.900500	0.554200
C3691	C369	0.524800	0.898400	0.552200
H2341	H234	0.522100	0.927900	0.565000
C3701	C370	0.480000	0.854000	0.531700
H2351	H235	0.447400	0.853900	0.529600
C3711	C371	0.622500	0.950800	0.569800
C3721	C372	0.621900	0.998600	0.568700
H2361	H236	0.590500	0.998800	0.558000
C3731	C373	0.713400	0.145000	0.586700
H2371	H237	0.746500	0.146000	0.589100
C3741	C374	0.711700	0.191600	0.586600
H2381	H238	0.744200	0.224300	0.589100
O691	O69	0.100840	0.053630	0.816330
O701	O70	0.063480	0.104420	0.806430
C3751	C375	0.100270	0.096630	0.821630
C3761	C376	0.148970	0.143030	0.847630
C3771	C377	0.195970	0.143330	0.854330
H2391	H239	0.197670	0.112430	0.845530
C3781	C378	0.241470	0.188730	0.874130
H2401	H240	0.273670	0.188130	0.878330
C3791	C379	0.240370	0.233830	0.887530
C3801	C380	0.191470	0.231730	0.885530
H2411	H241	0.188770	0.261230	0.898330
C3811	C381	0.146670	0.187330	0.865030
H2421	H242	0.114070	0.187230	0.862930
C3821	C382	0.289170	0.284130	0.903130
C3831	C383	0.288570	0.331930	0.902030
H2431	H243	0.257170	0.332130	0.891330
C3841	C384	0.380070	0.478330	0.920030
H2441	H244	0.413170	0.479330	0.922430
C3851	C385	0.378370	0.524930	0.919930
H2451	H245	0.410870	0.557630	0.922430
O711	O71	0.767500	0.386970	0.149670
O721	O72	0.730140	0.437760	0.139770
C3861	C386	0.766930	0.429970	0.154970
C3871	C387	0.815630	0.476370	0.180970
C3881	C388	0.862630	0.476670	0.187670
H2461	H246	0.864330	0.445770	0.178870
C3891	C389	0.908130	0.522070	0.207470
H2471	H247	0.940330	0.521470	0.211670
C3901	C390	0.907030	0.567170	0.220870
C3911	C391	0.858130	0.565070	0.218870
H2481	H248	0.855430	0.594570	0.231670
C3921	C392	0.813330	0.520670	0.198370
H2491	H249	0.780730	0.520570	0.196270
C3931	C393	0.955830	0.617470	0.236470
C3941	C394	0.955230	0.665270	0.235370
H2501	H250	0.923830	0.665470	0.224670
C3951	C395	0.046730	0.811670	0.253370
H2511	H251	0.079830	0.812670	0.255770
C3961	C396	0.045030	0.858270	0.253270
H2521	H252	0.077530	0.890970	0.255770
Ni11	Ni1	0.666670	0.402180	0.083330
N11	N1	0.666670	0.473880	0.083330
N21	N2	0.666670	0.717680	0.083330
C3971	C397	0.666670	0.621380	0.083330
C3981	C398	0.666670	0.569780	0.083330
Ni21	Ni2	0.597820	0.264480	0.083330
N31	N3	0.526120	0.192780	0.083330
N41	N4	0.282320	0.948980	0.083330
C3991	C399	0.378620	0.045280	0.083330
C4001	C400	0.430220	0.096880	0.083330
Ni31	Ni3	0.735520	0.333330	0.083330
N51	N5	0.807220	0.333330	0.083330
N61	N6	0.051020	0.333330	0.083330
C4011	C401	0.954720	0.333330	0.083330
C4021	C402	0.903120	0.333330	0.083330
Ni41	Ni4	0.402180	0.666670	0.416670
N71	N7	0.473880	0.666670	0.416670
N81	N8	0.717680	0.666670	0.416670
C4031	C403	0.621380	0.666670	0.416670
C4041	C404	0.569780	0.666670	0.416670
Ni51	Ni5	0.068850	0.000000	0.750000
N91	N9	0.140550	0.000000	0.750000
N101	N10	0.384350	0.000000	0.750000
C4051	C405	0.288050	0.000000	0.750000
C4061	C406	0.236450	0.000000	0.750000
Ni61	Ni6	0.264480	0.597820	0.416670
N111	N11	0.192780	0.526120	0.416670
N121	N12	0.948980	0.282320	0.416670
C4071	C407	0.045280	0.378620	0.416670
C4081	C408	0.096880	0.430220	0.416670
Ni71	Ni7	0.931150	0.931150	0.750000
N131	N13	0.859450	0.859450	0.750000
N141	N14	0.615650	0.615650	0.750000
C4091	C409	0.711950	0.711950	0.750000
C4101	C410	0.763550	0.763550	0.750000
Ni81	Ni8	0.333330	0.735520	0.416670
N151	N15	0.333330	0.807220	0.416670
N161	N16	0.333330	0.051020	0.416670
C4111	C411	0.333330	0.954720	0.416670
C4121	C412	0.333330	0.903120	0.416670
Ni91	Ni9	0.000000	0.068850	0.750000
N171	N17	0.000000	0.140550	0.750000
N181	N18	0.000000	0.384350	0.750000
C4131	C413	0.000000	0.288050	0.750000
C4141	C414	0.000000	0.236450	0.750000
Ni101	Ni10	0.333330	0.597820	0.916670
N191	N19	0.333330	0.526120	0.916670
N201	N20	0.333330	0.282320	0.916670
C4151	C415	0.333330	0.378620	0.916670
C4161	C416	0.333330	0.430220	0.916670
Ni111	Ni11	0.000000	0.931150	0.250000
N211	N21	0.000000	0.859450	0.250000
N221	N22	0.000000	0.615650	0.250000
C4171	C417	0.000000	0.711950	0.250000
C4181	C418	0.000000	0.763550	0.250000
Ni121	Ni12	0.402180	0.735520	0.916670
N231	N23	0.473880	0.807220	0.916670
N241	N24	0.717680	0.051020	0.916670
C4191	C419	0.621380	0.954720	0.916670
C4201	C420	0.569780	0.903120	0.916670
Ni131	Ni13	0.068850	0.068850	0.250000
N251	N25	0.140550	0.140550	0.250000
N261	N26	0.384350	0.384350	0.250000
C4211	C421	0.288050	0.288050	0.250000
C4221	C422	0.236450	0.236450	0.250000
Ni141	Ni14	0.264480	0.666670	0.916670
N271	N27	0.192780	0.666670	0.916670
N281	N28	0.948980	0.666670	0.916670
C4231	C423	0.045280	0.666670	0.916670
C4241	C424	0.096880	0.666670	0.916670
Ni151	Ni15	0.931150	0.000000	0.250000
N291	N29	0.859450	0.000000	0.250000
N301	N30	0.615650	0.000000	0.250000
C4251	C425	0.711950	0.000000	0.250000
C4261	C426	0.763550	0.000000	0.250000
Ni161	Ni16	0.597820	0.333330	0.583330
N311	N31	0.526120	0.333330	0.583330
N321	N32	0.282320	0.333330	0.583330
C4271	C427	0.378620	0.333330	0.583330
C4281	C428	0.430220	0.333330	0.583330
Ni171	Ni17	0.735520	0.402180	0.583330
N331	N33	0.807220	0.473880	0.583330
N341	N34	0.051020	0.717680	0.583330
C4291	C429	0.954720	0.621380	0.583330
C4301	C430	0.903120	0.569780	0.583330
Ni181	Ni18	0.666670	0.264480	0.583330
N351	N35	0.666670	0.192780	0.583330
N361	N36	0.666670	0.948980	0.583330
C4311	C431	0.666670	0.045280	0.583330
C4321	C432	0.666670	0.096880	0.583330
O731	O73	0.666670	0.333330	0.083330
O741	O74	0.000000	0.000000	0.750000
O751	O75	0.333330	0.666670	0.416670
O761	O76	0.333330	0.666670	0.916670
O771	O77	0.000000	0.000000	0.250000
O781	O78	0.666670	0.333330	0.583330
H2531	H253	0.666670	0.333330	0.126000
H2541	H254	0.333330	0.666670	0.459330
H2551	H255	0.000000	0.000000	0.792670
H2561	H256	0.333330	0.666670	0.374000
H2571	H257	0.000000	0.000000	0.707330
H2581	H258	0.666670	0.333330	0.040670
H2591	H259	0.333330	0.666670	0.874000
H2601	H260	0.000000	0.000000	0.207330
H2611	H261	0.666670	0.333330	0.540670
H2621	H262	0.666670	0.333330	0.626000
H2631	H263	0.333330	0.666670	0.959330
H2641	H264	0.000000	0.000000	0.292670
