data_BEPVOJ01_freeONLY_PM
_symmetry_space_group_name_H-M	'P1'
_cell_length_a	11.357100
_cell_length_b	11.496400
_cell_length_c	12.935200
_cell_angle_alpha	88.867000
_cell_angle_beta	64.614000
_cell_angle_gamma	69.305000
_symmetry_Int_Tables_number 1

loop_
_symmetry_equiv_pos_as_xyz
'x,y,z'

loop_
_atom_site_label
_atom_site_type_symbol
_atom_site_fract_x
_atom_site_fract_y
_atom_site_fract_z
Cu11	Cu1	0.863190	0.058790	0.006150
Cu21	Cu2	0.170280	0.877940	0.594230
Cu31	Cu3	0.642660	0.819230	0.293110
Cu41	Cu4	0.136810	0.941210	0.993850
Cu51	Cu5	0.829720	0.122060	0.405770
Cu61	Cu6	0.357340	0.180770	0.706890
H11	H1	0.867100	0.888100	0.705100
H21	H2	0.612000	0.198000	0.225400
H31	H3	0.917600	0.821000	0.305200
H41	H4	0.762700	0.857800	0.401800
H51	H5	0.221800	0.702000	0.325300
H61	H6	0.142200	0.812400	0.277100
H71	H7	0.218800	0.837200	0.345300
H81	H8	0.723500	0.583000	0.157700
H91	H9	0.601300	0.598000	0.281100
H101	H10	0.880100	0.358500	0.282100
H111	H11	0.011300	0.572500	0.410900
H121	H12	0.890200	0.409100	0.958500
H131	H13	0.985100	0.349900	0.020200
H141	H14	0.968900	0.262700	0.939700
H151	H15	0.612000	0.952600	0.698000
H161	H16	0.629900	0.850600	0.607800
H171	H17	0.662100	0.810200	0.712300
H181	H18	0.452300	0.341400	0.406900
H191	H19	0.501300	0.444500	0.432000
H201	H20	0.403600	0.474300	0.370600
H211	H21	0.016300	0.377700	0.366000
H221	H22	0.132900	0.111900	0.294900
H231	H23	0.388000	0.802000	0.774600
H241	H24	0.082400	0.179000	0.694800
H251	H25	0.237300	0.142200	0.598200
H261	H26	0.778200	0.298000	0.674700
H271	H27	0.857800	0.187600	0.722900
H281	H28	0.781200	0.162800	0.654700
H291	H29	0.276500	0.417000	0.842300
H301	H30	0.398700	0.402000	0.718900
H311	H31	0.119900	0.641500	0.717900
H321	H32	0.988700	0.427500	0.589100
H331	H33	0.109800	0.590900	0.041500
H341	H34	0.014900	0.650100	0.979800
H351	H35	0.031100	0.737300	0.060300
H361	H36	0.388000	0.047400	0.302000
H371	H37	0.370100	0.149400	0.392200
H381	H38	0.337900	0.189800	0.287700
H391	H39	0.547700	0.658600	0.593100
H401	H40	0.498700	0.555500	0.568000
H411	H41	0.596400	0.525700	0.629400
H421	H42	0.983700	0.622300	0.634000
C11	C1	0.034160	0.821020	0.450360
C21	C2	0.987770	0.988150	0.852270
C31	C3	0.797420	0.330140	0.095800
C41	C4	0.697900	0.916740	0.177610
C51	C5	0.903660	0.822070	0.467230
C61	C6	0.606700	0.364280	0.263230
C71	C7	0.819520	0.852700	0.584810
C81	C8	0.859360	0.800190	0.377400
C91	C9	0.699270	0.418620	0.196560
C101	C10	0.868880	0.668960	0.354660
C111	C11	0.166000	0.790400	0.339650
C121	C12	0.792230	0.544340	0.280820
C131	C13	0.697200	0.544790	0.227440
C141	C14	0.877600	0.437140	0.301300
C151	C15	0.955900	0.564420	0.377700
C161	C16	0.921400	0.338700	0.994500
C171	C17	0.666800	0.867900	0.657400
C181	C18	0.479600	0.410200	0.378500
C191	C19	0.958700	0.449000	0.350700
C201	C20	0.356300	0.848090	0.489510
C211	C21	0.965840	0.178980	0.549640
C221	C22	0.012230	0.011850	0.147730
C231	C23	0.202580	0.669860	0.904200
C241	C24	0.302100	0.083260	0.822390
C251	C25	0.096340	0.177930	0.532770
C261	C26	0.393300	0.635720	0.736770
C271	C27	0.180480	0.147300	0.415190
C281	C28	0.140640	0.199810	0.622600
C291	C29	0.300730	0.581380	0.803440
C301	C30	0.131120	0.331040	0.645340
C311	C31	0.834000	0.209600	0.660350
C321	C32	0.207770	0.455660	0.719180
C331	C33	0.302800	0.455210	0.772560
C341	C34	0.122400	0.562860	0.698700
C351	C35	0.044100	0.435580	0.622300
C361	C36	0.078600	0.661300	0.005500
C371	C37	0.333200	0.132100	0.342600
C381	C38	0.520400	0.589800	0.621500
C391	C39	0.041300	0.551000	0.649300
C401	C40	0.643700	0.151910	0.510490
N11	N1	0.766770	0.228660	0.100600
N21	N2	0.787820	0.657790	0.307730
N31	N3	0.897720	0.867860	0.631940
N41	N4	0.031150	0.847880	0.551870
N51	N5	0.737070	0.976920	0.111230
N61	N6	0.652270	0.250850	0.201930
N71	N7	0.056150	0.943030	0.757390
N81	N8	0.467100	0.835390	0.420020
N91	N9	0.233230	0.771340	0.899400
N101	N10	0.212180	0.342210	0.692270
N111	N11	0.102280	0.132140	0.368060
N121	N12	0.968850	0.152120	0.448130
N131	N13	0.262930	0.023080	0.888770
N141	N14	0.347730	0.749150	0.798070
N151	N15	0.943850	0.056970	0.242610
N161	N16	0.532900	0.164610	0.579980
