data_BEWWEH_freeONLY_PM
_symmetry_space_group_name_H-M	'P1'
_cell_length_a	14.528600
_cell_length_b	20.877800
_cell_length_c	22.757000
_cell_angle_alpha	90.000000
_cell_angle_beta	90.000000
_cell_angle_gamma	90.000000
_symmetry_Int_Tables_number 1

loop_
_symmetry_equiv_pos_as_xyz
'x,y,z'

loop_
_atom_site_label
_atom_site_type_symbol
_atom_site_fract_x
_atom_site_fract_y
_atom_site_fract_z
C11	C1	0.392300	0.826600	0.458470
C21	C2	0.474300	0.794000	0.427320
C31	C3	0.637200	0.795600	0.588500
C41	C4	0.711600	0.837600	0.559200
C51	C5	0.518800	0.995600	0.546120
C61	C6	0.525100	0.997100	0.478110
C71	C7	0.554100	0.218800	0.429240
C81	C8	0.642200	0.188300	0.458030
C91	C9	0.308200	0.156200	0.558680
C101	C10	0.375800	0.194600	0.596870
C111	C11	0.308600	0.722000	0.242100
C121	C12	0.314400	0.796200	0.246800
O11	O1	0.412530	0.862290	0.502300
O21	O2	0.553000	0.809420	0.447550
O31	O3	0.314300	0.816360	0.440480
O41	O4	0.458410	0.756800	0.386580
O51	O5	0.555300	0.805720	0.572180
O61	O6	0.681390	0.876000	0.521150
O71	O7	0.662480	0.754240	0.625170
O81	O8	0.793200	0.830970	0.573920
O91	O9	0.530770	0.941330	0.569180
O101	O10	0.544500	0.943930	0.454640
O111	O11	0.504600	0.046160	0.572080
O121	O12	0.508700	0.047880	0.452760
O131	O13	0.479400	0.201760	0.447130
O141	O14	0.632070	0.152250	0.499450
O151	O15	0.571570	0.259410	0.388550
O161	O16	0.717960	0.204990	0.434520
O171	O17	0.339650	0.122610	0.519770
O181	O18	0.459300	0.190120	0.587820
O191	O19	0.223600	0.163310	0.572150
O201	O20	0.338520	0.228800	0.638030
O211	O21	0.309900	0.690560	0.287870
O221	O22	0.318300	0.821170	0.295320
O231	O23	0.304800	0.699910	0.190410
O241	O24	0.313700	0.825300	0.197420
Cr11	Cr1	0.296140	0.767620	0.129930
Cr21	Cr2	0.546970	0.872240	0.511620
Mn11	Mn1	0.488720	0.128380	0.514680
Mn21	Mn2	0.312560	0.750190	0.365300
C131	C13	0.107700	0.173400	0.958470
C141	C14	0.025700	0.206000	0.927320
C151	C15	0.862800	0.204400	0.088500
C161	C16	0.788400	0.162400	0.059200
C171	C17	0.981200	0.004400	0.046120
C181	C18	0.974900	0.002900	0.978110
C191	C19	0.945900	0.781200	0.929240
C201	C20	0.857800	0.811700	0.958030
C211	C21	0.191800	0.843800	0.058680
C221	C22	0.124200	0.805400	0.096870
C231	C23	0.191400	0.278000	0.742100
C241	C24	0.185600	0.203800	0.746800
O251	O25	0.087470	0.137710	0.002300
O261	O26	0.947000	0.190580	0.947550
O271	O27	0.185700	0.183640	0.940480
O281	O28	0.041590	0.243200	0.886580
O291	O29	0.944700	0.194280	0.072180
O301	O30	0.818610	0.124000	0.021150
O311	O31	0.837520	0.245760	0.125170
O321	O32	0.706800	0.169030	0.073920
O331	O33	0.969230	0.058670	0.069180
O341	O34	0.955500	0.056070	0.954640
O351	O35	0.995400	0.953840	0.072080
O361	O36	0.991300	0.952120	0.952760
O371	O37	0.020600	0.798240	0.947130
O381	O38	0.867930	0.847750	0.999450
O391	O39	0.928430	0.740590	0.888550
O401	O40	0.782040	0.795010	0.934520
O411	O41	0.160350	0.877390	0.019770
O421	O42	0.040700	0.809880	0.087820
O431	O43	0.276400	0.836690	0.072150
O441	O44	0.161480	0.771200	0.138030
O451	O45	0.190100	0.309440	0.787870
O461	O46	0.181700	0.178830	0.795320
O471	O47	0.195200	0.300090	0.690410
O481	O48	0.186300	0.174700	0.697420
Cr31	Cr3	0.203860	0.232380	0.629930
Cr41	Cr4	0.953030	0.127760	0.011620
Mn31	Mn3	0.011280	0.871620	0.014680
Mn41	Mn4	0.187440	0.249810	0.865300
C251	C25	0.607700	0.326600	0.041530
C261	C26	0.525700	0.294000	0.072680
C271	C27	0.362800	0.295600	0.911500
C281	C28	0.288400	0.337600	0.940800
C291	C29	0.481200	0.495600	0.953880
C301	C30	0.474900	0.497100	0.021890
C311	C31	0.445900	0.718800	0.070760
C321	C32	0.357800	0.688300	0.041970
C331	C33	0.691800	0.656200	0.941320
C341	C34	0.624200	0.694600	0.903130
C351	C35	0.691400	0.222000	0.257900
C361	C36	0.685600	0.296200	0.253200
O491	O49	0.587470	0.362290	0.997700
O501	O50	0.447000	0.309420	0.052450
O511	O51	0.685700	0.316360	0.059520
O521	O52	0.541590	0.256800	0.113420
O531	O53	0.444700	0.305720	0.927820
O541	O54	0.318610	0.376000	0.978850
O551	O55	0.337520	0.254240	0.874830
O561	O56	0.206800	0.330970	0.926080
O571	O57	0.469230	0.441330	0.930820
O581	O58	0.455500	0.443930	0.045360
O591	O59	0.495400	0.546160	0.927920
O601	O60	0.491300	0.547880	0.047240
O611	O61	0.520600	0.701760	0.052870
O621	O62	0.367930	0.652250	0.000550
O631	O63	0.428430	0.759410	0.111450
O641	O64	0.282040	0.704990	0.065480
O651	O65	0.660350	0.622610	0.980230
O661	O66	0.540700	0.690120	0.912180
O671	O67	0.776400	0.663310	0.927850
O681	O68	0.661480	0.728800	0.861970
O691	O69	0.690100	0.190560	0.212130
O701	O70	0.681700	0.321170	0.204680
O711	O71	0.695200	0.199910	0.309590
O721	O72	0.686300	0.325300	0.302580
Cr51	Cr5	0.703860	0.267620	0.370070
Cr61	Cr6	0.453030	0.372240	0.988380
Mn51	Mn5	0.511280	0.628380	0.985320
Mn61	Mn6	0.687440	0.250190	0.134700
C371	C37	0.892300	0.673400	0.541530
C381	C38	0.974300	0.706000	0.572680
C391	C39	0.137200	0.704400	0.411500
C401	C40	0.211600	0.662400	0.440800
C411	C41	0.018800	0.504400	0.453880
C421	C42	0.025100	0.502900	0.521890
C431	C43	0.054100	0.281200	0.570760
C441	C44	0.142200	0.311700	0.541970
C451	C45	0.808200	0.343800	0.441320
C461	C46	0.875800	0.305400	0.403130
C471	C47	0.808600	0.778000	0.757900
C481	C48	0.814400	0.703800	0.753200
O731	O73	0.912530	0.637710	0.497700
O741	O74	0.053000	0.690580	0.552450
O751	O75	0.814300	0.683640	0.559520
O761	O76	0.958410	0.743200	0.613420
O771	O77	0.055300	0.694280	0.427820
O781	O78	0.181390	0.624000	0.478850
O791	O79	0.162480	0.745760	0.374830
O801	O80	0.293200	0.669030	0.426080
O811	O81	0.030770	0.558670	0.430820
O821	O82	0.044500	0.556070	0.545360
O831	O83	0.004600	0.453840	0.427920
O841	O84	0.008700	0.452120	0.547240
O851	O85	0.979400	0.298240	0.552870
O861	O86	0.132070	0.347750	0.500550
O871	O87	0.071570	0.240590	0.611450
O881	O88	0.217960	0.295010	0.565480
O891	O89	0.839650	0.377390	0.480230
O901	O90	0.959300	0.309880	0.412180
O911	O91	0.723600	0.336690	0.427850
O921	O92	0.838520	0.271200	0.361970
O931	O93	0.809900	0.809440	0.712130
O941	O94	0.818300	0.678830	0.704680
O951	O95	0.804800	0.800090	0.809590
O961	O96	0.813700	0.674700	0.802580
Cr71	Cr7	0.796140	0.732380	0.870070
Cr81	Cr8	0.046970	0.627760	0.488380
Mn71	Mn7	0.988720	0.371620	0.485320
Mn81	Mn8	0.812560	0.749810	0.634700
