data_BEXPAX_freeONLY_PM
_symmetry_space_group_name_H-M	'P1'
_cell_length_a	8.524000
_cell_length_b	17.213900
_cell_length_c	17.213900
_cell_angle_alpha	120.000000
_cell_angle_beta	90.000000
_cell_angle_gamma	90.000000
_symmetry_Int_Tables_number 1

loop_
_symmetry_equiv_pos_as_xyz
'x,y,z'

loop_
_atom_site_label
_atom_site_type_symbol
_atom_site_fract_x
_atom_site_fract_y
_atom_site_fract_z
Ni11	Ni1	0.666670	0.474660	0.474660
Ni21	Ni2	0.333330	0.000000	0.525340
Ni31	Ni3	0.000000	0.525340	0.000000
H11	H1	0.337200	0.234500	0.533600
H21	H2	0.547400	0.192500	0.306500
H31	H3	0.469300	0.043900	0.236000
H41	H4	0.962000	0.548300	0.585400
H51	H5	0.230000	0.511100	0.713500
H61	H6	0.102300	0.584700	0.734800
H71	H7	0.229700	0.564000	0.661200
H81	H8	0.143500	0.379700	0.649700
H91	H9	0.080100	0.337500	0.551300
H101	H10	0.962300	0.372300	0.631900
H111	H11	0.003870	0.299100	0.765500
H121	H12	0.214070	0.114000	0.807500
H131	H13	0.135970	0.192100	0.956100
H141	H14	0.628670	0.037100	0.451700
H151	H15	0.896670	0.202400	0.488900
H161	H16	0.768970	0.150100	0.415300
H171	H17	0.896370	0.097200	0.436000
H181	H18	0.810170	0.270000	0.620300
H191	H19	0.746770	0.213800	0.662500
H201	H20	0.628970	0.259600	0.627700
H211	H21	0.670530	0.466400	0.700900
H221	H22	0.880730	0.693500	0.886000
H231	H23	0.802630	0.764000	0.807900
H241	H24	0.295330	0.414600	0.962900
H251	H25	0.563330	0.286500	0.797600
H261	H26	0.435630	0.265200	0.849900
H271	H27	0.563030	0.338800	0.902800
H281	H28	0.476830	0.350300	0.730000
H291	H29	0.413430	0.448700	0.786200
H301	H30	0.295630	0.368100	0.740400
H311	H31	0.662800	0.700900	0.466400
H321	H32	0.452600	0.886000	0.693500
H331	H33	0.530700	0.807900	0.764000
H341	H34	0.038000	0.962900	0.414600
H351	H35	0.770000	0.797600	0.286500
H361	H36	0.897700	0.849900	0.265200
H371	H37	0.770300	0.902800	0.338800
H381	H38	0.856500	0.730000	0.350300
H391	H39	0.919900	0.786200	0.448700
H401	H40	0.037700	0.740400	0.368100
H411	H41	0.996130	0.533600	0.234500
H421	H42	0.785930	0.306500	0.192500
H431	H43	0.864030	0.236000	0.043900
H441	H44	0.371330	0.585400	0.548300
H451	H45	0.103330	0.713500	0.511100
H461	H46	0.231030	0.734800	0.584700
H471	H47	0.103630	0.661200	0.564000
H481	H48	0.189830	0.649700	0.379700
H491	H49	0.253230	0.551300	0.337500
H501	H50	0.371030	0.631900	0.372300
H511	H51	0.329470	0.765500	0.299100
H521	H52	0.119270	0.807500	0.114000
H531	H53	0.197370	0.956100	0.192100
H541	H54	0.704670	0.451700	0.037100
H551	H55	0.436670	0.488900	0.202400
H561	H56	0.564370	0.415300	0.150100
H571	H57	0.436970	0.436000	0.097200
H581	H58	0.523170	0.620300	0.270000
H591	H59	0.586570	0.662500	0.213800
H601	H60	0.704370	0.627700	0.259600
C11	C1	0.451500	0.228160	0.427340
C21	C2	0.363800	0.196080	0.473900
C31	C3	0.358300	0.047920	0.341920
C41	C4	0.490400	0.171100	0.337930
C51	C5	0.316400	0.107070	0.431400
C61	C6	0.443500	0.081900	0.296000
C71	C7	0.502300	0.324100	0.473580
C81	C8	0.961600	0.490000	0.575500
C91	C9	0.164900	0.538400	0.688300
C101	C10	0.062100	0.382500	0.612600
C111	C11	0.118170	0.199180	0.771840
C121	C12	0.030470	0.277820	0.803920
C131	C13	0.024970	0.294000	0.952080
C141	C14	0.157070	0.166830	0.828900
C151	C15	0.983070	0.324330	0.892930
C161	C16	0.110170	0.214100	0.918100
C171	C17	0.168970	0.149480	0.675900
C181	C18	0.628270	0.085500	0.510000
C191	C19	0.831570	0.149900	0.461600
C201	C20	0.728770	0.230100	0.617500
C211	C21	0.784830	0.572660	0.800820
C221	C22	0.697130	0.526100	0.722180
C231	C23	0.691630	0.658080	0.706000
C241	C24	0.823730	0.662070	0.833170
C251	C25	0.649730	0.568600	0.675670
C261	C26	0.776830	0.704000	0.785900
C271	C27	0.835630	0.526420	0.850520
C281	C28	0.294930	0.424500	0.914500
C291	C29	0.498230	0.311700	0.850100
C301	C30	0.395430	0.387400	0.769900
C311	C31	0.548500	0.800820	0.572660
C321	C32	0.636200	0.722180	0.526100
C331	C33	0.641700	0.706000	0.658080
C341	C34	0.509600	0.833170	0.662070
C351	C35	0.683600	0.675670	0.568600
C361	C36	0.556500	0.785900	0.704000
C371	C37	0.497700	0.850520	0.526420
C381	C38	0.038400	0.914500	0.424500
C391	C39	0.835100	0.850100	0.311700
C401	C40	0.937900	0.769900	0.387400
C411	C41	0.881830	0.427340	0.228160
C421	C42	0.969530	0.473900	0.196080
C431	C43	0.975030	0.341920	0.047920
C441	C44	0.842930	0.337930	0.171100
C451	C45	0.016930	0.431400	0.107070
C461	C46	0.889830	0.296000	0.081900
C471	C47	0.831030	0.473580	0.324100
C481	C48	0.371730	0.575500	0.490000
C491	C49	0.168430	0.688300	0.538400
C501	C50	0.271230	0.612600	0.382500
C511	C51	0.215170	0.771840	0.199180
C521	C52	0.302870	0.803920	0.277820
C531	C53	0.308370	0.952080	0.294000
C541	C54	0.176270	0.828900	0.166830
C551	C55	0.350270	0.892930	0.324330
C561	C56	0.223170	0.918100	0.214100
C571	C57	0.164370	0.675900	0.149480
C581	C58	0.705070	0.510000	0.085500
C591	C59	0.501770	0.461600	0.149900
C601	C60	0.604570	0.617500	0.230100
N11	N1	0.062600	0.470800	0.620550
N21	N2	0.729270	0.149750	0.529200
N31	N3	0.395930	0.379450	0.850250
N41	N4	0.937400	0.850250	0.379450
N51	N5	0.270730	0.620550	0.470800
N61	N6	0.604070	0.529200	0.149750
O11	O1	0.470700	0.372350	0.557320
O21	O2	0.229100	0.076680	0.477230
O31	O3	0.573500	0.351160	0.428650
O41	O4	0.863900	0.436320	0.520150
O51	O5	0.137370	0.184970	0.627650
O61	O6	0.895770	0.400550	0.923320
O71	O7	0.240170	0.077490	0.648840
O81	O8	0.530570	0.083830	0.563680
O91	O9	0.804030	0.442680	0.815030
O101	O10	0.562430	0.522770	0.599450
O111	O11	0.906830	0.571350	0.922510
O121	O12	0.197230	0.479850	0.916170
O131	O13	0.529300	0.815030	0.442680
O141	O14	0.770900	0.599450	0.522770
O151	O15	0.426500	0.922510	0.571350
O161	O16	0.136100	0.916170	0.479850
O171	O17	0.862630	0.557320	0.372350
O181	O18	0.104230	0.477230	0.076680
O191	O19	0.759830	0.428650	0.351160
O201	O20	0.469430	0.520150	0.436320
O211	O21	0.195970	0.627650	0.184970
O221	O22	0.437570	0.923320	0.400550
O231	O23	0.093170	0.648840	0.077490
O241	O24	0.802770	0.563680	0.083830
