data_BEXSEE_freeONLY_PM
_symmetry_space_group_name_H-M	'P1'
_cell_length_a	12.517500
_cell_length_b	17.860000
_cell_length_c	12.343500
_cell_angle_alpha	90.000000
_cell_angle_beta	112.601000
_cell_angle_gamma	90.000000
_symmetry_Int_Tables_number 1

loop_
_symmetry_equiv_pos_as_xyz
'x,y,z'

loop_
_atom_site_label
_atom_site_type_symbol
_atom_site_fract_x
_atom_site_fract_y
_atom_site_fract_z
O11	O1	0.162620	0.961620	0.507660
H11	H1	0.152300	0.978000	0.442000
H21	H2	0.191400	0.917900	0.520900
O21	O2	0.998220	0.077500	0.371950
O31	O3	0.141580	0.042590	0.315900
C11	C1	0.055500	0.083290	0.307900
C21	C2	0.016100	0.142140	0.212800
C31	C3	0.918400	0.185210	0.197300
H31	H3	0.878800	0.178700	0.248700
C41	C4	0.878200	0.237900	0.106800
C51	C5	0.938600	0.248590	0.033200
H41	H4	0.912200	0.284500	0.971900
C61	C6	0.037700	0.206400	0.050200
C71	C7	0.076000	0.153660	0.139700
H51	H5	0.143600	0.125200	0.151200
C81	C8	0.771600	0.282650	0.090700
O41	O4	0.733830	0.328230	0.004390
O51	O5	0.725820	0.271720	0.163840
C91	C9	0.100600	0.216370	0.969200
H61	H6	0.088800	0.267500	0.935800
H71	H7	0.184600	0.207700	0.011400
O61	O6	0.051100	0.161100	0.877730
C101	C10	0.101800	0.152740	0.798200
C111	C11	0.050600	0.099240	0.712100
H81	H8	0.984300	0.073500	0.712500
N11	N1	0.090350	0.082350	0.628860
C121	C12	0.184400	0.118840	0.629300
H91	H9	0.214100	0.106600	0.571300
C131	C13	0.239700	0.173800	0.711500
C141	C14	0.196600	0.192600	0.797300
H101	H10	0.230900	0.231200	0.852700
C151	C15	0.346700	0.212870	0.710800
O71	O7	0.397370	0.181940	0.652090
O81	O8	0.376130	0.272500	0.768810
Co11	Co1	0.562490	0.295530	0.157400
O91	O9	0.556510	0.390110	0.046870
H111	H11	0.611500	0.377200	0.020200
H121	H12	0.569100	0.437400	0.074300
O101	O10	0.578020	0.196320	0.257330
H131	H13	0.638100	0.200700	0.326800
H141	H14	0.511300	0.198500	0.269100
O111	O11	0.633270	0.357210	0.312700
H151	H15	0.698900	0.384300	0.334300
H161	H16	0.583500	0.379900	0.338700
O121	O12	0.484300	0.234100	0.003400
H171	H17	0.500000	0.185600	0.997200
H181	H18	0.456500	0.255500	0.932000
O131	O13	0.837380	0.461620	0.992340
H191	H19	0.847700	0.478000	0.058000
H201	H20	0.808600	0.417900	0.979100
O141	O14	0.001780	0.577500	0.128050
O151	O15	0.858420	0.542590	0.184100
C161	C16	0.944500	0.583290	0.192100
C171	C17	0.983900	0.642140	0.287200
C181	C18	0.081600	0.685210	0.302700
H211	H21	0.121200	0.678700	0.251300
C191	C19	0.121800	0.737900	0.393200
C201	C20	0.061400	0.748590	0.466800
H221	H22	0.087800	0.784500	0.528100
C211	C21	0.962300	0.706400	0.449800
C221	C22	0.924000	0.653660	0.360300
H231	H23	0.856400	0.625200	0.348800
C231	C23	0.228400	0.782650	0.409300
O161	O16	0.266170	0.828230	0.495610
O171	O17	0.274180	0.771720	0.336160
C241	C24	0.899400	0.716370	0.530800
H241	H24	0.911200	0.767500	0.564200
H251	H25	0.815400	0.707700	0.488600
O181	O18	0.948900	0.661100	0.622270
C251	C25	0.898200	0.652740	0.701800
C261	C26	0.949400	0.599240	0.787900
H261	H26	0.015700	0.573500	0.787500
N21	N2	0.909650	0.582350	0.871140
C271	C27	0.815600	0.618840	0.870700
H271	H27	0.785900	0.606600	0.928700
C281	C28	0.760300	0.673800	0.788500
C291	C29	0.803400	0.692600	0.702700
H281	H28	0.769100	0.731200	0.647300
C301	C30	0.653300	0.712870	0.789200
O191	O19	0.602630	0.681940	0.847910
O201	O20	0.623870	0.772500	0.731190
Co21	Co2	0.437510	0.795530	0.342600
O211	O21	0.443490	0.890110	0.453130
H291	H29	0.388500	0.877200	0.479800
H301	H30	0.430900	0.937400	0.425700
O221	O22	0.421980	0.696320	0.242670
H311	H31	0.361900	0.700700	0.173200
H321	H32	0.488700	0.698500	0.230900
O231	O23	0.366730	0.857210	0.187300
H331	H33	0.301100	0.884300	0.165700
H341	H34	0.416500	0.879900	0.161300
O241	O24	0.515700	0.734100	0.496600
H351	H35	0.500000	0.685600	0.502800
H361	H36	0.543500	0.755500	0.568000
O251	O25	0.837380	0.038380	0.492340
H371	H37	0.847700	0.022000	0.558000
H381	H38	0.808600	0.082100	0.479100
O261	O26	0.001780	0.922500	0.628050
O271	O27	0.858420	0.957410	0.684100
C311	C31	0.944500	0.916710	0.692100
C321	C32	0.983900	0.857860	0.787200
C331	C33	0.081600	0.814790	0.802700
H391	H39	0.121200	0.821300	0.751300
C341	C34	0.121800	0.762100	0.893200
C351	C35	0.061400	0.751410	0.966800
H401	H40	0.087800	0.715500	0.028100
C361	C36	0.962300	0.793600	0.949800
C371	C37	0.924000	0.846340	0.860300
H411	H41	0.856400	0.874800	0.848800
C381	C38	0.228400	0.717350	0.909300
O281	O28	0.266170	0.671770	0.995610
O291	O29	0.274180	0.728280	0.836160
C391	C39	0.899400	0.783630	0.030800
H421	H42	0.911200	0.732500	0.064200
H431	H43	0.815400	0.792300	0.988600
O301	O30	0.948900	0.838900	0.122270
C401	C40	0.898200	0.847260	0.201800
C411	C41	0.949400	0.900760	0.287900
H441	H44	0.015700	0.926500	0.287500
N31	N3	0.909650	0.917650	0.371140
C421	C42	0.815600	0.881160	0.370700
H451	H45	0.785900	0.893400	0.428700
C431	C43	0.760300	0.826200	0.288500
C441	C44	0.803400	0.807400	0.202700
H461	H46	0.769100	0.768800	0.147300
C451	C45	0.653300	0.787130	0.289200
O311	O31	0.602630	0.818060	0.347910
O321	O32	0.623870	0.727500	0.231190
Co31	Co3	0.437510	0.704470	0.842600
O331	O33	0.443490	0.609890	0.953130
H471	H47	0.388500	0.622800	0.979800
H481	H48	0.430900	0.562600	0.925700
O341	O34	0.421980	0.803680	0.742670
H491	H49	0.361900	0.799300	0.673200
H501	H50	0.488700	0.801500	0.730900
O351	O35	0.366730	0.642790	0.687300
H511	H51	0.301100	0.615700	0.665700
H521	H52	0.416500	0.620100	0.661300
O361	O36	0.515700	0.765900	0.996600
H531	H53	0.500000	0.814400	0.002800
H541	H54	0.543500	0.744500	0.068000
O371	O37	0.162620	0.538380	0.007660
H551	H55	0.152300	0.522000	0.942000
H561	H56	0.191400	0.582100	0.020900
O381	O38	0.998220	0.422500	0.871950
O391	O39	0.141580	0.457410	0.815900
C461	C46	0.055500	0.416710	0.807900
C471	C47	0.016100	0.357860	0.712800
C481	C48	0.918400	0.314790	0.697300
H571	H57	0.878800	0.321300	0.748700
C491	C49	0.878200	0.262100	0.606800
C501	C50	0.938600	0.251410	0.533200
H581	H58	0.912200	0.215500	0.471900
C511	C51	0.037700	0.293600	0.550200
C521	C52	0.076000	0.346340	0.639700
H591	H59	0.143600	0.374800	0.651200
C531	C53	0.771600	0.217350	0.590700
O401	O40	0.733830	0.171770	0.504390
O411	O41	0.725820	0.228280	0.663840
C541	C54	0.100600	0.283630	0.469200
H601	H60	0.088800	0.232500	0.435800
H611	H61	0.184600	0.292300	0.511400
O421	O42	0.051100	0.338900	0.377730
C551	C55	0.101800	0.347260	0.298200
C561	C56	0.050600	0.400760	0.212100
H621	H62	0.984300	0.426500	0.212500
N41	N4	0.090350	0.417650	0.128860
C571	C57	0.184400	0.381160	0.129300
H631	H63	0.214100	0.393400	0.071300
C581	C58	0.239700	0.326200	0.211500
C591	C59	0.196600	0.307400	0.297300
H641	H64	0.230900	0.268800	0.352700
C601	C60	0.346700	0.287130	0.210800
O431	O43	0.397370	0.318060	0.152090
O441	O44	0.376130	0.227500	0.268810
Co41	Co4	0.562490	0.204470	0.657400
O451	O45	0.556510	0.109890	0.546870
H651	H65	0.611500	0.122800	0.520200
H661	H66	0.569100	0.062600	0.574300
O461	O46	0.578020	0.303680	0.757330
H671	H67	0.638100	0.299300	0.826800
H681	H68	0.511300	0.301500	0.769100
O471	O47	0.633270	0.142790	0.812700
H691	H69	0.698900	0.115700	0.834300
H701	H70	0.583500	0.120100	0.838700
O481	O48	0.484300	0.265900	0.503400
H711	H71	0.500000	0.314400	0.497200
H721	H72	0.456500	0.244500	0.432000
Co51	Co5	0.000000	0.000000	0.500000
Co61	Co6	0.000000	0.500000	0.000000
