data_BEXVEH_freeONLY_PM
_symmetry_space_group_name_H-M	'P1'
_cell_length_a	18.742000
_cell_length_b	22.859500
_cell_length_c	29.669000
_cell_angle_alpha	104.858000
_cell_angle_beta	90.000000
_cell_angle_gamma	90.000000
_symmetry_Int_Tables_number 1

loop_
_symmetry_equiv_pos_as_xyz
'x,y,z'

loop_
_atom_site_label
_atom_site_type_symbol
_atom_site_fract_x
_atom_site_fract_y
_atom_site_fract_z
Cu11	Cu1	0.802460	0.221120	0.529790
Cu21	Cu2	0.733330	0.318130	0.515140
Cu31	Cu3	0.307490	0.302100	0.501160
Cu41	Cu4	0.240170	0.205950	0.514960
Cu51	Cu5	0.502630	0.492590	0.194730
Cu61	Cu6	0.500340	0.463900	0.275950
Cu71	Cu7	0.302460	0.278880	0.970210
Cu81	Cu8	0.233330	0.181870	0.984860
Cu91	Cu9	0.807490	0.197900	0.998840
Cu101	Cu10	0.740170	0.294050	0.985040
Cu111	Cu11	0.002630	0.007410	0.305270
Cu121	Cu12	0.000340	0.036100	0.224050
Cu131	Cu13	0.197540	0.778880	0.470210
Cu141	Cu14	0.266670	0.681870	0.484860
Cu151	Cu15	0.692510	0.697900	0.498840
Cu161	Cu16	0.759830	0.794050	0.485040
Cu171	Cu17	0.497370	0.507410	0.805270
Cu181	Cu18	0.499660	0.536100	0.724050
Cu191	Cu19	0.697540	0.721120	0.029790
Cu201	Cu20	0.766670	0.818130	0.015140
Cu211	Cu21	0.192510	0.802100	0.001160
Cu221	Cu22	0.259830	0.705950	0.014960
Cu231	Cu23	0.997370	0.992590	0.694730
Cu241	Cu24	0.999660	0.963900	0.775950
H11	H1	0.132500	0.890500	0.142800
H21	H2	0.136800	0.855600	0.270600
H31	H3	0.235600	0.743400	0.161100
H41	H4	0.292600	0.722100	0.218900
H51	H5	0.222000	0.681700	0.209700
H61	H6	0.219700	0.727800	0.322200
H71	H7	0.343700	0.594400	0.348200
H81	H8	0.334300	0.619100	0.217500
H91	H9	0.663700	0.369500	0.124400
H101	H10	0.798400	0.242900	0.147700
H111	H11	0.679200	0.342300	0.253700
H121	H12	0.706900	0.265000	0.282200
H131	H13	0.770700	0.312600	0.293700
H141	H14	0.846000	0.178000	0.258300
H151	H15	0.869100	0.147900	0.386400
H161	H16	0.742900	0.283600	0.368600
H171	H17	0.022400	0.275400	0.531500
H181	H18	0.132900	0.417400	0.508300
H191	H19	0.918200	0.424200	0.516000
H201	H20	0.057400	0.509400	0.528700
H211	H21	0.058700	0.480400	0.473700
H221	H22	0.632200	0.092800	0.511100
H231	H23	0.522100	0.241900	0.506300
H241	H24	0.417800	0.085000	0.499000
H251	H25	0.560500	0.998100	0.475100
H261	H26	0.553300	0.014900	0.530400
H271	H27	0.632500	0.609500	0.357200
H281	H28	0.636800	0.644400	0.229400
H291	H29	0.735600	0.756600	0.338900
H301	H30	0.792600	0.777900	0.281100
H311	H31	0.722000	0.818300	0.290300
H321	H32	0.719700	0.772200	0.177800
H331	H33	0.843700	0.905600	0.151800
H341	H34	0.834300	0.880900	0.282500
H351	H35	0.163700	0.130500	0.375600
H361	H36	0.298400	0.257100	0.352300
H371	H37	0.179200	0.157700	0.246300
H381	H38	0.206900	0.235000	0.217800
H391	H39	0.270700	0.187400	0.206300
H401	H40	0.346000	0.322000	0.241700
H411	H41	0.369100	0.352100	0.113600
H421	H42	0.242900	0.216400	0.131400
H431	H43	0.522400	0.224600	0.968500
H441	H44	0.632900	0.082600	0.991700
H451	H45	0.418200	0.075800	0.984000
H461	H46	0.557400	0.990600	0.971300
H471	H47	0.558700	0.019600	0.026300
H481	H48	0.132200	0.407200	0.988900
H491	H49	0.022100	0.258100	0.993700
H501	H50	0.917800	0.415000	0.001000
H511	H51	0.060500	0.501900	0.024900
H521	H52	0.053300	0.485100	0.969600
H531	H53	0.867500	0.109500	0.857200
H541	H54	0.863200	0.144400	0.729400
H551	H55	0.764400	0.256600	0.838900
H561	H56	0.707400	0.277900	0.781100
H571	H57	0.778000	0.318300	0.790300
H581	H58	0.780300	0.272200	0.677800
H591	H59	0.656300	0.405600	0.651800
H601	H60	0.665700	0.380900	0.782500
H611	H61	0.336300	0.630500	0.875600
H621	H62	0.201600	0.757100	0.852300
H631	H63	0.320800	0.657700	0.746300
H641	H64	0.293100	0.735000	0.717800
H651	H65	0.229300	0.687400	0.706300
H661	H66	0.154000	0.822000	0.741700
H671	H67	0.130900	0.852100	0.613600
H681	H68	0.257100	0.716400	0.631400
H691	H69	0.977600	0.724600	0.468500
H701	H70	0.867100	0.582600	0.491700
H711	H71	0.081800	0.575800	0.484000
H721	H72	0.942600	0.490600	0.471300
H731	H73	0.941300	0.519600	0.526300
H741	H74	0.367800	0.907200	0.488900
H751	H75	0.477900	0.758100	0.493700
H761	H76	0.582200	0.915000	0.501000
H771	H77	0.439500	0.001900	0.524900
H781	H78	0.446700	0.985100	0.469600
H791	H79	0.367500	0.390500	0.642800
H801	H80	0.363200	0.355600	0.770600
H811	H81	0.264400	0.243400	0.661100
H821	H82	0.207400	0.222100	0.718900
H831	H83	0.278000	0.181700	0.709700
H841	H84	0.280300	0.227800	0.822200
H851	H85	0.156300	0.094400	0.848200
H861	H86	0.165700	0.119100	0.717500
H871	H87	0.836300	0.869500	0.624400
H881	H88	0.701600	0.742900	0.647700
H891	H89	0.820800	0.842300	0.753700
H901	H90	0.793100	0.765000	0.782200
H911	H91	0.729300	0.812600	0.793700
H921	H92	0.654000	0.678000	0.758300
H931	H93	0.630900	0.647900	0.886400
H941	H94	0.757100	0.783600	0.868600
H951	H95	0.477600	0.775400	0.031500
H961	H96	0.367100	0.917400	0.008300
H971	H97	0.581800	0.924200	0.016000
H981	H98	0.442600	0.009400	0.028700
H991	H99	0.441300	0.980400	0.973700
H1001	H100	0.867800	0.592800	0.011100
H1011	H101	0.977900	0.741900	0.006300
H1021	H102	0.082200	0.585000	0.999000
H1031	H103	0.939500	0.498100	0.975100
H1041	H104	0.946700	0.514900	0.030400
C11	C1	0.201200	0.793490	0.093980
C21	C2	0.184700	0.813640	0.144380
C31	C3	0.146820	0.865740	0.162450
C41	C4	0.129340	0.882360	0.209690
C51	C5	0.083700	0.936130	0.230180
C61	C6	0.150000	0.845700	0.238580
C71	C7	0.190300	0.794550	0.219200
C81	C8	0.207700	0.778540	0.173330
C91	C9	0.250000	0.710140	0.234150
C101	C10	0.272700	0.679610	0.266560
C111	C11	0.252300	0.695390	0.311510
C121	C12	0.279300	0.663780	0.342360
C131	C13	0.260030	0.686460	0.393060
C141	C14	0.326200	0.615760	0.326890
C151	C15	0.347750	0.598760	0.280450
C161	C16	0.320800	0.630300	0.249430
C171	C17	0.402350	0.552270	0.263810
C181	C18	0.603330	0.406180	0.207850
C191	C19	0.661170	0.361130	0.190880
C201	C20	0.682510	0.347340	0.144780
C211	C21	0.730960	0.301520	0.128260
C221	C22	0.749740	0.283650	0.077720
C231	C23	0.763200	0.273030	0.158730
C241	C24	0.744000	0.288540	0.205620
C251	C25	0.692830	0.332140	0.221820
C261	C26	0.759300	0.269380	0.280160
C271	C27	0.791100	0.235780	0.308540
C281	C28	0.835100	0.188790	0.290670
C291	C29	0.864360	0.156270	0.319810
C301	C30	0.916000	0.105070	0.299360
C311	C31	0.848750	0.170450	0.366830
C321	C32	0.803310	0.217620	0.384630
C331	C33	0.774200	0.250810	0.355970
C341	C34	0.787220	0.236890	0.435770
C351	C35	0.889050	0.317750	0.527730
C361	C36	0.959150	0.346440	0.524390
C371	C37	0.023200	0.314340	0.525660
C381	C38	0.087820	0.340880	0.518210
C391	C39	0.155910	0.307580	0.516330
C401	C40	0.089100	0.397960	0.511620
C411	C41	0.023200	0.426960	0.510000
C421	C42	0.961300	0.402470	0.516640
C431	C43	0.029800	0.484300	0.502250
C441	C44	0.657030	0.208640	0.514570
C451	C45	0.588000	0.111830	0.508180
C461	C46	0.587190	0.172420	0.508890
C471	C47	0.523380	0.200230	0.505920
C481	C48	0.460680	0.167490	0.502400
C491	C49	0.390040	0.199160	0.502120
C501	C50	0.461100	0.107230	0.501250
C511	C51	0.527370	0.079170	0.503440
C521	C52	0.529000	0.017830	0.501380
C531	C53	0.701200	0.706510	0.406020
C541	C54	0.684700	0.686360	0.355620
C551	C55	0.646820	0.634260	0.337550
C561	C56	0.629340	0.617640	0.290310
C571	C57	0.583700	0.563870	0.269820
C581	C58	0.650000	0.654300	0.261420
C591	C59	0.690300	0.705450	0.280800
C601	C60	0.707700	0.721460	0.326670
C611	C61	0.750000	0.789860	0.265850
C621	C62	0.772700	0.820390	0.233440
C631	C63	0.752300	0.804610	0.188490
C641	C64	0.779300	0.836220	0.157640
C651	C65	0.760030	0.813540	0.106940
C661	C66	0.826200	0.884240	0.173110
C671	C67	0.847750	0.901240	0.219550
C681	C68	0.820800	0.869700	0.250570
C691	C69	0.902350	0.947730	0.236190
C701	C70	0.103330	0.093820	0.292150
C711	C71	0.161170	0.138870	0.309120
C721	C72	0.182510	0.152660	0.355220
C731	C73	0.230960	0.198480	0.371740
C741	C74	0.249740	0.216350	0.422280
C751	C75	0.263200	0.226970	0.341270
C761	C76	0.244000	0.211460	0.294380
C771	C77	0.192830	0.167860	0.278180
C781	C78	0.259300	0.230620	0.219840
C791	C79	0.291100	0.264220	0.191460
C801	C80	0.335100	0.311210	0.209330
C811	C81	0.364360	0.343730	0.180190
C821	C82	0.416000	0.394930	0.200640
C831	C83	0.348750	0.329550	0.133170
C841	C84	0.303310	0.282380	0.115370
C851	C85	0.274200	0.249190	0.144030
C861	C86	0.287220	0.263110	0.064230
C871	C87	0.389050	0.182250	0.972270
C881	C88	0.459150	0.153560	0.975610
C891	C89	0.523200	0.185660	0.974340
C901	C90	0.587820	0.159120	0.981790
C911	C91	0.655910	0.192420	0.983670
C921	C92	0.589100	0.102040	0.988380
C931	C93	0.523200	0.073040	0.990000
C941	C94	0.461300	0.097530	0.983360
C951	C95	0.529800	0.015700	0.997750
C961	C96	0.157030	0.291360	0.985430
C971	C97	0.088000	0.388170	0.991820
C981	C98	0.087190	0.327580	0.991110
C991	C99	0.023380	0.299770	0.994080
C1001	C100	0.960680	0.332510	0.997600
C1011	C101	0.890040	0.300840	0.997880
C1021	C102	0.961100	0.392770	0.998750
C1031	C103	0.027370	0.420830	0.996560
C1041	C104	0.029000	0.482170	0.998620
C1051	C105	0.798800	0.206510	0.906020
C1061	C106	0.815300	0.186360	0.855620
C1071	C107	0.853180	0.134260	0.837550
C1081	C108	0.870660	0.117640	0.790310
C1091	C109	0.916300	0.063870	0.769820
C1101	C110	0.850000	0.154300	0.761420
C1111	C111	0.809700	0.205450	0.780800
C1121	C112	0.792300	0.221460	0.826670
C1131	C113	0.750000	0.289860	0.765850
C1141	C114	0.727300	0.320390	0.733440
C1151	C115	0.747700	0.304610	0.688490
C1161	C116	0.720700	0.336220	0.657640
C1171	C117	0.739970	0.313540	0.606940
C1181	C118	0.673800	0.384240	0.673110
C1191	C119	0.652250	0.401240	0.719550
C1201	C120	0.679200	0.369700	0.750570
C1211	C121	0.597650	0.447730	0.736190
C1221	C122	0.396670	0.593820	0.792150
C1231	C123	0.338830	0.638870	0.809120
C1241	C124	0.317490	0.652660	0.855220
C1251	C125	0.269040	0.698480	0.871740
C1261	C126	0.250260	0.716350	0.922280
C1271	C127	0.236800	0.726970	0.841270
C1281	C128	0.256000	0.711460	0.794380
C1291	C129	0.307170	0.667860	0.778180
C1301	C130	0.240700	0.730620	0.719840
C1311	C131	0.208900	0.764220	0.691460
C1321	C132	0.164900	0.811210	0.709330
C1331	C133	0.135640	0.843730	0.680190
C1341	C134	0.084000	0.894930	0.700640
C1351	C135	0.151250	0.829550	0.633170
C1361	C136	0.196690	0.782380	0.615370
C1371	C137	0.225800	0.749190	0.644030
C1381	C138	0.212780	0.763110	0.564230
C1391	C139	0.110950	0.682250	0.472270
C1401	C140	0.040850	0.653560	0.475610
C1411	C141	0.976800	0.685660	0.474340
C1421	C142	0.912180	0.659120	0.481790
C1431	C143	0.844090	0.692420	0.483670
C1441	C144	0.910900	0.602040	0.488380
C1451	C145	0.976800	0.573040	0.490000
C1461	C146	0.038700	0.597530	0.483360
C1471	C147	0.970200	0.515700	0.497750
C1481	C148	0.342970	0.791360	0.485430
C1491	C149	0.412000	0.888170	0.491820
C1501	C150	0.412810	0.827580	0.491110
C1511	C151	0.476620	0.799770	0.494080
C1521	C152	0.539320	0.832510	0.497600
C1531	C153	0.609960	0.800840	0.497880
C1541	C154	0.538900	0.892770	0.498750
C1551	C155	0.472630	0.920830	0.496560
C1561	C156	0.471000	0.982170	0.498620
C1571	C157	0.298800	0.293490	0.593980
C1581	C158	0.315300	0.313640	0.644380
C1591	C159	0.353180	0.365740	0.662450
C1601	C160	0.370660	0.382360	0.709690
C1611	C161	0.416300	0.436130	0.730180
C1621	C162	0.350000	0.345700	0.738580
C1631	C163	0.309700	0.294550	0.719200
C1641	C164	0.292300	0.278540	0.673330
C1651	C165	0.250000	0.210140	0.734150
C1661	C166	0.227300	0.179610	0.766560
C1671	C167	0.247700	0.195390	0.811510
C1681	C168	0.220700	0.163780	0.842360
C1691	C169	0.239970	0.186460	0.893060
C1701	C170	0.173800	0.115760	0.826890
C1711	C171	0.152250	0.098760	0.780450
C1721	C172	0.179200	0.130300	0.749430
C1731	C173	0.097650	0.052270	0.763810
C1741	C174	0.896670	0.906180	0.707850
C1751	C175	0.838830	0.861130	0.690880
C1761	C176	0.817490	0.847340	0.644780
C1771	C177	0.769040	0.801520	0.628260
C1781	C178	0.750260	0.783650	0.577720
C1791	C179	0.736800	0.773030	0.658730
C1801	C180	0.756000	0.788540	0.705620
C1811	C181	0.807170	0.832140	0.721820
C1821	C182	0.740700	0.769380	0.780160
C1831	C183	0.708900	0.735780	0.808540
C1841	C184	0.664900	0.688790	0.790670
C1851	C185	0.635640	0.656270	0.819810
C1861	C186	0.584000	0.605070	0.799360
C1871	C187	0.651250	0.670450	0.866830
C1881	C188	0.696690	0.717620	0.884630
C1891	C189	0.725800	0.750810	0.855970
C1901	C190	0.712780	0.736890	0.935770
C1911	C191	0.610950	0.817750	0.027730
C1921	C192	0.540850	0.846440	0.024390
C1931	C193	0.476800	0.814340	0.025660
C1941	C194	0.412180	0.840880	0.018210
C1951	C195	0.344090	0.807580	0.016330
C1961	C196	0.410900	0.897960	0.011620
C1971	C197	0.476800	0.926960	0.010000
C1981	C198	0.538700	0.902470	0.016640
C1991	C199	0.470200	0.984300	0.002250
C2001	C200	0.842970	0.708640	0.014570
C2011	C201	0.912000	0.611830	0.008180
C2021	C202	0.912810	0.672420	0.008890
C2031	C203	0.976620	0.700230	0.005920
C2041	C204	0.039320	0.667490	0.002400
C2051	C205	0.109960	0.699160	0.002120
C2061	C206	0.038900	0.607230	0.001250
C2071	C207	0.972630	0.579170	0.003440
C2081	C208	0.971000	0.517830	0.001380
O11	O1	0.232460	0.742950	0.079790
O21	O2	0.183050	0.828630	0.068520
O31	O3	0.066570	0.968460	0.203000
O41	O4	0.066730	0.944530	0.271950
O51	O5	0.209700	0.760360	0.251520
O61	O6	0.280510	0.652520	0.419060
O71	O7	0.226810	0.734630	0.405580
O81	O8	0.422490	0.522310	0.292200
O91	O9	0.423750	0.544360	0.222880
O101	O10	0.580650	0.411640	0.248260
O111	O11	0.582100	0.435890	0.179840
O121	O12	0.723590	0.314070	0.052660
O131	O13	0.790360	0.237800	0.064750
O141	O14	0.777400	0.255510	0.234280
O151	O15	0.932400	0.097170	0.257520
O161	O16	0.936790	0.074400	0.326460
O171	O17	0.749630	0.282640	0.450040
O181	O18	0.814010	0.204280	0.460430
O191	O19	0.835590	0.346710	0.521420
O201	O20	0.889670	0.265810	0.536470
O211	O21	0.153770	0.255470	0.523500
O221	O22	0.210280	0.333170	0.505360
O231	O23	0.711560	0.180860	0.519970
O241	O24	0.650720	0.262810	0.512660
O251	O25	0.392840	0.253460	0.499780
O261	O26	0.335030	0.168990	0.504140
O271	O27	0.357700	0.383730	0.485790
O281	O28	0.192110	0.124700	0.529580
O291	O29	0.852460	0.142550	0.544510
O301	O30	0.681330	0.396210	0.500540
O311	O31	0.500140	0.432300	0.339550
O321	O32	0.503770	0.524300	0.130470
O331	O33	0.732460	0.757050	0.420210
O341	O34	0.683050	0.671370	0.431480
O351	O35	0.566570	0.531540	0.297000
O361	O36	0.566730	0.555470	0.228050
O371	O37	0.709700	0.739640	0.248480
O381	O38	0.780510	0.847480	0.080940
O391	O39	0.726810	0.765370	0.094420
O401	O40	0.922490	0.977690	0.207800
O411	O41	0.923750	0.955640	0.277120
O421	O42	0.080650	0.088360	0.251740
O431	O43	0.082100	0.064110	0.320160
O441	O44	0.223590	0.185930	0.447340
O451	O45	0.290360	0.262200	0.435250
O461	O46	0.277400	0.244490	0.265720
O471	O47	0.432400	0.402830	0.242480
O481	O48	0.436790	0.425600	0.173540
O491	O49	0.249630	0.217360	0.049960
O501	O50	0.314010	0.295720	0.039570
O511	O51	0.335590	0.153290	0.978580
O521	O52	0.389670	0.234190	0.963530
O531	O53	0.653770	0.244530	0.976500
O541	O54	0.710280	0.166830	0.994640
O551	O55	0.211560	0.319140	0.980030
O561	O56	0.150720	0.237190	0.987340
O571	O57	0.892840	0.246540	0.000220
O581	O58	0.835030	0.331010	0.995860
O591	O59	0.857700	0.116270	0.014210
O601	O60	0.692110	0.375300	0.970420
O611	O61	0.352460	0.357450	0.955490
O621	O62	0.181330	0.103790	0.999460
O631	O63	0.000140	0.067700	0.160450
O641	O64	0.003770	0.975700	0.369530
O651	O65	0.767540	0.257050	0.920210
O661	O66	0.816950	0.171370	0.931480
O671	O67	0.933430	0.031540	0.797000
O681	O68	0.933270	0.055470	0.728050
O691	O69	0.790300	0.239640	0.748480
O701	O70	0.719490	0.347480	0.580940
O711	O71	0.773190	0.265370	0.594420
O721	O72	0.577510	0.477690	0.707800
O731	O73	0.576250	0.455640	0.777120
O741	O74	0.419350	0.588360	0.751740
O751	O75	0.417900	0.564110	0.820160
O761	O76	0.276410	0.685930	0.947340
O771	O77	0.209640	0.762200	0.935250
O781	O78	0.222600	0.744490	0.765720
O791	O79	0.067600	0.902830	0.742480
O801	O80	0.063210	0.925600	0.673540
O811	O81	0.250370	0.717360	0.549960
O821	O82	0.185990	0.795720	0.539570
O831	O83	0.164410	0.653290	0.478580
O841	O84	0.110330	0.734190	0.463530
O851	O85	0.846230	0.744530	0.476500
O861	O86	0.789720	0.666830	0.494640
O871	O87	0.288440	0.819140	0.480030
O881	O88	0.349280	0.737190	0.487340
O891	O89	0.607160	0.746540	0.500220
O901	O90	0.664970	0.831010	0.495860
O911	O91	0.642300	0.616270	0.514210
O921	O92	0.807890	0.875300	0.470420
O931	O93	0.147540	0.857450	0.455490
O941	O94	0.318670	0.603790	0.499460
O951	O95	0.499860	0.567700	0.660450
O961	O96	0.496230	0.475700	0.869530
O971	O97	0.267540	0.242950	0.579790
O981	O98	0.316950	0.328630	0.568520
O991	O99	0.433430	0.468460	0.703000
O1001	O100	0.433270	0.444530	0.771950
O1011	O101	0.290300	0.260360	0.751520
O1021	O102	0.219490	0.152520	0.919060
O1031	O103	0.273190	0.234630	0.905580
O1041	O104	0.077510	0.022310	0.792200
O1051	O105	0.076250	0.044360	0.722880
O1061	O106	0.919350	0.911640	0.748260
O1071	O107	0.917900	0.935890	0.679840
O1081	O108	0.776410	0.814070	0.552660
O1091	O109	0.709640	0.737800	0.564750
O1101	O110	0.722600	0.755510	0.734280
O1111	O111	0.567600	0.597170	0.757520
O1121	O112	0.563210	0.574400	0.826460
O1131	O113	0.750370	0.782640	0.950040
O1141	O114	0.685990	0.704280	0.960430
O1151	O115	0.664410	0.846710	0.021420
O1161	O116	0.610330	0.765810	0.036470
O1171	O117	0.346230	0.755470	0.023500
O1181	O118	0.289720	0.833170	0.005360
O1191	O119	0.788440	0.680860	0.019970
O1201	O120	0.849280	0.762810	0.012660
O1211	O121	0.107160	0.753460	0.999780
O1221	O122	0.164970	0.668990	0.004140
O1231	O123	0.142300	0.883730	0.985790
O1241	O124	0.307890	0.624700	0.029580
O1251	O125	0.647540	0.642550	0.044510
O1261	O126	0.818670	0.896210	0.000540
O1271	O127	0.999860	0.932300	0.839550
O1281	O128	0.996230	0.024300	0.630470
