data_BIBBUL_freeONLY_PM
_symmetry_space_group_name_H-M	'P1'
_cell_length_a	8.707600
_cell_length_b	15.686000
_cell_length_c	19.368000
_cell_angle_alpha	90.000000
_cell_angle_beta	90.000000
_cell_angle_gamma	90.000000
_symmetry_Int_Tables_number 1

loop_
_symmetry_equiv_pos_as_xyz
'x,y,z'

loop_
_atom_site_label
_atom_site_type_symbol
_atom_site_fract_x
_atom_site_fract_y
_atom_site_fract_z
Zn11	Zn1	0.442950	0.037770	0.742390
Zn21	Zn2	0.057050	0.962230	0.242390
Zn31	Zn3	0.557050	0.537770	0.757610
Zn41	Zn4	0.942950	0.462230	0.257610
H11	H1	0.071500	0.150900	0.861400
H21	H2	0.941600	0.238400	0.936500
H31	H3	0.018900	0.241900	0.051700
H41	H4	0.524700	0.946000	0.155100
H51	H5	0.749100	0.968900	0.094900
H61	H6	0.745500	0.046300	0.995300
H71	H7	0.516700	0.159700	0.611500
H81	H8	0.660700	0.291500	0.620500
H91	H9	0.721100	0.219400	0.850500
H101	H10	0.602700	0.144100	0.849700
H111	H11	0.774100	0.127800	0.828800
H121	H12	0.786500	0.376400	0.720200
H131	H13	0.759000	0.341200	0.795000
H141	H14	0.977100	0.253600	0.784800
H151	H15	0.021900	0.349600	0.776200
H161	H16	0.981600	0.238500	0.666000
H171	H17	0.033900	0.333500	0.659300
H181	H18	0.245700	0.250700	0.645300
H191	H19	0.211100	0.199800	0.713200
H201	H20	0.324300	0.260700	0.827500
H211	H21	0.474300	0.388500	0.857700
H221	H22	0.415100	0.461500	0.624700
H231	H23	0.336000	0.375200	0.604700
H241	H24	0.237500	0.450500	0.634300
H251	H25	0.428500	0.849100	0.361400
H261	H26	0.558400	0.761600	0.436500
H271	H27	0.481100	0.758100	0.551700
H281	H28	0.975300	0.054000	0.655100
H291	H29	0.750900	0.031100	0.594900
H301	H30	0.754500	0.953700	0.495300
H311	H31	0.983300	0.840300	0.111500
H321	H32	0.839300	0.708500	0.120500
H331	H33	0.778900	0.780600	0.350500
H341	H34	0.897300	0.855900	0.349700
H351	H35	0.725900	0.872200	0.328800
H361	H36	0.713500	0.623600	0.220200
H371	H37	0.741000	0.658800	0.295000
H381	H38	0.522900	0.746400	0.284800
H391	H39	0.478100	0.650400	0.276200
H401	H40	0.518400	0.761500	0.166000
H411	H41	0.466100	0.666500	0.159300
H421	H42	0.254300	0.749300	0.145300
H431	H43	0.288900	0.800200	0.213200
H441	H44	0.175700	0.739300	0.327500
H451	H45	0.025700	0.611500	0.357700
H461	H46	0.084900	0.538500	0.124700
H471	H47	0.164000	0.624800	0.104700
H481	H48	0.262500	0.549500	0.134300
H491	H49	0.928500	0.650900	0.638600
H501	H50	0.058400	0.738400	0.563500
H511	H51	0.981100	0.741900	0.448300
H521	H52	0.475300	0.446000	0.344900
H531	H53	0.250900	0.468900	0.405100
H541	H54	0.254500	0.546300	0.504700
H551	H55	0.483300	0.659700	0.888500
H561	H56	0.339300	0.791500	0.879500
H571	H57	0.278900	0.719400	0.649500
H581	H58	0.397300	0.644100	0.650300
H591	H59	0.225900	0.627800	0.671200
H601	H60	0.213500	0.876400	0.779800
H611	H61	0.241000	0.841200	0.705000
H621	H62	0.022900	0.753600	0.715200
H631	H63	0.978100	0.849600	0.723800
H641	H64	0.018400	0.738500	0.834000
H651	H65	0.966100	0.833500	0.840700
H661	H66	0.754300	0.750700	0.854700
H671	H67	0.788900	0.699800	0.786800
H681	H68	0.675700	0.760700	0.672500
H691	H69	0.525700	0.888500	0.642300
H701	H70	0.584900	0.961500	0.875300
H711	H71	0.664000	0.875200	0.895300
H721	H72	0.762500	0.950500	0.865700
H731	H73	0.571500	0.349100	0.138600
H741	H74	0.441600	0.261600	0.063500
H751	H75	0.518900	0.258100	0.948300
H761	H76	0.024700	0.554000	0.844900
H771	H77	0.249100	0.531100	0.905100
H781	H78	0.245500	0.453700	0.004700
H791	H79	0.016700	0.340300	0.388500
H801	H80	0.160700	0.208500	0.379500
H811	H81	0.221100	0.280600	0.149500
H821	H82	0.102700	0.355900	0.150300
H831	H83	0.274100	0.372200	0.171200
H841	H84	0.286500	0.123600	0.279800
H851	H85	0.259000	0.158800	0.205000
H861	H86	0.477100	0.246400	0.215200
H871	H87	0.521900	0.150400	0.223800
H881	H88	0.481600	0.261500	0.334000
H891	H89	0.533900	0.166500	0.340700
H901	H90	0.745700	0.249300	0.354700
H911	H91	0.711100	0.300200	0.286800
H921	H92	0.824300	0.239300	0.172500
H931	H93	0.974300	0.111500	0.142300
H941	H94	0.915100	0.038500	0.375300
H951	H95	0.836000	0.124800	0.395300
H961	H96	0.737500	0.049500	0.365700
C11	C1	0.297600	0.044300	0.879300
C21	C2	0.218800	0.102300	0.931000
C31	C3	0.099600	0.152700	0.907700
C41	C4	0.022900	0.204800	0.951700
C51	C5	0.070500	0.206300	0.021100
C61	C6	0.258500	0.106000	0.000800
C71	C7	0.392900	0.058400	0.028400
C81	C8	0.386100	0.011500	0.089300
C91	C9	0.523700	0.977600	0.114500
C101	C10	0.656900	0.991200	0.078700
C111	C11	0.654000	0.037600	0.019100
C121	C12	0.237700	0.990600	0.125900
C131	C13	0.566300	0.179400	0.651000
C141	C14	0.646200	0.251800	0.655500
C151	C15	0.654200	0.187200	0.756000
C161	C16	0.691100	0.168000	0.827300
C171	C17	0.797000	0.326500	0.749400
C181	C18	0.967200	0.302700	0.754700
C191	C19	0.040200	0.283200	0.688400
C201	C20	0.205500	0.255600	0.691900
C211	C21	0.346500	0.306500	0.798700
C221	C22	0.429400	0.377400	0.815100
C231	C23	0.360000	0.390400	0.706100
C241	C24	0.335000	0.422100	0.636600
C251	C25	0.202400	0.955700	0.379300
C261	C26	0.281200	0.897700	0.431000
C271	C27	0.400400	0.847300	0.407700
C281	C28	0.477100	0.795200	0.451700
C291	C29	0.429500	0.793700	0.521100
C301	C30	0.241500	0.894000	0.500800
C311	C31	0.107100	0.941600	0.528400
C321	C32	0.113900	0.988500	0.589300
C331	C33	0.976300	0.022400	0.614500
C341	C34	0.843100	0.008800	0.578700
C351	C35	0.846000	0.962400	0.519100
C361	C36	0.262300	0.009400	0.625900
C371	C37	0.933700	0.820600	0.151000
C381	C38	0.853800	0.748200	0.155500
C391	C39	0.845800	0.812800	0.256000
C401	C40	0.808900	0.832000	0.327300
C411	C41	0.703000	0.673500	0.249400
C421	C42	0.532800	0.697300	0.254700
C431	C43	0.459800	0.716800	0.188400
C441	C44	0.294500	0.744400	0.191900
C451	C45	0.153500	0.693500	0.298700
C461	C46	0.070600	0.622600	0.315100
C471	C47	0.140000	0.609600	0.206100
C481	C48	0.165000	0.577900	0.136600
C491	C49	0.702400	0.544300	0.620700
C501	C50	0.781200	0.602300	0.569000
C511	C51	0.900400	0.652700	0.592300
C521	C52	0.977100	0.704800	0.548300
C531	C53	0.929500	0.706300	0.478900
C541	C54	0.741500	0.606000	0.499200
C551	C55	0.607100	0.558400	0.471600
C561	C56	0.613900	0.511500	0.410700
C571	C57	0.476300	0.477600	0.385500
C581	C58	0.343100	0.491200	0.421300
C591	C59	0.346000	0.537600	0.480900
C601	C60	0.762300	0.490600	0.374100
C611	C61	0.433700	0.679400	0.849000
C621	C62	0.353800	0.751800	0.844500
C631	C63	0.345800	0.687200	0.744000
C641	C64	0.308900	0.668000	0.672700
C651	C65	0.203000	0.826500	0.750600
C661	C66	0.032800	0.802700	0.745300
C671	C67	0.959800	0.783200	0.811600
C681	C68	0.794500	0.755600	0.808100
C691	C69	0.653500	0.806500	0.701300
C701	C70	0.570600	0.877400	0.684900
C711	C71	0.640000	0.890400	0.793900
C721	C72	0.665000	0.922100	0.863400
C731	C73	0.797600	0.455700	0.120700
C741	C74	0.718800	0.397700	0.069000
C751	C75	0.599600	0.347300	0.092300
C761	C76	0.522900	0.295200	0.048300
C771	C77	0.570500	0.293700	0.978900
C781	C78	0.758500	0.394000	0.999200
C791	C79	0.892900	0.441600	0.971600
C801	C80	0.886100	0.488500	0.910700
C811	C81	0.023700	0.522400	0.885500
C821	C82	0.156900	0.508800	0.921300
C831	C83	0.154000	0.462400	0.980900
C841	C84	0.737700	0.509400	0.874100
C851	C85	0.066300	0.320600	0.349000
C861	C86	0.146200	0.248200	0.344500
C871	C87	0.154200	0.312800	0.244000
C881	C88	0.191100	0.332000	0.172700
C891	C89	0.297000	0.173500	0.250600
C901	C90	0.467200	0.197300	0.245300
C911	C91	0.540200	0.216800	0.311600
C921	C92	0.705500	0.244400	0.308100
C931	C93	0.846500	0.193500	0.201300
C941	C94	0.929400	0.122600	0.184900
C951	C95	0.860000	0.109600	0.293900
C961	C96	0.835000	0.077900	0.363400
N11	N1	0.568700	0.138900	0.713100
N21	N2	0.702700	0.256900	0.720900
N31	N3	0.435800	0.430200	0.757800
N41	N4	0.302600	0.316000	0.731600
N51	N5	0.525300	0.071000	0.993700
N61	N6	0.187300	0.158500	0.045200
N71	N7	0.931300	0.861100	0.213100
N81	N8	0.797300	0.743100	0.220900
N91	N9	0.064200	0.569800	0.257800
N101	N10	0.197400	0.684000	0.231600
N111	N11	0.974700	0.929000	0.493700
N121	N12	0.312700	0.841500	0.545200
N131	N13	0.431300	0.638900	0.786900
N141	N14	0.297300	0.756900	0.779100
N151	N15	0.564200	0.930200	0.742200
N161	N16	0.697400	0.816000	0.768400
N171	N17	0.474700	0.571000	0.506300
N181	N18	0.812700	0.658500	0.454800
N191	N19	0.068700	0.361100	0.286900
N201	N20	0.202700	0.243100	0.279100
N211	N21	0.935800	0.069800	0.242200
N221	N22	0.802600	0.184000	0.268400
N231	N23	0.025300	0.429000	0.006300
N241	N24	0.687300	0.341500	0.954800
O11	O1	0.292700	0.965900	0.885800
O21	O2	0.355400	0.083100	0.828800
O31	O3	0.117100	0.983300	0.094500
O41	O4	0.249700	0.979900	0.191100
O51	O5	0.207300	0.034100	0.385800
O61	O6	0.144600	0.916900	0.328800
O71	O7	0.382900	0.016700	0.594500
O81	O8	0.250300	0.020100	0.691100
O91	O9	0.707300	0.465900	0.614200
O101	O10	0.644600	0.583100	0.671200
O111	O11	0.882900	0.483300	0.405500
O121	O12	0.750300	0.479900	0.308900
O131	O13	0.792700	0.534100	0.114200
O141	O14	0.855400	0.416900	0.171200
O151	O15	0.617100	0.516700	0.905500
O161	O16	0.749700	0.520100	0.808900
