data_BIBXUH_freeONLY_PM
_symmetry_space_group_name_H-M	'P1'
_cell_length_a	17.946500
_cell_length_b	17.946500
_cell_length_c	17.946500
_cell_angle_alpha	60.000000
_cell_angle_beta	60.000000
_cell_angle_gamma	60.000000
_symmetry_Int_Tables_number 1

loop_
_symmetry_equiv_pos_as_xyz
'x,y,z'

loop_
_atom_site_label
_atom_site_type_symbol
_atom_site_fract_x
_atom_site_fract_y
_atom_site_fract_z
Ni11	Ni1	0.828730	0.057090	0.057090
Ni21	Ni2	0.057090	0.828730	0.057090
Ni31	Ni3	0.057090	0.057090	0.828730
Ni41	Ni4	0.057090	0.057090	0.057090
Ni51	Ni5	0.942910	0.171270	0.942910
Ni61	Ni6	0.171270	0.942910	0.942910
Ni71	Ni7	0.942910	0.942910	0.171270
Ni81	Ni8	0.942910	0.942910	0.942910
H11	H1	0.875640	0.124360	0.124360
H21	H2	0.124360	0.875640	0.875640
H31	H3	0.875640	0.124360	0.875640
H41	H4	0.124360	0.875640	0.124360
H51	H5	0.875640	0.875640	0.124360
H61	H6	0.124360	0.124360	0.875640
H71	H7	0.514650	0.645050	0.920150
H81	H8	0.392510	0.765390	0.921050
H91	H9	0.645050	0.514650	0.920150
H101	H10	0.765390	0.392510	0.921050
H111	H11	0.920150	0.920150	0.514650
H121	H12	0.921050	0.921050	0.392510
H131	H13	0.920150	0.920150	0.645050
H141	H14	0.921050	0.921050	0.765390
H151	H15	0.514650	0.920150	0.920150
H161	H16	0.392510	0.921050	0.921050
H171	H17	0.645050	0.920150	0.920150
H181	H18	0.765390	0.921050	0.921050
H191	H19	0.920150	0.514650	0.645050
H201	H20	0.921050	0.392510	0.765390
H211	H21	0.920150	0.645050	0.514650
H221	H22	0.921050	0.765390	0.392510
H231	H23	0.514650	0.920150	0.645050
H241	H24	0.392510	0.921050	0.765390
H251	H25	0.645050	0.920150	0.514650
H261	H26	0.765390	0.921050	0.392510
H271	H27	0.920150	0.645050	0.920150
H281	H28	0.921050	0.765390	0.921050
H291	H29	0.920150	0.514650	0.920150
H301	H30	0.921050	0.392510	0.921050
H311	H31	0.354950	0.485350	0.079850
H321	H32	0.234610	0.607490	0.078950
H331	H33	0.485350	0.354950	0.079850
H341	H34	0.607490	0.234610	0.078950
H351	H35	0.079850	0.079850	0.485350
H361	H36	0.078950	0.078950	0.607490
H371	H37	0.079850	0.079850	0.354950
H381	H38	0.078950	0.078950	0.234610
H391	H39	0.079850	0.485350	0.079850
H401	H40	0.078950	0.607490	0.078950
H411	H41	0.079850	0.354950	0.079850
H421	H42	0.078950	0.234610	0.078950
H431	H43	0.485350	0.079850	0.354950
H441	H44	0.607490	0.078950	0.234610
H451	H45	0.354950	0.079850	0.485350
H461	H46	0.234610	0.078950	0.607490
H471	H47	0.079850	0.485350	0.354950
H481	H48	0.078950	0.607490	0.234610
H491	H49	0.079850	0.354950	0.485350
H501	H50	0.078950	0.234610	0.607490
H511	H51	0.354950	0.079850	0.079850
H521	H52	0.234610	0.078950	0.078950
H531	H53	0.485350	0.079850	0.079850
H541	H54	0.607490	0.078950	0.078950
C11	C1	0.422540	0.577460	0.000000
C21	C2	0.341760	0.658240	0.000000
C31	C3	0.577460	0.422540	0.000000
C41	C4	0.658240	0.341760	0.000000
C51	C5	0.000000	0.000000	0.422540
C61	C6	0.000000	0.000000	0.341760
C71	C7	0.000000	0.000000	0.577460
C81	C8	0.000000	0.000000	0.658240
C91	C9	0.422540	0.000000	0.000000
C101	C10	0.341760	0.000000	0.000000
C111	C11	0.577460	0.000000	0.000000
C121	C12	0.658240	0.000000	0.000000
C131	C13	0.000000	0.422540	0.577460
C141	C14	0.000000	0.341760	0.658240
C151	C15	0.000000	0.577460	0.422540
C161	C16	0.000000	0.658240	0.341760
C171	C17	0.422540	0.000000	0.577460
C181	C18	0.341760	0.000000	0.658240
C191	C19	0.577460	0.000000	0.422540
C201	C20	0.658240	0.000000	0.341760
C211	C21	0.000000	0.577460	0.000000
C221	C22	0.000000	0.658240	0.000000
C231	C23	0.000000	0.422540	0.000000
C241	C24	0.000000	0.341760	0.000000
C251	C25	0.508710	0.586150	0.952570
C261	C26	0.340550	0.746150	0.956650
C271	C27	0.586150	0.508710	0.952570
C281	C28	0.746150	0.340550	0.956650
C291	C29	0.952570	0.952570	0.508710
C301	C30	0.956650	0.956650	0.340550
C311	C31	0.952570	0.952570	0.586150
C321	C32	0.956650	0.956650	0.746150
C331	C33	0.508710	0.952570	0.952570
C341	C34	0.340550	0.956650	0.956650
C351	C35	0.586150	0.952570	0.952570
C361	C36	0.746150	0.956650	0.956650
C371	C37	0.952570	0.508710	0.586150
C381	C38	0.956650	0.340550	0.746150
C391	C39	0.952570	0.586150	0.508710
C401	C40	0.956650	0.746150	0.340550
C411	C41	0.508710	0.952570	0.586150
C421	C42	0.340550	0.956650	0.746150
C431	C43	0.586150	0.952570	0.508710
C441	C44	0.746150	0.956650	0.340550
C451	C45	0.952570	0.586150	0.952570
C461	C46	0.956650	0.746150	0.956650
C471	C47	0.952570	0.508710	0.952570
C481	C48	0.956650	0.340550	0.956650
C491	C49	0.413850	0.491290	0.047430
C501	C50	0.253850	0.659450	0.043350
C511	C51	0.491290	0.413850	0.047430
C521	C52	0.659450	0.253850	0.043350
C531	C53	0.047430	0.047430	0.491290
C541	C54	0.043350	0.043350	0.659450
C551	C55	0.047430	0.047430	0.413850
C561	C56	0.043350	0.043350	0.253850
C571	C57	0.047430	0.491290	0.047430
C581	C58	0.043350	0.659450	0.043350
C591	C59	0.047430	0.413850	0.047430
C601	C60	0.043350	0.253850	0.043350
C611	C61	0.491290	0.047430	0.413850
C621	C62	0.659450	0.043350	0.253850
C631	C63	0.413850	0.047430	0.491290
C641	C64	0.253850	0.043350	0.659450
C651	C65	0.047430	0.491290	0.413850
C661	C66	0.043350	0.659450	0.253850
C671	C67	0.047430	0.413850	0.491290
C681	C68	0.043350	0.253850	0.659450
C691	C69	0.413850	0.047430	0.047430
C701	C70	0.253850	0.043350	0.043350
C711	C71	0.491290	0.047430	0.047430
C721	C72	0.659450	0.043350	0.043350
N11	N1	0.251930	0.801650	0.973210
N21	N2	0.801650	0.251930	0.973210
N31	N3	0.973210	0.973210	0.251930
N41	N4	0.973210	0.973210	0.801650
N51	N5	0.251930	0.973210	0.973210
N61	N6	0.801650	0.973210	0.973210
N71	N7	0.973210	0.251930	0.801650
N81	N8	0.973210	0.801650	0.251930
N91	N9	0.251930	0.973210	0.801650
N101	N10	0.801650	0.973210	0.251930
N111	N11	0.973210	0.801650	0.973210
N121	N12	0.973210	0.251930	0.973210
N131	N13	0.198350	0.748070	0.026790
N141	N14	0.748070	0.198350	0.026790
N151	N15	0.026790	0.026790	0.748070
N161	N16	0.026790	0.026790	0.198350
N171	N17	0.026790	0.748070	0.026790
N181	N18	0.026790	0.198350	0.026790
N191	N19	0.748070	0.026790	0.198350
N201	N20	0.198350	0.026790	0.748070
N211	N21	0.026790	0.748070	0.198350
N221	N22	0.026790	0.198350	0.748070
N231	N23	0.198350	0.026790	0.026790
N241	N24	0.748070	0.026790	0.026790
O11	O1	0.913070	0.086930	0.086930
O21	O2	0.086930	0.913070	0.913070
O31	O3	0.913070	0.086930	0.913070
O41	O4	0.086930	0.913070	0.086930
O51	O5	0.913070	0.913070	0.086930
O61	O6	0.086930	0.086930	0.913070
