data_BIFGOO_freeONLY_PM
_symmetry_space_group_name_H-M	'P1'
_cell_length_a	19.275000
_cell_length_b	19.275000
_cell_length_c	13.123000
_cell_angle_alpha	90.000000
_cell_angle_beta	90.000000
_cell_angle_gamma	120.000000
_symmetry_Int_Tables_number 1

loop_
_symmetry_equiv_pos_as_xyz
'x,y,z'

loop_
_atom_site_label
_atom_site_type_symbol
_atom_site_fract_x
_atom_site_fract_y
_atom_site_fract_z
I11	I1	0.299470	0.520210	0.685350
Cu11	Cu1	0.400340	0.645650	0.576220
N11	N1	0.484000	0.621700	0.521400
C11	C1	0.555700	0.649200	0.566800
H11	H1	0.564100	0.674400	0.631400
C21	C2	0.533200	0.577000	0.382200
C31	C3	0.474200	0.586500	0.431400
H21	H2	0.423900	0.566400	0.398400
C41	C4	0.616200	0.642600	0.525500
H31	H3	0.665600	0.662300	0.560600
N21	N2	0.526100	0.592100	0.189000
C51	C5	0.518000	0.538900	0.275100
H41	H4	0.555900	0.519000	0.264200
H51	H5	0.463200	0.491900	0.273700
C61	C6	0.466300	0.617000	0.185000
H61	H6	0.478800	0.653800	0.126500
H71	H7	0.471100	0.647700	0.247700
C71	C7	0.383100	0.552500	0.175500
H81	H8	0.367800	0.517400	0.236300
H91	H9	0.347300	0.575400	0.171600
C81	C8	0.604800	0.606000	0.429100
H101	H10	0.646900	0.601800	0.397700
C91	C9	0.607200	0.663600	0.181600
C101	C10	0.670300	0.647500	0.156900
H111	H11	0.672200	0.610900	0.208500
H121	H12	0.722400	0.698100	0.158000
O11	O1	0.374100	0.506700	0.086100
O21	O2	0.656700	0.610400	0.054600
C111	C11	0.711700	0.585100	0.035700
H131	H13	0.701400	0.540700	0.082400
H141	H14	0.766600	0.629800	0.048800
C121	C12	0.294700	0.442300	0.072200
H151	H15	0.255600	0.460400	0.085400
H161	H16	0.283500	0.398000	0.119700
O31	O3	0.502400	0.632000	0.899000
Cu21	Cu2	0.451600	0.689400	0.849500
I21	I2	0.568900	0.676500	0.872000
I31	I3	0.479790	0.779260	0.685350
Cu31	Cu3	0.354350	0.754690	0.576220
N31	N3	0.378300	0.862300	0.521400
C131	C13	0.350800	0.906500	0.566800
H171	H17	0.325600	0.889700	0.631400
C141	C14	0.423000	0.956200	0.382200
C151	C15	0.413500	0.887700	0.431400
H181	H18	0.433600	0.857500	0.398400
C161	C16	0.357400	0.973600	0.525500
H191	H19	0.337700	0.003300	0.560600
N41	N4	0.407900	0.934000	0.189000
C171	C17	0.461100	0.979100	0.275100
H201	H20	0.481000	0.036900	0.264200
H211	H21	0.508100	0.971300	0.273700
C181	C18	0.383000	0.849300	0.185000
H221	H22	0.346200	0.825000	0.126500
H231	H23	0.352300	0.823400	0.247700
C191	C19	0.447500	0.830600	0.175500
H241	H24	0.482600	0.850400	0.236300
H251	H25	0.424600	0.771900	0.171600
C201	C20	0.394000	0.998800	0.429100
H261	H26	0.398200	0.045100	0.397700
C211	C21	0.336400	0.943600	0.181600
C221	C22	0.352500	0.022800	0.156900
H271	H27	0.389100	0.061300	0.208500
H281	H28	0.301900	0.024300	0.158000
O41	O4	0.493300	0.867400	0.086100
O51	O5	0.389600	0.046300	0.054600
C231	C23	0.414900	0.126600	0.035700
H291	H29	0.459300	0.160700	0.082400
H301	H30	0.370200	0.136800	0.048800
C241	C24	0.557700	0.852400	0.072200
H311	H31	0.539600	0.795200	0.085400
H321	H32	0.602000	0.885500	0.119700
O61	O6	0.368000	0.870400	0.899000
Cu41	Cu4	0.310600	0.762200	0.849500
I41	I4	0.323500	0.892400	0.872000
I51	I5	0.220740	0.700530	0.685350
Cu51	Cu5	0.245310	0.599660	0.576220
N51	N5	0.137700	0.516000	0.521400
C251	C25	0.093500	0.444300	0.566800
H331	H33	0.110300	0.435900	0.631400
C261	C26	0.043800	0.466800	0.382200
C271	C27	0.112300	0.525800	0.431400
H341	H34	0.142500	0.576100	0.398400
C281	C28	0.026400	0.383800	0.525500
H351	H35	0.996700	0.334400	0.560600
N61	N6	0.066000	0.473900	0.189000
C291	C29	0.020900	0.482000	0.275100
H361	H36	0.963100	0.444100	0.264200
H371	H37	0.028700	0.536800	0.273700
C301	C30	0.150700	0.533700	0.185000
H381	H38	0.175000	0.521200	0.126500
H391	H39	0.176600	0.528900	0.247700
C311	C31	0.169400	0.616900	0.175500
H401	H40	0.149600	0.632200	0.236300
H411	H41	0.228100	0.652700	0.171600
C321	C32	0.001200	0.395200	0.429100
H421	H42	0.954900	0.353100	0.397700
C331	C33	0.056400	0.392800	0.181600
C341	C34	0.977200	0.329700	0.156900
H431	H43	0.938700	0.327800	0.208500
H441	H44	0.975700	0.277600	0.158000
O71	O7	0.132600	0.625900	0.086100
O81	O8	0.953700	0.343300	0.054600
C351	C35	0.873400	0.288300	0.035700
H451	H45	0.839300	0.298600	0.082400
H461	H46	0.863200	0.233400	0.048800
C361	C36	0.147600	0.705300	0.072200
H471	H47	0.204800	0.744400	0.085400
H481	H48	0.114500	0.716500	0.119700
O91	O9	0.129600	0.497600	0.899000
Cu61	Cu6	0.237800	0.548400	0.849500
I61	I6	0.107600	0.431100	0.872000
I71	I7	0.700530	0.479790	0.314650
Cu71	Cu7	0.599660	0.354350	0.423780
N71	N7	0.516000	0.378300	0.478600
C371	C37	0.444300	0.350800	0.433200
H491	H49	0.435900	0.325600	0.368600
C381	C38	0.466800	0.423000	0.617800
C391	C39	0.525800	0.413500	0.568600
H501	H50	0.576100	0.433600	0.601600
C401	C40	0.383800	0.357400	0.474500
H511	H51	0.334400	0.337700	0.439400
N81	N8	0.473900	0.407900	0.811000
C411	C41	0.482000	0.461100	0.724900
H521	H52	0.444100	0.481000	0.735800
H531	H53	0.536800	0.508100	0.726300
C421	C42	0.533700	0.383000	0.815000
H541	H54	0.521200	0.346200	0.873500
H551	H55	0.528900	0.352300	0.752300
C431	C43	0.616900	0.447500	0.824500
H561	H56	0.632200	0.482600	0.763700
H571	H57	0.652700	0.424600	0.828400
C441	C44	0.395200	0.394000	0.570900
H581	H58	0.353100	0.398200	0.602300
C451	C45	0.392800	0.336400	0.818400
C461	C46	0.329700	0.352500	0.843100
H591	H59	0.327800	0.389100	0.791500
H601	H60	0.277600	0.301900	0.842000
O101	O10	0.625900	0.493300	0.913900
O111	O11	0.343300	0.389600	0.945400
C471	C47	0.288300	0.414900	0.964300
H611	H61	0.298600	0.459300	0.917600
H621	H62	0.233400	0.370200	0.951200
C481	C48	0.705300	0.557700	0.927800
H631	H63	0.744400	0.539600	0.914600
H641	H64	0.716500	0.602000	0.880300
O121	O12	0.497600	0.368000	0.101000
Cu81	Cu8	0.548400	0.310600	0.150500
I81	I8	0.431100	0.323500	0.128000
I91	I9	0.520210	0.220740	0.314650
Cu91	Cu9	0.645650	0.245310	0.423780
N91	N9	0.621700	0.137700	0.478600
C491	C49	0.649200	0.093500	0.433200
H651	H65	0.674400	0.110300	0.368600
C501	C50	0.577000	0.043800	0.617800
C511	C51	0.586500	0.112300	0.568600
H661	H66	0.566400	0.142500	0.601600
C521	C52	0.642600	0.026400	0.474500
H671	H67	0.662300	0.996700	0.439400
N101	N10	0.592100	0.066000	0.811000
C531	C53	0.538900	0.020900	0.724900
H681	H68	0.519000	0.963100	0.735800
H691	H69	0.491900	0.028700	0.726300
C541	C54	0.617000	0.150700	0.815000
H701	H70	0.653800	0.175000	0.873500
H711	H71	0.647700	0.176600	0.752300
C551	C55	0.552500	0.169400	0.824500
H721	H72	0.517400	0.149600	0.763700
H731	H73	0.575400	0.228100	0.828400
C561	C56	0.606000	0.001200	0.570900
H741	H74	0.601800	0.954900	0.602300
C571	C57	0.663600	0.056400	0.818400
C581	C58	0.647500	0.977200	0.843100
H751	H75	0.610900	0.938700	0.791500
H761	H76	0.698100	0.975700	0.842000
O131	O13	0.506700	0.132600	0.913900
O141	O14	0.610400	0.953700	0.945400
C591	C59	0.585100	0.873400	0.964300
H771	H77	0.540700	0.839300	0.917600
H781	H78	0.629800	0.863200	0.951200
C601	C60	0.442300	0.147600	0.927800
H791	H79	0.460400	0.204800	0.914600
H801	H80	0.398000	0.114500	0.880300
O151	O15	0.632000	0.129600	0.101000
Cu101	Cu10	0.689400	0.237800	0.150500
I101	I10	0.676500	0.107600	0.128000
I111	I11	0.779260	0.299470	0.314650
Cu111	Cu11	0.754690	0.400340	0.423780
N111	N11	0.862300	0.484000	0.478600
C611	C61	0.906500	0.555700	0.433200
H811	H81	0.889700	0.564100	0.368600
C621	C62	0.956200	0.533200	0.617800
C631	C63	0.887700	0.474200	0.568600
H821	H82	0.857500	0.423900	0.601600
C641	C64	0.973600	0.616200	0.474500
H831	H83	0.003300	0.665600	0.439400
N121	N12	0.934000	0.526100	0.811000
C651	C65	0.979100	0.518000	0.724900
H841	H84	0.036900	0.555900	0.735800
H851	H85	0.971300	0.463200	0.726300
C661	C66	0.849300	0.466300	0.815000
H861	H86	0.825000	0.478800	0.873500
H871	H87	0.823400	0.471100	0.752300
C671	C67	0.830600	0.383100	0.824500
H881	H88	0.850400	0.367800	0.763700
H891	H89	0.771900	0.347300	0.828400
C681	C68	0.998800	0.604800	0.570900
H901	H90	0.045100	0.646900	0.602300
C691	C69	0.943600	0.607200	0.818400
C701	C70	0.022800	0.670300	0.843100
H911	H91	0.061300	0.672200	0.791500
H921	H92	0.024300	0.722400	0.842000
O161	O16	0.867400	0.374100	0.913900
O171	O17	0.046300	0.656700	0.945400
C711	C71	0.126600	0.711700	0.964300
H931	H93	0.160700	0.701400	0.917600
H941	H94	0.136800	0.766600	0.951200
C721	C72	0.852400	0.294700	0.927800
H951	H95	0.795200	0.255600	0.914600
H961	H96	0.885500	0.283500	0.880300
O181	O18	0.870400	0.502400	0.101000
Cu121	Cu12	0.762200	0.451600	0.150500
I121	I12	0.892400	0.568900	0.128000
I131	I13	0.333330	0.666670	0.406930
Cu131	Cu13	0.333330	0.666670	0.749130
I141	I14	0.333330	0.666670	0.948720
I151	I15	0.666670	0.333330	0.593070
Cu141	Cu14	0.666670	0.333330	0.250870
I161	I16	0.666670	0.333330	0.051280
K11	K1	0.500000	0.500000	0.000000
K21	K2	0.500000	0.000000	0.000000
K31	K3	0.000000	0.500000	0.000000
