data_BIMDEF_freeONLY_PM
_symmetry_space_group_name_H-M	'P1'
_cell_length_a	8.573200
_cell_length_b	8.573200
_cell_length_c	14.335900
_cell_angle_alpha	87.084400
_cell_angle_beta	87.084400
_cell_angle_gamma	81.742800
_symmetry_Int_Tables_number 1

loop_
_symmetry_equiv_pos_as_xyz
'x,y,z'

loop_
_atom_site_label
_atom_site_type_symbol
_atom_site_fract_x
_atom_site_fract_y
_atom_site_fract_z
Cu11	Cu1	0.977100	0.654300	0.490000
Cu21	Cu2	0.345700	0.022900	0.010000
Cu31	Cu3	0.022900	0.345700	0.510000
Cu41	Cu4	0.654300	0.977100	0.990000
H11	H1	0.871000	0.951000	0.490000
H21	H2	0.946000	0.926000	0.409000
H31	H3	0.537700	0.375100	0.417400
H41	H4	0.524300	0.563900	0.412500
H51	H5	0.400600	0.236600	0.302500
H61	H6	0.297900	0.335500	0.223300
H71	H7	0.364100	0.723900	0.286700
H81	H8	0.785500	0.301300	0.207300
H91	H9	0.049000	0.129000	0.010000
H101	H10	0.074000	0.054000	0.091000
H111	H11	0.624900	0.462300	0.082600
H121	H12	0.436100	0.475700	0.087500
H131	H13	0.763400	0.599400	0.197500
H141	H14	0.664500	0.702100	0.276700
H151	H15	0.276100	0.635900	0.213300
H161	H16	0.698700	0.214500	0.292700
H171	H17	0.129000	0.049000	0.510000
H181	H18	0.054000	0.074000	0.591000
H191	H19	0.462300	0.624900	0.582600
H201	H20	0.475700	0.436100	0.587500
H211	H21	0.599400	0.763400	0.697500
H221	H22	0.702100	0.664500	0.776700
H231	H23	0.635900	0.276100	0.713300
H241	H24	0.214500	0.698700	0.792700
H251	H25	0.951000	0.871000	0.990000
H261	H26	0.926000	0.946000	0.909000
H271	H27	0.375100	0.537700	0.917400
H281	H28	0.563900	0.524300	0.912500
H291	H29	0.236600	0.400600	0.802500
H301	H30	0.335500	0.297900	0.723300
H311	H31	0.723900	0.364100	0.786700
H321	H32	0.301300	0.785500	0.707300
C11	C1	0.237700	0.489100	0.385500
C21	C2	0.381900	0.480700	0.316800
C31	C3	0.530600	0.469800	0.374500
C41	C4	0.679500	0.459500	0.307100
C51	C5	0.817700	0.457700	0.371900
C61	C6	0.393700	0.331300	0.259700
C71	C7	0.510900	0.762300	0.114500
C81	C8	0.519300	0.618100	0.183200
C91	C9	0.530200	0.469400	0.125500
C101	C10	0.540500	0.320500	0.192900
C111	C11	0.542300	0.182300	0.128100
C121	C12	0.668700	0.606300	0.240300
C131	C13	0.762300	0.510900	0.614500
C141	C14	0.618100	0.519300	0.683200
C151	C15	0.469400	0.530200	0.625500
C161	C16	0.320500	0.540500	0.692900
C171	C17	0.182300	0.542300	0.628100
C181	C18	0.606300	0.668700	0.740300
C191	C19	0.489100	0.237700	0.885500
C201	C20	0.480700	0.381900	0.816800
C211	C21	0.469800	0.530600	0.874500
C221	C22	0.459500	0.679500	0.807100
C231	C23	0.457700	0.817700	0.871900
C241	C24	0.331300	0.393700	0.759700
C251	C25	0.371900	0.628100	0.250000
C261	C26	0.690500	0.309500	0.250000
C271	C27	0.628100	0.371900	0.750000
C281	C28	0.309500	0.690500	0.750000
O11	O1	0.168800	0.623600	0.406700
O21	O2	0.198900	0.360300	0.418100
O31	O3	0.884700	0.327900	0.404900
O41	O4	0.848300	0.590900	0.392300
O51	O5	0.908300	0.895300	0.444700
O61	O6	0.376400	0.831200	0.093300
O71	O7	0.639700	0.801100	0.081900
O81	O8	0.672100	0.115300	0.095100
O91	O9	0.409100	0.151700	0.107700
O101	O10	0.104700	0.091700	0.055300
O111	O11	0.831200	0.376400	0.593300
O121	O12	0.801100	0.639700	0.581900
O131	O13	0.115300	0.672100	0.595100
O141	O14	0.151700	0.409100	0.607700
O151	O15	0.091700	0.104700	0.555300
O161	O16	0.623600	0.168800	0.906700
O171	O17	0.360300	0.198900	0.918100
O181	O18	0.327900	0.884700	0.904900
O191	O19	0.590900	0.848300	0.892300
O201	O20	0.895300	0.908300	0.944700
