data_BIPKIW_freeONLY_PM
_symmetry_space_group_name_H-M	'P1'
_cell_length_a	23.684700
_cell_length_b	23.684700
_cell_length_c	23.684700
_cell_angle_alpha	60.000000
_cell_angle_beta	60.000000
_cell_angle_gamma	60.000000
_symmetry_Int_Tables_number 1

loop_
_symmetry_equiv_pos_as_xyz
'x,y,z'

loop_
_atom_site_label
_atom_site_type_symbol
_atom_site_fract_x
_atom_site_fract_y
_atom_site_fract_z
Cu11	Cu1	0.717060	0.282940	0.717060
Cu21	Cu2	0.360960	0.360960	0.639040
Cu31	Cu3	0.360960	0.639040	0.639040
Cu41	Cu4	0.282940	0.717060	0.282940
Cu51	Cu5	0.639040	0.360960	0.360960
Cu61	Cu6	0.639040	0.360960	0.639040
Cu71	Cu7	0.282940	0.282940	0.717060
Cu81	Cu8	0.282940	0.717060	0.717060
Cu91	Cu9	0.717060	0.282940	0.282940
Cu101	Cu10	0.360960	0.639040	0.360960
Cu111	Cu11	0.639040	0.639040	0.360960
Cu121	Cu12	0.717060	0.717060	0.282940
Si11	Si1	0.857540	0.857540	0.427380
Si21	Si2	0.427380	0.857540	0.857540
Si31	Si3	0.142460	0.142460	0.572620
Si41	Si4	0.142460	0.142460	0.142460
Si51	Si5	0.857540	0.857540	0.857540
Si61	Si6	0.572620	0.142460	0.142460
Si71	Si7	0.857540	0.427380	0.857540
Si81	Si8	0.142460	0.572620	0.142460
H11	H1	0.874500	0.728300	0.853900
H21	H2	0.844100	0.934700	0.591500
H31	H3	0.090600	0.692800	0.425800
H41	H4	0.574200	0.209200	0.307200
H51	H5	0.860800	0.284000	0.495400
H61	H6	0.681400	0.224200	0.549400
H71	H7	0.139000	0.401200	0.982800
H81	H8	0.271700	0.125500	0.146100
H91	H9	0.284000	0.359800	0.495400
H101	H10	0.455000	0.318600	0.775800
H111	H11	0.102200	0.427800	0.643600
H121	H12	0.728300	0.853900	0.874500
H131	H13	0.543300	0.853900	0.728300
H141	H14	0.377600	0.009600	0.791400
H151	H15	0.173600	0.356400	0.897800
H161	H16	0.681400	0.545000	0.224200
H171	H17	0.456700	0.271700	0.146100
H181	H18	0.640200	0.139200	0.716000
H191	H19	0.549400	0.224200	0.545000
H201	H20	0.224200	0.549400	0.681400
H211	H21	0.572200	0.897800	0.356400
H221	H22	0.790800	0.692800	0.090600
H231	H23	0.139200	0.640200	0.504600
H241	H24	0.591500	0.629700	0.844100
H251	H25	0.791400	0.009600	0.821400
H261	H26	0.017200	0.523000	0.598800
H271	H27	0.139200	0.504600	0.716000
H281	H28	0.821400	0.009600	0.377600
H291	H29	0.982800	0.477000	0.139000
H301	H30	0.775800	0.455000	0.318600
H311	H31	0.408500	0.065300	0.155900
H321	H32	0.401200	0.139000	0.477000
H331	H33	0.450600	0.775800	0.318600
H341	H34	0.716000	0.504600	0.640200
H351	H35	0.643600	0.826400	0.102200
H361	H36	0.318600	0.775800	0.455000
H371	H37	0.450600	0.455000	0.775800
H381	H38	0.370300	0.155900	0.065300
H391	H39	0.629700	0.934700	0.844100
H401	H40	0.622400	0.208600	0.990400
H411	H41	0.790800	0.090600	0.425800
H421	H42	0.982800	0.401200	0.477000
H431	H43	0.990400	0.208600	0.178600
H441	H44	0.178600	0.622400	0.990400
H451	H45	0.178600	0.990400	0.208600
H461	H46	0.549400	0.681400	0.224200
H471	H47	0.897800	0.173600	0.356400
H481	H48	0.370300	0.065300	0.408500
H491	H49	0.821400	0.791400	0.009600
H501	H50	0.853900	0.874500	0.728300
H511	H51	0.504600	0.640200	0.716000
H521	H52	0.318600	0.450600	0.775800
H531	H53	0.090600	0.425800	0.790800
H541	H54	0.495400	0.860800	0.284000
H551	H55	0.090600	0.790800	0.692800
H561	H56	0.125500	0.456700	0.146100
H571	H57	0.377600	0.791400	0.821400
H581	H58	0.860800	0.495400	0.359800
H591	H59	0.401200	0.477000	0.982800
H601	H60	0.009600	0.791400	0.377600
H611	H61	0.425800	0.790800	0.090600
H621	H62	0.017200	0.861000	0.523000
H631	H63	0.209200	0.307200	0.574200
H641	H64	0.450600	0.318600	0.455000
H651	H65	0.284000	0.860800	0.359800
H661	H66	0.861000	0.523000	0.017200
H671	H67	0.139200	0.716000	0.640200
H681	H68	0.874500	0.543300	0.728300
H691	H69	0.934700	0.844100	0.629700
H701	H70	0.591500	0.934700	0.629700
H711	H71	0.791400	0.821400	0.377600
H721	H72	0.209200	0.574200	0.909400
H731	H73	0.356400	0.173600	0.572200
H741	H74	0.456700	0.146100	0.125500
H751	H75	0.065300	0.408500	0.370300
H761	H76	0.359800	0.860800	0.495400
H771	H77	0.523000	0.017200	0.861000
H781	H78	0.146100	0.271700	0.125500
H791	H79	0.408500	0.370300	0.065300
H801	H80	0.598800	0.861000	0.017200
H811	H81	0.728300	0.543300	0.853900
H821	H82	0.572200	0.356400	0.173600
H831	H83	0.716000	0.640200	0.139200
H841	H84	0.009600	0.821400	0.791400
H851	H85	0.504600	0.139200	0.640200
H861	H86	0.065300	0.155900	0.408500
H871	H87	0.318600	0.455000	0.450600
H881	H88	0.224200	0.545000	0.549400
H891	H89	0.826400	0.643600	0.427800
H901	H90	0.284000	0.495400	0.860800
H911	H91	0.208600	0.622400	0.178600
H921	H92	0.224200	0.681400	0.545000
H931	H93	0.102200	0.643600	0.826400
H941	H94	0.125500	0.271700	0.456700
H951	H95	0.982800	0.139000	0.401200
H961	H96	0.173600	0.572200	0.356400
H971	H97	0.574200	0.909400	0.209200
H981	H98	0.598800	0.017200	0.523000
H991	H99	0.826400	0.102200	0.643600
H1001	H100	0.643600	0.102200	0.427800
H1011	H101	0.728300	0.874500	0.543300
H1021	H102	0.208600	0.990400	0.622400
H1031	H103	0.990400	0.622400	0.208600
H1041	H104	0.897800	0.572200	0.173600
H1051	H105	0.640200	0.504600	0.139200
H1061	H106	0.356400	0.572200	0.897800
H1071	H107	0.643600	0.427800	0.826400
H1081	H108	0.065300	0.370300	0.155900
H1091	H109	0.408500	0.155900	0.370300
H1101	H110	0.861000	0.598800	0.523000
H1111	H111	0.146100	0.125500	0.456700
H1121	H112	0.009600	0.377600	0.821400
H1131	H113	0.574200	0.307200	0.909400
H1141	H114	0.477000	0.982800	0.401200
H1151	H115	0.477000	0.139000	0.982800
H1161	H116	0.173600	0.897800	0.572200
H1171	H117	0.495400	0.284000	0.359800
H1181	H118	0.102200	0.826400	0.427800
H1191	H119	0.934700	0.591500	0.844100
H1201	H120	0.629700	0.591500	0.934700
H1211	H121	0.146100	0.456700	0.271700
H1221	H122	0.504600	0.716000	0.139200
H1231	H123	0.425800	0.090600	0.692800
H1241	H124	0.692800	0.790800	0.425800
H1251	H125	0.139000	0.982800	0.477000
H1261	H126	0.909400	0.209200	0.574200
H1271	H127	0.359800	0.495400	0.284000
H1281	H128	0.692800	0.090600	0.790800
H1291	H129	0.307200	0.209200	0.909400
H1301	H130	0.821400	0.377600	0.791400
H1311	H131	0.427800	0.102200	0.826400
H1321	H132	0.860800	0.359800	0.284000
H1331	H133	0.477000	0.401200	0.139000
H1341	H134	0.178600	0.208600	0.622400
H1351	H135	0.155900	0.370300	0.408500
H1361	H136	0.692800	0.425800	0.090600
H1371	H137	0.598800	0.523000	0.861000
H1381	H138	0.356400	0.897800	0.173600
H1391	H139	0.844100	0.591500	0.629700
H1401	H140	0.377600	0.821400	0.009600
H1411	H141	0.359800	0.284000	0.860800
H1421	H142	0.523000	0.598800	0.017200
H1431	H143	0.427800	0.643600	0.102200
H1441	H144	0.640200	0.716000	0.504600
H1451	H145	0.572200	0.173600	0.897800
H1461	H146	0.775800	0.450600	0.455000
H1471	H147	0.790800	0.425800	0.692800
H1481	H148	0.155900	0.065300	0.370300
H1491	H149	0.545000	0.549400	0.224200
H1501	H150	0.622400	0.178600	0.208600
H1511	H151	0.545000	0.224200	0.681400
H1521	H152	0.271700	0.456700	0.125500
H1531	H153	0.370300	0.408500	0.155900
H1541	H154	0.427800	0.826400	0.643600
H1551	H155	0.545000	0.681400	0.549400
H1561	H156	0.853900	0.543300	0.874500
H1571	H157	0.523000	0.861000	0.598800
H1581	H158	0.909400	0.307200	0.209200
H1591	H159	0.271700	0.146100	0.456700
H1601	H160	0.139000	0.477000	0.401200
H1611	H161	0.543300	0.728300	0.874500
H1621	H162	0.307200	0.909400	0.574200
H1631	H163	0.622400	0.990400	0.178600
H1641	H164	0.909400	0.574200	0.307200
H1651	H165	0.125500	0.146100	0.271700
H1661	H166	0.495400	0.359800	0.860800
H1671	H167	0.990400	0.178600	0.622400
H1681	H168	0.826400	0.427800	0.102200
H1691	H169	0.307200	0.574200	0.209200
H1701	H170	0.591500	0.844100	0.934700
H1711	H171	0.543300	0.874500	0.853900
H1721	H172	0.791400	0.377600	0.009600
H1731	H173	0.455000	0.450600	0.318600
H1741	H174	0.549400	0.545000	0.681400
H1751	H175	0.455000	0.775800	0.450600
H1761	H176	0.155900	0.408500	0.065300
H1771	H177	0.681400	0.549400	0.545000
H1781	H178	0.401200	0.982800	0.139000
H1791	H179	0.775800	0.318600	0.450600
H1801	H180	0.853900	0.728300	0.543300
H1811	H181	0.209200	0.909400	0.307200
H1821	H182	0.425800	0.692800	0.790800
H1831	H183	0.456700	0.125500	0.271700
H1841	H184	0.844100	0.629700	0.934700
H1851	H185	0.629700	0.844100	0.591500
H1861	H186	0.897800	0.356400	0.572200
H1871	H187	0.934700	0.629700	0.591500
H1881	H188	0.874500	0.853900	0.543300
H1891	H189	0.861000	0.017200	0.598800
H1901	H190	0.017200	0.598800	0.861000
H1911	H191	0.208600	0.178600	0.990400
H1921	H192	0.716000	0.139200	0.504600
C11	C1	0.160500	0.337500	0.451900
C21	C2	0.249390	0.828810	0.522590
C31	C3	0.957500	0.192100	0.550300
C41	C4	0.772600	0.273600	0.369200
C51	C5	0.949900	0.662500	0.548100
C61	C6	0.590580	0.070220	0.791780
C71	C7	0.467210	0.868390	0.261610
C81	C8	0.979800	0.348000	0.185400
C91	C9	0.529200	0.890200	0.384600
C101	C10	0.174000	0.241400	0.579000
C111	C11	0.890200	0.196000	0.384600
C121	C12	0.451900	0.050100	0.160500
C131	C13	0.868390	0.402790	0.261610
C141	C14	0.300100	0.192100	0.957500
C151	C15	0.826000	0.994400	0.421000
C161	C16	0.174000	0.579000	0.005600
C171	C17	0.452580	0.929780	0.208220
C181	C18	0.337500	0.160500	0.050100
C191	C19	0.857500	0.901900	0.519500
C201	C20	0.452580	0.409420	0.929780
C211	C21	0.529200	0.384600	0.196000
C221	C22	0.050100	0.160500	0.451900
C231	C23	0.399210	0.522590	0.828810
C241	C24	0.369200	0.273600	0.584600
C251	C25	0.449700	0.807900	0.042500
C261	C26	0.597210	0.532790	0.131610
C271	C27	0.230900	0.075900	0.544100
C281	C28	0.857500	0.721100	0.901900
C291	C29	0.278900	0.142500	0.098100
C301	C30	0.142500	0.098100	0.278900
C311	C31	0.817800	0.282200	0.440600
C321	C32	0.890200	0.529200	0.196000
C331	C33	0.421000	0.758600	0.826000
C341	C34	0.522590	0.249390	0.828810
C351	C35	0.600790	0.477410	0.750610
C361	C36	0.804000	0.470800	0.109800
C371	C37	0.020200	0.513200	0.814600
C381	C38	0.421000	0.826000	0.994400
C391	C39	0.940760	0.175440	0.411240
C401	C40	0.901900	0.519500	0.857500
C411	C41	0.949900	0.839500	0.662500
C421	C42	0.452580	0.208220	0.409420
C431	C43	0.059240	0.824560	0.527440
C441	C44	0.440600	0.459400	0.817800
C451	C45	0.814600	0.652000	0.020200
C461	C46	0.527440	0.588760	0.059240
C471	C47	0.772600	0.584600	0.273600
C481	C48	0.131610	0.738390	0.597210
C491	C49	0.005600	0.241400	0.174000
C501	C50	0.532790	0.597210	0.738390
C511	C51	0.477410	0.750610	0.600790
C521	C52	0.160500	0.050100	0.337500
C531	C53	0.590580	0.547420	0.070220
C541	C54	0.455900	0.769100	0.850900
C551	C55	0.075900	0.149100	0.544100
C561	C56	0.402790	0.261610	0.868390
C571	C57	0.588760	0.824560	0.059240
C581	C58	0.579000	0.241400	0.005600
C591	C59	0.409420	0.929780	0.452580
C601	C60	0.261610	0.868390	0.402790
C611	C61	0.804000	0.615400	0.470800
C621	C62	0.527440	0.059240	0.824560
C631	C63	0.630800	0.415400	0.726400
C641	C64	0.486800	0.979800	0.185400
C651	C65	0.098100	0.480500	0.278900
C661	C66	0.519500	0.901900	0.721100
C671	C67	0.529200	0.196000	0.890200
C681	C68	0.652000	0.020200	0.814600
C691	C69	0.472560	0.940760	0.411240
C701	C70	0.828810	0.522590	0.249390
C711	C71	0.699900	0.449700	0.042500
C721	C72	0.174000	0.005600	0.241400
C731	C73	0.957500	0.300100	0.192100
C741	C74	0.597210	0.131610	0.738390
C751	C75	0.750610	0.171190	0.600790
C761	C76	0.399210	0.249390	0.522590
C771	C77	0.282200	0.817800	0.459400
C781	C78	0.721100	0.519500	0.901900
C791	C79	0.949900	0.548100	0.839500
C801	C80	0.738390	0.532790	0.597210
C811	C81	0.480500	0.278900	0.098100
C821	C82	0.042500	0.807900	0.699900
C831	C83	0.171190	0.750610	0.477410
C841	C84	0.227400	0.630800	0.726400
C851	C85	0.142500	0.480500	0.098100
C861	C86	0.059240	0.527440	0.588760
C871	C87	0.584600	0.772600	0.369200
C881	C88	0.817800	0.459400	0.282200
C891	C89	0.615400	0.804000	0.109800
C901	C90	0.451900	0.160500	0.337500
C911	C91	0.979800	0.486800	0.348000
C921	C92	0.544100	0.149100	0.230900
C931	C93	0.182200	0.540600	0.559400
C941	C94	0.185400	0.348000	0.486800
C951	C95	0.042500	0.449700	0.807900
C961	C96	0.451900	0.337500	0.050100
C971	C97	0.409420	0.208220	0.929780
C981	C98	0.070220	0.590580	0.547420
C991	C99	0.192100	0.957500	0.300100
C1001	C100	0.868390	0.467210	0.402790
C1011	C101	0.540600	0.717800	0.559400
C1021	C102	0.070220	0.547420	0.791780
C1031	C103	0.227400	0.415400	0.630800
C1041	C104	0.924100	0.769100	0.455900
C1051	C105	0.559400	0.182200	0.540600
C1061	C106	0.513200	0.652000	0.814600
C1071	C107	0.369200	0.584600	0.772600
C1081	C108	0.149100	0.544100	0.075900
C1091	C109	0.584600	0.369200	0.273600
C1101	C110	0.384600	0.529200	0.890200
C1111	C111	0.519500	0.721100	0.857500
C1121	C112	0.513200	0.814600	0.020200
C1131	C113	0.890200	0.384600	0.529200
C1141	C114	0.828810	0.249390	0.399210
C1151	C115	0.480500	0.098100	0.142500
C1161	C116	0.486800	0.185400	0.348000
C1171	C117	0.160500	0.451900	0.050100
C1181	C118	0.227400	0.726400	0.415400
C1191	C119	0.050100	0.451900	0.337500
C1201	C120	0.527440	0.824560	0.588760
C1211	C121	0.384600	0.890200	0.196000
C1221	C122	0.850900	0.769100	0.924100
C1231	C123	0.804000	0.109800	0.615400
C1241	C124	0.050100	0.337500	0.160500
C1251	C125	0.409420	0.452580	0.208220
C1261	C126	0.278900	0.098100	0.480500
C1271	C127	0.208220	0.929780	0.409420
C1281	C128	0.477410	0.600790	0.171190
C1291	C129	0.600790	0.750610	0.171190
C1301	C130	0.726400	0.415400	0.227400
C1311	C131	0.717800	0.540600	0.182200
C1321	C132	0.850900	0.924100	0.455900
C1331	C133	0.924100	0.455900	0.850900
C1341	C134	0.824560	0.527440	0.059240
C1351	C135	0.791780	0.590580	0.070220
C1361	C136	0.588760	0.527440	0.824560
C1371	C137	0.208220	0.409420	0.452580
C1381	C138	0.449700	0.699900	0.807900
C1391	C139	0.532790	0.131610	0.597210
C1401	C140	0.522590	0.399210	0.249390
C1411	C141	0.337500	0.451900	0.160500
C1421	C142	0.175440	0.940760	0.472560
C1431	C143	0.868390	0.261610	0.467210
C1441	C144	0.075900	0.544100	0.230900
C1451	C145	0.630800	0.726400	0.227400
C1461	C146	0.278900	0.480500	0.142500
C1471	C147	0.175440	0.472560	0.411240
C1481	C148	0.738390	0.597210	0.131610
C1491	C149	0.171190	0.600790	0.750610
C1501	C150	0.070220	0.791780	0.590580
C1511	C151	0.249390	0.399210	0.828810
C1521	C152	0.241400	0.174000	0.005600
C1531	C153	0.415400	0.227400	0.726400
C1541	C154	0.261610	0.402790	0.467210
C1551	C155	0.459400	0.440600	0.282200
C1561	C156	0.807900	0.042500	0.449700
C1571	C157	0.075900	0.230900	0.149100
C1581	C158	0.459400	0.817800	0.440600
C1591	C159	0.486800	0.348000	0.979800
C1601	C160	0.348000	0.979800	0.486800
C1611	C161	0.994400	0.826000	0.758600
C1621	C162	0.149100	0.230900	0.544100
C1631	C163	0.182200	0.717800	0.540600
C1641	C164	0.548100	0.662500	0.839500
C1651	C165	0.369200	0.772600	0.273600
C1661	C166	0.532790	0.738390	0.131610
C1671	C167	0.142500	0.278900	0.480500
C1681	C168	0.042500	0.699900	0.449700
C1691	C169	0.662500	0.949900	0.839500
C1701	C170	0.348000	0.486800	0.185400
C1711	C171	0.402790	0.868390	0.467210
C1721	C172	0.098100	0.142500	0.480500
C1731	C173	0.470800	0.804000	0.615400
C1741	C174	0.924100	0.850900	0.769100
C1751	C175	0.721100	0.901900	0.857500
C1761	C176	0.449700	0.042500	0.699900
C1771	C177	0.940760	0.411240	0.472560
C1781	C178	0.584600	0.273600	0.772600
C1791	C179	0.615400	0.470800	0.804000
C1801	C180	0.758600	0.421000	0.994400
C1811	C181	0.717800	0.182200	0.559400
C1821	C182	0.814600	0.020200	0.513200
C1831	C183	0.005600	0.174000	0.579000
C1841	C184	0.192100	0.300100	0.550300
C1851	C185	0.421000	0.994400	0.758600
C1861	C186	0.109800	0.804000	0.470800
C1871	C187	0.807900	0.449700	0.699900
C1881	C188	0.550300	0.957500	0.192100
C1891	C189	0.839500	0.548100	0.662500
C1901	C190	0.192100	0.550300	0.957500
C1911	C191	0.477410	0.171190	0.750610
C1921	C192	0.440600	0.282200	0.459400
C1931	C193	0.547420	0.590580	0.791780
C1941	C194	0.929780	0.452580	0.409420
C1951	C195	0.940760	0.472560	0.175440
C1961	C196	0.241400	0.005600	0.579000
C1971	C197	0.791780	0.070220	0.547420
C1981	C198	0.472560	0.175440	0.940760
C1991	C199	0.282200	0.459400	0.440600
C2001	C200	0.109800	0.615400	0.804000
C2011	C201	0.726400	0.227400	0.630800
C2021	C202	0.440600	0.817800	0.282200
C2031	C203	0.196000	0.384600	0.890200
C2041	C204	0.850900	0.455900	0.769100
C2051	C205	0.807900	0.699900	0.042500
C2061	C206	0.348000	0.185400	0.979800
C2071	C207	0.020200	0.814600	0.652000
C2081	C208	0.337500	0.050100	0.451900
C2091	C209	0.544100	0.075900	0.149100
C2101	C210	0.662500	0.839500	0.548100
C2111	C211	0.750610	0.600790	0.477410
C2121	C212	0.098100	0.278900	0.142500
C2131	C213	0.957500	0.550300	0.300100
C2141	C214	0.273600	0.369200	0.772600
C2151	C215	0.411240	0.940760	0.175440
C2161	C216	0.738390	0.131610	0.532790
C2171	C217	0.662500	0.548100	0.949900
C2181	C218	0.901900	0.857500	0.721100
C2191	C219	0.300100	0.957500	0.550300
C2201	C220	0.814600	0.513200	0.652000
C2211	C221	0.548100	0.949900	0.662500
C2221	C222	0.929780	0.409420	0.208220
C2231	C223	0.185400	0.979800	0.348000
C2241	C224	0.758600	0.994400	0.826000
C2251	C225	0.273600	0.584600	0.369200
C2261	C226	0.901900	0.721100	0.519500
C2271	C227	0.109800	0.470800	0.615400
C2281	C228	0.185400	0.486800	0.979800
C2291	C229	0.411240	0.472560	0.940760
C2301	C230	0.020200	0.652000	0.513200
C2311	C231	0.828810	0.399210	0.522590
C2321	C232	0.772600	0.369200	0.584600
C2331	C233	0.415400	0.726400	0.630800
C2341	C234	0.182200	0.559400	0.717800
C2351	C235	0.579000	0.005600	0.174000
C2361	C236	0.513200	0.020200	0.652000
C2371	C237	0.399210	0.828810	0.249390
C2381	C238	0.384600	0.196000	0.529200
C2391	C239	0.208220	0.452580	0.929780
C2401	C240	0.519500	0.857500	0.901900
C2411	C241	0.547420	0.791780	0.070220
C2421	C242	0.547420	0.070220	0.590580
C2431	C243	0.590580	0.791780	0.547420
C2441	C244	0.467210	0.402790	0.868390
C2451	C245	0.455900	0.924100	0.769100
C2461	C246	0.588760	0.059240	0.527440
C2471	C247	0.769100	0.850900	0.455900
C2481	C248	0.769100	0.455900	0.924100
C2491	C249	0.149100	0.075900	0.230900
C2501	C250	0.717800	0.559400	0.540600
C2511	C251	0.196000	0.529200	0.384600
C2521	C252	0.241400	0.579000	0.174000
C2531	C253	0.261610	0.467210	0.868390
C2541	C254	0.470800	0.615400	0.109800
C2551	C255	0.929780	0.208220	0.452580
C2561	C256	0.769100	0.924100	0.850900
C2571	C257	0.600790	0.171190	0.477410
C2581	C258	0.726400	0.630800	0.415400
C2591	C259	0.550300	0.300100	0.957500
C2601	C260	0.817800	0.440600	0.459400
C2611	C261	0.131610	0.597210	0.532790
C2621	C262	0.472560	0.411240	0.175440
C2631	C263	0.791780	0.547420	0.590580
C2641	C264	0.230900	0.149100	0.075900
C2651	C265	0.559400	0.540600	0.717800
C2661	C266	0.230900	0.544100	0.149100
C2671	C267	0.402790	0.467210	0.261610
C2681	C268	0.300100	0.550300	0.192100
C2691	C269	0.273600	0.772600	0.584600
C2701	C270	0.615400	0.109800	0.470800
C2711	C271	0.544100	0.230900	0.075900
C2721	C272	0.699900	0.042500	0.807900
C2731	C273	0.175440	0.411240	0.940760
C2741	C274	0.455900	0.850900	0.924100
C2751	C275	0.005600	0.579000	0.241400
C2761	C276	0.540600	0.559400	0.182200
C2771	C277	0.131610	0.532790	0.738390
C2781	C278	0.652000	0.814600	0.513200
C2791	C279	0.652000	0.513200	0.020200
C2801	C280	0.994400	0.758600	0.421000
C2811	C281	0.839500	0.949900	0.548100
C2821	C282	0.171190	0.477410	0.600790
C2831	C283	0.824560	0.588760	0.527440
C2841	C284	0.994400	0.421000	0.826000
C2851	C285	0.467210	0.261610	0.402790
C2861	C286	0.540600	0.182200	0.717800
C2871	C287	0.750610	0.477410	0.171190
C2881	C288	0.630800	0.227400	0.415400
C2891	C289	0.550300	0.192100	0.300100
C2901	C290	0.059240	0.588760	0.824560
C2911	C291	0.839500	0.662500	0.949900
C2921	C292	0.415400	0.630800	0.227400
C2931	C293	0.459400	0.282200	0.817800
C2941	C294	0.699900	0.807900	0.449700
C2951	C295	0.597210	0.738390	0.532790
C2961	C296	0.470800	0.109800	0.804000
C2971	C297	0.249390	0.522590	0.399210
C2981	C298	0.979800	0.185400	0.486800
C2991	C299	0.579000	0.174000	0.241400
C3001	C300	0.196000	0.890200	0.529200
C3011	C301	0.282200	0.440600	0.817800
C3021	C302	0.826000	0.421000	0.758600
C3031	C303	0.758600	0.826000	0.421000
C3041	C304	0.826000	0.758600	0.994400
C3051	C305	0.857500	0.519500	0.721100
C3061	C306	0.480500	0.142500	0.278900
C3071	C307	0.559400	0.717800	0.182200
C3081	C308	0.721100	0.857500	0.519500
C3091	C309	0.522590	0.828810	0.399210
C3101	C310	0.548100	0.839500	0.949900
C3111	C311	0.411240	0.175440	0.472560
C3121	C312	0.824560	0.059240	0.588760
O11	O1	0.359800	0.751400	0.671000
O21	O2	0.431900	0.675100	0.613900
O31	O3	0.613900	0.431900	0.675100
O41	O4	0.780500	0.780500	0.219500
O51	O5	0.386100	0.324900	0.568100
O61	O6	0.885900	0.885900	0.342300
O71	O7	0.359800	0.217800	0.751400
O81	O8	0.431900	0.279100	0.675100
O91	O9	0.114100	0.657700	0.114100
O101	O10	0.279100	0.613900	0.675100
O111	O11	0.329000	0.782200	0.248600
O121	O12	0.671000	0.359800	0.751400
O131	O13	0.675100	0.613900	0.431900
O141	O14	0.720900	0.324900	0.386100
O151	O15	0.329000	0.248600	0.640200
O161	O16	0.675100	0.279100	0.613900
O171	O17	0.114100	0.114100	0.657700
O181	O18	0.217800	0.359800	0.671000
O191	O19	0.219500	0.780500	0.780500
O201	O20	0.359800	0.671000	0.217800
O211	O21	0.675100	0.431900	0.279100
O221	O22	0.386100	0.568100	0.720900
O231	O23	0.640200	0.782200	0.329000
O241	O24	0.657700	0.114100	0.114100
O251	O25	0.324900	0.720900	0.568100
O261	O26	0.751400	0.217800	0.671000
O271	O27	0.279100	0.431900	0.613900
O281	O28	0.248600	0.640200	0.329000
O291	O29	0.386100	0.720900	0.324900
O301	O30	0.751400	0.359800	0.217800
O311	O31	0.324900	0.386100	0.720900
O321	O32	0.640200	0.248600	0.782200
O331	O33	0.324900	0.568100	0.386100
O341	O34	0.248600	0.329000	0.782200
O351	O35	0.219500	0.780500	0.219500
O361	O36	0.329000	0.640200	0.782200
O371	O37	0.568100	0.720900	0.386100
O381	O38	0.613900	0.675100	0.279100
O391	O39	0.780500	0.219500	0.219500
O401	O40	0.217800	0.671000	0.751400
O411	O41	0.431900	0.613900	0.279100
O421	O42	0.720900	0.568100	0.324900
O431	O43	0.568100	0.324900	0.720900
O441	O44	0.751400	0.671000	0.359800
O451	O45	0.782200	0.329000	0.640200
O461	O46	0.217800	0.751400	0.359800
O471	O47	0.671000	0.217800	0.359800
O481	O48	0.613900	0.279100	0.431900
O491	O49	0.782200	0.248600	0.329000
O501	O50	0.342300	0.885900	0.885900
O511	O51	0.885900	0.885900	0.885900
O521	O52	0.248600	0.782200	0.640200
O531	O53	0.219500	0.219500	0.780500
O541	O54	0.671000	0.751400	0.217800
O551	O55	0.279100	0.675100	0.431900
O561	O56	0.720900	0.386100	0.568100
O571	O57	0.885900	0.342300	0.885900
O581	O58	0.780500	0.219500	0.780500
O591	O59	0.782200	0.640200	0.248600
O601	O60	0.114100	0.114100	0.114100
O611	O61	0.568100	0.386100	0.324900
O621	O62	0.640200	0.329000	0.248600
