data_BIRLIZ_freeONLY_PM
_symmetry_space_group_name_H-M	'P1'
_cell_length_a	17.322600
_cell_length_b	9.282000
_cell_length_c	29.838800
_cell_angle_alpha	90.000000
_cell_angle_beta	93.726000
_cell_angle_gamma	90.000000
_symmetry_Int_Tables_number 1

loop_
_symmetry_equiv_pos_as_xyz
'x,y,z'

loop_
_atom_site_label
_atom_site_type_symbol
_atom_site_fract_x
_atom_site_fract_y
_atom_site_fract_z
Ag11	Ag1	0.502580	0.088600	0.111680
Ag21	Ag2	0.819340	0.105880	0.220640
Ag31	Ag3	0.833480	0.994400	0.443780
S11	S1	0.924510	0.197090	0.471990
S21	S2	0.583790	0.865640	0.145160
S31	S3	0.742950	0.876740	0.194960
S41	S4	0.886780	0.768100	0.484650
S51	S5	0.045390	0.808760	0.162460
S61	S6	0.802370	0.997590	0.358830
S71	S7	0.804130	0.518680	0.527390
S81	S8	0.957410	0.052630	0.203660
S91	S9	0.562050	0.093380	0.035280
S101	S10	0.359700	0.051120	0.120830
S111	S11	0.267440	0.810980	0.162130
S121	S12	0.773940	0.236470	0.288580
H11	H1	0.023100	0.025900	0.477600
C11	C1	0.660700	0.974800	0.170550
H21	H2	0.639400	0.034600	0.194300
H31	H3	0.678800	0.041000	0.147400
C21	C2	0.307600	0.022100	0.067180
H41	H4	0.340700	0.970100	0.047200
H51	H5	0.292800	0.115200	0.053700
H61	H6	0.261000	0.965100	0.071500
C31	C3	0.865600	0.554100	0.577510
H71	H7	0.915900	0.589500	0.569000
H81	H8	0.872900	0.465100	0.594900
H91	H9	0.841300	0.627100	0.595700
C41	C4	0.976300	0.254400	0.424370
H101	H10	0.023600	0.305300	0.435000
H111	H11	0.943500	0.319000	0.405400
H121	H12	0.990000	0.169900	0.406800
C51	C5	0.632500	0.791900	0.098250
H131	H13	0.654100	0.870700	0.081100
H141	H14	0.595400	0.737400	0.078700
H151	H15	0.674300	0.727900	0.109600
C61	C6	0.648000	0.204200	0.042680
H161	H16	0.671000	0.215800	0.013700
H171	H17	0.685400	0.157700	0.064100
H181	H18	0.634100	0.298900	0.054200
C71	C7	0.818300	0.182400	0.342200
H191	H19	0.798900	0.246500	0.365500
H201	H20	0.874700	0.198400	0.341800
C81	C8	0.952600	0.873300	0.180510
H211	H21	0.914100	0.872000	0.154500
H221	H22	0.934300	0.806400	0.203400
H231	H23	0.531400	0.272000	0.981300
C91	C9	0.360900	0.872000	0.144660
H241	H24	0.398700	0.869800	0.171000
H251	H25	0.379000	0.803400	0.122200
C101	C10	0.067400	0.951100	0.123690
H261	H26	0.032400	0.944100	0.096600
H271	H27	0.121000	0.941200	0.115500
H281	H28	0.060700	0.044900	0.138000
C111	C11	0.241600	0.958200	0.197870
H291	H29	0.282500	0.972000	0.221800
H301	H30	0.192800	0.935900	0.211200
H311	H31	0.235600	0.046500	0.180000
C121	C12	0.673700	0.196900	0.296650
H321	H32	0.668400	0.094900	0.304400
H331	H33	0.642300	0.217500	0.268900
H341	H34	0.656000	0.256700	0.321000
C131	C13	0.796500	0.696400	0.502960
H351	H35	0.776500	0.763200	0.525300
H361	H36	0.758200	0.693400	0.476900
C141	C14	0.876400	0.903200	0.330360
H371	H37	0.871900	0.927400	0.298300
H381	H38	0.869800	0.799100	0.334100
H391	H39	0.927600	0.931900	0.343300
C151	C15	0.702400	0.800000	0.244060
H401	H40	0.688100	0.877600	0.264200
H411	H41	0.740800	0.737300	0.259800
H421	H42	0.656300	0.743600	0.234800
C161	C16	0.908800	0.638200	0.442210
H431	H43	0.914900	0.542600	0.455900
H441	H44	0.956900	0.665700	0.428900
H451	H45	0.866500	0.635800	0.418800
C171	C17	0.019200	0.026200	0.254000
H461	H46	0.999200	0.946700	0.271400
H471	H47	0.020300	0.114500	0.272000
H481	H48	0.071700	0.003200	0.245900
Ag41	Ag4	0.002580	0.588600	0.111680
Ag51	Ag5	0.319340	0.605880	0.220640
Ag61	Ag6	0.333480	0.494400	0.443780
S131	S13	0.424510	0.697090	0.471990
S141	S14	0.083790	0.365640	0.145160
S151	S15	0.242950	0.376740	0.194960
S161	S16	0.386780	0.268100	0.484650
S171	S17	0.545390	0.308760	0.162460
S181	S18	0.302370	0.497590	0.358830
S191	S19	0.304130	0.018680	0.527390
S201	S20	0.457410	0.552630	0.203660
S211	S21	0.062050	0.593380	0.035280
S221	S22	0.859700	0.551120	0.120830
S231	S23	0.767440	0.310980	0.162130
S241	S24	0.273940	0.736470	0.288580
H491	H49	0.523100	0.525900	0.477600
C181	C18	0.160700	0.474800	0.170550
H501	H50	0.139400	0.534600	0.194300
H511	H51	0.178800	0.541000	0.147400
C191	C19	0.807600	0.522100	0.067180
H521	H52	0.840700	0.470100	0.047200
H531	H53	0.792800	0.615200	0.053700
H541	H54	0.761000	0.465100	0.071500
C201	C20	0.365600	0.054100	0.577510
H551	H55	0.415900	0.089500	0.569000
H561	H56	0.372900	0.965100	0.594900
H571	H57	0.341300	0.127100	0.595700
C211	C21	0.476300	0.754400	0.424370
H581	H58	0.523600	0.805300	0.435000
H591	H59	0.443500	0.819000	0.405400
H601	H60	0.490000	0.669900	0.406800
C221	C22	0.132500	0.291900	0.098250
H611	H61	0.154100	0.370700	0.081100
H621	H62	0.095400	0.237400	0.078700
H631	H63	0.174300	0.227900	0.109600
C231	C23	0.148000	0.704200	0.042680
H641	H64	0.171000	0.715800	0.013700
H651	H65	0.185400	0.657700	0.064100
H661	H66	0.134100	0.798900	0.054200
C241	C24	0.318300	0.682400	0.342200
H671	H67	0.298900	0.746500	0.365500
H681	H68	0.374700	0.698400	0.341800
C251	C25	0.452600	0.373300	0.180510
H691	H69	0.414100	0.372000	0.154500
H701	H70	0.434300	0.306400	0.203400
H711	H71	0.031400	0.772000	0.981300
C261	C26	0.860900	0.372000	0.144660
H721	H72	0.898700	0.369800	0.171000
H731	H73	0.879000	0.303400	0.122200
C271	C27	0.567400	0.451100	0.123690
H741	H74	0.532400	0.444100	0.096600
H751	H75	0.621000	0.441200	0.115500
H761	H76	0.560700	0.544900	0.138000
C281	C28	0.741600	0.458200	0.197870
H771	H77	0.782500	0.472000	0.221800
H781	H78	0.692800	0.435900	0.211200
H791	H79	0.735600	0.546500	0.180000
C291	C29	0.173700	0.696900	0.296650
H801	H80	0.168400	0.594900	0.304400
H811	H81	0.142300	0.717500	0.268900
H821	H82	0.156000	0.756700	0.321000
C301	C30	0.296500	0.196400	0.502960
H831	H83	0.276500	0.263200	0.525300
H841	H84	0.258200	0.193400	0.476900
C311	C31	0.376400	0.403200	0.330360
H851	H85	0.371900	0.427400	0.298300
H861	H86	0.369800	0.299100	0.334100
H871	H87	0.427600	0.431900	0.343300
C321	C32	0.202400	0.300000	0.244060
H881	H88	0.188100	0.377600	0.264200
H891	H89	0.240800	0.237300	0.259800
H901	H90	0.156300	0.243600	0.234800
C331	C33	0.408800	0.138200	0.442210
H911	H91	0.414900	0.042600	0.455900
H921	H92	0.456900	0.165700	0.428900
H931	H93	0.366500	0.135800	0.418800
C341	C34	0.519200	0.526200	0.254000
H941	H94	0.499200	0.446700	0.271400
H951	H95	0.520300	0.614500	0.272000
H961	H96	0.571700	0.503200	0.245900
Ag71	Ag7	0.497420	0.088600	0.888310
Ag81	Ag8	0.180660	0.105880	0.779360
Ag91	Ag9	0.166510	0.994400	0.556220
S251	S25	0.075490	0.197090	0.528010
S261	S26	0.416210	0.865640	0.854840
S271	S27	0.257050	0.876740	0.805040
S281	S28	0.113220	0.768100	0.515350
S291	S29	0.954610	0.808760	0.837540
S301	S30	0.197630	0.997590	0.641170
S311	S31	0.195870	0.518680	0.472610
S321	S32	0.042590	0.052630	0.796340
S331	S33	0.437950	0.093380	0.964720
S341	S34	0.640300	0.051120	0.879170
S351	S35	0.732560	0.810980	0.837870
S361	S36	0.226060	0.236470	0.711420
H971	H97	0.976900	0.025900	0.522400
C351	C35	0.339300	0.974800	0.829450
H981	H98	0.360600	0.034600	0.805700
H991	H99	0.321200	0.041000	0.852600
C361	C36	0.692400	0.022100	0.932820
H1001	H100	0.659300	0.970100	0.952800
H1011	H101	0.707200	0.115200	0.946300
H1021	H102	0.739000	0.965100	0.928500
C371	C37	0.134400	0.554100	0.422490
H1031	H103	0.084100	0.589500	0.431000
H1041	H104	0.127100	0.465100	0.405100
H1051	H105	0.158700	0.627100	0.404300
C381	C38	0.023700	0.254400	0.575630
H1061	H106	0.976400	0.305300	0.565000
H1071	H107	0.056500	0.319000	0.594600
H1081	H108	0.010000	0.169900	0.593200
C391	C39	0.367500	0.791900	0.901750
H1091	H109	0.345900	0.870700	0.918900
H1101	H110	0.404600	0.737400	0.921300
H1111	H111	0.325700	0.727900	0.890400
C401	C40	0.352000	0.204200	0.957320
H1121	H112	0.329000	0.215800	0.986300
H1131	H113	0.314600	0.157700	0.935900
H1141	H114	0.365900	0.298900	0.945800
C411	C41	0.181700	0.182400	0.657800
H1151	H115	0.201100	0.246500	0.634500
H1161	H116	0.125300	0.198400	0.658200
C421	C42	0.047400	0.873300	0.819490
H1171	H117	0.085900	0.872000	0.845500
H1181	H118	0.065700	0.806400	0.796600
H1191	H119	0.468600	0.272000	0.018700
C431	C43	0.639100	0.872000	0.855340
H1201	H120	0.601300	0.869800	0.829000
H1211	H121	0.621000	0.803400	0.877800
C441	C44	0.932600	0.951100	0.876310
H1221	H122	0.967600	0.944100	0.903400
H1231	H123	0.879000	0.941200	0.884500
H1241	H124	0.939300	0.044900	0.862000
C451	C45	0.758400	0.958200	0.802130
H1251	H125	0.717500	0.972000	0.778200
H1261	H126	0.807200	0.935900	0.788800
H1271	H127	0.764400	0.046500	0.820000
C461	C46	0.326300	0.196900	0.703350
H1281	H128	0.331600	0.094900	0.695600
H1291	H129	0.357700	0.217500	0.731100
H1301	H130	0.344000	0.256700	0.679000
C471	C47	0.203500	0.696400	0.497040
H1311	H131	0.223500	0.763200	0.474700
H1321	H132	0.241800	0.693400	0.523100
C481	C48	0.123600	0.903200	0.669640
H1331	H133	0.128100	0.927400	0.701700
H1341	H134	0.130200	0.799100	0.665900
H1351	H135	0.072400	0.931900	0.656700
C491	C49	0.297600	0.800000	0.755940
H1361	H136	0.311900	0.877600	0.735800
H1371	H137	0.259200	0.737300	0.740200
H1381	H138	0.343700	0.743600	0.765200
C501	C50	0.091200	0.638200	0.557790
H1391	H139	0.085100	0.542600	0.544100
H1401	H140	0.043100	0.665700	0.571100
H1411	H141	0.133500	0.635800	0.581200
C511	C51	0.980800	0.026200	0.746000
H1421	H142	0.000800	0.946700	0.728600
H1431	H143	0.979700	0.114500	0.728000
H1441	H144	0.928300	0.003200	0.754100
Ag101	Ag10	0.997420	0.588600	0.888310
Ag111	Ag11	0.680660	0.605880	0.779360
Ag121	Ag12	0.666510	0.494400	0.556220
S371	S37	0.575490	0.697090	0.528010
S381	S38	0.916210	0.365640	0.854840
S391	S39	0.757050	0.376740	0.805040
S401	S40	0.613220	0.268100	0.515350
S411	S41	0.454610	0.308760	0.837540
S421	S42	0.697630	0.497590	0.641170
S431	S43	0.695870	0.018680	0.472610
S441	S44	0.542590	0.552630	0.796340
S451	S45	0.937950	0.593380	0.964720
S461	S46	0.140300	0.551120	0.879170
S471	S47	0.232560	0.310980	0.837870
S481	S48	0.726060	0.736470	0.711420
H1451	H145	0.476900	0.525900	0.522400
C521	C52	0.839300	0.474800	0.829450
H1461	H146	0.860600	0.534600	0.805700
H1471	H147	0.821200	0.541000	0.852600
C531	C53	0.192400	0.522100	0.932820
H1481	H148	0.159300	0.470100	0.952800
H1491	H149	0.207200	0.615200	0.946300
H1501	H150	0.239000	0.465100	0.928500
C541	C54	0.634400	0.054100	0.422490
H1511	H151	0.584100	0.089500	0.431000
H1521	H152	0.627100	0.965100	0.405100
H1531	H153	0.658700	0.127100	0.404300
C551	C55	0.523700	0.754400	0.575630
H1541	H154	0.476400	0.805300	0.565000
H1551	H155	0.556500	0.819000	0.594600
H1561	H156	0.510000	0.669900	0.593200
C561	C56	0.867500	0.291900	0.901750
H1571	H157	0.845900	0.370700	0.918900
H1581	H158	0.904600	0.237400	0.921300
H1591	H159	0.825700	0.227900	0.890400
C571	C57	0.852000	0.704200	0.957320
H1601	H160	0.829000	0.715800	0.986300
H1611	H161	0.814600	0.657700	0.935900
H1621	H162	0.865900	0.798900	0.945800
C581	C58	0.681700	0.682400	0.657800
H1631	H163	0.701100	0.746500	0.634500
H1641	H164	0.625300	0.698400	0.658200
C591	C59	0.547400	0.373300	0.819490
H1651	H165	0.585900	0.372000	0.845500
H1661	H166	0.565700	0.306400	0.796600
H1671	H167	0.968600	0.772000	0.018700
C601	C60	0.139100	0.372000	0.855340
H1681	H168	0.101300	0.369800	0.829000
H1691	H169	0.121000	0.303400	0.877800
C611	C61	0.432600	0.451100	0.876310
H1701	H170	0.467600	0.444100	0.903400
H1711	H171	0.379000	0.441200	0.884500
H1721	H172	0.439300	0.544900	0.862000
C621	C62	0.258400	0.458200	0.802130
H1731	H173	0.217500	0.472000	0.778200
H1741	H174	0.307200	0.435900	0.788800
H1751	H175	0.264400	0.546500	0.820000
C631	C63	0.826300	0.696900	0.703350
H1761	H176	0.831600	0.594900	0.695600
H1771	H177	0.857700	0.717500	0.731100
H1781	H178	0.844000	0.756700	0.679000
C641	C64	0.703500	0.196400	0.497040
H1791	H179	0.723500	0.263200	0.474700
H1801	H180	0.741800	0.193400	0.523100
C651	C65	0.623600	0.403200	0.669640
H1811	H181	0.628100	0.427400	0.701700
H1821	H182	0.630200	0.299100	0.665900
H1831	H183	0.572400	0.431900	0.656700
C661	C66	0.797600	0.300000	0.755940
H1841	H184	0.811900	0.377600	0.735800
H1851	H185	0.759200	0.237300	0.740200
H1861	H186	0.843700	0.243600	0.765200
C671	C67	0.591200	0.138200	0.557790
H1871	H187	0.585100	0.042600	0.544100
H1881	H188	0.543100	0.165700	0.571100
H1891	H189	0.633500	0.135800	0.581200
C681	C68	0.480800	0.526200	0.746000
H1901	H190	0.500800	0.446700	0.728600
H1911	H191	0.479700	0.614500	0.728000
H1921	H192	0.428300	0.503200	0.754100
C691	C69	0.000000	0.088700	0.500000
C701	C70	0.500000	0.588700	0.500000
C711	C71	0.500000	0.209700	0.000000
C721	C72	0.000000	0.709700	0.000000
