data_BIWHAQ_freeONLY_PM
_symmetry_space_group_name_H-M	'P1'
_cell_length_a	10.390000
_cell_length_b	16.087000
_cell_length_c	18.717000
_cell_angle_alpha	90.000000
_cell_angle_beta	90.000000
_cell_angle_gamma	90.000000
_symmetry_Int_Tables_number 1

loop_
_symmetry_equiv_pos_as_xyz
'x,y,z'

loop_
_atom_site_label
_atom_site_type_symbol
_atom_site_fract_x
_atom_site_fract_y
_atom_site_fract_z
Sn11	Sn1	0.509500	0.754000	0.152000
Sn21	Sn2	0.651800	0.351600	0.064100
Sn31	Sn3	0.307400	0.385400	0.067600
P11	P1	0.516600	0.552100	0.092800
P21	P2	0.250400	0.804900	0.243400
O11	O1	0.339700	0.731500	0.213600
O21	O2	0.112300	0.765200	0.248000
O31	O3	0.537100	0.615700	0.158500
O41	O4	0.470900	0.315700	0.105100
O51	O5	0.626900	0.485000	0.096000
O61	O6	0.291600	0.834200	0.318800
O71	O7	0.521800	0.605300	0.021300
O81	O8	0.384500	0.508700	0.102700
O91	O9	0.250700	0.882000	0.189900
Sn41	Sn4	0.990500	0.246000	0.652000
Sn51	Sn5	0.848200	0.648400	0.564100
Sn61	Sn6	0.192600	0.614600	0.567600
P31	P3	0.983400	0.447900	0.592800
P41	P4	0.249600	0.195100	0.743400
O101	O10	0.160300	0.268500	0.713600
O111	O11	0.387700	0.234800	0.748000
O121	O12	0.962900	0.384300	0.658500
O131	O13	0.029100	0.684300	0.605100
O141	O14	0.873100	0.515000	0.596000
O151	O15	0.208400	0.165800	0.818800
O161	O16	0.978200	0.394700	0.521300
O171	O17	0.115500	0.491300	0.602700
O181	O18	0.249300	0.118000	0.689900
Sn71	Sn7	0.490500	0.254000	0.348000
Sn81	Sn8	0.348200	0.851600	0.435900
Sn91	Sn9	0.692600	0.885400	0.432400
P51	P5	0.483400	0.052100	0.407200
P61	P6	0.749600	0.304900	0.256600
O191	O19	0.660300	0.231500	0.286400
O201	O20	0.887700	0.265200	0.252000
O211	O21	0.462900	0.115700	0.341500
O221	O22	0.529100	0.815700	0.394900
O231	O23	0.373100	0.985000	0.404000
O241	O24	0.708400	0.334200	0.181200
O251	O25	0.478200	0.105300	0.478700
O261	O26	0.615500	0.008700	0.397300
O271	O27	0.749300	0.382000	0.310100
Sn101	Sn10	0.009500	0.746000	0.848000
Sn111	Sn11	0.151800	0.148400	0.935900
Sn121	Sn12	0.807400	0.114600	0.932400
P71	P7	0.016600	0.947900	0.907200
P81	P8	0.750400	0.695100	0.756600
O281	O28	0.839700	0.768500	0.786400
O291	O29	0.612300	0.734800	0.752000
O301	O30	0.037100	0.884300	0.841500
O311	O31	0.970900	0.184300	0.894900
O321	O32	0.126900	0.015000	0.904000
O331	O33	0.791600	0.665800	0.681200
O341	O34	0.021800	0.894700	0.978700
O351	O35	0.884500	0.991300	0.897300
O361	O36	0.750700	0.618000	0.810100
Sn131	Sn13	0.490500	0.246000	0.848000
Sn141	Sn14	0.348200	0.648400	0.935900
Sn151	Sn15	0.692600	0.614600	0.932400
P91	P9	0.483400	0.447900	0.907200
P101	P10	0.749600	0.195100	0.756600
O371	O37	0.660300	0.268500	0.786400
O381	O38	0.887700	0.234800	0.752000
O391	O39	0.462900	0.384300	0.841500
O401	O40	0.529100	0.684300	0.894900
O411	O41	0.373100	0.515000	0.904000
O421	O42	0.708400	0.165800	0.681200
O431	O43	0.478200	0.394700	0.978700
O441	O44	0.615500	0.491300	0.897300
O451	O45	0.749300	0.118000	0.810100
Sn161	Sn16	0.009500	0.754000	0.348000
Sn171	Sn17	0.151800	0.351600	0.435900
Sn181	Sn18	0.807400	0.385400	0.432400
P111	P11	0.016600	0.552100	0.407200
P121	P12	0.750400	0.804900	0.256600
O461	O46	0.839700	0.731500	0.286400
O471	O47	0.612300	0.765200	0.252000
O481	O48	0.037100	0.615700	0.341500
O491	O49	0.970900	0.315700	0.394900
O501	O50	0.126900	0.485000	0.404000
O511	O51	0.791600	0.834200	0.181200
O521	O52	0.021800	0.605300	0.478700
O531	O53	0.884500	0.508700	0.397300
O541	O54	0.750700	0.882000	0.310100
Sn191	Sn19	0.509500	0.746000	0.652000
Sn201	Sn20	0.651800	0.148400	0.564100
Sn211	Sn21	0.307400	0.114600	0.567600
P131	P13	0.516600	0.947900	0.592800
P141	P14	0.250400	0.695100	0.743400
O551	O55	0.339700	0.768500	0.713600
O561	O56	0.112300	0.734800	0.748000
O571	O57	0.537100	0.884300	0.658500
O581	O58	0.470900	0.184300	0.605100
O591	O59	0.626900	0.015000	0.596000
O601	O60	0.291600	0.665800	0.818800
O611	O61	0.521800	0.894700	0.521300
O621	O62	0.384500	0.991300	0.602700
O631	O63	0.250700	0.618000	0.689900
Sn221	Sn22	0.990500	0.254000	0.152000
Sn231	Sn23	0.848200	0.851600	0.064100
Sn241	Sn24	0.192600	0.885400	0.067600
P151	P15	0.983400	0.052100	0.092800
P161	P16	0.249600	0.304900	0.243400
O641	O64	0.160300	0.231500	0.213600
O651	O65	0.387700	0.265200	0.248000
O661	O66	0.962900	0.115700	0.158500
O671	O67	0.029100	0.815700	0.105100
O681	O68	0.873100	0.985000	0.096000
O691	O69	0.208400	0.334200	0.318800
O701	O70	0.978200	0.105300	0.021300
O711	O71	0.115500	0.008700	0.102700
O721	O72	0.249300	0.382000	0.189900
