data_BIZMII_freeONLY_PM
_symmetry_space_group_name_H-M	'P1'
_cell_length_a	24.001000
_cell_length_b	24.142300
_cell_length_c	24.356400
_cell_angle_alpha	85.626000
_cell_angle_beta	61.319000
_cell_angle_gamma	60.944000
_symmetry_Int_Tables_number 1

loop_
_symmetry_equiv_pos_as_xyz
'x,y,z'

loop_
_atom_site_label
_atom_site_type_symbol
_atom_site_fract_x
_atom_site_fract_y
_atom_site_fract_z
Er11	Er1	0.363590	0.845240	0.198910
O11	O1	0.252900	0.874200	0.205500
O21	O2	0.297200	0.959300	0.220100
O31	O3	0.382300	0.869900	0.098100
O41	O4	0.454400	0.872300	0.160800
O51	O5	0.403200	0.752000	0.133200
O61	O6	0.342100	0.879700	0.297200
O71	O7	0.464200	0.761600	0.205000
O81	O8	0.311600	0.790900	0.272200
N11	N1	0.213700	0.845000	0.228600
N21	N2	0.232600	0.997400	0.223500
N31	N3	0.366900	0.849200	0.060400
N41	N4	0.466700	0.907100	0.116700
N51	N5	0.447300	0.691800	0.137600
C11	C1	0.233300	0.791800	0.193500
C21	C2	0.155100	0.871000	0.288900
C31	C3	0.232200	0.017300	0.171700
C41	C4	0.171400	0.013900	0.279200
C51	C5	0.296700	0.879500	0.073500
C61	C6	0.420600	0.797900	0.013400
C71	C7	0.427700	0.974500	0.135000
C81	C8	0.516600	0.877300	0.057800
C91	C9	0.417100	0.661700	0.178300
C101	C10	0.520900	0.665000	0.100100
H11	H1	0.276000	0.773800	0.151900
C111	C11	0.190200	0.763100	0.218600
C121	C12	0.113200	0.843100	0.314500
H21	H2	0.143500	0.908000	0.313000
H31	H3	0.277300	0.005600	0.133200
C131	C13	0.165900	0.055000	0.174000
C141	C14	0.102500	0.052500	0.283800
H41	H4	0.174300	0.999700	0.315700
H51	H5	0.259200	0.915100	0.108600
C151	C15	0.279100	0.859300	0.036400
C161	C16	0.403600	0.776200	0.975400
H61	H6	0.469700	0.776400	0.005600
H71	H7	0.392900	0.995600	0.178600
C171	C17	0.441400	0.009200	0.087900
C181	C18	0.532400	0.912800	0.007800
H81	H8	0.543300	0.831400	0.047500
H91	H9	0.365000	0.680000	0.201200
C191	C19	0.461700	0.604100	0.187000
C201	C20	0.566600	0.609100	0.107300
H101	H10	0.540400	0.686100	0.068300
H111	H11	0.202300	0.726800	0.193000
C211	C21	0.129300	0.787000	0.281000
H121	H12	0.071400	0.861900	0.356500
H131	H13	0.165900	0.069800	0.136700
C221	C22	0.098300	0.072400	0.229400
H141	H14	0.058400	0.065300	0.323800
H151	H15	0.229600	0.882900	0.045000
C231	C23	0.330700	0.805700	0.986900
H161	H16	0.442300	0.740400	0.940700
H171	H17	0.415000	0.055000	0.099900
C241	C24	0.491900	0.980600	0.023600
H181	H18	0.569600	0.890600	0.964900
H191	H19	0.439900	0.582300	0.215800
C251	C25	0.538700	0.576000	0.154600
H201	H20	0.618500	0.590900	0.080700
C261	C26	0.080700	0.758100	0.307700
C271	C27	0.028000	0.105700	0.230300
C281	C28	0.310600	0.781800	0.950700
C291	C29	0.588400	0.520500	0.170700
C301	C30	0.101800	0.700100	0.280700
C311	C31	0.009900	0.793100	0.363000
C321	C32	0.018200	0.090100	0.183200
C331	C33	0.961200	0.152100	0.286000
C341	C34	0.243100	0.822300	0.952900
C351	C35	0.357100	0.716100	0.910300
C361	C36	0.657000	0.475800	0.127600
C371	C37	0.567100	0.518300	0.234100
C381	C38	0.055800	0.675700	0.307500
H211	H21	0.148600	0.675800	0.243000
H221	H22	0.993800	0.834700	0.382700
C391	C39	0.966400	0.769500	0.387600
C401	C40	0.950600	0.117600	0.191100
H231	H23	0.059900	0.059600	0.145100
H241	H24	0.964000	0.165300	0.320000
C411	C41	0.896800	0.176300	0.290800
C421	C42	0.220200	0.799100	0.922500
H251	H25	0.212900	0.866000	0.975400
H261	H26	0.404800	0.687200	0.904600
C431	C43	0.331400	0.698400	0.882700
C441	C44	0.705200	0.426500	0.143400
H271	H27	0.673900	0.477700	0.083700
H281	H28	0.518900	0.550300	0.266300
C451	C45	0.613000	0.471600	0.251800
N61	N6	0.988200	0.709400	0.359000
H291	H29	0.072400	0.633600	0.288900
H301	H30	0.919400	0.793600	0.425300
N71	N7	0.891000	0.157800	0.243900
H311	H31	0.945600	0.107700	0.157300
H321	H32	0.853500	0.207400	0.327900
N81	N8	0.264600	0.737000	0.888300
H331	H33	0.173600	0.826300	0.925500
H341	H34	0.361500	0.656000	0.857200
N91	N9	0.682800	0.426200	0.205700
H351	H35	0.752700	0.393900	0.111100
H361	H36	0.596700	0.470500	0.295700
O91	O9	0.942600	0.686500	0.382300
O101	O10	0.822900	0.181300	0.252800
O111	O11	0.239500	0.716000	0.862000
O121	O12	0.727400	0.383100	0.223800
Er21	Er2	0.850740	0.714920	0.356190
Er31	Er3	0.744700	0.280600	0.239610
O131	O13	0.881400	0.612800	0.379800
O141	O14	0.780600	0.733900	0.470500
O151	O15	0.793500	0.790400	0.306000
O161	O16	0.821800	0.817200	0.395700
O171	O17	0.747800	0.709800	0.381900
O181	O18	0.948400	0.718700	0.270300
O191	O19	0.887400	0.649500	0.264500
O201	O20	0.720100	0.204400	0.218300
O211	O21	0.773600	0.309800	0.306700
O221	O22	0.666900	0.276500	0.342200
O231	O23	0.622300	0.345300	0.259200
O241	O24	0.865500	0.260700	0.173400
N101	N10	0.914100	0.583800	0.412800
N111	N11	0.763300	0.783300	0.509800
N121	N12	0.747900	0.790700	0.289300
N131	N13	0.806500	0.869600	0.369700
N141	N14	0.702800	0.699300	0.434600
N151	N15	0.966700	0.718000	0.208600
N161	N16	0.731100	0.150000	0.242400
N171	N17	0.793200	0.354700	0.300400
N181	N18	0.677800	0.267500	0.390900
N191	N19	0.563400	0.344600	0.305000
N201	N20	0.106000	0.732800	0.886100
C461	C46	0.988600	0.543500	0.382500
C471	C47	0.873700	0.593100	0.476800
C481	C48	0.812200	0.779000	0.524700
C491	C49	0.696800	0.836300	0.532400
C501	C50	0.676100	0.824100	0.328300
C511	C51	0.775800	0.758300	0.231200
C521	C52	0.862600	0.875500	0.323100
C531	C53	0.737100	0.915900	0.392000
C541	C54	0.636500	0.751200	0.479300
C551	C55	0.722700	0.637500	0.442200
C561	C56	0.930300	0.771000	0.192000
C571	C57	0.022400	0.662400	0.164900
C581	C58	0.680800	0.152400	0.299800
C591	C59	0.794900	0.093800	0.204600
C601	C60	0.864000	0.337600	0.264000
C611	C61	0.739100	0.415400	0.332300
C621	C62	0.720700	0.205500	0.396200
C631	C63	0.643700	0.319900	0.436300
C641	C64	0.549600	0.301500	0.294100
C651	C65	0.524300	0.383100	0.362100
C661	C66	0.108400	0.676400	0.901900
C671	C67	0.073800	0.784000	0.932600
H371	H37	0.017600	0.537500	0.337400
C681	C68	0.020500	0.512900	0.415300
C691	C69	0.907300	0.561000	0.510600
H381	H38	0.821600	0.621900	0.498500
H391	H39	0.858500	0.740100	0.510000
C701	C70	0.794400	0.830600	0.560700
C711	C71	0.680100	0.887400	0.569600
H401	H40	0.661900	0.838500	0.522800
H411	H41	0.656900	0.849300	0.367900
C721	C72	0.628200	0.823400	0.313300
C731	C73	0.731800	0.755400	0.213000
H421	H42	0.827600	0.737000	0.202100
H431	H43	0.912100	0.842100	0.309100
C741	C74	0.849900	0.928300	0.295600
C751	C75	0.718500	0.971500	0.366900
H441	H44	0.698900	0.911200	0.426200
H451	H45	0.624400	0.794200	0.473800
C761	C76	0.588600	0.740500	0.531200
C771	C77	0.671900	0.627600	0.496900
H461	H46	0.769200	0.602100	0.411700
H471	H47	0.887500	0.808100	0.223600
C781	C78	0.955700	0.772000	0.127000
C791	C79	0.049200	0.660600	0.101200
H481	H48	0.043300	0.623800	0.179100
H491	H49	0.636400	0.192500	0.324000
C801	C80	0.692000	0.097300	0.324900
C811	C81	0.809800	0.037700	0.228000
H501	H50	0.828800	0.093300	0.162600
H511	H51	0.900700	0.293300	0.244900
C821	C82	0.885000	0.383700	0.253400
C831	C83	0.757500	0.464900	0.325200
H521	H52	0.689400	0.425500	0.359100
H531	H53	0.747000	0.169200	0.363000
C841	C84	0.723900	0.198200	0.452800
C851	C85	0.648900	0.313000	0.491900
H541	H54	0.615900	0.361900	0.430600
H551	H55	0.578100	0.274900	0.252900
C861	C86	0.492100	0.295300	0.344400
C871	C87	0.465400	0.378000	0.414100
H561	H56	0.535500	0.414000	0.368300
H571	H57	0.129200	0.641300	0.869500
C881	C88	0.081500	0.670600	0.963100
C891	C89	0.042000	0.779300	0.995900
H581	H58	0.073200	0.822800	0.921500
H591	H59	0.072900	0.486800	0.393200
C901	C90	0.981200	0.516900	0.481000
H601	H60	0.878500	0.569700	0.555900
H611	H61	0.829400	0.827300	0.570700
C911	C91	0.727800	0.888300	0.584000
H621	H62	0.632200	0.924800	0.586600
H631	H63	0.576600	0.848100	0.343000
C921	C92	0.652600	0.788000	0.256200
H641	H64	0.753000	0.732000	0.171800
H651	H65	0.890400	0.930700	0.262000
C931	C93	0.777900	0.978600	0.316400
H661	H66	0.668200	0.003900	0.382400
H671	H67	0.542400	0.776300	0.561500
C941	C94	0.605900	0.677100	0.541300
H681	H68	0.684700	0.584600	0.502800
H691	H69	0.931500	0.810600	0.114400
C951	C95	0.015700	0.717000	0.080900
H701	H70	0.090000	0.621700	0.070900
H711	H71	0.655400	0.099600	0.366200
C961	C96	0.758900	0.036800	0.288700
H721	H72	0.855400	0.998800	0.202500
H731	H73	0.935100	0.371600	0.224900
C971	C97	0.831300	0.448000	0.285100
H741	H74	0.720200	0.508300	0.347300
H751	H75	0.750800	0.156100	0.459000
C981	C98	0.688100	0.252100	0.499500
H761	H76	0.625700	0.349900	0.523400
H771	H77	0.481700	0.264700	0.336000
C991	C99	0.451500	0.330900	0.403500
H781	H78	0.436400	0.405900	0.454800
H791	H79	0.087700	0.629900	0.973100
C1001	C100	0.045200	0.721900	0.012200
H801	H80	0.017900	0.815500	0.028500
C1011	C101	0.708100	0.948600	0.619000
C1021	C102	0.603500	0.782700	0.241500
C1031	C103	0.848000	0.500200	0.276800
C1041	C104	0.689700	0.242100	0.560600
C1051	C105	0.640500	0.988600	0.670900
C1061	C106	0.761500	0.967700	0.597000
C1071	C107	0.624100	0.762000	0.178500
C1081	C108	0.535300	0.795000	0.290300
C1091	C109	0.914400	0.489900	0.265500
C1101	C110	0.796800	0.561600	0.281100
C1111	C111	0.631300	0.284000	0.615800
C1121	C112	0.749600	0.189800	0.562200
C1131	C113	0.624200	0.044200	0.699900
H811	H81	0.603700	0.977000	0.687200
H821	H82	0.810100	0.939800	0.562500
C1141	C114	0.745400	0.023400	0.623300
C1151	C115	0.574600	0.759300	0.166900
H831	H83	0.672300	0.749800	0.144100
H841	H84	0.520200	0.809500	0.333000
C1161	C116	0.488200	0.786800	0.278800
C1171	C117	0.929600	0.539600	0.258800
H851	H85	0.951200	0.447400	0.262200
H861	H86	0.751100	0.569900	0.287000
C1181	C118	0.809700	0.612400	0.277200
C1191	C119	0.632200	0.270600	0.673800
H871	H87	0.590700	0.321400	0.616300
H881	H88	0.791700	0.160500	0.523500
C1201	C120	0.748800	0.180200	0.617400
N211	N21	0.675600	0.062700	0.675600
H891	H89	0.577300	0.070300	0.737000
H901	H90	0.781200	0.036200	0.606600
N221	N22	0.509500	0.769100	0.216400
H911	H91	0.586100	0.750600	0.124200
H921	H92	0.442400	0.793300	0.313100
N231	N23	0.876800	0.599700	0.266000
H931	H93	0.976800	0.530900	0.249300
H941	H94	0.772400	0.655300	0.282200
N241	N24	0.689800	0.219400	0.672800
H951	H95	0.591100	0.298800	0.713400
H961	H96	0.790800	0.144900	0.617200
Er41	Er4	0.636410	0.154760	0.801090
O251	O25	0.747100	0.125800	0.794500
O261	O26	0.702800	0.040700	0.779900
O271	O27	0.617700	0.130100	0.901900
O281	O28	0.545600	0.127700	0.839200
O291	O29	0.596800	0.248000	0.866800
O301	O30	0.657900	0.120300	0.702800
O311	O31	0.535800	0.238400	0.795000
O321	O32	0.688400	0.209100	0.727800
N251	N25	0.786300	0.155000	0.771400
N261	N26	0.767400	0.002600	0.776500
N271	N27	0.633100	0.150800	0.939600
N281	N28	0.533300	0.092900	0.883300
N291	N29	0.552700	0.308200	0.862400
C1211	C121	0.766700	0.208200	0.806500
C1221	C122	0.844900	0.129000	0.711100
C1231	C123	0.767800	0.982700	0.828300
C1241	C124	0.828600	0.986100	0.720800
C1251	C125	0.703300	0.120500	0.926500
C1261	C126	0.579400	0.202100	0.986600
C1271	C127	0.572300	0.025500	0.865000
C1281	C128	0.483400	0.122700	0.942200
C1291	C129	0.582900	0.338300	0.821700
C1301	C130	0.479100	0.335000	0.899900
H971	H97	0.724000	0.226200	0.848100
C1311	C131	0.809800	0.236900	0.781400
C1321	C132	0.886800	0.156900	0.685500
H981	H98	0.856500	0.092000	0.687000
H991	H99	0.722700	0.994400	0.866800
C1331	C133	0.834100	0.945000	0.826000
C1341	C134	0.897500	0.947500	0.716200
H1001	H100	0.825700	0.000300	0.684300
H1011	H101	0.740800	0.084900	0.891400
C1351	C135	0.720900	0.140700	0.963600
C1361	C136	0.596400	0.223800	0.024600
H1021	H102	0.530300	0.223600	0.994400
H1031	H103	0.607100	0.004400	0.821400
C1371	C137	0.558600	0.990800	0.912100
C1381	C138	0.467600	0.087200	0.992200
H1041	H104	0.456700	0.168600	0.952500
H1051	H105	0.635000	0.320000	0.798800
C1391	C139	0.538300	0.395900	0.813000
C1401	C140	0.433400	0.390900	0.892700
H1061	H106	0.459600	0.313900	0.931700
H1071	H107	0.797700	0.273200	0.807000
C1411	C141	0.870700	0.213000	0.719000
H1081	H108	0.928600	0.138100	0.643500
H1091	H109	0.834100	0.930200	0.863300
C1421	C142	0.901700	0.927600	0.770600
H1101	H110	0.941600	0.934700	0.676200
H1111	H111	0.770400	0.117100	0.955000
C1431	C143	0.669300	0.194300	0.013100
H1121	H112	0.557700	0.259600	0.059300
H1131	H113	0.585000	0.945000	0.900100
C1441	C144	0.508100	0.019400	0.976400
H1141	H114	0.430400	0.109400	0.035100
H1151	H115	0.560100	0.417700	0.784200
C1451	C145	0.461300	0.424000	0.845400
H1161	H116	0.381500	0.409100	0.919300
C1461	C146	0.919300	0.241900	0.692300
C1471	C147	0.972000	0.894300	0.769700
C1481	C148	0.689400	0.218200	0.049300
C1491	C149	0.411600	0.479500	0.829300
C1501	C150	0.898200	0.299900	0.719300
C1511	C151	0.990100	0.206900	0.637000
C1521	C152	0.981800	0.909900	0.816800
C1531	C153	0.038800	0.847900	0.714000
C1541	C154	0.756900	0.177700	0.047100
C1551	C155	0.642900	0.283900	0.089700
C1561	C156	0.343000	0.524200	0.872400
C1571	C157	0.432900	0.481700	0.765900
C1581	C158	0.944200	0.324300	0.692500
H1171	H117	0.851400	0.324200	0.757000
H1181	H118	0.006200	0.165300	0.617300
C1591	C159	0.033600	0.230500	0.612400
C1601	C160	0.049400	0.882400	0.808900
H1191	H119	0.940100	0.940400	0.854900
H1201	H120	0.036000	0.834700	0.680000
C1611	C161	0.103200	0.823700	0.709200
C1621	C162	0.779800	0.200900	0.077500
H1211	H121	0.787100	0.134000	0.024600
H1221	H122	0.595200	0.312800	0.095400
C1631	C163	0.668600	0.301600	0.117300
C1641	C164	0.294800	0.573500	0.856600
H1231	H123	0.326100	0.522300	0.916300
H1241	H124	0.481100	0.449700	0.733700
C1651	C165	0.387000	0.528400	0.748200
N301	N30	0.011800	0.290600	0.641000
H1251	H125	0.927600	0.366400	0.711100
H1261	H126	0.080600	0.206400	0.574700
N311	N31	0.109000	0.842200	0.756100
H1271	H127	0.054400	0.892300	0.842700
H1281	H128	0.146500	0.792600	0.672100
N321	N32	0.735400	0.263000	0.111700
H1291	H129	0.826400	0.173700	0.074500
H1301	H130	0.638500	0.344000	0.142800
N331	N33	0.317200	0.573800	0.794300
H1311	H131	0.247300	0.606100	0.888900
H1321	H132	0.403300	0.529500	0.704300
O331	O33	0.057400	0.313500	0.617700
O341	O34	0.177100	0.818700	0.747200
O351	O35	0.760500	0.284000	0.138000
O361	O36	0.272600	0.616900	0.776200
Er51	Er5	0.149260	0.285080	0.643810
Er61	Er6	0.255300	0.719400	0.760390
O371	O37	0.118600	0.387200	0.620200
O381	O38	0.219400	0.266100	0.529500
O391	O39	0.206500	0.209600	0.694000
O401	O40	0.178200	0.182800	0.604300
O411	O41	0.252200	0.290200	0.618100
O421	O42	0.051600	0.281300	0.729700
O431	O43	0.112600	0.350500	0.735500
O441	O44	0.279900	0.795600	0.781700
O451	O45	0.226400	0.690200	0.693300
O461	O46	0.333100	0.723500	0.657800
O471	O47	0.377700	0.654700	0.740800
O481	O48	0.134500	0.739300	0.826600
N341	N34	0.085900	0.416200	0.587200
N351	N35	0.236700	0.216700	0.490200
N361	N36	0.252100	0.209300	0.710700
N371	N37	0.193500	0.130400	0.630300
N381	N38	0.297200	0.300700	0.565400
N391	N39	0.033300	0.282000	0.791400
N401	N40	0.268900	0.850000	0.757600
N411	N41	0.206800	0.645300	0.699600
N421	N42	0.322200	0.732500	0.609100
N431	N43	0.436600	0.655400	0.695000
N441	N44	0.894000	0.267200	0.113900
C1661	C166	0.011400	0.456500	0.617500
C1671	C167	0.126300	0.406900	0.523200
C1681	C168	0.187800	0.221000	0.475300
C1691	C169	0.303200	0.163700	0.467600
C1701	C170	0.323900	0.175900	0.671700
C1711	C171	0.224200	0.241700	0.768800
C1721	C172	0.137400	0.124500	0.676900
C1731	C173	0.262900	0.084100	0.608000
C1741	C174	0.363500	0.248800	0.520700
C1751	C175	0.277300	0.362500	0.557800
C1761	C176	0.069700	0.229000	0.808000
C1771	C177	0.977600	0.337600	0.835100
C1781	C178	0.319200	0.847600	0.700200
C1791	C179	0.205100	0.906200	0.795400
C1801	C180	0.136000	0.662400	0.736000
C1811	C181	0.260900	0.584600	0.667700
C1821	C182	0.279300	0.794500	0.603800
C1831	C183	0.356300	0.680100	0.563700
C1841	C184	0.450400	0.698500	0.705900
C1851	C185	0.475700	0.616900	0.637900
C1861	C186	0.891600	0.323600	0.098100
C1871	C187	0.926200	0.216000	0.067400
H1331	H133	0.982400	0.462500	0.662600
C1881	C188	0.979500	0.487100	0.584700
C1891	C189	0.092700	0.439000	0.489400
H1341	H134	0.178400	0.378100	0.501500
H1351	H135	0.141500	0.259900	0.490000
C1901	C190	0.205600	0.169400	0.439300
C1911	C191	0.319900	0.112600	0.430400
H1361	H136	0.338100	0.161500	0.477200
H1371	H137	0.343100	0.150700	0.632100
C1921	C192	0.371800	0.176600	0.686700
C1931	C193	0.268200	0.244600	0.787000
H1381	H138	0.172400	0.263000	0.797900
H1391	H139	0.087900	0.157900	0.690900
C1941	C194	0.150100	0.071700	0.704400
C1951	C195	0.281500	0.028500	0.633100
H1401	H140	0.301100	0.088800	0.573800
H1411	H141	0.375600	0.205800	0.526200
C1961	C196	0.411400	0.259500	0.468800
C1971	C197	0.328100	0.372400	0.503100
H1421	H142	0.230800	0.397900	0.588300
H1431	H143	0.112500	0.191900	0.776400
C1981	C198	0.044300	0.228000	0.873000
C1991	C199	0.950800	0.339400	0.898800
H1441	H144	0.956700	0.376200	0.820900
H1451	H145	0.363600	0.807500	0.676000
C2001	C200	0.308000	0.902700	0.675100
C2011	C201	0.190200	0.962300	0.772000
H1461	H146	0.171200	0.906700	0.837400
H1471	H147	0.099300	0.706700	0.755100
C2021	C202	0.115000	0.616300	0.746600
C2031	C203	0.242500	0.535100	0.674800
H1481	H148	0.310600	0.574500	0.640900
H1491	H149	0.253000	0.830800	0.637000
C2041	C204	0.276100	0.801800	0.547200
C2051	C205	0.351100	0.687000	0.508100
H1501	H150	0.384100	0.638100	0.569400
H1511	H151	0.421900	0.725100	0.747100
C2061	C206	0.507900	0.704700	0.655600
C2071	C207	0.534600	0.622000	0.585900
H1521	H152	0.464500	0.586000	0.631700
H1531	H153	0.870800	0.358700	0.130500
C2081	C208	0.918500	0.329400	0.036900
C2091	C209	0.958000	0.220700	0.004100
H1541	H154	0.926800	0.177200	0.078500
H1551	H155	0.927100	0.513200	0.606800
C2101	C210	0.018800	0.483100	0.519000
H1561	H156	0.121500	0.430300	0.444100
H1571	H157	0.170600	0.172700	0.429300
C2111	C211	0.272200	0.111700	0.416000
H1581	H158	0.367800	0.075200	0.413400
H1591	H159	0.423400	0.151900	0.657000
C2121	C212	0.347400	0.212000	0.743800
H1601	H160	0.247000	0.268000	0.828200
H1611	H161	0.109600	0.069300	0.738000
C2131	C213	0.222100	0.021400	0.683600
H1621	H162	0.331800	0.996100	0.617600
H1631	H163	0.457600	0.223700	0.438500
C2141	C214	0.394100	0.322900	0.458700
H1641	H164	0.315300	0.415400	0.497200
H1651	H165	0.068500	0.189400	0.885600
C2151	C215	0.984300	0.283000	0.919100
H1661	H166	0.910000	0.378300	0.929100
H1671	H167	0.344600	0.900400	0.633800
C2161	C216	0.241100	0.963200	0.711300
H1681	H168	0.144600	0.001200	0.797500
H1691	H169	0.064900	0.628400	0.775100
C2171	C217	0.168700	0.552000	0.714900
H1701	H170	0.279800	0.491700	0.652700
H1711	H171	0.249200	0.843900	0.541000
C2181	C218	0.311900	0.747900	0.500500
H1721	H172	0.374300	0.650100	0.476600
H1731	H173	0.518300	0.735300	0.664000
C2191	C219	0.548500	0.669100	0.596500
H1741	H174	0.563600	0.594100	0.545200
H1751	H175	0.912300	0.370100	0.026900
C2201	C220	0.954800	0.278100	0.987800
H1761	H176	0.982100	0.184500	0.971500
C2211	C221	0.291900	0.051400	0.381000
C2221	C222	0.396500	0.217300	0.758500
C2231	C223	0.152000	0.499800	0.723200
C2241	C224	0.310300	0.757900	0.439400
C2251	C225	0.359500	0.011400	0.329100
C2261	C226	0.238500	0.032300	0.403000
C2271	C227	0.375900	0.238000	0.821500
C2281	C228	0.464700	0.205000	0.709700
C2291	C229	0.085600	0.510100	0.734500
C2301	C230	0.203200	0.438400	0.718900
C2311	C231	0.368700	0.716000	0.384200
C2321	C232	0.250400	0.810200	0.437800
C2331	C233	0.375800	0.955800	0.300100
H1771	H177	0.396300	0.023000	0.312800
H1781	H178	0.189900	0.060200	0.437500
C2341	C234	0.254600	0.976600	0.376700
C2351	C235	0.425400	0.240700	0.833100
H1791	H179	0.327700	0.250200	0.855900
H1801	H180	0.479800	0.190500	0.667000
C2361	C236	0.511800	0.213200	0.721200
C2371	C237	0.070400	0.460400	0.741200
H1811	H181	0.048800	0.552600	0.737800
H1821	H182	0.248900	0.430100	0.713000
C2381	C238	0.190300	0.387600	0.722800
C2391	C239	0.367800	0.729400	0.326200
H1831	H183	0.409300	0.678600	0.383700
H1841	H184	0.208300	0.839500	0.476500
C2401	C240	0.251200	0.819800	0.382600
N451	N45	0.324400	0.937300	0.324400
H1851	H185	0.422700	0.929700	0.263000
H1861	H186	0.218800	0.963800	0.393400
N461	N46	0.490500	0.230900	0.783600
H1871	H187	0.413900	0.249400	0.875800
H1881	H188	0.557600	0.206700	0.686900
N471	N47	0.123200	0.400300	0.734000
H1891	H189	0.023200	0.469100	0.750700
H1901	H190	0.227600	0.344700	0.717800
N481	N48	0.310200	0.780600	0.327200
H1911	H191	0.408900	0.701200	0.286600
H1921	H192	0.209200	0.855100	0.382800
