data_BIZMAA_freeONLY_PM
_symmetry_space_group_name_H-M	'P1'
_cell_length_a	24.024000
_cell_length_b	24.187600
_cell_length_c	24.399000
_cell_angle_alpha	84.067000
_cell_angle_beta	61.943000
_cell_angle_gamma	61.651000
_symmetry_Int_Tables_number 1

loop_
_symmetry_equiv_pos_as_xyz
'x,y,z'

loop_
_atom_site_label
_atom_site_type_symbol
_atom_site_fract_x
_atom_site_fract_y
_atom_site_fract_z
Dy11	Dy1	0.351310	0.856290	0.209680
O11	O1	0.245300	0.880000	0.210500
O21	O2	0.283800	0.969000	0.228100
O31	O3	0.370200	0.882200	0.107900
O41	O4	0.439400	0.886800	0.174900
O51	O5	0.390000	0.763200	0.145600
O61	O6	0.330100	0.891300	0.306300
O71	O7	0.453000	0.771700	0.214500
O81	O8	0.301300	0.798000	0.283500
N11	N1	0.206500	0.850300	0.239300
N21	N2	0.221700	0.005800	0.230300
N31	N3	0.354300	0.862100	0.071100
N41	N4	0.457200	0.917900	0.125900
N51	N5	0.438600	0.702800	0.145900
C11	C1	0.224000	0.796600	0.206300
C21	C2	0.144300	0.876200	0.294600
C31	C3	0.220500	0.023000	0.177900
C41	C4	0.162300	0.023600	0.281700
C51	C5	0.289100	0.887200	0.080600
C61	C6	0.410200	0.815100	0.022500
C71	C7	0.417300	0.981000	0.140300
C81	C8	0.509800	0.886300	0.073800
C91	C9	0.408900	0.672000	0.192800
C101	C10	0.507900	0.680100	0.109600
H11	H1	0.264800	0.779600	0.165600
C111	C11	0.182700	0.768100	0.232400
C121	C12	0.107400	0.845800	0.320900
H21	H2	0.127200	0.916900	0.314600
H31	H3	0.264600	0.010900	0.140100
C131	C13	0.156600	0.057800	0.176700
C141	C14	0.091600	0.060500	0.284700
H41	H4	0.164200	0.012400	0.319500
H51	H5	0.251700	0.921500	0.114000
C151	C15	0.271800	0.865600	0.043700
C161	C16	0.396300	0.791900	0.980900
H61	H6	0.457900	0.797700	0.016000
H71	H7	0.381400	0.002000	0.182000
C171	C17	0.433000	0.015400	0.086600
C181	C18	0.531000	0.917100	0.018000
H81	H8	0.537000	0.841500	0.070300
H91	H9	0.358200	0.690600	0.219000
C191	C19	0.456500	0.612100	0.200300
C201	C20	0.553800	0.623600	0.114600
H101	H10	0.525500	0.704000	0.079500
H111	H11	0.197100	0.730500	0.208700
C211	C21	0.124400	0.787700	0.287700
H121	H12	0.068600	0.861700	0.362700
H131	H13	0.157700	0.070200	0.138100
C221	C22	0.088600	0.076300	0.231400
H141	H14	0.048600	0.073000	0.323700
H151	H15	0.222900	0.884300	0.052700
C231	C23	0.325400	0.816500	0.993500
H161	H16	0.434900	0.760300	0.945400
H171	H17	0.404200	0.060300	0.093200
C241	C24	0.487100	0.985300	0.028400
H181	H18	0.569700	0.893700	0.978000
H191	H19	0.438500	0.587900	0.229500
C251	C25	0.526800	0.590900	0.165300
H201	H20	0.603800	0.604700	0.085400
C261	C26	0.075000	0.760400	0.319000
C271	C27	0.019400	0.110300	0.232500
C281	C28	0.304800	0.790200	0.958200
C291	C29	0.580600	0.534000	0.176900
C301	C30	0.098000	0.700100	0.287600
C311	C31	0.011100	0.788100	0.367900
C321	C32	0.009900	0.092200	0.187300
C331	C33	0.961200	0.155000	0.278900
C341	C34	0.240600	0.824200	0.961900
C351	C35	0.347100	0.733200	0.926400
C361	C36	0.644500	0.491500	0.128800
C371	C37	0.564500	0.522500	0.238200
C381	C38	0.047200	0.675800	0.317200
H211	H21	0.142900	0.678000	0.250400
H221	H22	0.996600	0.828200	0.387100
C391	C39	0.963100	0.766600	0.394600
C401	C40	0.940500	0.116800	0.194800
H231	H23	0.050600	0.062800	0.150900
H241	H24	0.965000	0.171300	0.310000
C411	C41	0.892800	0.178900	0.282700
C421	C42	0.220200	0.799100	0.930500
H251	H25	0.208600	0.865600	0.985800
H261	H26	0.391900	0.709500	0.926500
C431	C43	0.332700	0.702600	0.891200
C441	C44	0.694800	0.438500	0.138700
H271	H27	0.654900	0.498500	0.086800
H281	H28	0.518200	0.548700	0.272500
C451	C45	0.618700	0.470700	0.248500
N61	N6	0.982600	0.710600	0.366400
H291	H29	0.060200	0.634800	0.301300
H301	H30	0.918100	0.789700	0.431300
N71	N7	0.884700	0.159700	0.241000
H311	H31	0.934700	0.101300	0.164800
H321	H32	0.851400	0.210300	0.317300
N81	N8	0.262600	0.742000	0.896700
H331	H33	0.173800	0.824100	0.933600
H341	H34	0.365700	0.661200	0.867200
N91	N9	0.679200	0.429500	0.200300
H351	H35	0.738800	0.409100	0.104400
H361	H36	0.611400	0.465700	0.290100
O91	O9	0.937900	0.686800	0.387500
O101	O10	0.820000	0.183600	0.245300
O111	O11	0.241300	0.715100	0.871200
O121	O12	0.725500	0.382000	0.214000
Dy21	Dy2	0.845160	0.717220	0.360430
Dy31	Dy3	0.742780	0.279760	0.231530
O131	O13	0.870900	0.614300	0.384300
O141	O14	0.780300	0.731800	0.473600
O151	O15	0.792600	0.794000	0.307100
O161	O16	0.824000	0.812500	0.396500
O171	O17	0.736000	0.720600	0.390800
O181	O18	0.942100	0.720600	0.275200
O191	O19	0.871200	0.656800	0.274100
O201	O20	0.717500	0.202500	0.212800
O211	O21	0.768700	0.309500	0.301800
O221	O22	0.664800	0.274200	0.333100
O231	O23	0.623300	0.338100	0.246200
O241	O24	0.861400	0.264600	0.168300
N101	N10	0.906900	0.583000	0.417900
N111	N11	0.760200	0.781700	0.513200
N121	N12	0.746600	0.793900	0.289600
N131	N13	0.806900	0.868700	0.367600
N141	N14	0.686500	0.714900	0.444000
N151	N15	0.963600	0.719400	0.214300
N161	N16	0.730200	0.147900	0.235200
N171	N17	0.783400	0.360000	0.296600
N181	N18	0.675000	0.263300	0.384200
N191	N19	0.563700	0.338100	0.298000
N201	N20	0.107600	0.733200	0.891000
C461	C46	0.975000	0.545800	0.384000
C471	C47	0.872700	0.590900	0.479800
C481	C48	0.810900	0.776300	0.528700
C491	C49	0.703400	0.830900	0.527400
C501	C50	0.676800	0.833100	0.328800
C511	C51	0.770200	0.762800	0.235800
C521	C52	0.864100	0.874300	0.319300
C531	C53	0.740600	0.911900	0.390200
C541	C54	0.627100	0.763700	0.483400
C551	C55	0.708100	0.649000	0.455700
C561	C56	0.933800	0.771700	0.192000
C571	C57	0.015000	0.666100	0.174200
C581	C58	0.682600	0.147300	0.294300
C591	C59	0.790300	0.096200	0.201700
C601	C60	0.850900	0.345700	0.260100
C611	C61	0.734800	0.413400	0.328600
C621	C62	0.720300	0.205600	0.387500
C631	C63	0.630000	0.311300	0.433100
C641	C64	0.553500	0.288700	0.284400
C651	C65	0.520500	0.380400	0.350700
C661	C66	0.118100	0.673400	0.901500
C671	C67	0.072600	0.787600	0.934600
H371	H37	0.998200	0.539800	0.339800
C681	C68	0.014300	0.512700	0.419900
C691	C69	0.911800	0.556000	0.511800
H381	H38	0.822400	0.619800	0.502700
H391	H39	0.854300	0.737300	0.517200
C701	C70	0.797800	0.825600	0.559300
C711	C71	0.684600	0.880400	0.564800
H401	H40	0.672500	0.834000	0.512000
H411	H41	0.662700	0.860800	0.363300
C721	C72	0.621100	0.832100	0.316500
C731	C73	0.724500	0.761600	0.218100
H421	H42	0.820700	0.740300	0.208100
H431	H43	0.912100	0.840600	0.304700
C741	C74	0.850800	0.929000	0.292900
C751	C75	0.726600	0.964200	0.364200
H441	H44	0.703200	0.906500	0.424200
H451	H45	0.617600	0.805500	0.474700
C761	C76	0.578400	0.755000	0.537200
C771	C77	0.660200	0.639800	0.509100
H461	H46	0.753200	0.614600	0.427400
H471	H47	0.894800	0.809500	0.220500
C781	C78	0.958400	0.771800	0.128800
C791	C79	0.044700	0.665100	0.108400
H481	H48	0.033200	0.627600	0.190000
H491	H49	0.639400	0.185200	0.319000
C801	C80	0.697900	0.092400	0.316900
C811	C81	0.807700	0.036900	0.223100
H501	H50	0.823500	0.098600	0.161300
H511	H51	0.886200	0.303500	0.238900
C821	C82	0.870800	0.392800	0.252600
C831	C83	0.749700	0.464000	0.325000
H521	H52	0.687300	0.420100	0.355700
H531	H53	0.746300	0.172200	0.353500
C841	C84	0.730800	0.192400	0.443200
C851	C85	0.640100	0.304600	0.485800
H541	H54	0.592700	0.349400	0.431500
H551	H55	0.581000	0.263400	0.244200
C861	C86	0.497600	0.280600	0.337400
C871	C87	0.472000	0.370300	0.396500
H561	H56	0.525300	0.416500	0.354200
H571	H57	0.144000	0.637800	0.869800
C881	C88	0.080800	0.672700	0.973800
C891	C89	0.042600	0.780200	0.997300
H581	H58	0.069700	0.827000	0.921900
H591	H59	0.065300	0.487200	0.397800
C901	C90	0.978300	0.518400	0.483700
H601	H60	0.886600	0.561200	0.556400
H611	H61	0.834200	0.822600	0.567300
C911	C91	0.734300	0.881700	0.580500
H621	H62	0.637100	0.915400	0.581200
H631	H63	0.570900	0.854200	0.345400
C921	C92	0.649700	0.795400	0.258200
H641	H64	0.743200	0.738000	0.179000
H651	H65	0.889200	0.935700	0.262600
C931	C93	0.777200	0.975700	0.312300
H661	H66	0.677800	0.997000	0.382500
H671	H67	0.534500	0.790700	0.565100
C941	C94	0.593400	0.691300	0.551800
H681	H68	0.671800	0.597800	0.518100
H691	H69	0.936700	0.810500	0.114800
C951	C95	0.012700	0.719200	0.084900
H701	H70	0.086000	0.627800	0.080500
H711	H71	0.663000	0.092200	0.357400
C961	C96	0.758500	0.038000	0.286700
H721	H72	0.849300	0.998700	0.197100
H731	H73	0.918700	0.384300	0.223900
C971	C97	0.817800	0.453200	0.288700
H741	H74	0.712100	0.505100	0.347800
H751	H75	0.764300	0.152000	0.446200
C981	C98	0.687100	0.244800	0.491800
H761	H76	0.615100	0.340200	0.517200
H771	H77	0.487800	0.247800	0.334000
C991	C99	0.458400	0.321900	0.393400
H781	H78	0.443600	0.398300	0.435100
H791	H79	0.082200	0.634000	0.987400
C1001	C100	0.046000	0.724000	0.019300
H801	H80	0.017500	0.816600	0.027800
C1011	C101	0.722400	0.940700	0.611100
C1021	C102	0.599500	0.790900	0.243300
C1031	C103	0.836000	0.511800	0.280400
C1041	C104	0.690900	0.237200	0.552000
C1051	C105	0.652900	0.977400	0.662000
C1061	C106	0.767000	0.962700	0.590200
C1071	C107	0.613200	0.771700	0.187600
C1081	C108	0.530400	0.805400	0.296800
C1091	C109	0.905500	0.492700	0.261200
C1101	C110	0.781300	0.568900	0.293400
C1111	C111	0.634600	0.273000	0.606900
C1121	C112	0.752400	0.183800	0.552200
C1131	C113	0.630900	0.038300	0.693900
H811	H81	0.619100	0.962300	0.676200
H821	H82	0.812600	0.940800	0.553800
C1141	C114	0.747000	0.020100	0.622400
C1151	C115	0.561500	0.767100	0.179300
H831	H83	0.659000	0.760600	0.152300
H841	H84	0.518600	0.817700	0.338200
C1161	C116	0.477300	0.799800	0.282700
C1171	C117	0.915800	0.547100	0.262100
H851	H85	0.942800	0.449700	0.248800
H861	H86	0.734500	0.574300	0.308100
C1181	C118	0.791600	0.619500	0.285800
C1191	C119	0.640400	0.261100	0.662200
H871	H87	0.591200	0.306000	0.608400
H881	H88	0.792300	0.155300	0.514900
C1201	C120	0.750000	0.176500	0.607800
N211	N21	0.685800	0.054600	0.666700
H891	H89	0.584900	0.063600	0.728800
H901	H90	0.782400	0.033000	0.609400
N221	N22	0.497600	0.779600	0.225000
H911	H91	0.573700	0.754200	0.138000
H921	H92	0.430000	0.810900	0.315500
N231	N23	0.859000	0.608100	0.276400
H931	H93	0.961800	0.540600	0.252800
H941	H94	0.755800	0.660500	0.286700
N241	N24	0.696300	0.213200	0.661100
H951	H95	0.602600	0.288800	0.700600
H961	H96	0.790600	0.141800	0.609100
Dy41	Dy4	0.648690	0.143710	0.790320
O251	O25	0.754700	0.120000	0.789500
O261	O26	0.716200	0.031000	0.771900
O271	O27	0.629800	0.117800	0.892100
O281	O28	0.560600	0.113200	0.825100
O291	O29	0.610000	0.236800	0.854400
O301	O30	0.669900	0.108700	0.693700
O311	O31	0.547000	0.228300	0.785500
O321	O32	0.698700	0.202000	0.716500
N251	N25	0.793500	0.149700	0.760700
N261	N26	0.778300	0.994200	0.769700
N271	N27	0.645700	0.137900	0.928900
N281	N28	0.542800	0.082100	0.874100
N291	N29	0.561400	0.297200	0.854100
C1211	C121	0.776000	0.203400	0.793700
C1221	C122	0.855700	0.123800	0.705400
C1231	C123	0.779500	0.977000	0.822100
C1241	C124	0.837700	0.976400	0.718300
C1251	C125	0.710900	0.112800	0.919400
C1261	C126	0.589800	0.184900	0.977500
C1271	C127	0.582700	0.019000	0.859700
C1281	C128	0.490200	0.113700	0.926200
C1291	C129	0.591100	0.328000	0.807200
C1301	C130	0.492100	0.319900	0.890400
H971	H97	0.735200	0.220400	0.834400
C1311	C131	0.817300	0.231900	0.767600
C1321	C132	0.892600	0.154200	0.679100
H981	H98	0.872800	0.083100	0.685400
H991	H99	0.735400	0.989100	0.859900
C1331	C133	0.843400	0.942200	0.823300
C1341	C134	0.908400	0.939500	0.715300
H1001	H100	0.835800	0.987600	0.680500
H1011	H101	0.748300	0.078500	0.886000
C1351	C135	0.728200	0.134400	0.956300
C1361	C136	0.603700	0.208100	0.019100
H1021	H102	0.542100	0.202300	0.984000
H1031	H103	0.618600	0.998000	0.818000
C1371	C137	0.567000	0.984600	0.913400
C1381	C138	0.469000	0.082900	0.982000
H1041	H104	0.463000	0.158500	0.929700
H1051	H105	0.641800	0.309400	0.781000
C1391	C139	0.543500	0.387900	0.799700
C1401	C140	0.446200	0.376400	0.885400
H1061	H106	0.474500	0.296000	0.920500
H1071	H107	0.802900	0.269500	0.791300
C1411	C141	0.875600	0.212300	0.712300
H1081	H108	0.931400	0.138300	0.637300
H1091	H109	0.842300	0.929800	0.861900
C1421	C142	0.911400	0.923700	0.768600
H1101	H110	0.951400	0.927000	0.676300
H1111	H111	0.777100	0.115700	0.947300
C1431	C143	0.674600	0.183500	0.006500
H1121	H112	0.565100	0.239700	0.054600
H1131	H113	0.595800	0.939700	0.906800
C1441	C144	0.512900	0.014700	0.971600
H1141	H114	0.430300	0.106300	0.022000
H1151	H115	0.561500	0.412100	0.770500
C1451	C145	0.473200	0.409100	0.834700
H1161	H116	0.396200	0.395300	0.914600
C1461	C146	0.925000	0.239600	0.681000
C1471	C147	0.980600	0.889700	0.767500
C1481	C148	0.695200	0.209800	0.041800
C1491	C149	0.419400	0.466000	0.823100
C1501	C150	0.902000	0.299900	0.712400
C1511	C151	0.988900	0.211900	0.632100
C1521	C152	0.990100	0.907800	0.812700
C1531	C153	0.038800	0.845000	0.721100
C1541	C154	0.759400	0.175800	0.038100
C1551	C155	0.652900	0.266800	0.073600
C1561	C156	0.355500	0.508500	0.871200
C1571	C157	0.435500	0.477500	0.761800
C1581	C158	0.952800	0.324200	0.682800
H1171	H117	0.857100	0.322000	0.749600
H1181	H118	0.003400	0.171800	0.612900
C1591	C159	0.036900	0.233400	0.605400
C1601	C160	0.059500	0.883200	0.805200
H1191	H119	0.949400	0.937200	0.849100
H1201	H120	0.035000	0.828700	0.690000
C1611	C161	0.107200	0.821100	0.717300
C1621	C162	0.779800	0.200900	0.069500
H1211	H121	0.791400	0.134400	0.014200
H1221	H122	0.608100	0.290500	0.073500
C1631	C163	0.667300	0.297400	0.108800
C1641	C164	0.305200	0.561500	0.861300
H1231	H123	0.345100	0.501500	0.913200
H1241	H124	0.481800	0.451300	0.727500
C1651	C165	0.381300	0.529300	0.751500
N301	N30	0.017400	0.289400	0.633600
H1251	H125	0.939800	0.365200	0.698700
H1261	H126	0.081900	0.210300	0.568700
N311	N31	0.115300	0.840300	0.759000
H1271	H127	0.065300	0.898700	0.835200
H1281	H128	0.148600	0.789700	0.682700
N321	N32	0.737400	0.258000	0.103300
H1291	H129	0.826200	0.175900	0.066400
H1301	H130	0.634300	0.338800	0.132800
N331	N33	0.320800	0.570500	0.799700
H1311	H131	0.261200	0.590900	0.895600
H1321	H132	0.388600	0.534300	0.709900
O331	O33	0.062100	0.313200	0.612500
O341	O34	0.180000	0.816400	0.754700
O351	O35	0.758700	0.284900	0.128800
O361	O36	0.274500	0.618000	0.786000
Dy51	Dy5	0.154840	0.282780	0.639570
Dy61	Dy6	0.257220	0.720240	0.768470
O371	O37	0.129100	0.385700	0.615700
O381	O38	0.219700	0.268200	0.526400
O391	O39	0.207400	0.206000	0.692900
O401	O40	0.176000	0.187500	0.603500
O411	O41	0.264000	0.279400	0.609200
O421	O42	0.057900	0.279400	0.724800
O431	O43	0.128800	0.343200	0.725900
O441	O44	0.282500	0.797500	0.787200
O451	O45	0.231300	0.690500	0.698200
O461	O46	0.335200	0.725800	0.666900
O471	O47	0.376700	0.661900	0.753800
O481	O48	0.138600	0.735400	0.831700
N341	N34	0.093100	0.417000	0.582100
N351	N35	0.239800	0.218300	0.486800
N361	N36	0.253400	0.206100	0.710400
N371	N37	0.193100	0.131300	0.632400
N381	N38	0.313500	0.285100	0.556000
N391	N39	0.036400	0.280600	0.785700
N401	N40	0.269800	0.852100	0.764800
N411	N41	0.216600	0.640000	0.703400
N421	N42	0.325000	0.736700	0.615800
N431	N43	0.436300	0.661900	0.702000
N441	N44	0.892400	0.266800	0.109000
C1661	C166	0.025000	0.454200	0.616000
C1671	C167	0.127300	0.409100	0.520200
C1681	C168	0.189100	0.223700	0.471300
C1691	C169	0.296600	0.169100	0.472600
C1701	C170	0.323200	0.166900	0.671200
C1711	C171	0.229800	0.237200	0.764200
C1721	C172	0.135900	0.125700	0.680700
C1731	C173	0.259400	0.088100	0.609800
C1741	C174	0.372900	0.236300	0.516600
C1751	C175	0.291900	0.351000	0.544300
C1761	C176	0.066200	0.228300	0.808000
C1771	C177	0.985000	0.333900	0.825800
C1781	C178	0.317400	0.852700	0.705700
C1791	C179	0.209700	0.903800	0.798300
C1801	C180	0.149100	0.654300	0.739900
C1811	C181	0.265200	0.586600	0.671400
C1821	C182	0.279700	0.794400	0.612500
C1831	C183	0.370000	0.688700	0.566900
C1841	C184	0.446500	0.711300	0.715600
C1851	C185	0.479500	0.619600	0.649300
C1861	C186	0.881900	0.326600	0.098500
C1871	C187	0.927400	0.212400	0.065400
H1331	H133	0.001800	0.460200	0.660200
C1881	C188	0.985700	0.487300	0.580100
C1891	C189	0.088200	0.444000	0.488200
H1341	H134	0.177600	0.380200	0.497300
H1351	H135	0.145700	0.262700	0.482800
C1901	C190	0.202200	0.174400	0.440700
C1911	C191	0.315400	0.119600	0.435200
H1361	H136	0.327500	0.166000	0.488000
H1371	H137	0.337300	0.139200	0.636700
C1921	C192	0.378900	0.167900	0.683500
C1931	C193	0.275500	0.238400	0.781900
H1381	H138	0.179300	0.259700	0.791900
H1391	H139	0.087900	0.159400	0.695300
C1941	C194	0.149200	0.071000	0.707100
C1951	C195	0.273400	0.035800	0.635800
H1401	H140	0.296800	0.093500	0.575800
H1411	H141	0.382400	0.194500	0.525300
C1961	C196	0.421600	0.245000	0.462800
C1971	C197	0.339800	0.360200	0.490900
H1421	H142	0.246800	0.385400	0.572600
H1431	H143	0.105200	0.190500	0.779500
C1981	C198	0.041600	0.228200	0.871200
C1991	C199	0.955300	0.334900	0.891600
H1441	H144	0.966800	0.372400	0.810000
H1451	H145	0.360600	0.814800	0.681000
C2001	C200	0.302100	0.907600	0.683100
C2011	C201	0.192300	0.963100	0.776900
H1461	H146	0.176500	0.901400	0.838700
H1471	H147	0.113800	0.696500	0.761100
C2021	C202	0.129200	0.607200	0.747400
C2031	C203	0.250300	0.536000	0.675000
H1481	H148	0.312700	0.579900	0.644300
H1491	H149	0.253700	0.827800	0.646500
C2041	C204	0.269200	0.807600	0.556800
C2051	C205	0.359900	0.695400	0.514200
H1501	H150	0.407300	0.650600	0.568500
H1511	H151	0.419000	0.736600	0.755800
C2061	C206	0.502400	0.719400	0.662600
C2071	C207	0.528000	0.629700	0.603500
H1521	H152	0.474700	0.583500	0.645800
H1531	H153	0.856000	0.362200	0.130200
C2081	C208	0.919200	0.327300	0.026200
C2091	C209	0.957400	0.219800	0.002700
H1541	H154	0.930300	0.173000	0.078100
H1551	H155	0.934700	0.512800	0.602200
C2101	C210	0.021700	0.481600	0.516300
H1561	H156	0.113400	0.438800	0.443600
H1571	H157	0.165800	0.177400	0.432700
C2111	C211	0.265700	0.118300	0.419500
H1581	H158	0.362900	0.084600	0.418800
H1591	H159	0.429100	0.145800	0.654600
C2121	C212	0.350300	0.204600	0.741800
H1601	H160	0.256800	0.262000	0.821000
H1611	H161	0.110800	0.064300	0.737400
C2131	C213	0.222800	0.024300	0.687700
H1621	H162	0.322200	0.003000	0.617500
H1631	H163	0.465500	0.209300	0.434900
C2141	C214	0.406600	0.308700	0.448200
H1641	H164	0.328200	0.402200	0.481900
H1651	H165	0.063300	0.189500	0.885200
C2151	C215	0.987300	0.280800	0.915100
H1661	H166	0.914000	0.372200	0.919500
H1671	H167	0.337000	0.907800	0.642600
C2161	C216	0.241500	0.962000	0.713300
H1681	H168	0.150700	0.001300	0.802900
H1691	H169	0.081300	0.615700	0.776100
C2171	C217	0.182200	0.546800	0.711300
H1701	H170	0.287900	0.494900	0.652200
H1711	H171	0.235700	0.848000	0.553800
C2181	C218	0.312900	0.755200	0.508200
H1721	H172	0.384900	0.659800	0.482800
H1731	H173	0.512200	0.752200	0.666000
C2191	C219	0.541600	0.678100	0.606600
H1741	H174	0.556400	0.601700	0.564900
H1751	H175	0.917800	0.366000	0.012600
C2201	C220	0.954000	0.276000	0.980700
H1761	H176	0.982500	0.183400	0.972200
C2211	C221	0.277600	0.059300	0.388900
C2221	C222	0.400500	0.209100	0.756700
C2231	C223	0.164000	0.488200	0.719600
C2241	C224	0.309100	0.762800	0.448000
C2251	C225	0.347100	0.022600	0.338000
C2261	C226	0.233000	0.037300	0.409800
C2271	C227	0.386800	0.228300	0.812400
C2281	C228	0.469600	0.194600	0.703200
C2291	C229	0.094500	0.507300	0.738800
C2301	C230	0.218700	0.431100	0.706600
C2311	C231	0.365400	0.727000	0.393100
C2321	C232	0.247600	0.816200	0.447800
C2331	C233	0.369100	0.961700	0.306100
H1771	H177	0.380900	0.037700	0.323800
H1781	H178	0.187400	0.059200	0.446200
C2341	C234	0.253000	0.979900	0.377600
C2351	C235	0.438500	0.232900	0.820700
H1791	H179	0.341000	0.239400	0.847700
H1801	H180	0.481400	0.182300	0.661800
C2361	C236	0.522700	0.200200	0.717300
C2371	C237	0.084200	0.452900	0.737900
H1811	H181	0.057200	0.550300	0.751200
H1821	H182	0.265500	0.425700	0.691900
C2381	C238	0.208400	0.380500	0.714200
C2391	C239	0.359600	0.738900	0.337800
H1831	H183	0.408800	0.694000	0.391600
H1841	H184	0.207700	0.844700	0.485100
C2401	C240	0.250000	0.823500	0.392200
N451	N45	0.314200	0.945400	0.333300
H1851	H185	0.415100	0.936400	0.271200
H1861	H186	0.217600	0.967000	0.390600
N461	N46	0.502400	0.220400	0.775000
H1871	H187	0.426300	0.245800	0.862000
H1881	H188	0.570000	0.189100	0.684500
N471	N47	0.141000	0.391900	0.723600
H1891	H189	0.038200	0.459400	0.747200
H1901	H190	0.244200	0.339500	0.713300
N481	N48	0.303700	0.786800	0.338900
H1911	H191	0.397400	0.711200	0.299400
H1921	H192	0.209400	0.858200	0.390900
