data_BOCTOE03_freeONLY_PM
_symmetry_space_group_name_H-M	'P1'
_cell_length_a	8.464000
_cell_length_b	9.324000
_cell_length_c	12.882000
_cell_angle_alpha	90.000000
_cell_angle_beta	105.466000
_cell_angle_gamma	90.000000
_symmetry_Int_Tables_number 1

loop_
_symmetry_equiv_pos_as_xyz
'x,y,z'

loop_
_atom_site_label
_atom_site_type_symbol
_atom_site_fract_x
_atom_site_fract_y
_atom_site_fract_z
Mn11	Mn1	0.255670	0.748780	0.009070
N11	N1	0.319200	0.796500	0.185760
N21	N2	0.265240	0.797810	0.260210
N31	N3	0.212200	0.803900	0.334650
N41	N4	0.041800	0.619410	0.015190
N51	N5	0.103700	0.944550	0.970350
N61	N6	0.478810	0.876570	0.006730
N71	N7	0.426300	0.560290	0.051780
Mn21	Mn2	0.744330	0.248780	0.490930
N81	N8	0.680800	0.296500	0.314240
N91	N9	0.734760	0.297810	0.239790
N101	N10	0.787800	0.303900	0.165350
N111	N11	0.958200	0.119410	0.484810
N121	N12	0.896300	0.444550	0.529650
N131	N13	0.521190	0.376570	0.493270
N141	N14	0.573700	0.060290	0.448220
Mn31	Mn3	0.744330	0.251220	0.990930
N151	N15	0.680800	0.203500	0.814240
N161	N16	0.734760	0.202190	0.739790
N171	N17	0.787800	0.196100	0.665350
N181	N18	0.958200	0.380590	0.984810
N191	N19	0.896300	0.055450	0.029650
N201	N20	0.521190	0.123430	0.993270
N211	N21	0.573700	0.439710	0.948220
Mn41	Mn4	0.255670	0.751220	0.509070
N221	N22	0.319200	0.703500	0.685760
N231	N23	0.265240	0.702190	0.760210
N241	N24	0.212200	0.696100	0.834650
N251	N25	0.041800	0.880590	0.515190
N261	N26	0.103700	0.555450	0.470350
N271	N27	0.478810	0.623430	0.506730
N281	N28	0.426300	0.939710	0.551780
N291	N29	0.000000	0.500000	0.000000
N301	N30	0.000000	0.000000	0.500000
N311	N31	0.000000	0.000000	0.000000
N321	N32	0.000000	0.500000	0.500000
N331	N33	0.500000	0.000000	0.000000
N341	N34	0.500000	0.500000	0.500000
N351	N35	0.500000	0.500000	0.000000
N361	N36	0.500000	0.000000	0.500000
