data_BODPAN_freeONLY_PM
_symmetry_space_group_name_H-M	'P1'
_cell_length_a	52.507800
_cell_length_b	52.507800
_cell_length_c	52.507800
_cell_angle_alpha	90.000000
_cell_angle_beta	90.000000
_cell_angle_gamma	90.000000
_symmetry_Int_Tables_number 1

loop_
_symmetry_equiv_pos_as_xyz
'x,y,z'

loop_
_atom_site_label
_atom_site_type_symbol
_atom_site_fract_x
_atom_site_fract_y
_atom_site_fract_z
Cu11	Cu1	0.249700	0.142800	0.107590
O11	O1	0.370240	0.026300	0.088850
O21	O2	0.339980	0.026550	0.118470
O31	O3	0.277550	0.093830	0.121120
O41	O4	0.274500	0.122060	0.089500
O51	O5	0.343020	0.124990	0.026030
O61	O6	0.372740	0.094640	0.026020
O71	O7	0.277730	0.158410	0.127090
O81	O8	0.274690	0.130510	0.158890
O91	O9	0.243880	0.174200	0.081430
C11	C1	0.350420	0.035070	0.099000
C21	C2	0.338370	0.057900	0.086890
C31	C3	0.317020	0.068550	0.097780
H11	H1	0.309500	0.061000	0.112400
C41	C4	0.306520	0.090570	0.087200
C51	C5	0.317910	0.102190	0.066370
H21	H2	0.310900	0.117400	0.059600
C61	C6	0.339340	0.091700	0.055430
C71	C7	0.349720	0.069190	0.065550
H31	H3	0.364300	0.061700	0.058000
C81	C8	0.284450	0.103120	0.100230
C91	C9	0.352690	0.105000	0.034080
C101	C10	0.283840	0.149330	0.148120
C111	C11	0.305540	0.162170	0.161140
C121	C12	0.316130	0.150940	0.183140
H41	H4	0.308400	0.136300	0.190300
Cu21	Cu2	0.249700	0.642800	0.607590
O101	O10	0.370240	0.526300	0.588850
O111	O11	0.339980	0.526550	0.618470
O121	O12	0.277550	0.593830	0.621120
O131	O13	0.274500	0.622060	0.589500
O141	O14	0.343020	0.624990	0.526030
O151	O15	0.372740	0.594640	0.526020
O161	O16	0.277730	0.658410	0.627090
O171	O17	0.274690	0.630510	0.658890
O181	O18	0.243880	0.674200	0.581430
C131	C13	0.350420	0.535070	0.599000
C141	C14	0.338370	0.557900	0.586890
C151	C15	0.317020	0.568550	0.597780
H51	H5	0.309500	0.561000	0.612400
C161	C16	0.306520	0.590570	0.587200
C171	C17	0.317910	0.602190	0.566370
H61	H6	0.310900	0.617400	0.559600
C181	C18	0.339340	0.591700	0.555430
C191	C19	0.349720	0.569190	0.565550
H71	H7	0.364300	0.561700	0.558000
C201	C20	0.284450	0.603120	0.600230
C211	C21	0.352690	0.605000	0.534080
C221	C22	0.283840	0.649330	0.648120
C231	C23	0.305540	0.662170	0.661140
C241	C24	0.316130	0.650940	0.683140
H81	H8	0.308400	0.636300	0.690300
Cu31	Cu3	0.749700	0.142800	0.607590
O191	O19	0.870240	0.026300	0.588850
O201	O20	0.839980	0.026550	0.618470
O211	O21	0.777550	0.093830	0.621120
O221	O22	0.774500	0.122060	0.589500
O231	O23	0.843020	0.124990	0.526030
O241	O24	0.872740	0.094640	0.526020
O251	O25	0.777730	0.158410	0.627090
O261	O26	0.774690	0.130510	0.658890
O271	O27	0.743880	0.174200	0.581430
C251	C25	0.850420	0.035070	0.599000
C261	C26	0.838370	0.057900	0.586890
C271	C27	0.817020	0.068550	0.597780
H91	H9	0.809500	0.061000	0.612400
C281	C28	0.806520	0.090570	0.587200
C291	C29	0.817910	0.102190	0.566370
H101	H10	0.810900	0.117400	0.559600
C301	C30	0.839340	0.091700	0.555430
C311	C31	0.849720	0.069190	0.565550
H111	H11	0.864300	0.061700	0.558000
C321	C32	0.784450	0.103120	0.600230
C331	C33	0.852690	0.105000	0.534080
C341	C34	0.783840	0.149330	0.648120
C351	C35	0.805540	0.162170	0.661140
C361	C36	0.816130	0.150940	0.683140
H121	H12	0.808400	0.136300	0.690300
Cu41	Cu4	0.749700	0.642800	0.107590
O281	O28	0.870240	0.526300	0.088850
O291	O29	0.839980	0.526550	0.118470
O301	O30	0.777550	0.593830	0.121120
O311	O31	0.774500	0.622060	0.089500
O321	O32	0.843020	0.624990	0.026030
O331	O33	0.872740	0.594640	0.026020
O341	O34	0.777730	0.658410	0.127090
O351	O35	0.774690	0.630510	0.158890
O361	O36	0.743880	0.674200	0.081430
C371	C37	0.850420	0.535070	0.099000
C381	C38	0.838370	0.557900	0.086890
C391	C39	0.817020	0.568550	0.097780
H131	H13	0.809500	0.561000	0.112400
C401	C40	0.806520	0.590570	0.087200
C411	C41	0.817910	0.602190	0.066370
H141	H14	0.810900	0.617400	0.059600
C421	C42	0.839340	0.591700	0.055430
C431	C43	0.849720	0.569190	0.065550
H151	H15	0.864300	0.561700	0.058000
C441	C44	0.784450	0.603120	0.100230
C451	C45	0.852690	0.605000	0.034080
C461	C46	0.783840	0.649330	0.148120
C471	C47	0.805540	0.662170	0.161140
C481	C48	0.816130	0.650940	0.183140
H161	H16	0.808400	0.636300	0.190300
Cu51	Cu5	0.750300	0.857200	0.107590
O371	O37	0.629760	0.973700	0.088850
O381	O38	0.660020	0.973450	0.118470
O391	O39	0.722450	0.906170	0.121120
O401	O40	0.725500	0.877940	0.089500
O411	O41	0.656980	0.875010	0.026030
O421	O42	0.627260	0.905360	0.026020
O431	O43	0.722270	0.841590	0.127090
O441	O44	0.725310	0.869490	0.158890
O451	O45	0.756120	0.825800	0.081430
C491	C49	0.649580	0.964930	0.099000
C501	C50	0.661630	0.942100	0.086890
C511	C51	0.682980	0.931450	0.097780
H171	H17	0.690500	0.939000	0.112400
C521	C52	0.693480	0.909430	0.087200
C531	C53	0.682090	0.897810	0.066370
H181	H18	0.689100	0.882600	0.059600
C541	C54	0.660660	0.908300	0.055430
C551	C55	0.650280	0.930810	0.065550
H191	H19	0.635700	0.938300	0.058000
C561	C56	0.715550	0.896880	0.100230
C571	C57	0.647310	0.895000	0.034080
C581	C58	0.716160	0.850670	0.148120
C591	C59	0.694460	0.837830	0.161140
C601	C60	0.683870	0.849060	0.183140
H201	H20	0.691600	0.863700	0.190300
Cu61	Cu6	0.750300	0.357200	0.607590
O461	O46	0.629760	0.473700	0.588850
O471	O47	0.660020	0.473450	0.618470
O481	O48	0.722450	0.406170	0.621120
O491	O49	0.725500	0.377940	0.589500
O501	O50	0.656980	0.375010	0.526030
O511	O51	0.627260	0.405360	0.526020
O521	O52	0.722270	0.341590	0.627090
O531	O53	0.725310	0.369490	0.658890
O541	O54	0.756120	0.325800	0.581430
C611	C61	0.649580	0.464930	0.599000
C621	C62	0.661630	0.442100	0.586890
C631	C63	0.682980	0.431450	0.597780
H211	H21	0.690500	0.439000	0.612400
C641	C64	0.693480	0.409430	0.587200
C651	C65	0.682090	0.397810	0.566370
H221	H22	0.689100	0.382600	0.559600
C661	C66	0.660660	0.408300	0.555430
C671	C67	0.650280	0.430810	0.565550
H231	H23	0.635700	0.438300	0.558000
C681	C68	0.715550	0.396880	0.600230
C691	C69	0.647310	0.395000	0.534080
C701	C70	0.716160	0.350670	0.648120
C711	C71	0.694460	0.337830	0.661140
C721	C72	0.683870	0.349060	0.683140
H241	H24	0.691600	0.363700	0.690300
Cu71	Cu7	0.250300	0.857200	0.607590
O551	O55	0.129760	0.973700	0.588850
O561	O56	0.160020	0.973450	0.618470
O571	O57	0.222450	0.906170	0.621120
O581	O58	0.225500	0.877940	0.589500
O591	O59	0.156980	0.875010	0.526030
O601	O60	0.127260	0.905360	0.526020
O611	O61	0.222270	0.841590	0.627090
O621	O62	0.225310	0.869490	0.658890
O631	O63	0.256120	0.825800	0.581430
C731	C73	0.149580	0.964930	0.599000
C741	C74	0.161630	0.942100	0.586890
C751	C75	0.182980	0.931450	0.597780
H251	H25	0.190500	0.939000	0.612400
C761	C76	0.193480	0.909430	0.587200
C771	C77	0.182090	0.897810	0.566370
H261	H26	0.189100	0.882600	0.559600
C781	C78	0.160660	0.908300	0.555430
C791	C79	0.150280	0.930810	0.565550
H271	H27	0.135700	0.938300	0.558000
C801	C80	0.215550	0.896880	0.600230
C811	C81	0.147310	0.895000	0.534080
C821	C82	0.216160	0.850670	0.648120
C831	C83	0.194460	0.837830	0.661140
C841	C84	0.183870	0.849060	0.683140
H281	H28	0.191600	0.863700	0.690300
Cu81	Cu8	0.250300	0.357200	0.107590
O641	O64	0.129760	0.473700	0.088850
O651	O65	0.160020	0.473450	0.118470
O661	O66	0.222450	0.406170	0.121120
O671	O67	0.225500	0.377940	0.089500
O681	O68	0.156980	0.375010	0.026030
O691	O69	0.127260	0.405360	0.026020
O701	O70	0.222270	0.341590	0.127090
O711	O71	0.225310	0.369490	0.158890
O721	O72	0.256120	0.325800	0.081430
C851	C85	0.149580	0.464930	0.099000
C861	C86	0.161630	0.442100	0.086890
C871	C87	0.182980	0.431450	0.097780
H291	H29	0.190500	0.439000	0.112400
C881	C88	0.193480	0.409430	0.087200
C891	C89	0.182090	0.397810	0.066370
H301	H30	0.189100	0.382600	0.059600
C901	C90	0.160660	0.408300	0.055430
C911	C91	0.150280	0.430810	0.065550
H311	H31	0.135700	0.438300	0.058000
C921	C92	0.215550	0.396880	0.100230
C931	C93	0.147310	0.395000	0.034080
C941	C94	0.216160	0.350670	0.148120
C951	C95	0.194460	0.337830	0.161140
C961	C96	0.183870	0.349060	0.183140
H321	H32	0.191600	0.363700	0.190300
Cu91	Cu9	0.750300	0.142800	0.892410
O731	O73	0.629760	0.026300	0.911150
O741	O74	0.660020	0.026550	0.881530
O751	O75	0.722450	0.093830	0.878880
O761	O76	0.725500	0.122060	0.910500
O771	O77	0.656980	0.124990	0.973970
O781	O78	0.627260	0.094640	0.973980
O791	O79	0.722270	0.158410	0.872910
O801	O80	0.725310	0.130510	0.841110
O811	O81	0.756120	0.174200	0.918570
C971	C97	0.649580	0.035070	0.901000
C981	C98	0.661630	0.057900	0.913110
C991	C99	0.682980	0.068550	0.902220
H331	H33	0.690500	0.061000	0.887600
C1001	C100	0.693480	0.090570	0.912800
C1011	C101	0.682090	0.102190	0.933630
H341	H34	0.689100	0.117400	0.940400
C1021	C102	0.660660	0.091700	0.944570
C1031	C103	0.650280	0.069190	0.934450
H351	H35	0.635700	0.061700	0.942000
C1041	C104	0.715550	0.103120	0.899770
C1051	C105	0.647310	0.105000	0.965920
C1061	C106	0.716160	0.149330	0.851880
C1071	C107	0.694460	0.162170	0.838860
C1081	C108	0.683870	0.150940	0.816860
H361	H36	0.691600	0.136300	0.809700
Cu101	Cu10	0.750300	0.642800	0.392410
O821	O82	0.629760	0.526300	0.411150
O831	O83	0.660020	0.526550	0.381530
O841	O84	0.722450	0.593830	0.378880
O851	O85	0.725500	0.622060	0.410500
O861	O86	0.656980	0.624990	0.473970
O871	O87	0.627260	0.594640	0.473980
O881	O88	0.722270	0.658410	0.372910
O891	O89	0.725310	0.630510	0.341110
O901	O90	0.756120	0.674200	0.418570
C1091	C109	0.649580	0.535070	0.401000
C1101	C110	0.661630	0.557900	0.413110
C1111	C111	0.682980	0.568550	0.402220
H371	H37	0.690500	0.561000	0.387600
C1121	C112	0.693480	0.590570	0.412800
C1131	C113	0.682090	0.602190	0.433630
H381	H38	0.689100	0.617400	0.440400
C1141	C114	0.660660	0.591700	0.444570
C1151	C115	0.650280	0.569190	0.434450
H391	H39	0.635700	0.561700	0.442000
C1161	C116	0.715550	0.603120	0.399770
C1171	C117	0.647310	0.605000	0.465920
C1181	C118	0.716160	0.649330	0.351880
C1191	C119	0.694460	0.662170	0.338860
C1201	C120	0.683870	0.650940	0.316860
H401	H40	0.691600	0.636300	0.309700
Cu111	Cu11	0.250300	0.142800	0.392410
O911	O91	0.129760	0.026300	0.411150
O921	O92	0.160020	0.026550	0.381530
O931	O93	0.222450	0.093830	0.378880
O941	O94	0.225500	0.122060	0.410500
O951	O95	0.156980	0.124990	0.473970
O961	O96	0.127260	0.094640	0.473980
O971	O97	0.222270	0.158410	0.372910
O981	O98	0.225310	0.130510	0.341110
O991	O99	0.256120	0.174200	0.418570
C1211	C121	0.149580	0.035070	0.401000
C1221	C122	0.161630	0.057900	0.413110
C1231	C123	0.182980	0.068550	0.402220
H411	H41	0.190500	0.061000	0.387600
C1241	C124	0.193480	0.090570	0.412800
C1251	C125	0.182090	0.102190	0.433630
H421	H42	0.189100	0.117400	0.440400
C1261	C126	0.160660	0.091700	0.444570
C1271	C127	0.150280	0.069190	0.434450
H431	H43	0.135700	0.061700	0.442000
C1281	C128	0.215550	0.103120	0.399770
C1291	C129	0.147310	0.105000	0.465920
C1301	C130	0.216160	0.149330	0.351880
C1311	C131	0.194460	0.162170	0.338860
C1321	C132	0.183870	0.150940	0.316860
H441	H44	0.191600	0.136300	0.309700
Cu121	Cu12	0.250300	0.642800	0.892410
O1001	O100	0.129760	0.526300	0.911150
O1011	O101	0.160020	0.526550	0.881530
O1021	O102	0.222450	0.593830	0.878880
O1031	O103	0.225500	0.622060	0.910500
O1041	O104	0.156980	0.624990	0.973970
O1051	O105	0.127260	0.594640	0.973980
O1061	O106	0.222270	0.658410	0.872910
O1071	O107	0.225310	0.630510	0.841110
O1081	O108	0.256120	0.674200	0.918570
C1331	C133	0.149580	0.535070	0.901000
C1341	C134	0.161630	0.557900	0.913110
C1351	C135	0.182980	0.568550	0.902220
H451	H45	0.190500	0.561000	0.887600
C1361	C136	0.193480	0.590570	0.912800
C1371	C137	0.182090	0.602190	0.933630
H461	H46	0.189100	0.617400	0.940400
C1381	C138	0.160660	0.591700	0.944570
C1391	C139	0.150280	0.569190	0.934450
H471	H47	0.135700	0.561700	0.942000
C1401	C140	0.215550	0.603120	0.899770
C1411	C141	0.147310	0.605000	0.965920
C1421	C142	0.216160	0.649330	0.851880
C1431	C143	0.194460	0.662170	0.838860
C1441	C144	0.183870	0.650940	0.816860
H481	H48	0.191600	0.636300	0.809700
Cu131	Cu13	0.249700	0.857200	0.892410
O1091	O109	0.370240	0.973700	0.911150
O1101	O110	0.339980	0.973450	0.881530
O1111	O111	0.277550	0.906170	0.878880
O1121	O112	0.274500	0.877940	0.910500
O1131	O113	0.343020	0.875010	0.973970
O1141	O114	0.372740	0.905360	0.973980
O1151	O115	0.277730	0.841590	0.872910
O1161	O116	0.274690	0.869490	0.841110
O1171	O117	0.243880	0.825800	0.918570
C1451	C145	0.350420	0.964930	0.901000
C1461	C146	0.338370	0.942100	0.913110
C1471	C147	0.317020	0.931450	0.902220
H491	H49	0.309500	0.939000	0.887600
C1481	C148	0.306520	0.909430	0.912800
C1491	C149	0.317910	0.897810	0.933630
H501	H50	0.310900	0.882600	0.940400
C1501	C150	0.339340	0.908300	0.944570
C1511	C151	0.349720	0.930810	0.934450
H511	H51	0.364300	0.938300	0.942000
C1521	C152	0.284450	0.896880	0.899770
C1531	C153	0.352690	0.895000	0.965920
C1541	C154	0.283840	0.850670	0.851880
C1551	C155	0.305540	0.837830	0.838860
C1561	C156	0.316130	0.849060	0.816860
H521	H52	0.308400	0.863700	0.809700
Cu141	Cu14	0.249700	0.357200	0.392410
O1181	O118	0.370240	0.473700	0.411150
O1191	O119	0.339980	0.473450	0.381530
O1201	O120	0.277550	0.406170	0.378880
O1211	O121	0.274500	0.377940	0.410500
O1221	O122	0.343020	0.375010	0.473970
O1231	O123	0.372740	0.405360	0.473980
O1241	O124	0.277730	0.341590	0.372910
O1251	O125	0.274690	0.369490	0.341110
O1261	O126	0.243880	0.325800	0.418570
C1571	C157	0.350420	0.464930	0.401000
C1581	C158	0.338370	0.442100	0.413110
C1591	C159	0.317020	0.431450	0.402220
H531	H53	0.309500	0.439000	0.387600
C1601	C160	0.306520	0.409430	0.412800
C1611	C161	0.317910	0.397810	0.433630
H541	H54	0.310900	0.382600	0.440400
C1621	C162	0.339340	0.408300	0.444570
C1631	C163	0.349720	0.430810	0.434450
H551	H55	0.364300	0.438300	0.442000
C1641	C164	0.284450	0.396880	0.399770
C1651	C165	0.352690	0.395000	0.465920
C1661	C166	0.283840	0.350670	0.351880
C1671	C167	0.305540	0.337830	0.338860
C1681	C168	0.316130	0.349060	0.316860
H561	H56	0.308400	0.363700	0.309700
Cu151	Cu15	0.749700	0.857200	0.392410
O1271	O127	0.870240	0.973700	0.411150
O1281	O128	0.839980	0.973450	0.381530
O1291	O129	0.777550	0.906170	0.378880
O1301	O130	0.774500	0.877940	0.410500
O1311	O131	0.843020	0.875010	0.473970
O1321	O132	0.872740	0.905360	0.473980
O1331	O133	0.777730	0.841590	0.372910
O1341	O134	0.774690	0.869490	0.341110
O1351	O135	0.743880	0.825800	0.418570
C1691	C169	0.850420	0.964930	0.401000
C1701	C170	0.838370	0.942100	0.413110
C1711	C171	0.817020	0.931450	0.402220
H571	H57	0.809500	0.939000	0.387600
C1721	C172	0.806520	0.909430	0.412800
C1731	C173	0.817910	0.897810	0.433630
H581	H58	0.810900	0.882600	0.440400
C1741	C174	0.839340	0.908300	0.444570
C1751	C175	0.849720	0.930810	0.434450
H591	H59	0.864300	0.938300	0.442000
C1761	C176	0.784450	0.896880	0.399770
C1771	C177	0.852690	0.895000	0.465920
C1781	C178	0.783840	0.850670	0.351880
C1791	C179	0.805540	0.837830	0.338860
C1801	C180	0.816130	0.849060	0.316860
H601	H60	0.808400	0.863700	0.309700
Cu161	Cu16	0.749700	0.357200	0.892410
O1361	O136	0.870240	0.473700	0.911150
O1371	O137	0.839980	0.473450	0.881530
O1381	O138	0.777550	0.406170	0.878880
O1391	O139	0.774500	0.377940	0.910500
O1401	O140	0.843020	0.375010	0.973970
O1411	O141	0.872740	0.405360	0.973980
O1421	O142	0.777730	0.341590	0.872910
O1431	O143	0.774690	0.369490	0.841110
O1441	O144	0.743880	0.325800	0.918570
C1811	C181	0.850420	0.464930	0.901000
C1821	C182	0.838370	0.442100	0.913110
C1831	C183	0.817020	0.431450	0.902220
H611	H61	0.809500	0.439000	0.887600
C1841	C184	0.806520	0.409430	0.912800
C1851	C185	0.817910	0.397810	0.933630
H621	H62	0.810900	0.382600	0.940400
C1861	C186	0.839340	0.408300	0.944570
C1871	C187	0.849720	0.430810	0.934450
H631	H63	0.864300	0.438300	0.942000
C1881	C188	0.784450	0.396880	0.899770
C1891	C189	0.852690	0.395000	0.965920
C1901	C190	0.783840	0.350670	0.851880
C1911	C191	0.805540	0.337830	0.838860
C1921	C192	0.816130	0.349060	0.816860
H641	H64	0.808400	0.363700	0.809700
Cu171	Cu17	0.107590	0.249700	0.142800
O1451	O145	0.088850	0.370240	0.026300
O1461	O146	0.118470	0.339980	0.026550
O1471	O147	0.121120	0.277550	0.093830
O1481	O148	0.089500	0.274500	0.122060
O1491	O149	0.026030	0.343020	0.124990
O1501	O150	0.026020	0.372740	0.094640
O1511	O151	0.127090	0.277730	0.158410
O1521	O152	0.158890	0.274690	0.130510
O1531	O153	0.081430	0.243880	0.174200
C1931	C193	0.099000	0.350420	0.035070
C1941	C194	0.086890	0.338370	0.057900
C1951	C195	0.097780	0.317020	0.068550
H651	H65	0.112400	0.309500	0.061000
C1961	C196	0.087200	0.306520	0.090570
C1971	C197	0.066370	0.317910	0.102190
H661	H66	0.059600	0.310900	0.117400
C1981	C198	0.055430	0.339340	0.091700
C1991	C199	0.065550	0.349720	0.069190
H671	H67	0.058000	0.364300	0.061700
C2001	C200	0.100230	0.284450	0.103120
C2011	C201	0.034080	0.352690	0.105000
C2021	C202	0.148120	0.283840	0.149330
C2031	C203	0.161140	0.305540	0.162170
C2041	C204	0.183140	0.316130	0.150940
H681	H68	0.190300	0.308400	0.136300
Cu181	Cu18	0.107590	0.749700	0.642800
O1541	O154	0.088850	0.870240	0.526300
O1551	O155	0.118470	0.839980	0.526550
O1561	O156	0.121120	0.777550	0.593830
O1571	O157	0.089500	0.774500	0.622060
O1581	O158	0.026030	0.843020	0.624990
O1591	O159	0.026020	0.872740	0.594640
O1601	O160	0.127090	0.777730	0.658410
O1611	O161	0.158890	0.774690	0.630510
O1621	O162	0.081430	0.743880	0.674200
C2051	C205	0.099000	0.850420	0.535070
C2061	C206	0.086890	0.838370	0.557900
C2071	C207	0.097780	0.817020	0.568550
H691	H69	0.112400	0.809500	0.561000
C2081	C208	0.087200	0.806520	0.590570
C2091	C209	0.066370	0.817910	0.602190
H701	H70	0.059600	0.810900	0.617400
C2101	C210	0.055430	0.839340	0.591700
C2111	C211	0.065550	0.849720	0.569190
H711	H71	0.058000	0.864300	0.561700
C2121	C212	0.100230	0.784450	0.603120
C2131	C213	0.034080	0.852690	0.605000
C2141	C214	0.148120	0.783840	0.649330
C2151	C215	0.161140	0.805540	0.662170
C2161	C216	0.183140	0.816130	0.650940
H721	H72	0.190300	0.808400	0.636300
Cu191	Cu19	0.607590	0.249700	0.642800
O1631	O163	0.588850	0.370240	0.526300
O1641	O164	0.618470	0.339980	0.526550
O1651	O165	0.621120	0.277550	0.593830
O1661	O166	0.589500	0.274500	0.622060
O1671	O167	0.526030	0.343020	0.624990
O1681	O168	0.526020	0.372740	0.594640
O1691	O169	0.627090	0.277730	0.658410
O1701	O170	0.658890	0.274690	0.630510
O1711	O171	0.581430	0.243880	0.674200
C2171	C217	0.599000	0.350420	0.535070
C2181	C218	0.586890	0.338370	0.557900
C2191	C219	0.597780	0.317020	0.568550
H731	H73	0.612400	0.309500	0.561000
C2201	C220	0.587200	0.306520	0.590570
C2211	C221	0.566370	0.317910	0.602190
H741	H74	0.559600	0.310900	0.617400
C2221	C222	0.555430	0.339340	0.591700
C2231	C223	0.565550	0.349720	0.569190
H751	H75	0.558000	0.364300	0.561700
C2241	C224	0.600230	0.284450	0.603120
C2251	C225	0.534080	0.352690	0.605000
C2261	C226	0.648120	0.283840	0.649330
C2271	C227	0.661140	0.305540	0.662170
C2281	C228	0.683140	0.316130	0.650940
H761	H76	0.690300	0.308400	0.636300
Cu201	Cu20	0.607590	0.749700	0.142800
O1721	O172	0.588850	0.870240	0.026300
O1731	O173	0.618470	0.839980	0.026550
O1741	O174	0.621120	0.777550	0.093830
O1751	O175	0.589500	0.774500	0.122060
O1761	O176	0.526030	0.843020	0.124990
O1771	O177	0.526020	0.872740	0.094640
O1781	O178	0.627090	0.777730	0.158410
O1791	O179	0.658890	0.774690	0.130510
O1801	O180	0.581430	0.743880	0.174200
C2291	C229	0.599000	0.850420	0.035070
C2301	C230	0.586890	0.838370	0.057900
C2311	C231	0.597780	0.817020	0.068550
H771	H77	0.612400	0.809500	0.061000
C2321	C232	0.587200	0.806520	0.090570
C2331	C233	0.566370	0.817910	0.102190
H781	H78	0.559600	0.810900	0.117400
C2341	C234	0.555430	0.839340	0.091700
C2351	C235	0.565550	0.849720	0.069190
H791	H79	0.558000	0.864300	0.061700
C2361	C236	0.600230	0.784450	0.103120
C2371	C237	0.534080	0.852690	0.105000
C2381	C238	0.648120	0.783840	0.149330
C2391	C239	0.661140	0.805540	0.162170
C2401	C240	0.683140	0.816130	0.150940
H801	H80	0.690300	0.808400	0.136300
Cu211	Cu21	0.107590	0.750300	0.857200
O1811	O181	0.088850	0.629760	0.973700
O1821	O182	0.118470	0.660020	0.973450
O1831	O183	0.121120	0.722450	0.906170
O1841	O184	0.089500	0.725500	0.877940
O1851	O185	0.026030	0.656980	0.875010
O1861	O186	0.026020	0.627260	0.905360
O1871	O187	0.127090	0.722270	0.841590
O1881	O188	0.158890	0.725310	0.869490
O1891	O189	0.081430	0.756120	0.825800
C2411	C241	0.099000	0.649580	0.964930
C2421	C242	0.086890	0.661630	0.942100
C2431	C243	0.097780	0.682980	0.931450
H811	H81	0.112400	0.690500	0.939000
C2441	C244	0.087200	0.693480	0.909430
C2451	C245	0.066370	0.682090	0.897810
H821	H82	0.059600	0.689100	0.882600
C2461	C246	0.055430	0.660660	0.908300
C2471	C247	0.065550	0.650280	0.930810
H831	H83	0.058000	0.635700	0.938300
C2481	C248	0.100230	0.715550	0.896880
C2491	C249	0.034080	0.647310	0.895000
C2501	C250	0.148120	0.716160	0.850670
C2511	C251	0.161140	0.694460	0.837830
C2521	C252	0.183140	0.683870	0.849060
H841	H84	0.190300	0.691600	0.863700
Cu221	Cu22	0.107590	0.250300	0.357200
O1901	O190	0.088850	0.129760	0.473700
O1911	O191	0.118470	0.160020	0.473450
O1921	O192	0.121120	0.222450	0.406170
O1931	O193	0.089500	0.225500	0.377940
O1941	O194	0.026030	0.156980	0.375010
O1951	O195	0.026020	0.127260	0.405360
O1961	O196	0.127090	0.222270	0.341590
O1971	O197	0.158890	0.225310	0.369490
O1981	O198	0.081430	0.256120	0.325800
C2531	C253	0.099000	0.149580	0.464930
C2541	C254	0.086890	0.161630	0.442100
C2551	C255	0.097780	0.182980	0.431450
H851	H85	0.112400	0.190500	0.439000
C2561	C256	0.087200	0.193480	0.409430
C2571	C257	0.066370	0.182090	0.397810
H861	H86	0.059600	0.189100	0.382600
C2581	C258	0.055430	0.160660	0.408300
C2591	C259	0.065550	0.150280	0.430810
H871	H87	0.058000	0.135700	0.438300
C2601	C260	0.100230	0.215550	0.396880
C2611	C261	0.034080	0.147310	0.395000
C2621	C262	0.148120	0.216160	0.350670
C2631	C263	0.161140	0.194460	0.337830
C2641	C264	0.183140	0.183870	0.349060
H881	H88	0.190300	0.191600	0.363700
Cu231	Cu23	0.607590	0.750300	0.357200
O1991	O199	0.588850	0.629760	0.473700
O2001	O200	0.618470	0.660020	0.473450
O2011	O201	0.621120	0.722450	0.406170
O2021	O202	0.589500	0.725500	0.377940
O2031	O203	0.526030	0.656980	0.375010
O2041	O204	0.526020	0.627260	0.405360
O2051	O205	0.627090	0.722270	0.341590
O2061	O206	0.658890	0.725310	0.369490
O2071	O207	0.581430	0.756120	0.325800
C2651	C265	0.599000	0.649580	0.464930
C2661	C266	0.586890	0.661630	0.442100
C2671	C267	0.597780	0.682980	0.431450
H891	H89	0.612400	0.690500	0.439000
C2681	C268	0.587200	0.693480	0.409430
C2691	C269	0.566370	0.682090	0.397810
H901	H90	0.559600	0.689100	0.382600
C2701	C270	0.555430	0.660660	0.408300
C2711	C271	0.565550	0.650280	0.430810
H911	H91	0.558000	0.635700	0.438300
C2721	C272	0.600230	0.715550	0.396880
C2731	C273	0.534080	0.647310	0.395000
C2741	C274	0.648120	0.716160	0.350670
C2751	C275	0.661140	0.694460	0.337830
C2761	C276	0.683140	0.683870	0.349060
H921	H92	0.690300	0.691600	0.363700
Cu241	Cu24	0.607590	0.250300	0.857200
O2081	O208	0.588850	0.129760	0.973700
O2091	O209	0.618470	0.160020	0.973450
O2101	O210	0.621120	0.222450	0.906170
O2111	O211	0.589500	0.225500	0.877940
O2121	O212	0.526030	0.156980	0.875010
O2131	O213	0.526020	0.127260	0.905360
O2141	O214	0.627090	0.222270	0.841590
O2151	O215	0.658890	0.225310	0.869490
O2161	O216	0.581430	0.256120	0.825800
C2771	C277	0.599000	0.149580	0.964930
C2781	C278	0.586890	0.161630	0.942100
C2791	C279	0.597780	0.182980	0.931450
H931	H93	0.612400	0.190500	0.939000
C2801	C280	0.587200	0.193480	0.909430
C2811	C281	0.566370	0.182090	0.897810
H941	H94	0.559600	0.189100	0.882600
C2821	C282	0.555430	0.160660	0.908300
C2831	C283	0.565550	0.150280	0.930810
H951	H95	0.558000	0.135700	0.938300
C2841	C284	0.600230	0.215550	0.896880
C2851	C285	0.534080	0.147310	0.895000
C2861	C286	0.648120	0.216160	0.850670
C2871	C287	0.661140	0.194460	0.837830
C2881	C288	0.683140	0.183870	0.849060
H961	H96	0.690300	0.191600	0.863700
Cu251	Cu25	0.892410	0.750300	0.142800
O2171	O217	0.911150	0.629760	0.026300
O2181	O218	0.881530	0.660020	0.026550
O2191	O219	0.878880	0.722450	0.093830
O2201	O220	0.910500	0.725500	0.122060
O2211	O221	0.973970	0.656980	0.124990
O2221	O222	0.973980	0.627260	0.094640
O2231	O223	0.872910	0.722270	0.158410
O2241	O224	0.841110	0.725310	0.130510
O2251	O225	0.918570	0.756120	0.174200
C2891	C289	0.901000	0.649580	0.035070
C2901	C290	0.913110	0.661630	0.057900
C2911	C291	0.902220	0.682980	0.068550
H971	H97	0.887600	0.690500	0.061000
C2921	C292	0.912800	0.693480	0.090570
C2931	C293	0.933630	0.682090	0.102190
H981	H98	0.940400	0.689100	0.117400
C2941	C294	0.944570	0.660660	0.091700
C2951	C295	0.934450	0.650280	0.069190
H991	H99	0.942000	0.635700	0.061700
C2961	C296	0.899770	0.715550	0.103120
C2971	C297	0.965920	0.647310	0.105000
C2981	C298	0.851880	0.716160	0.149330
C2991	C299	0.838860	0.694460	0.162170
C3001	C300	0.816860	0.683870	0.150940
H1001	H100	0.809700	0.691600	0.136300
Cu261	Cu26	0.892410	0.250300	0.642800
O2261	O226	0.911150	0.129760	0.526300
O2271	O227	0.881530	0.160020	0.526550
O2281	O228	0.878880	0.222450	0.593830
O2291	O229	0.910500	0.225500	0.622060
O2301	O230	0.973970	0.156980	0.624990
O2311	O231	0.973980	0.127260	0.594640
O2321	O232	0.872910	0.222270	0.658410
O2331	O233	0.841110	0.225310	0.630510
O2341	O234	0.918570	0.256120	0.674200
C3011	C301	0.901000	0.149580	0.535070
C3021	C302	0.913110	0.161630	0.557900
C3031	C303	0.902220	0.182980	0.568550
H1011	H101	0.887600	0.190500	0.561000
C3041	C304	0.912800	0.193480	0.590570
C3051	C305	0.933630	0.182090	0.602190
H1021	H102	0.940400	0.189100	0.617400
C3061	C306	0.944570	0.160660	0.591700
C3071	C307	0.934450	0.150280	0.569190
H1031	H103	0.942000	0.135700	0.561700
C3081	C308	0.899770	0.215550	0.603120
C3091	C309	0.965920	0.147310	0.605000
C3101	C310	0.851880	0.216160	0.649330
C3111	C311	0.838860	0.194460	0.662170
C3121	C312	0.816860	0.183870	0.650940
H1041	H104	0.809700	0.191600	0.636300
Cu271	Cu27	0.392410	0.750300	0.642800
O2351	O235	0.411150	0.629760	0.526300
O2361	O236	0.381530	0.660020	0.526550
O2371	O237	0.378880	0.722450	0.593830
O2381	O238	0.410500	0.725500	0.622060
O2391	O239	0.473970	0.656980	0.624990
O2401	O240	0.473980	0.627260	0.594640
O2411	O241	0.372910	0.722270	0.658410
O2421	O242	0.341110	0.725310	0.630510
O2431	O243	0.418570	0.756120	0.674200
C3131	C313	0.401000	0.649580	0.535070
C3141	C314	0.413110	0.661630	0.557900
C3151	C315	0.402220	0.682980	0.568550
H1051	H105	0.387600	0.690500	0.561000
C3161	C316	0.412800	0.693480	0.590570
C3171	C317	0.433630	0.682090	0.602190
H1061	H106	0.440400	0.689100	0.617400
C3181	C318	0.444570	0.660660	0.591700
C3191	C319	0.434450	0.650280	0.569190
H1071	H107	0.442000	0.635700	0.561700
C3201	C320	0.399770	0.715550	0.603120
C3211	C321	0.465920	0.647310	0.605000
C3221	C322	0.351880	0.716160	0.649330
C3231	C323	0.338860	0.694460	0.662170
C3241	C324	0.316860	0.683870	0.650940
H1081	H108	0.309700	0.691600	0.636300
Cu281	Cu28	0.392410	0.250300	0.142800
O2441	O244	0.411150	0.129760	0.026300
O2451	O245	0.381530	0.160020	0.026550
O2461	O246	0.378880	0.222450	0.093830
O2471	O247	0.410500	0.225500	0.122060
O2481	O248	0.473970	0.156980	0.124990
O2491	O249	0.473980	0.127260	0.094640
O2501	O250	0.372910	0.222270	0.158410
O2511	O251	0.341110	0.225310	0.130510
O2521	O252	0.418570	0.256120	0.174200
C3251	C325	0.401000	0.149580	0.035070
C3261	C326	0.413110	0.161630	0.057900
C3271	C327	0.402220	0.182980	0.068550
H1091	H109	0.387600	0.190500	0.061000
C3281	C328	0.412800	0.193480	0.090570
C3291	C329	0.433630	0.182090	0.102190
H1101	H110	0.440400	0.189100	0.117400
C3301	C330	0.444570	0.160660	0.091700
C3311	C331	0.434450	0.150280	0.069190
H1111	H111	0.442000	0.135700	0.061700
C3321	C332	0.399770	0.215550	0.103120
C3331	C333	0.465920	0.147310	0.105000
C3341	C334	0.351880	0.216160	0.149330
C3351	C335	0.338860	0.194460	0.162170
C3361	C336	0.316860	0.183870	0.150940
H1121	H112	0.309700	0.191600	0.136300
Cu291	Cu29	0.892410	0.249700	0.857200
O2531	O253	0.911150	0.370240	0.973700
O2541	O254	0.881530	0.339980	0.973450
O2551	O255	0.878880	0.277550	0.906170
O2561	O256	0.910500	0.274500	0.877940
O2571	O257	0.973970	0.343020	0.875010
O2581	O258	0.973980	0.372740	0.905360
O2591	O259	0.872910	0.277730	0.841590
O2601	O260	0.841110	0.274690	0.869490
O2611	O261	0.918570	0.243880	0.825800
C3371	C337	0.901000	0.350420	0.964930
C3381	C338	0.913110	0.338370	0.942100
C3391	C339	0.902220	0.317020	0.931450
H1131	H113	0.887600	0.309500	0.939000
C3401	C340	0.912800	0.306520	0.909430
C3411	C341	0.933630	0.317910	0.897810
H1141	H114	0.940400	0.310900	0.882600
C3421	C342	0.944570	0.339340	0.908300
C3431	C343	0.934450	0.349720	0.930810
H1151	H115	0.942000	0.364300	0.938300
C3441	C344	0.899770	0.284450	0.896880
C3451	C345	0.965920	0.352690	0.895000
C3461	C346	0.851880	0.283840	0.850670
C3471	C347	0.838860	0.305540	0.837830
C3481	C348	0.816860	0.316130	0.849060
H1161	H116	0.809700	0.308400	0.863700
Cu301	Cu30	0.892410	0.749700	0.357200
O2621	O262	0.911150	0.870240	0.473700
O2631	O263	0.881530	0.839980	0.473450
O2641	O264	0.878880	0.777550	0.406170
O2651	O265	0.910500	0.774500	0.377940
O2661	O266	0.973970	0.843020	0.375010
O2671	O267	0.973980	0.872740	0.405360
O2681	O268	0.872910	0.777730	0.341590
O2691	O269	0.841110	0.774690	0.369490
O2701	O270	0.918570	0.743880	0.325800
C3491	C349	0.901000	0.850420	0.464930
C3501	C350	0.913110	0.838370	0.442100
C3511	C351	0.902220	0.817020	0.431450
H1171	H117	0.887600	0.809500	0.439000
C3521	C352	0.912800	0.806520	0.409430
C3531	C353	0.933630	0.817910	0.397810
H1181	H118	0.940400	0.810900	0.382600
C3541	C354	0.944570	0.839340	0.408300
C3551	C355	0.934450	0.849720	0.430810
H1191	H119	0.942000	0.864300	0.438300
C3561	C356	0.899770	0.784450	0.396880
C3571	C357	0.965920	0.852690	0.395000
C3581	C358	0.851880	0.783840	0.350670
C3591	C359	0.838860	0.805540	0.337830
C3601	C360	0.816860	0.816130	0.349060
H1201	H120	0.809700	0.808400	0.363700
Cu311	Cu31	0.392410	0.249700	0.357200
O2711	O271	0.411150	0.370240	0.473700
O2721	O272	0.381530	0.339980	0.473450
O2731	O273	0.378880	0.277550	0.406170
O2741	O274	0.410500	0.274500	0.377940
O2751	O275	0.473970	0.343020	0.375010
O2761	O276	0.473980	0.372740	0.405360
O2771	O277	0.372910	0.277730	0.341590
O2781	O278	0.341110	0.274690	0.369490
O2791	O279	0.418570	0.243880	0.325800
C3611	C361	0.401000	0.350420	0.464930
C3621	C362	0.413110	0.338370	0.442100
C3631	C363	0.402220	0.317020	0.431450
H1211	H121	0.387600	0.309500	0.439000
C3641	C364	0.412800	0.306520	0.409430
C3651	C365	0.433630	0.317910	0.397810
H1221	H122	0.440400	0.310900	0.382600
C3661	C366	0.444570	0.339340	0.408300
C3671	C367	0.434450	0.349720	0.430810
H1231	H123	0.442000	0.364300	0.438300
C3681	C368	0.399770	0.284450	0.396880
C3691	C369	0.465920	0.352690	0.395000
C3701	C370	0.351880	0.283840	0.350670
C3711	C371	0.338860	0.305540	0.337830
C3721	C372	0.316860	0.316130	0.349060
H1241	H124	0.309700	0.308400	0.363700
Cu321	Cu32	0.392410	0.749700	0.857200
O2801	O280	0.411150	0.870240	0.973700
O2811	O281	0.381530	0.839980	0.973450
O2821	O282	0.378880	0.777550	0.906170
O2831	O283	0.410500	0.774500	0.877940
O2841	O284	0.473970	0.843020	0.875010
O2851	O285	0.473980	0.872740	0.905360
O2861	O286	0.372910	0.777730	0.841590
O2871	O287	0.341110	0.774690	0.869490
O2881	O288	0.418570	0.743880	0.825800
C3731	C373	0.401000	0.850420	0.964930
C3741	C374	0.413110	0.838370	0.942100
C3751	C375	0.402220	0.817020	0.931450
H1251	H125	0.387600	0.809500	0.939000
C3761	C376	0.412800	0.806520	0.909430
C3771	C377	0.433630	0.817910	0.897810
H1261	H126	0.440400	0.810900	0.882600
C3781	C378	0.444570	0.839340	0.908300
C3791	C379	0.434450	0.849720	0.930810
H1271	H127	0.442000	0.864300	0.938300
C3801	C380	0.399770	0.784450	0.896880
C3811	C381	0.465920	0.852690	0.895000
C3821	C382	0.351880	0.783840	0.850670
C3831	C383	0.338860	0.805540	0.837830
C3841	C384	0.316860	0.816130	0.849060
H1281	H128	0.309700	0.808400	0.863700
Cu331	Cu33	0.142800	0.107590	0.249700
O2891	O289	0.026300	0.088850	0.370240
O2901	O290	0.026550	0.118470	0.339980
O2911	O291	0.093830	0.121120	0.277550
O2921	O292	0.122060	0.089500	0.274500
O2931	O293	0.124990	0.026030	0.343020
O2941	O294	0.094640	0.026020	0.372740
O2951	O295	0.158410	0.127090	0.277730
O2961	O296	0.130510	0.158890	0.274690
O2971	O297	0.174200	0.081430	0.243880
C3851	C385	0.035070	0.099000	0.350420
C3861	C386	0.057900	0.086890	0.338370
C3871	C387	0.068550	0.097780	0.317020
H1291	H129	0.061000	0.112400	0.309500
C3881	C388	0.090570	0.087200	0.306520
C3891	C389	0.102190	0.066370	0.317910
H1301	H130	0.117400	0.059600	0.310900
C3901	C390	0.091700	0.055430	0.339340
C3911	C391	0.069190	0.065550	0.349720
H1311	H131	0.061700	0.058000	0.364300
C3921	C392	0.103120	0.100230	0.284450
C3931	C393	0.105000	0.034080	0.352690
C3941	C394	0.149330	0.148120	0.283840
C3951	C395	0.162170	0.161140	0.305540
C3961	C396	0.150940	0.183140	0.316130
H1321	H132	0.136300	0.190300	0.308400
Cu341	Cu34	0.142800	0.607590	0.749700
O2981	O298	0.026300	0.588850	0.870240
O2991	O299	0.026550	0.618470	0.839980
O3001	O300	0.093830	0.621120	0.777550
O3011	O301	0.122060	0.589500	0.774500
O3021	O302	0.124990	0.526030	0.843020
O3031	O303	0.094640	0.526020	0.872740
O3041	O304	0.158410	0.627090	0.777730
O3051	O305	0.130510	0.658890	0.774690
O3061	O306	0.174200	0.581430	0.743880
C3971	C397	0.035070	0.599000	0.850420
C3981	C398	0.057900	0.586890	0.838370
C3991	C399	0.068550	0.597780	0.817020
H1331	H133	0.061000	0.612400	0.809500
C4001	C400	0.090570	0.587200	0.806520
C4011	C401	0.102190	0.566370	0.817910
H1341	H134	0.117400	0.559600	0.810900
C4021	C402	0.091700	0.555430	0.839340
C4031	C403	0.069190	0.565550	0.849720
H1351	H135	0.061700	0.558000	0.864300
C4041	C404	0.103120	0.600230	0.784450
C4051	C405	0.105000	0.534080	0.852690
C4061	C406	0.149330	0.648120	0.783840
C4071	C407	0.162170	0.661140	0.805540
C4081	C408	0.150940	0.683140	0.816130
H1361	H136	0.136300	0.690300	0.808400
Cu351	Cu35	0.642800	0.107590	0.749700
O3071	O307	0.526300	0.088850	0.870240
O3081	O308	0.526550	0.118470	0.839980
O3091	O309	0.593830	0.121120	0.777550
O3101	O310	0.622060	0.089500	0.774500
O3111	O311	0.624990	0.026030	0.843020
O3121	O312	0.594640	0.026020	0.872740
O3131	O313	0.658410	0.127090	0.777730
O3141	O314	0.630510	0.158890	0.774690
O3151	O315	0.674200	0.081430	0.743880
C4091	C409	0.535070	0.099000	0.850420
C4101	C410	0.557900	0.086890	0.838370
C4111	C411	0.568550	0.097780	0.817020
H1371	H137	0.561000	0.112400	0.809500
C4121	C412	0.590570	0.087200	0.806520
C4131	C413	0.602190	0.066370	0.817910
H1381	H138	0.617400	0.059600	0.810900
C4141	C414	0.591700	0.055430	0.839340
C4151	C415	0.569190	0.065550	0.849720
H1391	H139	0.561700	0.058000	0.864300
C4161	C416	0.603120	0.100230	0.784450
C4171	C417	0.605000	0.034080	0.852690
C4181	C418	0.649330	0.148120	0.783840
C4191	C419	0.662170	0.161140	0.805540
C4201	C420	0.650940	0.183140	0.816130
H1401	H140	0.636300	0.190300	0.808400
Cu361	Cu36	0.642800	0.607590	0.249700
O3161	O316	0.526300	0.588850	0.370240
O3171	O317	0.526550	0.618470	0.339980
O3181	O318	0.593830	0.621120	0.277550
O3191	O319	0.622060	0.589500	0.274500
O3201	O320	0.624990	0.526030	0.343020
O3211	O321	0.594640	0.526020	0.372740
O3221	O322	0.658410	0.627090	0.277730
O3231	O323	0.630510	0.658890	0.274690
O3241	O324	0.674200	0.581430	0.243880
C4211	C421	0.535070	0.599000	0.350420
C4221	C422	0.557900	0.586890	0.338370
C4231	C423	0.568550	0.597780	0.317020
H1411	H141	0.561000	0.612400	0.309500
C4241	C424	0.590570	0.587200	0.306520
C4251	C425	0.602190	0.566370	0.317910
H1421	H142	0.617400	0.559600	0.310900
C4261	C426	0.591700	0.555430	0.339340
C4271	C427	0.569190	0.565550	0.349720
H1431	H143	0.561700	0.558000	0.364300
C4281	C428	0.603120	0.600230	0.284450
C4291	C429	0.605000	0.534080	0.352690
C4301	C430	0.649330	0.648120	0.283840
C4311	C431	0.662170	0.661140	0.305540
C4321	C432	0.650940	0.683140	0.316130
H1441	H144	0.636300	0.690300	0.308400
Cu371	Cu37	0.857200	0.107590	0.750300
O3251	O325	0.973700	0.088850	0.629760
O3261	O326	0.973450	0.118470	0.660020
O3271	O327	0.906170	0.121120	0.722450
O3281	O328	0.877940	0.089500	0.725500
O3291	O329	0.875010	0.026030	0.656980
O3301	O330	0.905360	0.026020	0.627260
O3311	O331	0.841590	0.127090	0.722270
O3321	O332	0.869490	0.158890	0.725310
O3331	O333	0.825800	0.081430	0.756120
C4331	C433	0.964930	0.099000	0.649580
C4341	C434	0.942100	0.086890	0.661630
C4351	C435	0.931450	0.097780	0.682980
H1451	H145	0.939000	0.112400	0.690500
C4361	C436	0.909430	0.087200	0.693480
C4371	C437	0.897810	0.066370	0.682090
H1461	H146	0.882600	0.059600	0.689100
C4381	C438	0.908300	0.055430	0.660660
C4391	C439	0.930810	0.065550	0.650280
H1471	H147	0.938300	0.058000	0.635700
C4401	C440	0.896880	0.100230	0.715550
C4411	C441	0.895000	0.034080	0.647310
C4421	C442	0.850670	0.148120	0.716160
C4431	C443	0.837830	0.161140	0.694460
C4441	C444	0.849060	0.183140	0.683870
H1481	H148	0.863700	0.190300	0.691600
Cu381	Cu38	0.857200	0.607590	0.250300
O3341	O334	0.973700	0.588850	0.129760
O3351	O335	0.973450	0.618470	0.160020
O3361	O336	0.906170	0.621120	0.222450
O3371	O337	0.877940	0.589500	0.225500
O3381	O338	0.875010	0.526030	0.156980
O3391	O339	0.905360	0.526020	0.127260
O3401	O340	0.841590	0.627090	0.222270
O3411	O341	0.869490	0.658890	0.225310
O3421	O342	0.825800	0.581430	0.256120
C4451	C445	0.964930	0.599000	0.149580
C4461	C446	0.942100	0.586890	0.161630
C4471	C447	0.931450	0.597780	0.182980
H1491	H149	0.939000	0.612400	0.190500
C4481	C448	0.909430	0.587200	0.193480
C4491	C449	0.897810	0.566370	0.182090
H1501	H150	0.882600	0.559600	0.189100
C4501	C450	0.908300	0.555430	0.160660
C4511	C451	0.930810	0.565550	0.150280
H1511	H151	0.938300	0.558000	0.135700
C4521	C452	0.896880	0.600230	0.215550
C4531	C453	0.895000	0.534080	0.147310
C4541	C454	0.850670	0.648120	0.216160
C4551	C455	0.837830	0.661140	0.194460
C4561	C456	0.849060	0.683140	0.183870
H1521	H152	0.863700	0.690300	0.191600
Cu391	Cu39	0.357200	0.107590	0.250300
O3431	O343	0.473700	0.088850	0.129760
O3441	O344	0.473450	0.118470	0.160020
O3451	O345	0.406170	0.121120	0.222450
O3461	O346	0.377940	0.089500	0.225500
O3471	O347	0.375010	0.026030	0.156980
O3481	O348	0.405360	0.026020	0.127260
O3491	O349	0.341590	0.127090	0.222270
O3501	O350	0.369490	0.158890	0.225310
O3511	O351	0.325800	0.081430	0.256120
C4571	C457	0.464930	0.099000	0.149580
C4581	C458	0.442100	0.086890	0.161630
C4591	C459	0.431450	0.097780	0.182980
H1531	H153	0.439000	0.112400	0.190500
C4601	C460	0.409430	0.087200	0.193480
C4611	C461	0.397810	0.066370	0.182090
H1541	H154	0.382600	0.059600	0.189100
C4621	C462	0.408300	0.055430	0.160660
C4631	C463	0.430810	0.065550	0.150280
H1551	H155	0.438300	0.058000	0.135700
C4641	C464	0.396880	0.100230	0.215550
C4651	C465	0.395000	0.034080	0.147310
C4661	C466	0.350670	0.148120	0.216160
C4671	C467	0.337830	0.161140	0.194460
C4681	C468	0.349060	0.183140	0.183870
H1561	H156	0.363700	0.190300	0.191600
Cu401	Cu40	0.357200	0.607590	0.750300
O3521	O352	0.473700	0.588850	0.629760
O3531	O353	0.473450	0.618470	0.660020
O3541	O354	0.406170	0.621120	0.722450
O3551	O355	0.377940	0.589500	0.725500
O3561	O356	0.375010	0.526030	0.656980
O3571	O357	0.405360	0.526020	0.627260
O3581	O358	0.341590	0.627090	0.722270
O3591	O359	0.369490	0.658890	0.725310
O3601	O360	0.325800	0.581430	0.756120
C4691	C469	0.464930	0.599000	0.649580
C4701	C470	0.442100	0.586890	0.661630
C4711	C471	0.431450	0.597780	0.682980
H1571	H157	0.439000	0.612400	0.690500
C4721	C472	0.409430	0.587200	0.693480
C4731	C473	0.397810	0.566370	0.682090
H1581	H158	0.382600	0.559600	0.689100
C4741	C474	0.408300	0.555430	0.660660
C4751	C475	0.430810	0.565550	0.650280
H1591	H159	0.438300	0.558000	0.635700
C4761	C476	0.396880	0.600230	0.715550
C4771	C477	0.395000	0.534080	0.647310
C4781	C478	0.350670	0.648120	0.716160
C4791	C479	0.337830	0.661140	0.694460
C4801	C480	0.349060	0.683140	0.683870
H1601	H160	0.363700	0.690300	0.691600
Cu411	Cu41	0.142800	0.892410	0.750300
O3611	O361	0.026300	0.911150	0.629760
O3621	O362	0.026550	0.881530	0.660020
O3631	O363	0.093830	0.878880	0.722450
O3641	O364	0.122060	0.910500	0.725500
O3651	O365	0.124990	0.973970	0.656980
O3661	O366	0.094640	0.973980	0.627260
O3671	O367	0.158410	0.872910	0.722270
O3681	O368	0.130510	0.841110	0.725310
O3691	O369	0.174200	0.918570	0.756120
C4811	C481	0.035070	0.901000	0.649580
C4821	C482	0.057900	0.913110	0.661630
C4831	C483	0.068550	0.902220	0.682980
H1611	H161	0.061000	0.887600	0.690500
C4841	C484	0.090570	0.912800	0.693480
C4851	C485	0.102190	0.933630	0.682090
H1621	H162	0.117400	0.940400	0.689100
C4861	C486	0.091700	0.944570	0.660660
C4871	C487	0.069190	0.934450	0.650280
H1631	H163	0.061700	0.942000	0.635700
C4881	C488	0.103120	0.899770	0.715550
C4891	C489	0.105000	0.965920	0.647310
C4901	C490	0.149330	0.851880	0.716160
C4911	C491	0.162170	0.838860	0.694460
C4921	C492	0.150940	0.816860	0.683870
H1641	H164	0.136300	0.809700	0.691600
Cu421	Cu42	0.142800	0.392410	0.250300
O3701	O370	0.026300	0.411150	0.129760
O3711	O371	0.026550	0.381530	0.160020
O3721	O372	0.093830	0.378880	0.222450
O3731	O373	0.122060	0.410500	0.225500
O3741	O374	0.124990	0.473970	0.156980
O3751	O375	0.094640	0.473980	0.127260
O3761	O376	0.158410	0.372910	0.222270
O3771	O377	0.130510	0.341110	0.225310
O3781	O378	0.174200	0.418570	0.256120
C4931	C493	0.035070	0.401000	0.149580
C4941	C494	0.057900	0.413110	0.161630
C4951	C495	0.068550	0.402220	0.182980
H1651	H165	0.061000	0.387600	0.190500
C4961	C496	0.090570	0.412800	0.193480
C4971	C497	0.102190	0.433630	0.182090
H1661	H166	0.117400	0.440400	0.189100
C4981	C498	0.091700	0.444570	0.160660
C4991	C499	0.069190	0.434450	0.150280
H1671	H167	0.061700	0.442000	0.135700
C5001	C500	0.103120	0.399770	0.215550
C5011	C501	0.105000	0.465920	0.147310
C5021	C502	0.149330	0.351880	0.216160
C5031	C503	0.162170	0.338860	0.194460
C5041	C504	0.150940	0.316860	0.183870
H1681	H168	0.136300	0.309700	0.191600
Cu431	Cu43	0.642800	0.892410	0.250300
O3791	O379	0.526300	0.911150	0.129760
O3801	O380	0.526550	0.881530	0.160020
O3811	O381	0.593830	0.878880	0.222450
O3821	O382	0.622060	0.910500	0.225500
O3831	O383	0.624990	0.973970	0.156980
O3841	O384	0.594640	0.973980	0.127260
O3851	O385	0.658410	0.872910	0.222270
O3861	O386	0.630510	0.841110	0.225310
O3871	O387	0.674200	0.918570	0.256120
C5051	C505	0.535070	0.901000	0.149580
C5061	C506	0.557900	0.913110	0.161630
C5071	C507	0.568550	0.902220	0.182980
H1691	H169	0.561000	0.887600	0.190500
C5081	C508	0.590570	0.912800	0.193480
C5091	C509	0.602190	0.933630	0.182090
H1701	H170	0.617400	0.940400	0.189100
C5101	C510	0.591700	0.944570	0.160660
C5111	C511	0.569190	0.934450	0.150280
H1711	H171	0.561700	0.942000	0.135700
C5121	C512	0.603120	0.899770	0.215550
C5131	C513	0.605000	0.965920	0.147310
C5141	C514	0.649330	0.851880	0.216160
C5151	C515	0.662170	0.838860	0.194460
C5161	C516	0.650940	0.816860	0.183870
H1721	H172	0.636300	0.809700	0.191600
Cu441	Cu44	0.642800	0.392410	0.750300
O3881	O388	0.526300	0.411150	0.629760
O3891	O389	0.526550	0.381530	0.660020
O3901	O390	0.593830	0.378880	0.722450
O3911	O391	0.622060	0.410500	0.725500
O3921	O392	0.624990	0.473970	0.656980
O3931	O393	0.594640	0.473980	0.627260
O3941	O394	0.658410	0.372910	0.722270
O3951	O395	0.630510	0.341110	0.725310
O3961	O396	0.674200	0.418570	0.756120
C5171	C517	0.535070	0.401000	0.649580
C5181	C518	0.557900	0.413110	0.661630
C5191	C519	0.568550	0.402220	0.682980
H1731	H173	0.561000	0.387600	0.690500
C5201	C520	0.590570	0.412800	0.693480
C5211	C521	0.602190	0.433630	0.682090
H1741	H174	0.617400	0.440400	0.689100
C5221	C522	0.591700	0.444570	0.660660
C5231	C523	0.569190	0.434450	0.650280
H1751	H175	0.561700	0.442000	0.635700
C5241	C524	0.603120	0.399770	0.715550
C5251	C525	0.605000	0.465920	0.647310
C5261	C526	0.649330	0.351880	0.716160
C5271	C527	0.662170	0.338860	0.694460
C5281	C528	0.650940	0.316860	0.683870
H1761	H176	0.636300	0.309700	0.691600
Cu451	Cu45	0.857200	0.892410	0.249700
O3971	O397	0.973700	0.911150	0.370240
O3981	O398	0.973450	0.881530	0.339980
O3991	O399	0.906170	0.878880	0.277550
O4001	O400	0.877940	0.910500	0.274500
O4011	O401	0.875010	0.973970	0.343020
O4021	O402	0.905360	0.973980	0.372740
O4031	O403	0.841590	0.872910	0.277730
O4041	O404	0.869490	0.841110	0.274690
O4051	O405	0.825800	0.918570	0.243880
C5291	C529	0.964930	0.901000	0.350420
C5301	C530	0.942100	0.913110	0.338370
C5311	C531	0.931450	0.902220	0.317020
H1771	H177	0.939000	0.887600	0.309500
C5321	C532	0.909430	0.912800	0.306520
C5331	C533	0.897810	0.933630	0.317910
H1781	H178	0.882600	0.940400	0.310900
C5341	C534	0.908300	0.944570	0.339340
C5351	C535	0.930810	0.934450	0.349720
H1791	H179	0.938300	0.942000	0.364300
C5361	C536	0.896880	0.899770	0.284450
C5371	C537	0.895000	0.965920	0.352690
C5381	C538	0.850670	0.851880	0.283840
C5391	C539	0.837830	0.838860	0.305540
C5401	C540	0.849060	0.816860	0.316130
H1801	H180	0.863700	0.809700	0.308400
Cu461	Cu46	0.857200	0.392410	0.749700
O4061	O406	0.973700	0.411150	0.870240
O4071	O407	0.973450	0.381530	0.839980
O4081	O408	0.906170	0.378880	0.777550
O4091	O409	0.877940	0.410500	0.774500
O4101	O410	0.875010	0.473970	0.843020
O4111	O411	0.905360	0.473980	0.872740
O4121	O412	0.841590	0.372910	0.777730
O4131	O413	0.869490	0.341110	0.774690
O4141	O414	0.825800	0.418570	0.743880
C5411	C541	0.964930	0.401000	0.850420
C5421	C542	0.942100	0.413110	0.838370
C5431	C543	0.931450	0.402220	0.817020
H1811	H181	0.939000	0.387600	0.809500
C5441	C544	0.909430	0.412800	0.806520
C5451	C545	0.897810	0.433630	0.817910
H1821	H182	0.882600	0.440400	0.810900
C5461	C546	0.908300	0.444570	0.839340
C5471	C547	0.930810	0.434450	0.849720
H1831	H183	0.938300	0.442000	0.864300
C5481	C548	0.896880	0.399770	0.784450
C5491	C549	0.895000	0.465920	0.852690
C5501	C550	0.850670	0.351880	0.783840
C5511	C551	0.837830	0.338860	0.805540
C5521	C552	0.849060	0.316860	0.816130
H1841	H184	0.863700	0.309700	0.808400
Cu471	Cu47	0.357200	0.892410	0.749700
O4151	O415	0.473700	0.911150	0.870240
O4161	O416	0.473450	0.881530	0.839980
O4171	O417	0.406170	0.878880	0.777550
O4181	O418	0.377940	0.910500	0.774500
O4191	O419	0.375010	0.973970	0.843020
O4201	O420	0.405360	0.973980	0.872740
O4211	O421	0.341590	0.872910	0.777730
O4221	O422	0.369490	0.841110	0.774690
O4231	O423	0.325800	0.918570	0.743880
C5531	C553	0.464930	0.901000	0.850420
C5541	C554	0.442100	0.913110	0.838370
C5551	C555	0.431450	0.902220	0.817020
H1851	H185	0.439000	0.887600	0.809500
C5561	C556	0.409430	0.912800	0.806520
C5571	C557	0.397810	0.933630	0.817910
H1861	H186	0.382600	0.940400	0.810900
C5581	C558	0.408300	0.944570	0.839340
C5591	C559	0.430810	0.934450	0.849720
H1871	H187	0.438300	0.942000	0.864300
C5601	C560	0.396880	0.899770	0.784450
C5611	C561	0.395000	0.965920	0.852690
C5621	C562	0.350670	0.851880	0.783840
C5631	C563	0.337830	0.838860	0.805540
C5641	C564	0.349060	0.816860	0.816130
H1881	H188	0.363700	0.809700	0.808400
Cu481	Cu48	0.357200	0.392410	0.249700
O4241	O424	0.473700	0.411150	0.370240
O4251	O425	0.473450	0.381530	0.339980
O4261	O426	0.406170	0.378880	0.277550
O4271	O427	0.377940	0.410500	0.274500
O4281	O428	0.375010	0.473970	0.343020
O4291	O429	0.405360	0.473980	0.372740
O4301	O430	0.341590	0.372910	0.277730
O4311	O431	0.369490	0.341110	0.274690
O4321	O432	0.325800	0.418570	0.243880
C5651	C565	0.464930	0.401000	0.350420
C5661	C566	0.442100	0.413110	0.338370
C5671	C567	0.431450	0.402220	0.317020
H1891	H189	0.439000	0.387600	0.309500
C5681	C568	0.409430	0.412800	0.306520
C5691	C569	0.397810	0.433630	0.317910
H1901	H190	0.382600	0.440400	0.310900
C5701	C570	0.408300	0.444570	0.339340
C5711	C571	0.430810	0.434450	0.349720
H1911	H191	0.438300	0.442000	0.364300
C5721	C572	0.396880	0.399770	0.284450
C5731	C573	0.395000	0.465920	0.352690
C5741	C574	0.350670	0.351880	0.283840
C5751	C575	0.337830	0.338860	0.305540
C5761	C576	0.349060	0.316860	0.316130
H1921	H192	0.363700	0.309700	0.308400
Cu491	Cu49	0.642800	0.749700	0.392410
O4331	O433	0.526300	0.870240	0.411150
O4341	O434	0.526550	0.839980	0.381530
O4351	O435	0.593830	0.777550	0.378880
O4361	O436	0.622060	0.774500	0.410500
O4371	O437	0.624990	0.843020	0.473970
O4381	O438	0.594640	0.872740	0.473980
O4391	O439	0.658410	0.777730	0.372910
O4401	O440	0.630510	0.774690	0.341110
O4411	O441	0.674200	0.743880	0.418570
C5771	C577	0.535070	0.850420	0.401000
C5781	C578	0.557900	0.838370	0.413110
C5791	C579	0.568550	0.817020	0.402220
H1931	H193	0.561000	0.809500	0.387600
C5801	C580	0.590570	0.806520	0.412800
C5811	C581	0.602190	0.817910	0.433630
H1941	H194	0.617400	0.810900	0.440400
C5821	C582	0.591700	0.839340	0.444570
C5831	C583	0.569190	0.849720	0.434450
H1951	H195	0.561700	0.864300	0.442000
C5841	C584	0.603120	0.784450	0.399770
C5851	C585	0.605000	0.852690	0.465920
C5861	C586	0.649330	0.783840	0.351880
C5871	C587	0.662170	0.805540	0.338860
C5881	C588	0.650940	0.816130	0.316860
H1961	H196	0.636300	0.808400	0.309700
Cu501	Cu50	0.642800	0.249700	0.892410
O4421	O442	0.526300	0.370240	0.911150
O4431	O443	0.526550	0.339980	0.881530
O4441	O444	0.593830	0.277550	0.878880
O4451	O445	0.622060	0.274500	0.910500
O4461	O446	0.624990	0.343020	0.973970
O4471	O447	0.594640	0.372740	0.973980
O4481	O448	0.658410	0.277730	0.872910
O4491	O449	0.630510	0.274690	0.841110
O4501	O450	0.674200	0.243880	0.918570
C5891	C589	0.535070	0.350420	0.901000
C5901	C590	0.557900	0.338370	0.913110
C5911	C591	0.568550	0.317020	0.902220
H1971	H197	0.561000	0.309500	0.887600
C5921	C592	0.590570	0.306520	0.912800
C5931	C593	0.602190	0.317910	0.933630
H1981	H198	0.617400	0.310900	0.940400
C5941	C594	0.591700	0.339340	0.944570
C5951	C595	0.569190	0.349720	0.934450
H1991	H199	0.561700	0.364300	0.942000
C5961	C596	0.603120	0.284450	0.899770
C5971	C597	0.605000	0.352690	0.965920
C5981	C598	0.649330	0.283840	0.851880
C5991	C599	0.662170	0.305540	0.838860
C6001	C600	0.650940	0.316130	0.816860
H2001	H200	0.636300	0.308400	0.809700
Cu511	Cu51	0.142800	0.749700	0.892410
O4511	O451	0.026300	0.870240	0.911150
O4521	O452	0.026550	0.839980	0.881530
O4531	O453	0.093830	0.777550	0.878880
O4541	O454	0.122060	0.774500	0.910500
O4551	O455	0.124990	0.843020	0.973970
O4561	O456	0.094640	0.872740	0.973980
O4571	O457	0.158410	0.777730	0.872910
O4581	O458	0.130510	0.774690	0.841110
O4591	O459	0.174200	0.743880	0.918570
C6011	C601	0.035070	0.850420	0.901000
C6021	C602	0.057900	0.838370	0.913110
C6031	C603	0.068550	0.817020	0.902220
H2011	H201	0.061000	0.809500	0.887600
C6041	C604	0.090570	0.806520	0.912800
C6051	C605	0.102190	0.817910	0.933630
H2021	H202	0.117400	0.810900	0.940400
C6061	C606	0.091700	0.839340	0.944570
C6071	C607	0.069190	0.849720	0.934450
H2031	H203	0.061700	0.864300	0.942000
C6081	C608	0.103120	0.784450	0.899770
C6091	C609	0.105000	0.852690	0.965920
C6101	C610	0.149330	0.783840	0.851880
C6111	C611	0.162170	0.805540	0.838860
C6121	C612	0.150940	0.816130	0.816860
H2041	H204	0.136300	0.808400	0.809700
Cu521	Cu52	0.142800	0.249700	0.392410
O4601	O460	0.026300	0.370240	0.411150
O4611	O461	0.026550	0.339980	0.381530
O4621	O462	0.093830	0.277550	0.378880
O4631	O463	0.122060	0.274500	0.410500
O4641	O464	0.124990	0.343020	0.473970
O4651	O465	0.094640	0.372740	0.473980
O4661	O466	0.158410	0.277730	0.372910
O4671	O467	0.130510	0.274690	0.341110
O4681	O468	0.174200	0.243880	0.418570
C6131	C613	0.035070	0.350420	0.401000
C6141	C614	0.057900	0.338370	0.413110
C6151	C615	0.068550	0.317020	0.402220
H2051	H205	0.061000	0.309500	0.387600
C6161	C616	0.090570	0.306520	0.412800
C6171	C617	0.102190	0.317910	0.433630
H2061	H206	0.117400	0.310900	0.440400
C6181	C618	0.091700	0.339340	0.444570
C6191	C619	0.069190	0.349720	0.434450
H2071	H207	0.061700	0.364300	0.442000
C6201	C620	0.103120	0.284450	0.399770
C6211	C621	0.105000	0.352690	0.465920
C6221	C622	0.149330	0.283840	0.351880
C6231	C623	0.162170	0.305540	0.338860
C6241	C624	0.150940	0.316130	0.316860
H2081	H208	0.136300	0.308400	0.309700
Cu531	Cu53	0.357200	0.250300	0.392410
O4691	O469	0.473700	0.129760	0.411150
O4701	O470	0.473450	0.160020	0.381530
O4711	O471	0.406170	0.222450	0.378880
O4721	O472	0.377940	0.225500	0.410500
O4731	O473	0.375010	0.156980	0.473970
O4741	O474	0.405360	0.127260	0.473980
O4751	O475	0.341590	0.222270	0.372910
O4761	O476	0.369490	0.225310	0.341110
O4771	O477	0.325800	0.256120	0.418570
C6251	C625	0.464930	0.149580	0.401000
C6261	C626	0.442100	0.161630	0.413110
C6271	C627	0.431450	0.182980	0.402220
H2091	H209	0.439000	0.190500	0.387600
C6281	C628	0.409430	0.193480	0.412800
C6291	C629	0.397810	0.182090	0.433630
H2101	H210	0.382600	0.189100	0.440400
C6301	C630	0.408300	0.160660	0.444570
C6311	C631	0.430810	0.150280	0.434450
H2111	H211	0.438300	0.135700	0.442000
C6321	C632	0.396880	0.215550	0.399770
C6331	C633	0.395000	0.147310	0.465920
C6341	C634	0.350670	0.216160	0.351880
C6351	C635	0.337830	0.194460	0.338860
C6361	C636	0.349060	0.183870	0.316860
H2121	H212	0.363700	0.191600	0.309700
Cu541	Cu54	0.357200	0.750300	0.892410
O4781	O478	0.473700	0.629760	0.911150
O4791	O479	0.473450	0.660020	0.881530
O4801	O480	0.406170	0.722450	0.878880
O4811	O481	0.377940	0.725500	0.910500
O4821	O482	0.375010	0.656980	0.973970
O4831	O483	0.405360	0.627260	0.973980
O4841	O484	0.341590	0.722270	0.872910
O4851	O485	0.369490	0.725310	0.841110
O4861	O486	0.325800	0.756120	0.918570
C6371	C637	0.464930	0.649580	0.901000
C6381	C638	0.442100	0.661630	0.913110
C6391	C639	0.431450	0.682980	0.902220
H2131	H213	0.439000	0.690500	0.887600
C6401	C640	0.409430	0.693480	0.912800
C6411	C641	0.397810	0.682090	0.933630
H2141	H214	0.382600	0.689100	0.940400
C6421	C642	0.408300	0.660660	0.944570
C6431	C643	0.430810	0.650280	0.934450
H2151	H215	0.438300	0.635700	0.942000
C6441	C644	0.396880	0.715550	0.899770
C6451	C645	0.395000	0.647310	0.965920
C6461	C646	0.350670	0.716160	0.851880
C6471	C647	0.337830	0.694460	0.838860
C6481	C648	0.349060	0.683870	0.816860
H2161	H216	0.363700	0.691600	0.809700
Cu551	Cu55	0.857200	0.250300	0.892410
O4871	O487	0.973700	0.129760	0.911150
O4881	O488	0.973450	0.160020	0.881530
O4891	O489	0.906170	0.222450	0.878880
O4901	O490	0.877940	0.225500	0.910500
O4911	O491	0.875010	0.156980	0.973970
O4921	O492	0.905360	0.127260	0.973980
O4931	O493	0.841590	0.222270	0.872910
O4941	O494	0.869490	0.225310	0.841110
O4951	O495	0.825800	0.256120	0.918570
C6491	C649	0.964930	0.149580	0.901000
C6501	C650	0.942100	0.161630	0.913110
C6511	C651	0.931450	0.182980	0.902220
H2171	H217	0.939000	0.190500	0.887600
C6521	C652	0.909430	0.193480	0.912800
C6531	C653	0.897810	0.182090	0.933630
H2181	H218	0.882600	0.189100	0.940400
C6541	C654	0.908300	0.160660	0.944570
C6551	C655	0.930810	0.150280	0.934450
H2191	H219	0.938300	0.135700	0.942000
C6561	C656	0.896880	0.215550	0.899770
C6571	C657	0.895000	0.147310	0.965920
C6581	C658	0.850670	0.216160	0.851880
C6591	C659	0.837830	0.194460	0.838860
C6601	C660	0.849060	0.183870	0.816860
H2201	H220	0.863700	0.191600	0.809700
Cu561	Cu56	0.857200	0.750300	0.392410
O4961	O496	0.973700	0.629760	0.411150
O4971	O497	0.973450	0.660020	0.381530
O4981	O498	0.906170	0.722450	0.378880
O4991	O499	0.877940	0.725500	0.410500
O5001	O500	0.875010	0.656980	0.473970
O5011	O501	0.905360	0.627260	0.473980
O5021	O502	0.841590	0.722270	0.372910
O5031	O503	0.869490	0.725310	0.341110
O5041	O504	0.825800	0.756120	0.418570
C6611	C661	0.964930	0.649580	0.401000
C6621	C662	0.942100	0.661630	0.413110
C6631	C663	0.931450	0.682980	0.402220
H2211	H221	0.939000	0.690500	0.387600
C6641	C664	0.909430	0.693480	0.412800
C6651	C665	0.897810	0.682090	0.433630
H2221	H222	0.882600	0.689100	0.440400
C6661	C666	0.908300	0.660660	0.444570
C6671	C667	0.930810	0.650280	0.434450
H2231	H223	0.938300	0.635700	0.442000
C6681	C668	0.896880	0.715550	0.399770
C6691	C669	0.895000	0.647310	0.465920
C6701	C670	0.850670	0.716160	0.351880
C6711	C671	0.837830	0.694460	0.338860
C6721	C672	0.849060	0.683870	0.316860
H2241	H224	0.863700	0.691600	0.309700
Cu571	Cu57	0.642800	0.250300	0.607590
O5051	O505	0.526300	0.129760	0.588850
O5061	O506	0.526550	0.160020	0.618470
O5071	O507	0.593830	0.222450	0.621120
O5081	O508	0.622060	0.225500	0.589500
O5091	O509	0.624990	0.156980	0.526030
O5101	O510	0.594640	0.127260	0.526020
O5111	O511	0.658410	0.222270	0.627090
O5121	O512	0.630510	0.225310	0.658890
O5131	O513	0.674200	0.256120	0.581430
C6731	C673	0.535070	0.149580	0.599000
C6741	C674	0.557900	0.161630	0.586890
C6751	C675	0.568550	0.182980	0.597780
H2251	H225	0.561000	0.190500	0.612400
C6761	C676	0.590570	0.193480	0.587200
C6771	C677	0.602190	0.182090	0.566370
H2261	H226	0.617400	0.189100	0.559600
C6781	C678	0.591700	0.160660	0.555430
C6791	C679	0.569190	0.150280	0.565550
H2271	H227	0.561700	0.135700	0.558000
C6801	C680	0.603120	0.215550	0.600230
C6811	C681	0.605000	0.147310	0.534080
C6821	C682	0.649330	0.216160	0.648120
C6831	C683	0.662170	0.194460	0.661140
C6841	C684	0.650940	0.183870	0.683140
H2281	H228	0.636300	0.191600	0.690300
Cu581	Cu58	0.642800	0.750300	0.107590
O5141	O514	0.526300	0.629760	0.088850
O5151	O515	0.526550	0.660020	0.118470
O5161	O516	0.593830	0.722450	0.121120
O5171	O517	0.622060	0.725500	0.089500
O5181	O518	0.624990	0.656980	0.026030
O5191	O519	0.594640	0.627260	0.026020
O5201	O520	0.658410	0.722270	0.127090
O5211	O521	0.630510	0.725310	0.158890
O5221	O522	0.674200	0.756120	0.081430
C6851	C685	0.535070	0.649580	0.099000
C6861	C686	0.557900	0.661630	0.086890
C6871	C687	0.568550	0.682980	0.097780
H2291	H229	0.561000	0.690500	0.112400
C6881	C688	0.590570	0.693480	0.087200
C6891	C689	0.602190	0.682090	0.066370
H2301	H230	0.617400	0.689100	0.059600
C6901	C690	0.591700	0.660660	0.055430
C6911	C691	0.569190	0.650280	0.065550
H2311	H231	0.561700	0.635700	0.058000
C6921	C692	0.603120	0.715550	0.100230
C6931	C693	0.605000	0.647310	0.034080
C6941	C694	0.649330	0.716160	0.148120
C6951	C695	0.662170	0.694460	0.161140
C6961	C696	0.650940	0.683870	0.183140
H2321	H232	0.636300	0.691600	0.190300
Cu591	Cu59	0.142800	0.250300	0.107590
O5231	O523	0.026300	0.129760	0.088850
O5241	O524	0.026550	0.160020	0.118470
O5251	O525	0.093830	0.222450	0.121120
O5261	O526	0.122060	0.225500	0.089500
O5271	O527	0.124990	0.156980	0.026030
O5281	O528	0.094640	0.127260	0.026020
O5291	O529	0.158410	0.222270	0.127090
O5301	O530	0.130510	0.225310	0.158890
O5311	O531	0.174200	0.256120	0.081430
C6971	C697	0.035070	0.149580	0.099000
C6981	C698	0.057900	0.161630	0.086890
C6991	C699	0.068550	0.182980	0.097780
H2331	H233	0.061000	0.190500	0.112400
C7001	C700	0.090570	0.193480	0.087200
C7011	C701	0.102190	0.182090	0.066370
H2341	H234	0.117400	0.189100	0.059600
C7021	C702	0.091700	0.160660	0.055430
C7031	C703	0.069190	0.150280	0.065550
H2351	H235	0.061700	0.135700	0.058000
C7041	C704	0.103120	0.215550	0.100230
C7051	C705	0.105000	0.147310	0.034080
C7061	C706	0.149330	0.216160	0.148120
C7071	C707	0.162170	0.194460	0.161140
C7081	C708	0.150940	0.183870	0.183140
H2361	H236	0.136300	0.191600	0.190300
Cu601	Cu60	0.142800	0.750300	0.607590
O5321	O532	0.026300	0.629760	0.588850
O5331	O533	0.026550	0.660020	0.618470
O5341	O534	0.093830	0.722450	0.621120
O5351	O535	0.122060	0.725500	0.589500
O5361	O536	0.124990	0.656980	0.526030
O5371	O537	0.094640	0.627260	0.526020
O5381	O538	0.158410	0.722270	0.627090
O5391	O539	0.130510	0.725310	0.658890
O5401	O540	0.174200	0.756120	0.581430
C7091	C709	0.035070	0.649580	0.599000
C7101	C710	0.057900	0.661630	0.586890
C7111	C711	0.068550	0.682980	0.597780
H2371	H237	0.061000	0.690500	0.612400
C7121	C712	0.090570	0.693480	0.587200
C7131	C713	0.102190	0.682090	0.566370
H2381	H238	0.117400	0.689100	0.559600
C7141	C714	0.091700	0.660660	0.555430
C7151	C715	0.069190	0.650280	0.565550
H2391	H239	0.061700	0.635700	0.558000
C7161	C716	0.103120	0.715550	0.600230
C7171	C717	0.105000	0.647310	0.534080
C7181	C718	0.149330	0.716160	0.648120
C7191	C719	0.162170	0.694460	0.661140
C7201	C720	0.150940	0.683870	0.683140
H2401	H240	0.136300	0.691600	0.690300
Cu611	Cu61	0.357200	0.749700	0.607590
O5411	O541	0.473700	0.870240	0.588850
O5421	O542	0.473450	0.839980	0.618470
O5431	O543	0.406170	0.777550	0.621120
O5441	O544	0.377940	0.774500	0.589500
O5451	O545	0.375010	0.843020	0.526030
O5461	O546	0.405360	0.872740	0.526020
O5471	O547	0.341590	0.777730	0.627090
O5481	O548	0.369490	0.774690	0.658890
O5491	O549	0.325800	0.743880	0.581430
C7211	C721	0.464930	0.850420	0.599000
C7221	C722	0.442100	0.838370	0.586890
C7231	C723	0.431450	0.817020	0.597780
H2411	H241	0.439000	0.809500	0.612400
C7241	C724	0.409430	0.806520	0.587200
C7251	C725	0.397810	0.817910	0.566370
H2421	H242	0.382600	0.810900	0.559600
C7261	C726	0.408300	0.839340	0.555430
C7271	C727	0.430810	0.849720	0.565550
H2431	H243	0.438300	0.864300	0.558000
C7281	C728	0.396880	0.784450	0.600230
C7291	C729	0.395000	0.852690	0.534080
C7301	C730	0.350670	0.783840	0.648120
C7311	C731	0.337830	0.805540	0.661140
C7321	C732	0.349060	0.816130	0.683140
H2441	H244	0.363700	0.808400	0.690300
Cu621	Cu62	0.357200	0.249700	0.107590
O5501	O550	0.473700	0.370240	0.088850
O5511	O551	0.473450	0.339980	0.118470
O5521	O552	0.406170	0.277550	0.121120
O5531	O553	0.377940	0.274500	0.089500
O5541	O554	0.375010	0.343020	0.026030
O5551	O555	0.405360	0.372740	0.026020
O5561	O556	0.341590	0.277730	0.127090
O5571	O557	0.369490	0.274690	0.158890
O5581	O558	0.325800	0.243880	0.081430
C7331	C733	0.464930	0.350420	0.099000
C7341	C734	0.442100	0.338370	0.086890
C7351	C735	0.431450	0.317020	0.097780
H2451	H245	0.439000	0.309500	0.112400
C7361	C736	0.409430	0.306520	0.087200
C7371	C737	0.397810	0.317910	0.066370
H2461	H246	0.382600	0.310900	0.059600
C7381	C738	0.408300	0.339340	0.055430
C7391	C739	0.430810	0.349720	0.065550
H2471	H247	0.438300	0.364300	0.058000
C7401	C740	0.396880	0.284450	0.100230
C7411	C741	0.395000	0.352690	0.034080
C7421	C742	0.350670	0.283840	0.148120
C7431	C743	0.337830	0.305540	0.161140
C7441	C744	0.349060	0.316130	0.183140
H2481	H248	0.363700	0.308400	0.190300
Cu631	Cu63	0.857200	0.749700	0.107590
O5591	O559	0.973700	0.870240	0.088850
O5601	O560	0.973450	0.839980	0.118470
O5611	O561	0.906170	0.777550	0.121120
O5621	O562	0.877940	0.774500	0.089500
O5631	O563	0.875010	0.843020	0.026030
O5641	O564	0.905360	0.872740	0.026020
O5651	O565	0.841590	0.777730	0.127090
O5661	O566	0.869490	0.774690	0.158890
O5671	O567	0.825800	0.743880	0.081430
C7451	C745	0.964930	0.850420	0.099000
C7461	C746	0.942100	0.838370	0.086890
C7471	C747	0.931450	0.817020	0.097780
H2491	H249	0.939000	0.809500	0.112400
C7481	C748	0.909430	0.806520	0.087200
C7491	C749	0.897810	0.817910	0.066370
H2501	H250	0.882600	0.810900	0.059600
C7501	C750	0.908300	0.839340	0.055430
C7511	C751	0.930810	0.849720	0.065550
H2511	H251	0.938300	0.864300	0.058000
C7521	C752	0.896880	0.784450	0.100230
C7531	C753	0.895000	0.852690	0.034080
C7541	C754	0.850670	0.783840	0.148120
C7551	C755	0.837830	0.805540	0.161140
C7561	C756	0.849060	0.816130	0.183140
H2521	H252	0.863700	0.808400	0.190300
Cu641	Cu64	0.857200	0.249700	0.607590
O5681	O568	0.973700	0.370240	0.588850
O5691	O569	0.973450	0.339980	0.618470
O5701	O570	0.906170	0.277550	0.621120
O5711	O571	0.877940	0.274500	0.589500
O5721	O572	0.875010	0.343020	0.526030
O5731	O573	0.905360	0.372740	0.526020
O5741	O574	0.841590	0.277730	0.627090
O5751	O575	0.869490	0.274690	0.658890
O5761	O576	0.825800	0.243880	0.581430
C7571	C757	0.964930	0.350420	0.599000
C7581	C758	0.942100	0.338370	0.586890
C7591	C759	0.931450	0.317020	0.597780
H2531	H253	0.939000	0.309500	0.612400
C7601	C760	0.909430	0.306520	0.587200
C7611	C761	0.897810	0.317910	0.566370
H2541	H254	0.882600	0.310900	0.559600
C7621	C762	0.908300	0.339340	0.555430
C7631	C763	0.930810	0.349720	0.565550
H2551	H255	0.938300	0.364300	0.558000
C7641	C764	0.896880	0.284450	0.600230
C7651	C765	0.895000	0.352690	0.534080
C7661	C766	0.850670	0.283840	0.648120
C7671	C767	0.837830	0.305540	0.661140
C7681	C768	0.849060	0.316130	0.683140
H2561	H256	0.863700	0.308400	0.690300
Cu651	Cu65	0.749700	0.607590	0.357200
O5771	O577	0.870240	0.588850	0.473700
O5781	O578	0.839980	0.618470	0.473450
O5791	O579	0.777550	0.621120	0.406170
O5801	O580	0.774500	0.589500	0.377940
O5811	O581	0.843020	0.526030	0.375010
O5821	O582	0.872740	0.526020	0.405360
O5831	O583	0.777730	0.627090	0.341590
O5841	O584	0.774690	0.658890	0.369490
O5851	O585	0.743880	0.581430	0.325800
C7691	C769	0.850420	0.599000	0.464930
C7701	C770	0.838370	0.586890	0.442100
C7711	C771	0.817020	0.597780	0.431450
H2571	H257	0.809500	0.612400	0.439000
C7721	C772	0.806520	0.587200	0.409430
C7731	C773	0.817910	0.566370	0.397810
H2581	H258	0.810900	0.559600	0.382600
C7741	C774	0.839340	0.555430	0.408300
C7751	C775	0.849720	0.565550	0.430810
H2591	H259	0.864300	0.558000	0.438300
C7761	C776	0.784450	0.600230	0.396880
C7771	C777	0.852690	0.534080	0.395000
C7781	C778	0.783840	0.648120	0.350670
C7791	C779	0.805540	0.661140	0.337830
C7801	C780	0.816130	0.683140	0.349060
H2601	H260	0.808400	0.690300	0.363700
Cu661	Cu66	0.749700	0.107590	0.857200
O5861	O586	0.870240	0.088850	0.973700
O5871	O587	0.839980	0.118470	0.973450
O5881	O588	0.777550	0.121120	0.906170
O5891	O589	0.774500	0.089500	0.877940
O5901	O590	0.843020	0.026030	0.875010
O5911	O591	0.872740	0.026020	0.905360
O5921	O592	0.777730	0.127090	0.841590
O5931	O593	0.774690	0.158890	0.869490
O5941	O594	0.743880	0.081430	0.825800
C7811	C781	0.850420	0.099000	0.964930
C7821	C782	0.838370	0.086890	0.942100
C7831	C783	0.817020	0.097780	0.931450
H2611	H261	0.809500	0.112400	0.939000
C7841	C784	0.806520	0.087200	0.909430
C7851	C785	0.817910	0.066370	0.897810
H2621	H262	0.810900	0.059600	0.882600
C7861	C786	0.839340	0.055430	0.908300
C7871	C787	0.849720	0.065550	0.930810
H2631	H263	0.864300	0.058000	0.938300
C7881	C788	0.784450	0.100230	0.896880
C7891	C789	0.852690	0.034080	0.895000
C7901	C790	0.783840	0.148120	0.850670
C7911	C791	0.805540	0.161140	0.837830
C7921	C792	0.816130	0.183140	0.849060
H2641	H264	0.808400	0.190300	0.863700
Cu671	Cu67	0.249700	0.607590	0.857200
O5951	O595	0.370240	0.588850	0.973700
O5961	O596	0.339980	0.618470	0.973450
O5971	O597	0.277550	0.621120	0.906170
O5981	O598	0.274500	0.589500	0.877940
O5991	O599	0.343020	0.526030	0.875010
O6001	O600	0.372740	0.526020	0.905360
O6011	O601	0.277730	0.627090	0.841590
O6021	O602	0.274690	0.658890	0.869490
O6031	O603	0.243880	0.581430	0.825800
C7931	C793	0.350420	0.599000	0.964930
C7941	C794	0.338370	0.586890	0.942100
C7951	C795	0.317020	0.597780	0.931450
H2651	H265	0.309500	0.612400	0.939000
C7961	C796	0.306520	0.587200	0.909430
C7971	C797	0.317910	0.566370	0.897810
H2661	H266	0.310900	0.559600	0.882600
C7981	C798	0.339340	0.555430	0.908300
C7991	C799	0.349720	0.565550	0.930810
H2671	H267	0.364300	0.558000	0.938300
C8001	C800	0.284450	0.600230	0.896880
C8011	C801	0.352690	0.534080	0.895000
C8021	C802	0.283840	0.648120	0.850670
C8031	C803	0.305540	0.661140	0.837830
C8041	C804	0.316130	0.683140	0.849060
H2681	H268	0.308400	0.690300	0.863700
Cu681	Cu68	0.249700	0.107590	0.357200
O6041	O604	0.370240	0.088850	0.473700
O6051	O605	0.339980	0.118470	0.473450
O6061	O606	0.277550	0.121120	0.406170
O6071	O607	0.274500	0.089500	0.377940
O6081	O608	0.343020	0.026030	0.375010
O6091	O609	0.372740	0.026020	0.405360
O6101	O610	0.277730	0.127090	0.341590
O6111	O611	0.274690	0.158890	0.369490
O6121	O612	0.243880	0.081430	0.325800
C8051	C805	0.350420	0.099000	0.464930
C8061	C806	0.338370	0.086890	0.442100
C8071	C807	0.317020	0.097780	0.431450
H2691	H269	0.309500	0.112400	0.439000
C8081	C808	0.306520	0.087200	0.409430
C8091	C809	0.317910	0.066370	0.397810
H2701	H270	0.310900	0.059600	0.382600
C8101	C810	0.339340	0.055430	0.408300
C8111	C811	0.349720	0.065550	0.430810
H2711	H271	0.364300	0.058000	0.438300
C8121	C812	0.284450	0.100230	0.396880
C8131	C813	0.352690	0.034080	0.395000
C8141	C814	0.283840	0.148120	0.350670
C8151	C815	0.305540	0.161140	0.337830
C8161	C816	0.316130	0.183140	0.349060
H2721	H272	0.308400	0.190300	0.363700
Cu691	Cu69	0.250300	0.607590	0.642800
O6131	O613	0.129760	0.588850	0.526300
O6141	O614	0.160020	0.618470	0.526550
O6151	O615	0.222450	0.621120	0.593830
O6161	O616	0.225500	0.589500	0.622060
O6171	O617	0.156980	0.526030	0.624990
O6181	O618	0.127260	0.526020	0.594640
O6191	O619	0.222270	0.627090	0.658410
O6201	O620	0.225310	0.658890	0.630510
O6211	O621	0.256120	0.581430	0.674200
C8171	C817	0.149580	0.599000	0.535070
C8181	C818	0.161630	0.586890	0.557900
C8191	C819	0.182980	0.597780	0.568550
H2731	H273	0.190500	0.612400	0.561000
C8201	C820	0.193480	0.587200	0.590570
C8211	C821	0.182090	0.566370	0.602190
H2741	H274	0.189100	0.559600	0.617400
C8221	C822	0.160660	0.555430	0.591700
C8231	C823	0.150280	0.565550	0.569190
H2751	H275	0.135700	0.558000	0.561700
C8241	C824	0.215550	0.600230	0.603120
C8251	C825	0.147310	0.534080	0.605000
C8261	C826	0.216160	0.648120	0.649330
C8271	C827	0.194460	0.661140	0.662170
C8281	C828	0.183870	0.683140	0.650940
H2761	H276	0.191600	0.690300	0.636300
Cu701	Cu70	0.250300	0.107590	0.142800
O6221	O622	0.129760	0.088850	0.026300
O6231	O623	0.160020	0.118470	0.026550
O6241	O624	0.222450	0.121120	0.093830
O6251	O625	0.225500	0.089500	0.122060
O6261	O626	0.156980	0.026030	0.124990
O6271	O627	0.127260	0.026020	0.094640
O6281	O628	0.222270	0.127090	0.158410
O6291	O629	0.225310	0.158890	0.130510
O6301	O630	0.256120	0.081430	0.174200
C8291	C829	0.149580	0.099000	0.035070
C8301	C830	0.161630	0.086890	0.057900
C8311	C831	0.182980	0.097780	0.068550
H2771	H277	0.190500	0.112400	0.061000
C8321	C832	0.193480	0.087200	0.090570
C8331	C833	0.182090	0.066370	0.102190
H2781	H278	0.189100	0.059600	0.117400
C8341	C834	0.160660	0.055430	0.091700
C8351	C835	0.150280	0.065550	0.069190
H2791	H279	0.135700	0.058000	0.061700
C8361	C836	0.215550	0.100230	0.103120
C8371	C837	0.147310	0.034080	0.105000
C8381	C838	0.216160	0.148120	0.149330
C8391	C839	0.194460	0.161140	0.162170
C8401	C840	0.183870	0.183140	0.150940
H2801	H280	0.191600	0.190300	0.136300
Cu711	Cu71	0.750300	0.607590	0.142800
O6311	O631	0.629760	0.588850	0.026300
O6321	O632	0.660020	0.618470	0.026550
O6331	O633	0.722450	0.621120	0.093830
O6341	O634	0.725500	0.589500	0.122060
O6351	O635	0.656980	0.526030	0.124990
O6361	O636	0.627260	0.526020	0.094640
O6371	O637	0.722270	0.627090	0.158410
O6381	O638	0.725310	0.658890	0.130510
O6391	O639	0.756120	0.581430	0.174200
C8411	C841	0.649580	0.599000	0.035070
C8421	C842	0.661630	0.586890	0.057900
C8431	C843	0.682980	0.597780	0.068550
H2811	H281	0.690500	0.612400	0.061000
C8441	C844	0.693480	0.587200	0.090570
C8451	C845	0.682090	0.566370	0.102190
H2821	H282	0.689100	0.559600	0.117400
C8461	C846	0.660660	0.555430	0.091700
C8471	C847	0.650280	0.565550	0.069190
H2831	H283	0.635700	0.558000	0.061700
C8481	C848	0.715550	0.600230	0.103120
C8491	C849	0.647310	0.534080	0.105000
C8501	C850	0.716160	0.648120	0.149330
C8511	C851	0.694460	0.661140	0.162170
C8521	C852	0.683870	0.683140	0.150940
H2841	H284	0.691600	0.690300	0.136300
Cu721	Cu72	0.750300	0.107590	0.642800
O6401	O640	0.629760	0.088850	0.526300
O6411	O641	0.660020	0.118470	0.526550
O6421	O642	0.722450	0.121120	0.593830
O6431	O643	0.725500	0.089500	0.622060
O6441	O644	0.656980	0.026030	0.624990
O6451	O645	0.627260	0.026020	0.594640
O6461	O646	0.722270	0.127090	0.658410
O6471	O647	0.725310	0.158890	0.630510
O6481	O648	0.756120	0.081430	0.674200
C8531	C853	0.649580	0.099000	0.535070
C8541	C854	0.661630	0.086890	0.557900
C8551	C855	0.682980	0.097780	0.568550
H2851	H285	0.690500	0.112400	0.561000
C8561	C856	0.693480	0.087200	0.590570
C8571	C857	0.682090	0.066370	0.602190
H2861	H286	0.689100	0.059600	0.617400
C8581	C858	0.660660	0.055430	0.591700
C8591	C859	0.650280	0.065550	0.569190
H2871	H287	0.635700	0.058000	0.561700
C8601	C860	0.715550	0.100230	0.603120
C8611	C861	0.647310	0.034080	0.605000
C8621	C862	0.716160	0.148120	0.649330
C8631	C863	0.694460	0.161140	0.662170
C8641	C864	0.683870	0.183140	0.650940
H2881	H288	0.691600	0.190300	0.636300
Cu731	Cu73	0.250300	0.392410	0.357200
O6491	O649	0.129760	0.411150	0.473700
O6501	O650	0.160020	0.381530	0.473450
O6511	O651	0.222450	0.378880	0.406170
O6521	O652	0.225500	0.410500	0.377940
O6531	O653	0.156980	0.473970	0.375010
O6541	O654	0.127260	0.473980	0.405360
O6551	O655	0.222270	0.372910	0.341590
O6561	O656	0.225310	0.341110	0.369490
O6571	O657	0.256120	0.418570	0.325800
C8651	C865	0.149580	0.401000	0.464930
C8661	C866	0.161630	0.413110	0.442100
C8671	C867	0.182980	0.402220	0.431450
H2891	H289	0.190500	0.387600	0.439000
C8681	C868	0.193480	0.412800	0.409430
C8691	C869	0.182090	0.433630	0.397810
H2901	H290	0.189100	0.440400	0.382600
C8701	C870	0.160660	0.444570	0.408300
C8711	C871	0.150280	0.434450	0.430810
H2911	H291	0.135700	0.442000	0.438300
C8721	C872	0.215550	0.399770	0.396880
C8731	C873	0.147310	0.465920	0.395000
C8741	C874	0.216160	0.351880	0.350670
C8751	C875	0.194460	0.338860	0.337830
C8761	C876	0.183870	0.316860	0.349060
H2921	H292	0.191600	0.309700	0.363700
Cu741	Cu74	0.250300	0.892410	0.857200
O6581	O658	0.129760	0.911150	0.973700
O6591	O659	0.160020	0.881530	0.973450
O6601	O660	0.222450	0.878880	0.906170
O6611	O661	0.225500	0.910500	0.877940
O6621	O662	0.156980	0.973970	0.875010
O6631	O663	0.127260	0.973980	0.905360
O6641	O664	0.222270	0.872910	0.841590
O6651	O665	0.225310	0.841110	0.869490
O6661	O666	0.256120	0.918570	0.825800
C8771	C877	0.149580	0.901000	0.964930
C8781	C878	0.161630	0.913110	0.942100
C8791	C879	0.182980	0.902220	0.931450
H2931	H293	0.190500	0.887600	0.939000
C8801	C880	0.193480	0.912800	0.909430
C8811	C881	0.182090	0.933630	0.897810
H2941	H294	0.189100	0.940400	0.882600
C8821	C882	0.160660	0.944570	0.908300
C8831	C883	0.150280	0.934450	0.930810
H2951	H295	0.135700	0.942000	0.938300
C8841	C884	0.215550	0.899770	0.896880
C8851	C885	0.147310	0.965920	0.895000
C8861	C886	0.216160	0.851880	0.850670
C8871	C887	0.194460	0.838860	0.837830
C8881	C888	0.183870	0.816860	0.849060
H2961	H296	0.191600	0.809700	0.863700
Cu751	Cu75	0.750300	0.392410	0.857200
O6671	O667	0.629760	0.411150	0.973700
O6681	O668	0.660020	0.381530	0.973450
O6691	O669	0.722450	0.378880	0.906170
O6701	O670	0.725500	0.410500	0.877940
O6711	O671	0.656980	0.473970	0.875010
O6721	O672	0.627260	0.473980	0.905360
O6731	O673	0.722270	0.372910	0.841590
O6741	O674	0.725310	0.341110	0.869490
O6751	O675	0.756120	0.418570	0.825800
C8891	C889	0.649580	0.401000	0.964930
C8901	C890	0.661630	0.413110	0.942100
C8911	C891	0.682980	0.402220	0.931450
H2971	H297	0.690500	0.387600	0.939000
C8921	C892	0.693480	0.412800	0.909430
C8931	C893	0.682090	0.433630	0.897810
H2981	H298	0.689100	0.440400	0.882600
C8941	C894	0.660660	0.444570	0.908300
C8951	C895	0.650280	0.434450	0.930810
H2991	H299	0.635700	0.442000	0.938300
C8961	C896	0.715550	0.399770	0.896880
C8971	C897	0.647310	0.465920	0.895000
C8981	C898	0.716160	0.351880	0.850670
C8991	C899	0.694460	0.338860	0.837830
C9001	C900	0.683870	0.316860	0.849060
H3001	H300	0.691600	0.309700	0.863700
Cu761	Cu76	0.750300	0.892410	0.357200
O6761	O676	0.629760	0.911150	0.473700
O6771	O677	0.660020	0.881530	0.473450
O6781	O678	0.722450	0.878880	0.406170
O6791	O679	0.725500	0.910500	0.377940
O6801	O680	0.656980	0.973970	0.375010
O6811	O681	0.627260	0.973980	0.405360
O6821	O682	0.722270	0.872910	0.341590
O6831	O683	0.725310	0.841110	0.369490
O6841	O684	0.756120	0.918570	0.325800
C9011	C901	0.649580	0.901000	0.464930
C9021	C902	0.661630	0.913110	0.442100
C9031	C903	0.682980	0.902220	0.431450
H3011	H301	0.690500	0.887600	0.439000
C9041	C904	0.693480	0.912800	0.409430
C9051	C905	0.682090	0.933630	0.397810
H3021	H302	0.689100	0.940400	0.382600
C9061	C906	0.660660	0.944570	0.408300
C9071	C907	0.650280	0.934450	0.430810
H3031	H303	0.635700	0.942000	0.438300
C9081	C908	0.715550	0.899770	0.396880
C9091	C909	0.647310	0.965920	0.395000
C9101	C910	0.716160	0.851880	0.350670
C9111	C911	0.694460	0.838860	0.337830
C9121	C912	0.683870	0.816860	0.349060
H3041	H304	0.691600	0.809700	0.363700
Cu771	Cu77	0.749700	0.392410	0.642800
O6851	O685	0.870240	0.411150	0.526300
O6861	O686	0.839980	0.381530	0.526550
O6871	O687	0.777550	0.378880	0.593830
O6881	O688	0.774500	0.410500	0.622060
O6891	O689	0.843020	0.473970	0.624990
O6901	O690	0.872740	0.473980	0.594640
O6911	O691	0.777730	0.372910	0.658410
O6921	O692	0.774690	0.341110	0.630510
O6931	O693	0.743880	0.418570	0.674200
C9131	C913	0.850420	0.401000	0.535070
C9141	C914	0.838370	0.413110	0.557900
C9151	C915	0.817020	0.402220	0.568550
H3051	H305	0.809500	0.387600	0.561000
C9161	C916	0.806520	0.412800	0.590570
C9171	C917	0.817910	0.433630	0.602190
H3061	H306	0.810900	0.440400	0.617400
C9181	C918	0.839340	0.444570	0.591700
C9191	C919	0.849720	0.434450	0.569190
H3071	H307	0.864300	0.442000	0.561700
C9201	C920	0.784450	0.399770	0.603120
C9211	C921	0.852690	0.465920	0.605000
C9221	C922	0.783840	0.351880	0.649330
C9231	C923	0.805540	0.338860	0.662170
C9241	C924	0.816130	0.316860	0.650940
H3081	H308	0.808400	0.309700	0.636300
Cu781	Cu78	0.749700	0.892410	0.142800
O6941	O694	0.870240	0.911150	0.026300
O6951	O695	0.839980	0.881530	0.026550
O6961	O696	0.777550	0.878880	0.093830
O6971	O697	0.774500	0.910500	0.122060
O6981	O698	0.843020	0.973970	0.124990
O6991	O699	0.872740	0.973980	0.094640
O7001	O700	0.777730	0.872910	0.158410
O7011	O701	0.774690	0.841110	0.130510
O7021	O702	0.743880	0.918570	0.174200
C9251	C925	0.850420	0.901000	0.035070
C9261	C926	0.838370	0.913110	0.057900
C9271	C927	0.817020	0.902220	0.068550
H3091	H309	0.809500	0.887600	0.061000
C9281	C928	0.806520	0.912800	0.090570
C9291	C929	0.817910	0.933630	0.102190
H3101	H310	0.810900	0.940400	0.117400
C9301	C930	0.839340	0.944570	0.091700
C9311	C931	0.849720	0.934450	0.069190
H3111	H311	0.864300	0.942000	0.061700
C9321	C932	0.784450	0.899770	0.103120
C9331	C933	0.852690	0.965920	0.105000
C9341	C934	0.783840	0.851880	0.149330
C9351	C935	0.805540	0.838860	0.162170
C9361	C936	0.816130	0.816860	0.150940
H3121	H312	0.808400	0.809700	0.136300
Cu791	Cu79	0.249700	0.392410	0.142800
O7031	O703	0.370240	0.411150	0.026300
O7041	O704	0.339980	0.381530	0.026550
O7051	O705	0.277550	0.378880	0.093830
O7061	O706	0.274500	0.410500	0.122060
O7071	O707	0.343020	0.473970	0.124990
O7081	O708	0.372740	0.473980	0.094640
O7091	O709	0.277730	0.372910	0.158410
O7101	O710	0.274690	0.341110	0.130510
O7111	O711	0.243880	0.418570	0.174200
C9371	C937	0.350420	0.401000	0.035070
C9381	C938	0.338370	0.413110	0.057900
C9391	C939	0.317020	0.402220	0.068550
H3131	H313	0.309500	0.387600	0.061000
C9401	C940	0.306520	0.412800	0.090570
C9411	C941	0.317910	0.433630	0.102190
H3141	H314	0.310900	0.440400	0.117400
C9421	C942	0.339340	0.444570	0.091700
C9431	C943	0.349720	0.434450	0.069190
H3151	H315	0.364300	0.442000	0.061700
C9441	C944	0.284450	0.399770	0.103120
C9451	C945	0.352690	0.465920	0.105000
C9461	C946	0.283840	0.351880	0.149330
C9471	C947	0.305540	0.338860	0.162170
C9481	C948	0.316130	0.316860	0.150940
H3161	H316	0.308400	0.309700	0.136300
Cu801	Cu80	0.249700	0.892410	0.642800
O7121	O712	0.370240	0.911150	0.526300
O7131	O713	0.339980	0.881530	0.526550
O7141	O714	0.277550	0.878880	0.593830
O7151	O715	0.274500	0.910500	0.622060
O7161	O716	0.343020	0.973970	0.624990
O7171	O717	0.372740	0.973980	0.594640
O7181	O718	0.277730	0.872910	0.658410
O7191	O719	0.274690	0.841110	0.630510
O7201	O720	0.243880	0.918570	0.674200
C9491	C949	0.350420	0.901000	0.535070
C9501	C950	0.338370	0.913110	0.557900
C9511	C951	0.317020	0.902220	0.568550
H3171	H317	0.309500	0.887600	0.561000
C9521	C952	0.306520	0.912800	0.590570
C9531	C953	0.317910	0.933630	0.602190
H3181	H318	0.310900	0.940400	0.617400
C9541	C954	0.339340	0.944570	0.591700
C9551	C955	0.349720	0.934450	0.569190
H3191	H319	0.364300	0.942000	0.561700
C9561	C956	0.284450	0.899770	0.603120
C9571	C957	0.352690	0.965920	0.605000
C9581	C958	0.283840	0.851880	0.649330
C9591	C959	0.305540	0.838860	0.662170
C9601	C960	0.316130	0.816860	0.650940
H3201	H320	0.308400	0.809700	0.636300
Cu811	Cu81	0.607590	0.642800	0.250300
O7211	O721	0.588850	0.526300	0.129760
O7221	O722	0.618470	0.526550	0.160020
O7231	O723	0.621120	0.593830	0.222450
O7241	O724	0.589500	0.622060	0.225500
O7251	O725	0.526030	0.624990	0.156980
O7261	O726	0.526020	0.594640	0.127260
O7271	O727	0.627090	0.658410	0.222270
O7281	O728	0.658890	0.630510	0.225310
O7291	O729	0.581430	0.674200	0.256120
C9611	C961	0.599000	0.535070	0.149580
C9621	C962	0.586890	0.557900	0.161630
C9631	C963	0.597780	0.568550	0.182980
H3211	H321	0.612400	0.561000	0.190500
C9641	C964	0.587200	0.590570	0.193480
C9651	C965	0.566370	0.602190	0.182090
H3221	H322	0.559600	0.617400	0.189100
C9661	C966	0.555430	0.591700	0.160660
C9671	C967	0.565550	0.569190	0.150280
H3231	H323	0.558000	0.561700	0.135700
C9681	C968	0.600230	0.603120	0.215550
C9691	C969	0.534080	0.605000	0.147310
C9701	C970	0.648120	0.649330	0.216160
C9711	C971	0.661140	0.662170	0.194460
C9721	C972	0.683140	0.650940	0.183870
H3241	H324	0.690300	0.636300	0.191600
Cu821	Cu82	0.607590	0.142800	0.750300
O7301	O730	0.588850	0.026300	0.629760
O7311	O731	0.618470	0.026550	0.660020
O7321	O732	0.621120	0.093830	0.722450
O7331	O733	0.589500	0.122060	0.725500
O7341	O734	0.526030	0.124990	0.656980
O7351	O735	0.526020	0.094640	0.627260
O7361	O736	0.627090	0.158410	0.722270
O7371	O737	0.658890	0.130510	0.725310
O7381	O738	0.581430	0.174200	0.756120
C9731	C973	0.599000	0.035070	0.649580
C9741	C974	0.586890	0.057900	0.661630
C9751	C975	0.597780	0.068550	0.682980
H3251	H325	0.612400	0.061000	0.690500
C9761	C976	0.587200	0.090570	0.693480
C9771	C977	0.566370	0.102190	0.682090
H3261	H326	0.559600	0.117400	0.689100
C9781	C978	0.555430	0.091700	0.660660
C9791	C979	0.565550	0.069190	0.650280
H3271	H327	0.558000	0.061700	0.635700
C9801	C980	0.600230	0.103120	0.715550
C9811	C981	0.534080	0.105000	0.647310
C9821	C982	0.648120	0.149330	0.716160
C9831	C983	0.661140	0.162170	0.694460
C9841	C984	0.683140	0.150940	0.683870
H3281	H328	0.690300	0.136300	0.691600
Cu831	Cu83	0.107590	0.642800	0.750300
O7391	O739	0.088850	0.526300	0.629760
O7401	O740	0.118470	0.526550	0.660020
O7411	O741	0.121120	0.593830	0.722450
O7421	O742	0.089500	0.622060	0.725500
O7431	O743	0.026030	0.624990	0.656980
O7441	O744	0.026020	0.594640	0.627260
O7451	O745	0.127090	0.658410	0.722270
O7461	O746	0.158890	0.630510	0.725310
O7471	O747	0.081430	0.674200	0.756120
C9851	C985	0.099000	0.535070	0.649580
C9861	C986	0.086890	0.557900	0.661630
C9871	C987	0.097780	0.568550	0.682980
H3291	H329	0.112400	0.561000	0.690500
C9881	C988	0.087200	0.590570	0.693480
C9891	C989	0.066370	0.602190	0.682090
H3301	H330	0.059600	0.617400	0.689100
C9901	C990	0.055430	0.591700	0.660660
C9911	C991	0.065550	0.569190	0.650280
H3311	H331	0.058000	0.561700	0.635700
C9921	C992	0.100230	0.603120	0.715550
C9931	C993	0.034080	0.605000	0.647310
C9941	C994	0.148120	0.649330	0.716160
C9951	C995	0.161140	0.662170	0.694460
C9961	C996	0.183140	0.650940	0.683870
H3321	H332	0.190300	0.636300	0.691600
Cu841	Cu84	0.107590	0.142800	0.250300
O7481	O748	0.088850	0.026300	0.129760
O7491	O749	0.118470	0.026550	0.160020
O7501	O750	0.121120	0.093830	0.222450
O7511	O751	0.089500	0.122060	0.225500
O7521	O752	0.026030	0.124990	0.156980
O7531	O753	0.026020	0.094640	0.127260
O7541	O754	0.127090	0.158410	0.222270
O7551	O755	0.158890	0.130510	0.225310
O7561	O756	0.081430	0.174200	0.256120
C9971	C997	0.099000	0.035070	0.149580
C9981	C998	0.086890	0.057900	0.161630
C9991	C999	0.097780	0.068550	0.182980
H3331	H333	0.112400	0.061000	0.190500
C10001	C1000	0.087200	0.090570	0.193480
C10011	C1001	0.066370	0.102190	0.182090
H3341	H334	0.059600	0.117400	0.189100
C10021	C1002	0.055430	0.091700	0.160660
C10031	C1003	0.065550	0.069190	0.150280
H3351	H335	0.058000	0.061700	0.135700
C10041	C1004	0.100230	0.103120	0.215550
C10051	C1005	0.034080	0.105000	0.147310
C10061	C1006	0.148120	0.149330	0.216160
C10071	C1007	0.161140	0.162170	0.194460
C10081	C1008	0.183140	0.150940	0.183870
H3361	H336	0.190300	0.136300	0.191600
Cu851	Cu85	0.607590	0.357200	0.749700
O7571	O757	0.588850	0.473700	0.870240
O7581	O758	0.618470	0.473450	0.839980
O7591	O759	0.621120	0.406170	0.777550
O7601	O760	0.589500	0.377940	0.774500
O7611	O761	0.526030	0.375010	0.843020
O7621	O762	0.526020	0.405360	0.872740
O7631	O763	0.627090	0.341590	0.777730
O7641	O764	0.658890	0.369490	0.774690
O7651	O765	0.581430	0.325800	0.743880
C10091	C1009	0.599000	0.464930	0.850420
C10101	C1010	0.586890	0.442100	0.838370
C10111	C1011	0.597780	0.431450	0.817020
H3371	H337	0.612400	0.439000	0.809500
C10121	C1012	0.587200	0.409430	0.806520
C10131	C1013	0.566370	0.397810	0.817910
H3381	H338	0.559600	0.382600	0.810900
C10141	C1014	0.555430	0.408300	0.839340
C10151	C1015	0.565550	0.430810	0.849720
H3391	H339	0.558000	0.438300	0.864300
C10161	C1016	0.600230	0.396880	0.784450
C10171	C1017	0.534080	0.395000	0.852690
C10181	C1018	0.648120	0.350670	0.783840
C10191	C1019	0.661140	0.337830	0.805540
C10201	C1020	0.683140	0.349060	0.816130
H3401	H340	0.690300	0.363700	0.808400
Cu861	Cu86	0.607590	0.857200	0.249700
O7661	O766	0.588850	0.973700	0.370240
O7671	O767	0.618470	0.973450	0.339980
O7681	O768	0.621120	0.906170	0.277550
O7691	O769	0.589500	0.877940	0.274500
O7701	O770	0.526030	0.875010	0.343020
O7711	O771	0.526020	0.905360	0.372740
O7721	O772	0.627090	0.841590	0.277730
O7731	O773	0.658890	0.869490	0.274690
O7741	O774	0.581430	0.825800	0.243880
C10211	C1021	0.599000	0.964930	0.350420
C10221	C1022	0.586890	0.942100	0.338370
C10231	C1023	0.597780	0.931450	0.317020
H3411	H341	0.612400	0.939000	0.309500
C10241	C1024	0.587200	0.909430	0.306520
C10251	C1025	0.566370	0.897810	0.317910
H3421	H342	0.559600	0.882600	0.310900
C10261	C1026	0.555430	0.908300	0.339340
C10271	C1027	0.565550	0.930810	0.349720
H3431	H343	0.558000	0.938300	0.364300
C10281	C1028	0.600230	0.896880	0.284450
C10291	C1029	0.534080	0.895000	0.352690
C10301	C1030	0.648120	0.850670	0.283840
C10311	C1031	0.661140	0.837830	0.305540
C10321	C1032	0.683140	0.849060	0.316130
H3441	H344	0.690300	0.863700	0.308400
Cu871	Cu87	0.107590	0.357200	0.249700
O7751	O775	0.088850	0.473700	0.370240
O7761	O776	0.118470	0.473450	0.339980
O7771	O777	0.121120	0.406170	0.277550
O7781	O778	0.089500	0.377940	0.274500
O7791	O779	0.026030	0.375010	0.343020
O7801	O780	0.026020	0.405360	0.372740
O7811	O781	0.127090	0.341590	0.277730
O7821	O782	0.158890	0.369490	0.274690
O7831	O783	0.081430	0.325800	0.243880
C10331	C1033	0.099000	0.464930	0.350420
C10341	C1034	0.086890	0.442100	0.338370
C10351	C1035	0.097780	0.431450	0.317020
H3451	H345	0.112400	0.439000	0.309500
C10361	C1036	0.087200	0.409430	0.306520
C10371	C1037	0.066370	0.397810	0.317910
H3461	H346	0.059600	0.382600	0.310900
C10381	C1038	0.055430	0.408300	0.339340
C10391	C1039	0.065550	0.430810	0.349720
H3471	H347	0.058000	0.438300	0.364300
C10401	C1040	0.100230	0.396880	0.284450
C10411	C1041	0.034080	0.395000	0.352690
C10421	C1042	0.148120	0.350670	0.283840
C10431	C1043	0.161140	0.337830	0.305540
C10441	C1044	0.183140	0.349060	0.316130
H3481	H348	0.190300	0.363700	0.308400
Cu881	Cu88	0.107590	0.857200	0.749700
O7841	O784	0.088850	0.973700	0.870240
O7851	O785	0.118470	0.973450	0.839980
O7861	O786	0.121120	0.906170	0.777550
O7871	O787	0.089500	0.877940	0.774500
O7881	O788	0.026030	0.875010	0.843020
O7891	O789	0.026020	0.905360	0.872740
O7901	O790	0.127090	0.841590	0.777730
O7911	O791	0.158890	0.869490	0.774690
O7921	O792	0.081430	0.825800	0.743880
C10451	C1045	0.099000	0.964930	0.850420
C10461	C1046	0.086890	0.942100	0.838370
C10471	C1047	0.097780	0.931450	0.817020
H3491	H349	0.112400	0.939000	0.809500
C10481	C1048	0.087200	0.909430	0.806520
C10491	C1049	0.066370	0.897810	0.817910
H3501	H350	0.059600	0.882600	0.810900
C10501	C1050	0.055430	0.908300	0.839340
C10511	C1051	0.065550	0.930810	0.849720
H3511	H351	0.058000	0.938300	0.864300
C10521	C1052	0.100230	0.896880	0.784450
C10531	C1053	0.034080	0.895000	0.852690
C10541	C1054	0.148120	0.850670	0.783840
C10551	C1055	0.161140	0.837830	0.805540
C10561	C1056	0.183140	0.849060	0.816130
H3521	H352	0.190300	0.863700	0.808400
Cu891	Cu89	0.392410	0.642800	0.749700
O7931	O793	0.411150	0.526300	0.870240
O7941	O794	0.381530	0.526550	0.839980
O7951	O795	0.378880	0.593830	0.777550
O7961	O796	0.410500	0.622060	0.774500
O7971	O797	0.473970	0.624990	0.843020
O7981	O798	0.473980	0.594640	0.872740
O7991	O799	0.372910	0.658410	0.777730
O8001	O800	0.341110	0.630510	0.774690
O8011	O801	0.418570	0.674200	0.743880
C10571	C1057	0.401000	0.535070	0.850420
C10581	C1058	0.413110	0.557900	0.838370
C10591	C1059	0.402220	0.568550	0.817020
H3531	H353	0.387600	0.561000	0.809500
C10601	C1060	0.412800	0.590570	0.806520
C10611	C1061	0.433630	0.602190	0.817910
H3541	H354	0.440400	0.617400	0.810900
C10621	C1062	0.444570	0.591700	0.839340
C10631	C1063	0.434450	0.569190	0.849720
H3551	H355	0.442000	0.561700	0.864300
C10641	C1064	0.399770	0.603120	0.784450
C10651	C1065	0.465920	0.605000	0.852690
C10661	C1066	0.351880	0.649330	0.783840
C10671	C1067	0.338860	0.662170	0.805540
C10681	C1068	0.316860	0.650940	0.816130
H3561	H356	0.309700	0.636300	0.808400
Cu901	Cu90	0.392410	0.142800	0.249700
O8021	O802	0.411150	0.026300	0.370240
O8031	O803	0.381530	0.026550	0.339980
O8041	O804	0.378880	0.093830	0.277550
O8051	O805	0.410500	0.122060	0.274500
O8061	O806	0.473970	0.124990	0.343020
O8071	O807	0.473980	0.094640	0.372740
O8081	O808	0.372910	0.158410	0.277730
O8091	O809	0.341110	0.130510	0.274690
O8101	O810	0.418570	0.174200	0.243880
C10691	C1069	0.401000	0.035070	0.350420
C10701	C1070	0.413110	0.057900	0.338370
C10711	C1071	0.402220	0.068550	0.317020
H3571	H357	0.387600	0.061000	0.309500
C10721	C1072	0.412800	0.090570	0.306520
C10731	C1073	0.433630	0.102190	0.317910
H3581	H358	0.440400	0.117400	0.310900
C10741	C1074	0.444570	0.091700	0.339340
C10751	C1075	0.434450	0.069190	0.349720
H3591	H359	0.442000	0.061700	0.364300
C10761	C1076	0.399770	0.103120	0.284450
C10771	C1077	0.465920	0.105000	0.352690
C10781	C1078	0.351880	0.149330	0.283840
C10791	C1079	0.338860	0.162170	0.305540
C10801	C1080	0.316860	0.150940	0.316130
H3601	H360	0.309700	0.136300	0.308400
Cu911	Cu91	0.892410	0.642800	0.249700
O8111	O811	0.911150	0.526300	0.370240
O8121	O812	0.881530	0.526550	0.339980
O8131	O813	0.878880	0.593830	0.277550
O8141	O814	0.910500	0.622060	0.274500
O8151	O815	0.973970	0.624990	0.343020
O8161	O816	0.973980	0.594640	0.372740
O8171	O817	0.872910	0.658410	0.277730
O8181	O818	0.841110	0.630510	0.274690
O8191	O819	0.918570	0.674200	0.243880
C10811	C1081	0.901000	0.535070	0.350420
C10821	C1082	0.913110	0.557900	0.338370
C10831	C1083	0.902220	0.568550	0.317020
H3611	H361	0.887600	0.561000	0.309500
C10841	C1084	0.912800	0.590570	0.306520
C10851	C1085	0.933630	0.602190	0.317910
H3621	H362	0.940400	0.617400	0.310900
C10861	C1086	0.944570	0.591700	0.339340
C10871	C1087	0.934450	0.569190	0.349720
H3631	H363	0.942000	0.561700	0.364300
C10881	C1088	0.899770	0.603120	0.284450
C10891	C1089	0.965920	0.605000	0.352690
C10901	C1090	0.851880	0.649330	0.283840
C10911	C1091	0.838860	0.662170	0.305540
C10921	C1092	0.816860	0.650940	0.316130
H3641	H364	0.809700	0.636300	0.308400
Cu921	Cu92	0.892410	0.142800	0.749700
O8201	O820	0.911150	0.026300	0.870240
O8211	O821	0.881530	0.026550	0.839980
O8221	O822	0.878880	0.093830	0.777550
O8231	O823	0.910500	0.122060	0.774500
O8241	O824	0.973970	0.124990	0.843020
O8251	O825	0.973980	0.094640	0.872740
O8261	O826	0.872910	0.158410	0.777730
O8271	O827	0.841110	0.130510	0.774690
O8281	O828	0.918570	0.174200	0.743880
C10931	C1093	0.901000	0.035070	0.850420
C10941	C1094	0.913110	0.057900	0.838370
C10951	C1095	0.902220	0.068550	0.817020
H3651	H365	0.887600	0.061000	0.809500
C10961	C1096	0.912800	0.090570	0.806520
C10971	C1097	0.933630	0.102190	0.817910
H3661	H366	0.940400	0.117400	0.810900
C10981	C1098	0.944570	0.091700	0.839340
C10991	C1099	0.934450	0.069190	0.849720
H3671	H367	0.942000	0.061700	0.864300
C11001	C1100	0.899770	0.103120	0.784450
C11011	C1101	0.965920	0.105000	0.852690
C11021	C1102	0.851880	0.149330	0.783840
C11031	C1103	0.838860	0.162170	0.805540
C11041	C1104	0.816860	0.150940	0.816130
H3681	H368	0.809700	0.136300	0.808400
Cu931	Cu93	0.392410	0.357200	0.250300
O8291	O829	0.411150	0.473700	0.129760
O8301	O830	0.381530	0.473450	0.160020
O8311	O831	0.378880	0.406170	0.222450
O8321	O832	0.410500	0.377940	0.225500
O8331	O833	0.473970	0.375010	0.156980
O8341	O834	0.473980	0.405360	0.127260
O8351	O835	0.372910	0.341590	0.222270
O8361	O836	0.341110	0.369490	0.225310
O8371	O837	0.418570	0.325800	0.256120
C11051	C1105	0.401000	0.464930	0.149580
C11061	C1106	0.413110	0.442100	0.161630
C11071	C1107	0.402220	0.431450	0.182980
H3691	H369	0.387600	0.439000	0.190500
C11081	C1108	0.412800	0.409430	0.193480
C11091	C1109	0.433630	0.397810	0.182090
H3701	H370	0.440400	0.382600	0.189100
C11101	C1110	0.444570	0.408300	0.160660
C11111	C1111	0.434450	0.430810	0.150280
H3711	H371	0.442000	0.438300	0.135700
C11121	C1112	0.399770	0.396880	0.215550
C11131	C1113	0.465920	0.395000	0.147310
C11141	C1114	0.351880	0.350670	0.216160
C11151	C1115	0.338860	0.337830	0.194460
C11161	C1116	0.316860	0.349060	0.183870
H3721	H372	0.309700	0.363700	0.191600
Cu941	Cu94	0.392410	0.857200	0.750300
O8381	O838	0.411150	0.973700	0.629760
O8391	O839	0.381530	0.973450	0.660020
O8401	O840	0.378880	0.906170	0.722450
O8411	O841	0.410500	0.877940	0.725500
O8421	O842	0.473970	0.875010	0.656980
O8431	O843	0.473980	0.905360	0.627260
O8441	O844	0.372910	0.841590	0.722270
O8451	O845	0.341110	0.869490	0.725310
O8461	O846	0.418570	0.825800	0.756120
C11171	C1117	0.401000	0.964930	0.649580
C11181	C1118	0.413110	0.942100	0.661630
C11191	C1119	0.402220	0.931450	0.682980
H3731	H373	0.387600	0.939000	0.690500
C11201	C1120	0.412800	0.909430	0.693480
C11211	C1121	0.433630	0.897810	0.682090
H3741	H374	0.440400	0.882600	0.689100
C11221	C1122	0.444570	0.908300	0.660660
C11231	C1123	0.434450	0.930810	0.650280
H3751	H375	0.442000	0.938300	0.635700
C11241	C1124	0.399770	0.896880	0.715550
C11251	C1125	0.465920	0.895000	0.647310
C11261	C1126	0.351880	0.850670	0.716160
C11271	C1127	0.338860	0.837830	0.694460
C11281	C1128	0.316860	0.849060	0.683870
H3761	H376	0.309700	0.863700	0.691600
Cu951	Cu95	0.892410	0.357200	0.750300
O8471	O847	0.911150	0.473700	0.629760
O8481	O848	0.881530	0.473450	0.660020
O8491	O849	0.878880	0.406170	0.722450
O8501	O850	0.910500	0.377940	0.725500
O8511	O851	0.973970	0.375010	0.656980
O8521	O852	0.973980	0.405360	0.627260
O8531	O853	0.872910	0.341590	0.722270
O8541	O854	0.841110	0.369490	0.725310
O8551	O855	0.918570	0.325800	0.756120
C11291	C1129	0.901000	0.464930	0.649580
C11301	C1130	0.913110	0.442100	0.661630
C11311	C1131	0.902220	0.431450	0.682980
H3771	H377	0.887600	0.439000	0.690500
C11321	C1132	0.912800	0.409430	0.693480
C11331	C1133	0.933630	0.397810	0.682090
H3781	H378	0.940400	0.382600	0.689100
C11341	C1134	0.944570	0.408300	0.660660
C11351	C1135	0.934450	0.430810	0.650280
H3791	H379	0.942000	0.438300	0.635700
C11361	C1136	0.899770	0.396880	0.715550
C11371	C1137	0.965920	0.395000	0.647310
C11381	C1138	0.851880	0.350670	0.716160
C11391	C1139	0.838860	0.337830	0.694460
C11401	C1140	0.816860	0.349060	0.683870
H3801	H380	0.809700	0.363700	0.691600
Cu961	Cu96	0.892410	0.857200	0.250300
O8561	O856	0.911150	0.973700	0.129760
O8571	O857	0.881530	0.973450	0.160020
O8581	O858	0.878880	0.906170	0.222450
O8591	O859	0.910500	0.877940	0.225500
O8601	O860	0.973970	0.875010	0.156980
O8611	O861	0.973980	0.905360	0.127260
O8621	O862	0.872910	0.841590	0.222270
O8631	O863	0.841110	0.869490	0.225310
O8641	O864	0.918570	0.825800	0.256120
C11411	C1141	0.901000	0.964930	0.149580
C11421	C1142	0.913110	0.942100	0.161630
C11431	C1143	0.902220	0.931450	0.182980
H3811	H381	0.887600	0.939000	0.190500
C11441	C1144	0.912800	0.909430	0.193480
C11451	C1145	0.933630	0.897810	0.182090
H3821	H382	0.940400	0.882600	0.189100
C11461	C1146	0.944570	0.908300	0.160660
C11471	C1147	0.934450	0.930810	0.150280
H3831	H383	0.942000	0.938300	0.135700
C11481	C1148	0.899770	0.896880	0.215550
C11491	C1149	0.965920	0.895000	0.147310
C11501	C1150	0.851880	0.850670	0.216160
C11511	C1151	0.838860	0.837830	0.194460
C11521	C1152	0.816860	0.849060	0.183870
H3841	H384	0.809700	0.863700	0.191600
Cu971	Cu97	0.750300	0.857200	0.892410
O8651	O865	0.629760	0.973700	0.911150
O8661	O866	0.660020	0.973450	0.881530
O8671	O867	0.722450	0.906170	0.878880
O8681	O868	0.725500	0.877940	0.910500
O8691	O869	0.656980	0.875010	0.973970
O8701	O870	0.627260	0.905360	0.973980
O8711	O871	0.722270	0.841590	0.872910
O8721	O872	0.725310	0.869490	0.841110
O8731	O873	0.756120	0.825800	0.918570
C11531	C1153	0.649580	0.964930	0.901000
C11541	C1154	0.661630	0.942100	0.913110
C11551	C1155	0.682980	0.931450	0.902220
H3851	H385	0.690500	0.939000	0.887600
C11561	C1156	0.693480	0.909430	0.912800
C11571	C1157	0.682090	0.897810	0.933630
H3861	H386	0.689100	0.882600	0.940400
C11581	C1158	0.660660	0.908300	0.944570
C11591	C1159	0.650280	0.930810	0.934450
H3871	H387	0.635700	0.938300	0.942000
C11601	C1160	0.715550	0.896880	0.899770
C11611	C1161	0.647310	0.895000	0.965920
C11621	C1162	0.716160	0.850670	0.851880
C11631	C1163	0.694460	0.837830	0.838860
C11641	C1164	0.683870	0.849060	0.816860
H3881	H388	0.691600	0.863700	0.809700
Cu981	Cu98	0.750300	0.357200	0.392410
O8741	O874	0.629760	0.473700	0.411150
O8751	O875	0.660020	0.473450	0.381530
O8761	O876	0.722450	0.406170	0.378880
O8771	O877	0.725500	0.377940	0.410500
O8781	O878	0.656980	0.375010	0.473970
O8791	O879	0.627260	0.405360	0.473980
O8801	O880	0.722270	0.341590	0.372910
O8811	O881	0.725310	0.369490	0.341110
O8821	O882	0.756120	0.325800	0.418570
C11651	C1165	0.649580	0.464930	0.401000
C11661	C1166	0.661630	0.442100	0.413110
C11671	C1167	0.682980	0.431450	0.402220
H3891	H389	0.690500	0.439000	0.387600
C11681	C1168	0.693480	0.409430	0.412800
C11691	C1169	0.682090	0.397810	0.433630
H3901	H390	0.689100	0.382600	0.440400
C11701	C1170	0.660660	0.408300	0.444570
C11711	C1171	0.650280	0.430810	0.434450
H3911	H391	0.635700	0.438300	0.442000
C11721	C1172	0.715550	0.396880	0.399770
C11731	C1173	0.647310	0.395000	0.465920
C11741	C1174	0.716160	0.350670	0.351880
C11751	C1175	0.694460	0.337830	0.338860
C11761	C1176	0.683870	0.349060	0.316860
H3921	H392	0.691600	0.363700	0.309700
Cu991	Cu99	0.250300	0.857200	0.392410
O8831	O883	0.129760	0.973700	0.411150
O8841	O884	0.160020	0.973450	0.381530
O8851	O885	0.222450	0.906170	0.378880
O8861	O886	0.225500	0.877940	0.410500
O8871	O887	0.156980	0.875010	0.473970
O8881	O888	0.127260	0.905360	0.473980
O8891	O889	0.222270	0.841590	0.372910
O8901	O890	0.225310	0.869490	0.341110
O8911	O891	0.256120	0.825800	0.418570
C11771	C1177	0.149580	0.964930	0.401000
C11781	C1178	0.161630	0.942100	0.413110
C11791	C1179	0.182980	0.931450	0.402220
H3931	H393	0.190500	0.939000	0.387600
C11801	C1180	0.193480	0.909430	0.412800
C11811	C1181	0.182090	0.897810	0.433630
H3941	H394	0.189100	0.882600	0.440400
C11821	C1182	0.160660	0.908300	0.444570
C11831	C1183	0.150280	0.930810	0.434450
H3951	H395	0.135700	0.938300	0.442000
C11841	C1184	0.215550	0.896880	0.399770
C11851	C1185	0.147310	0.895000	0.465920
C11861	C1186	0.216160	0.850670	0.351880
C11871	C1187	0.194460	0.837830	0.338860
C11881	C1188	0.183870	0.849060	0.316860
H3961	H396	0.191600	0.863700	0.309700
Cu1001	Cu100	0.250300	0.357200	0.892410
O8921	O892	0.129760	0.473700	0.911150
O8931	O893	0.160020	0.473450	0.881530
O8941	O894	0.222450	0.406170	0.878880
O8951	O895	0.225500	0.377940	0.910500
O8961	O896	0.156980	0.375010	0.973970
O8971	O897	0.127260	0.405360	0.973980
O8981	O898	0.222270	0.341590	0.872910
O8991	O899	0.225310	0.369490	0.841110
O9001	O900	0.256120	0.325800	0.918570
C11891	C1189	0.149580	0.464930	0.901000
C11901	C1190	0.161630	0.442100	0.913110
C11911	C1191	0.182980	0.431450	0.902220
H3971	H397	0.190500	0.439000	0.887600
C11921	C1192	0.193480	0.409430	0.912800
C11931	C1193	0.182090	0.397810	0.933630
H3981	H398	0.189100	0.382600	0.940400
C11941	C1194	0.160660	0.408300	0.944570
C11951	C1195	0.150280	0.430810	0.934450
H3991	H399	0.135700	0.438300	0.942000
C11961	C1196	0.215550	0.396880	0.899770
C11971	C1197	0.147310	0.395000	0.965920
C11981	C1198	0.216160	0.350670	0.851880
C11991	C1199	0.194460	0.337830	0.838860
C12001	C1200	0.183870	0.349060	0.816860
H4001	H400	0.191600	0.363700	0.809700
Cu1011	Cu101	0.249700	0.142800	0.892410
O9011	O901	0.370240	0.026300	0.911150
O9021	O902	0.339980	0.026550	0.881530
O9031	O903	0.277550	0.093830	0.878880
O9041	O904	0.274500	0.122060	0.910500
O9051	O905	0.343020	0.124990	0.973970
O9061	O906	0.372740	0.094640	0.973980
O9071	O907	0.277730	0.158410	0.872910
O9081	O908	0.274690	0.130510	0.841110
O9091	O909	0.243880	0.174200	0.918570
C12011	C1201	0.350420	0.035070	0.901000
C12021	C1202	0.338370	0.057900	0.913110
C12031	C1203	0.317020	0.068550	0.902220
H4011	H401	0.309500	0.061000	0.887600
C12041	C1204	0.306520	0.090570	0.912800
C12051	C1205	0.317910	0.102190	0.933630
H4021	H402	0.310900	0.117400	0.940400
C12061	C1206	0.339340	0.091700	0.944570
C12071	C1207	0.349720	0.069190	0.934450
H4031	H403	0.364300	0.061700	0.942000
C12081	C1208	0.284450	0.103120	0.899770
C12091	C1209	0.352690	0.105000	0.965920
C12101	C1210	0.283840	0.149330	0.851880
C12111	C1211	0.305540	0.162170	0.838860
C12121	C1212	0.316130	0.150940	0.816860
H4041	H404	0.308400	0.136300	0.809700
Cu1021	Cu102	0.249700	0.642800	0.392410
O9101	O910	0.370240	0.526300	0.411150
O9111	O911	0.339980	0.526550	0.381530
O9121	O912	0.277550	0.593830	0.378880
O9131	O913	0.274500	0.622060	0.410500
O9141	O914	0.343020	0.624990	0.473970
O9151	O915	0.372740	0.594640	0.473980
O9161	O916	0.277730	0.658410	0.372910
O9171	O917	0.274690	0.630510	0.341110
O9181	O918	0.243880	0.674200	0.418570
C12131	C1213	0.350420	0.535070	0.401000
C12141	C1214	0.338370	0.557900	0.413110
C12151	C1215	0.317020	0.568550	0.402220
H4051	H405	0.309500	0.561000	0.387600
C12161	C1216	0.306520	0.590570	0.412800
C12171	C1217	0.317910	0.602190	0.433630
H4061	H406	0.310900	0.617400	0.440400
C12181	C1218	0.339340	0.591700	0.444570
C12191	C1219	0.349720	0.569190	0.434450
H4071	H407	0.364300	0.561700	0.442000
C12201	C1220	0.284450	0.603120	0.399770
C12211	C1221	0.352690	0.605000	0.465920
C12221	C1222	0.283840	0.649330	0.351880
C12231	C1223	0.305540	0.662170	0.338860
C12241	C1224	0.316130	0.650940	0.316860
H4081	H408	0.308400	0.636300	0.309700
Cu1031	Cu103	0.749700	0.142800	0.392410
O9191	O919	0.870240	0.026300	0.411150
O9201	O920	0.839980	0.026550	0.381530
O9211	O921	0.777550	0.093830	0.378880
O9221	O922	0.774500	0.122060	0.410500
O9231	O923	0.843020	0.124990	0.473970
O9241	O924	0.872740	0.094640	0.473980
O9251	O925	0.777730	0.158410	0.372910
O9261	O926	0.774690	0.130510	0.341110
O9271	O927	0.743880	0.174200	0.418570
C12251	C1225	0.850420	0.035070	0.401000
C12261	C1226	0.838370	0.057900	0.413110
C12271	C1227	0.817020	0.068550	0.402220
H4091	H409	0.809500	0.061000	0.387600
C12281	C1228	0.806520	0.090570	0.412800
C12291	C1229	0.817910	0.102190	0.433630
H4101	H410	0.810900	0.117400	0.440400
C12301	C1230	0.839340	0.091700	0.444570
C12311	C1231	0.849720	0.069190	0.434450
H4111	H411	0.864300	0.061700	0.442000
C12321	C1232	0.784450	0.103120	0.399770
C12331	C1233	0.852690	0.105000	0.465920
C12341	C1234	0.783840	0.149330	0.351880
C12351	C1235	0.805540	0.162170	0.338860
C12361	C1236	0.816130	0.150940	0.316860
H4121	H412	0.808400	0.136300	0.309700
Cu1041	Cu104	0.749700	0.642800	0.892410
O9281	O928	0.870240	0.526300	0.911150
O9291	O929	0.839980	0.526550	0.881530
O9301	O930	0.777550	0.593830	0.878880
O9311	O931	0.774500	0.622060	0.910500
O9321	O932	0.843020	0.624990	0.973970
O9331	O933	0.872740	0.594640	0.973980
O9341	O934	0.777730	0.658410	0.872910
O9351	O935	0.774690	0.630510	0.841110
O9361	O936	0.743880	0.674200	0.918570
C12371	C1237	0.850420	0.535070	0.901000
C12381	C1238	0.838370	0.557900	0.913110
C12391	C1239	0.817020	0.568550	0.902220
H4131	H413	0.809500	0.561000	0.887600
C12401	C1240	0.806520	0.590570	0.912800
C12411	C1241	0.817910	0.602190	0.933630
H4141	H414	0.810900	0.617400	0.940400
C12421	C1242	0.839340	0.591700	0.944570
C12431	C1243	0.849720	0.569190	0.934450
H4151	H415	0.864300	0.561700	0.942000
C12441	C1244	0.784450	0.603120	0.899770
C12451	C1245	0.852690	0.605000	0.965920
C12461	C1246	0.783840	0.649330	0.851880
C12471	C1247	0.805540	0.662170	0.838860
C12481	C1248	0.816130	0.650940	0.816860
H4161	H416	0.808400	0.636300	0.809700
Cu1051	Cu105	0.249700	0.857200	0.107590
O9371	O937	0.370240	0.973700	0.088850
O9381	O938	0.339980	0.973450	0.118470
O9391	O939	0.277550	0.906170	0.121120
O9401	O940	0.274500	0.877940	0.089500
O9411	O941	0.343020	0.875010	0.026030
O9421	O942	0.372740	0.905360	0.026020
O9431	O943	0.277730	0.841590	0.127090
O9441	O944	0.274690	0.869490	0.158890
O9451	O945	0.243880	0.825800	0.081430
C12491	C1249	0.350420	0.964930	0.099000
C12501	C1250	0.338370	0.942100	0.086890
C12511	C1251	0.317020	0.931450	0.097780
H4171	H417	0.309500	0.939000	0.112400
C12521	C1252	0.306520	0.909430	0.087200
C12531	C1253	0.317910	0.897810	0.066370
H4181	H418	0.310900	0.882600	0.059600
C12541	C1254	0.339340	0.908300	0.055430
C12551	C1255	0.349720	0.930810	0.065550
H4191	H419	0.364300	0.938300	0.058000
C12561	C1256	0.284450	0.896880	0.100230
C12571	C1257	0.352690	0.895000	0.034080
C12581	C1258	0.283840	0.850670	0.148120
C12591	C1259	0.305540	0.837830	0.161140
C12601	C1260	0.316130	0.849060	0.183140
H4201	H420	0.308400	0.863700	0.190300
Cu1061	Cu106	0.249700	0.357200	0.607590
O9461	O946	0.370240	0.473700	0.588850
O9471	O947	0.339980	0.473450	0.618470
O9481	O948	0.277550	0.406170	0.621120
O9491	O949	0.274500	0.377940	0.589500
O9501	O950	0.343020	0.375010	0.526030
O9511	O951	0.372740	0.405360	0.526020
O9521	O952	0.277730	0.341590	0.627090
O9531	O953	0.274690	0.369490	0.658890
O9541	O954	0.243880	0.325800	0.581430
C12611	C1261	0.350420	0.464930	0.599000
C12621	C1262	0.338370	0.442100	0.586890
C12631	C1263	0.317020	0.431450	0.597780
H4211	H421	0.309500	0.439000	0.612400
C12641	C1264	0.306520	0.409430	0.587200
C12651	C1265	0.317910	0.397810	0.566370
H4221	H422	0.310900	0.382600	0.559600
C12661	C1266	0.339340	0.408300	0.555430
C12671	C1267	0.349720	0.430810	0.565550
H4231	H423	0.364300	0.438300	0.558000
C12681	C1268	0.284450	0.396880	0.600230
C12691	C1269	0.352690	0.395000	0.534080
C12701	C1270	0.283840	0.350670	0.648120
C12711	C1271	0.305540	0.337830	0.661140
C12721	C1272	0.316130	0.349060	0.683140
H4241	H424	0.308400	0.363700	0.690300
Cu1071	Cu107	0.749700	0.857200	0.607590
O9551	O955	0.870240	0.973700	0.588850
O9561	O956	0.839980	0.973450	0.618470
O9571	O957	0.777550	0.906170	0.621120
O9581	O958	0.774500	0.877940	0.589500
O9591	O959	0.843020	0.875010	0.526030
O9601	O960	0.872740	0.905360	0.526020
O9611	O961	0.777730	0.841590	0.627090
O9621	O962	0.774690	0.869490	0.658890
O9631	O963	0.743880	0.825800	0.581430
C12731	C1273	0.850420	0.964930	0.599000
C12741	C1274	0.838370	0.942100	0.586890
C12751	C1275	0.817020	0.931450	0.597780
H4251	H425	0.809500	0.939000	0.612400
C12761	C1276	0.806520	0.909430	0.587200
C12771	C1277	0.817910	0.897810	0.566370
H4261	H426	0.810900	0.882600	0.559600
C12781	C1278	0.839340	0.908300	0.555430
C12791	C1279	0.849720	0.930810	0.565550
H4271	H427	0.864300	0.938300	0.558000
C12801	C1280	0.784450	0.896880	0.600230
C12811	C1281	0.852690	0.895000	0.534080
C12821	C1282	0.783840	0.850670	0.648120
C12831	C1283	0.805540	0.837830	0.661140
C12841	C1284	0.816130	0.849060	0.683140
H4281	H428	0.808400	0.863700	0.690300
Cu1081	Cu108	0.749700	0.357200	0.107590
O9641	O964	0.870240	0.473700	0.088850
O9651	O965	0.839980	0.473450	0.118470
O9661	O966	0.777550	0.406170	0.121120
O9671	O967	0.774500	0.377940	0.089500
O9681	O968	0.843020	0.375010	0.026030
O9691	O969	0.872740	0.405360	0.026020
O9701	O970	0.777730	0.341590	0.127090
O9711	O971	0.774690	0.369490	0.158890
O9721	O972	0.743880	0.325800	0.081430
C12851	C1285	0.850420	0.464930	0.099000
C12861	C1286	0.838370	0.442100	0.086890
C12871	C1287	0.817020	0.431450	0.097780
H4291	H429	0.809500	0.439000	0.112400
C12881	C1288	0.806520	0.409430	0.087200
C12891	C1289	0.817910	0.397810	0.066370
H4301	H430	0.810900	0.382600	0.059600
C12901	C1290	0.839340	0.408300	0.055430
C12911	C1291	0.849720	0.430810	0.065550
H4311	H431	0.864300	0.438300	0.058000
C12921	C1292	0.784450	0.396880	0.100230
C12931	C1293	0.852690	0.395000	0.034080
C12941	C1294	0.783840	0.350670	0.148120
C12951	C1295	0.805540	0.337830	0.161140
C12961	C1296	0.816130	0.349060	0.183140
H4321	H432	0.808400	0.363700	0.190300
Cu1091	Cu109	0.750300	0.142800	0.107590
O9731	O973	0.629760	0.026300	0.088850
O9741	O974	0.660020	0.026550	0.118470
O9751	O975	0.722450	0.093830	0.121120
O9761	O976	0.725500	0.122060	0.089500
O9771	O977	0.656980	0.124990	0.026030
O9781	O978	0.627260	0.094640	0.026020
O9791	O979	0.722270	0.158410	0.127090
O9801	O980	0.725310	0.130510	0.158890
O9811	O981	0.756120	0.174200	0.081430
C12971	C1297	0.649580	0.035070	0.099000
C12981	C1298	0.661630	0.057900	0.086890
C12991	C1299	0.682980	0.068550	0.097780
H4331	H433	0.690500	0.061000	0.112400
C13001	C1300	0.693480	0.090570	0.087200
C13011	C1301	0.682090	0.102190	0.066370
H4341	H434	0.689100	0.117400	0.059600
C13021	C1302	0.660660	0.091700	0.055430
C13031	C1303	0.650280	0.069190	0.065550
H4351	H435	0.635700	0.061700	0.058000
C13041	C1304	0.715550	0.103120	0.100230
C13051	C1305	0.647310	0.105000	0.034080
C13061	C1306	0.716160	0.149330	0.148120
C13071	C1307	0.694460	0.162170	0.161140
C13081	C1308	0.683870	0.150940	0.183140
H4361	H436	0.691600	0.136300	0.190300
Cu1101	Cu110	0.750300	0.642800	0.607590
O9821	O982	0.629760	0.526300	0.588850
O9831	O983	0.660020	0.526550	0.618470
O9841	O984	0.722450	0.593830	0.621120
O9851	O985	0.725500	0.622060	0.589500
O9861	O986	0.656980	0.624990	0.526030
O9871	O987	0.627260	0.594640	0.526020
O9881	O988	0.722270	0.658410	0.627090
O9891	O989	0.725310	0.630510	0.658890
O9901	O990	0.756120	0.674200	0.581430
C13091	C1309	0.649580	0.535070	0.599000
C13101	C1310	0.661630	0.557900	0.586890
C13111	C1311	0.682980	0.568550	0.597780
H4371	H437	0.690500	0.561000	0.612400
C13121	C1312	0.693480	0.590570	0.587200
C13131	C1313	0.682090	0.602190	0.566370
H4381	H438	0.689100	0.617400	0.559600
C13141	C1314	0.660660	0.591700	0.555430
C13151	C1315	0.650280	0.569190	0.565550
H4391	H439	0.635700	0.561700	0.558000
C13161	C1316	0.715550	0.603120	0.600230
C13171	C1317	0.647310	0.605000	0.534080
C13181	C1318	0.716160	0.649330	0.648120
C13191	C1319	0.694460	0.662170	0.661140
C13201	C1320	0.683870	0.650940	0.683140
H4401	H440	0.691600	0.636300	0.690300
Cu1111	Cu111	0.250300	0.142800	0.607590
O9911	O991	0.129760	0.026300	0.588850
O9921	O992	0.160020	0.026550	0.618470
O9931	O993	0.222450	0.093830	0.621120
O9941	O994	0.225500	0.122060	0.589500
O9951	O995	0.156980	0.124990	0.526030
O9961	O996	0.127260	0.094640	0.526020
O9971	O997	0.222270	0.158410	0.627090
O9981	O998	0.225310	0.130510	0.658890
O9991	O999	0.256120	0.174200	0.581430
C13211	C1321	0.149580	0.035070	0.599000
C13221	C1322	0.161630	0.057900	0.586890
C13231	C1323	0.182980	0.068550	0.597780
H4411	H441	0.190500	0.061000	0.612400
C13241	C1324	0.193480	0.090570	0.587200
C13251	C1325	0.182090	0.102190	0.566370
H4421	H442	0.189100	0.117400	0.559600
C13261	C1326	0.160660	0.091700	0.555430
C13271	C1327	0.150280	0.069190	0.565550
H4431	H443	0.135700	0.061700	0.558000
C13281	C1328	0.215550	0.103120	0.600230
C13291	C1329	0.147310	0.105000	0.534080
C13301	C1330	0.216160	0.149330	0.648120
C13311	C1331	0.194460	0.162170	0.661140
C13321	C1332	0.183870	0.150940	0.683140
H4441	H444	0.191600	0.136300	0.690300
Cu1121	Cu112	0.250300	0.642800	0.107590
O10001	O1000	0.129760	0.526300	0.088850
O10011	O1001	0.160020	0.526550	0.118470
O10021	O1002	0.222450	0.593830	0.121120
O10031	O1003	0.225500	0.622060	0.089500
O10041	O1004	0.156980	0.624990	0.026030
O10051	O1005	0.127260	0.594640	0.026020
O10061	O1006	0.222270	0.658410	0.127090
O10071	O1007	0.225310	0.630510	0.158890
O10081	O1008	0.256120	0.674200	0.081430
C13331	C1333	0.149580	0.535070	0.099000
C13341	C1334	0.161630	0.557900	0.086890
C13351	C1335	0.182980	0.568550	0.097780
H4451	H445	0.190500	0.561000	0.112400
C13361	C1336	0.193480	0.590570	0.087200
C13371	C1337	0.182090	0.602190	0.066370
H4461	H446	0.189100	0.617400	0.059600
C13381	C1338	0.160660	0.591700	0.055430
C13391	C1339	0.150280	0.569190	0.065550
H4471	H447	0.135700	0.561700	0.058000
C13401	C1340	0.215550	0.603120	0.100230
C13411	C1341	0.147310	0.605000	0.034080
C13421	C1342	0.216160	0.649330	0.148120
C13431	C1343	0.194460	0.662170	0.161140
C13441	C1344	0.183870	0.650940	0.183140
H4481	H448	0.191600	0.636300	0.190300
Cu1131	Cu113	0.892410	0.750300	0.857200
O10091	O1009	0.911150	0.629760	0.973700
O10101	O1010	0.881530	0.660020	0.973450
O10111	O1011	0.878880	0.722450	0.906170
O10121	O1012	0.910500	0.725500	0.877940
O10131	O1013	0.973970	0.656980	0.875010
O10141	O1014	0.973980	0.627260	0.905360
O10151	O1015	0.872910	0.722270	0.841590
O10161	O1016	0.841110	0.725310	0.869490
O10171	O1017	0.918570	0.756120	0.825800
C13451	C1345	0.901000	0.649580	0.964930
C13461	C1346	0.913110	0.661630	0.942100
C13471	C1347	0.902220	0.682980	0.931450
H4491	H449	0.887600	0.690500	0.939000
C13481	C1348	0.912800	0.693480	0.909430
C13491	C1349	0.933630	0.682090	0.897810
H4501	H450	0.940400	0.689100	0.882600
C13501	C1350	0.944570	0.660660	0.908300
C13511	C1351	0.934450	0.650280	0.930810
H4511	H451	0.942000	0.635700	0.938300
C13521	C1352	0.899770	0.715550	0.896880
C13531	C1353	0.965920	0.647310	0.895000
C13541	C1354	0.851880	0.716160	0.850670
C13551	C1355	0.838860	0.694460	0.837830
C13561	C1356	0.816860	0.683870	0.849060
H4521	H452	0.809700	0.691600	0.863700
Cu1141	Cu114	0.892410	0.250300	0.357200
O10181	O1018	0.911150	0.129760	0.473700
O10191	O1019	0.881530	0.160020	0.473450
O10201	O1020	0.878880	0.222450	0.406170
O10211	O1021	0.910500	0.225500	0.377940
O10221	O1022	0.973970	0.156980	0.375010
O10231	O1023	0.973980	0.127260	0.405360
O10241	O1024	0.872910	0.222270	0.341590
O10251	O1025	0.841110	0.225310	0.369490
O10261	O1026	0.918570	0.256120	0.325800
C13571	C1357	0.901000	0.149580	0.464930
C13581	C1358	0.913110	0.161630	0.442100
C13591	C1359	0.902220	0.182980	0.431450
H4531	H453	0.887600	0.190500	0.439000
C13601	C1360	0.912800	0.193480	0.409430
C13611	C1361	0.933630	0.182090	0.397810
H4541	H454	0.940400	0.189100	0.382600
C13621	C1362	0.944570	0.160660	0.408300
C13631	C1363	0.934450	0.150280	0.430810
H4551	H455	0.942000	0.135700	0.438300
C13641	C1364	0.899770	0.215550	0.396880
C13651	C1365	0.965920	0.147310	0.395000
C13661	C1366	0.851880	0.216160	0.350670
C13671	C1367	0.838860	0.194460	0.337830
C13681	C1368	0.816860	0.183870	0.349060
H4561	H456	0.809700	0.191600	0.363700
Cu1151	Cu115	0.392410	0.750300	0.357200
O10271	O1027	0.411150	0.629760	0.473700
O10281	O1028	0.381530	0.660020	0.473450
O10291	O1029	0.378880	0.722450	0.406170
O10301	O1030	0.410500	0.725500	0.377940
O10311	O1031	0.473970	0.656980	0.375010
O10321	O1032	0.473980	0.627260	0.405360
O10331	O1033	0.372910	0.722270	0.341590
O10341	O1034	0.341110	0.725310	0.369490
O10351	O1035	0.418570	0.756120	0.325800
C13691	C1369	0.401000	0.649580	0.464930
C13701	C1370	0.413110	0.661630	0.442100
C13711	C1371	0.402220	0.682980	0.431450
H4571	H457	0.387600	0.690500	0.439000
C13721	C1372	0.412800	0.693480	0.409430
C13731	C1373	0.433630	0.682090	0.397810
H4581	H458	0.440400	0.689100	0.382600
C13741	C1374	0.444570	0.660660	0.408300
C13751	C1375	0.434450	0.650280	0.430810
H4591	H459	0.442000	0.635700	0.438300
C13761	C1376	0.399770	0.715550	0.396880
C13771	C1377	0.465920	0.647310	0.395000
C13781	C1378	0.351880	0.716160	0.350670
C13791	C1379	0.338860	0.694460	0.337830
C13801	C1380	0.316860	0.683870	0.349060
H4601	H460	0.309700	0.691600	0.363700
Cu1161	Cu116	0.392410	0.250300	0.857200
O10361	O1036	0.411150	0.129760	0.973700
O10371	O1037	0.381530	0.160020	0.973450
O10381	O1038	0.378880	0.222450	0.906170
O10391	O1039	0.410500	0.225500	0.877940
O10401	O1040	0.473970	0.156980	0.875010
O10411	O1041	0.473980	0.127260	0.905360
O10421	O1042	0.372910	0.222270	0.841590
O10431	O1043	0.341110	0.225310	0.869490
O10441	O1044	0.418570	0.256120	0.825800
C13811	C1381	0.401000	0.149580	0.964930
C13821	C1382	0.413110	0.161630	0.942100
C13831	C1383	0.402220	0.182980	0.931450
H4611	H461	0.387600	0.190500	0.939000
C13841	C1384	0.412800	0.193480	0.909430
C13851	C1385	0.433630	0.182090	0.897810
H4621	H462	0.440400	0.189100	0.882600
C13861	C1386	0.444570	0.160660	0.908300
C13871	C1387	0.434450	0.150280	0.930810
H4631	H463	0.442000	0.135700	0.938300
C13881	C1388	0.399770	0.215550	0.896880
C13891	C1389	0.465920	0.147310	0.895000
C13901	C1390	0.351880	0.216160	0.850670
C13911	C1391	0.338860	0.194460	0.837830
C13921	C1392	0.316860	0.183870	0.849060
H4641	H464	0.309700	0.191600	0.863700
Cu1171	Cu117	0.892410	0.249700	0.142800
O10451	O1045	0.911150	0.370240	0.026300
O10461	O1046	0.881530	0.339980	0.026550
O10471	O1047	0.878880	0.277550	0.093830
O10481	O1048	0.910500	0.274500	0.122060
O10491	O1049	0.973970	0.343020	0.124990
O10501	O1050	0.973980	0.372740	0.094640
O10511	O1051	0.872910	0.277730	0.158410
O10521	O1052	0.841110	0.274690	0.130510
O10531	O1053	0.918570	0.243880	0.174200
C13931	C1393	0.901000	0.350420	0.035070
C13941	C1394	0.913110	0.338370	0.057900
C13951	C1395	0.902220	0.317020	0.068550
H4651	H465	0.887600	0.309500	0.061000
C13961	C1396	0.912800	0.306520	0.090570
C13971	C1397	0.933630	0.317910	0.102190
H4661	H466	0.940400	0.310900	0.117400
C13981	C1398	0.944570	0.339340	0.091700
C13991	C1399	0.934450	0.349720	0.069190
H4671	H467	0.942000	0.364300	0.061700
C14001	C1400	0.899770	0.284450	0.103120
C14011	C1401	0.965920	0.352690	0.105000
C14021	C1402	0.851880	0.283840	0.149330
C14031	C1403	0.838860	0.305540	0.162170
C14041	C1404	0.816860	0.316130	0.150940
H4681	H468	0.809700	0.308400	0.136300
Cu1181	Cu118	0.892410	0.749700	0.642800
O10541	O1054	0.911150	0.870240	0.526300
O10551	O1055	0.881530	0.839980	0.526550
O10561	O1056	0.878880	0.777550	0.593830
O10571	O1057	0.910500	0.774500	0.622060
O10581	O1058	0.973970	0.843020	0.624990
O10591	O1059	0.973980	0.872740	0.594640
O10601	O1060	0.872910	0.777730	0.658410
O10611	O1061	0.841110	0.774690	0.630510
O10621	O1062	0.918570	0.743880	0.674200
C14051	C1405	0.901000	0.850420	0.535070
C14061	C1406	0.913110	0.838370	0.557900
C14071	C1407	0.902220	0.817020	0.568550
H4691	H469	0.887600	0.809500	0.561000
C14081	C1408	0.912800	0.806520	0.590570
C14091	C1409	0.933630	0.817910	0.602190
H4701	H470	0.940400	0.810900	0.617400
C14101	C1410	0.944570	0.839340	0.591700
C14111	C1411	0.934450	0.849720	0.569190
H4711	H471	0.942000	0.864300	0.561700
C14121	C1412	0.899770	0.784450	0.603120
C14131	C1413	0.965920	0.852690	0.605000
C14141	C1414	0.851880	0.783840	0.649330
C14151	C1415	0.838860	0.805540	0.662170
C14161	C1416	0.816860	0.816130	0.650940
H4721	H472	0.809700	0.808400	0.636300
Cu1191	Cu119	0.392410	0.249700	0.642800
O10631	O1063	0.411150	0.370240	0.526300
O10641	O1064	0.381530	0.339980	0.526550
O10651	O1065	0.378880	0.277550	0.593830
O10661	O1066	0.410500	0.274500	0.622060
O10671	O1067	0.473970	0.343020	0.624990
O10681	O1068	0.473980	0.372740	0.594640
O10691	O1069	0.372910	0.277730	0.658410
O10701	O1070	0.341110	0.274690	0.630510
O10711	O1071	0.418570	0.243880	0.674200
C14171	C1417	0.401000	0.350420	0.535070
C14181	C1418	0.413110	0.338370	0.557900
C14191	C1419	0.402220	0.317020	0.568550
H4731	H473	0.387600	0.309500	0.561000
C14201	C1420	0.412800	0.306520	0.590570
C14211	C1421	0.433630	0.317910	0.602190
H4741	H474	0.440400	0.310900	0.617400
C14221	C1422	0.444570	0.339340	0.591700
C14231	C1423	0.434450	0.349720	0.569190
H4751	H475	0.442000	0.364300	0.561700
C14241	C1424	0.399770	0.284450	0.603120
C14251	C1425	0.465920	0.352690	0.605000
C14261	C1426	0.351880	0.283840	0.649330
C14271	C1427	0.338860	0.305540	0.662170
C14281	C1428	0.316860	0.316130	0.650940
H4761	H476	0.309700	0.308400	0.636300
Cu1201	Cu120	0.392410	0.749700	0.142800
O10721	O1072	0.411150	0.870240	0.026300
O10731	O1073	0.381530	0.839980	0.026550
O10741	O1074	0.378880	0.777550	0.093830
O10751	O1075	0.410500	0.774500	0.122060
O10761	O1076	0.473970	0.843020	0.124990
O10771	O1077	0.473980	0.872740	0.094640
O10781	O1078	0.372910	0.777730	0.158410
O10791	O1079	0.341110	0.774690	0.130510
O10801	O1080	0.418570	0.743880	0.174200
C14291	C1429	0.401000	0.850420	0.035070
C14301	C1430	0.413110	0.838370	0.057900
C14311	C1431	0.402220	0.817020	0.068550
H4771	H477	0.387600	0.809500	0.061000
C14321	C1432	0.412800	0.806520	0.090570
C14331	C1433	0.433630	0.817910	0.102190
H4781	H478	0.440400	0.810900	0.117400
C14341	C1434	0.444570	0.839340	0.091700
C14351	C1435	0.434450	0.849720	0.069190
H4791	H479	0.442000	0.864300	0.061700
C14361	C1436	0.399770	0.784450	0.103120
C14371	C1437	0.465920	0.852690	0.105000
C14381	C1438	0.351880	0.783840	0.149330
C14391	C1439	0.338860	0.805540	0.162170
C14401	C1440	0.316860	0.816130	0.150940
H4801	H480	0.309700	0.808400	0.136300
Cu1211	Cu121	0.107590	0.249700	0.857200
O10811	O1081	0.088850	0.370240	0.973700
O10821	O1082	0.118470	0.339980	0.973450
O10831	O1083	0.121120	0.277550	0.906170
O10841	O1084	0.089500	0.274500	0.877940
O10851	O1085	0.026030	0.343020	0.875010
O10861	O1086	0.026020	0.372740	0.905360
O10871	O1087	0.127090	0.277730	0.841590
O10881	O1088	0.158890	0.274690	0.869490
O10891	O1089	0.081430	0.243880	0.825800
C14411	C1441	0.099000	0.350420	0.964930
C14421	C1442	0.086890	0.338370	0.942100
C14431	C1443	0.097780	0.317020	0.931450
H4811	H481	0.112400	0.309500	0.939000
C14441	C1444	0.087200	0.306520	0.909430
C14451	C1445	0.066370	0.317910	0.897810
H4821	H482	0.059600	0.310900	0.882600
C14461	C1446	0.055430	0.339340	0.908300
C14471	C1447	0.065550	0.349720	0.930810
H4831	H483	0.058000	0.364300	0.938300
C14481	C1448	0.100230	0.284450	0.896880
C14491	C1449	0.034080	0.352690	0.895000
C14501	C1450	0.148120	0.283840	0.850670
C14511	C1451	0.161140	0.305540	0.837830
C14521	C1452	0.183140	0.316130	0.849060
H4841	H484	0.190300	0.308400	0.863700
Cu1221	Cu122	0.107590	0.749700	0.357200
O10901	O1090	0.088850	0.870240	0.473700
O10911	O1091	0.118470	0.839980	0.473450
O10921	O1092	0.121120	0.777550	0.406170
O10931	O1093	0.089500	0.774500	0.377940
O10941	O1094	0.026030	0.843020	0.375010
O10951	O1095	0.026020	0.872740	0.405360
O10961	O1096	0.127090	0.777730	0.341590
O10971	O1097	0.158890	0.774690	0.369490
O10981	O1098	0.081430	0.743880	0.325800
C14531	C1453	0.099000	0.850420	0.464930
C14541	C1454	0.086890	0.838370	0.442100
C14551	C1455	0.097780	0.817020	0.431450
H4851	H485	0.112400	0.809500	0.439000
C14561	C1456	0.087200	0.806520	0.409430
C14571	C1457	0.066370	0.817910	0.397810
H4861	H486	0.059600	0.810900	0.382600
C14581	C1458	0.055430	0.839340	0.408300
C14591	C1459	0.065550	0.849720	0.430810
H4871	H487	0.058000	0.864300	0.438300
C14601	C1460	0.100230	0.784450	0.396880
C14611	C1461	0.034080	0.852690	0.395000
C14621	C1462	0.148120	0.783840	0.350670
C14631	C1463	0.161140	0.805540	0.337830
C14641	C1464	0.183140	0.816130	0.349060
H4881	H488	0.190300	0.808400	0.363700
Cu1231	Cu123	0.607590	0.249700	0.357200
O10991	O1099	0.588850	0.370240	0.473700
O11001	O1100	0.618470	0.339980	0.473450
O11011	O1101	0.621120	0.277550	0.406170
O11021	O1102	0.589500	0.274500	0.377940
O11031	O1103	0.526030	0.343020	0.375010
O11041	O1104	0.526020	0.372740	0.405360
O11051	O1105	0.627090	0.277730	0.341590
O11061	O1106	0.658890	0.274690	0.369490
O11071	O1107	0.581430	0.243880	0.325800
C14651	C1465	0.599000	0.350420	0.464930
C14661	C1466	0.586890	0.338370	0.442100
C14671	C1467	0.597780	0.317020	0.431450
H4891	H489	0.612400	0.309500	0.439000
C14681	C1468	0.587200	0.306520	0.409430
C14691	C1469	0.566370	0.317910	0.397810
H4901	H490	0.559600	0.310900	0.382600
C14701	C1470	0.555430	0.339340	0.408300
C14711	C1471	0.565550	0.349720	0.430810
H4911	H491	0.558000	0.364300	0.438300
C14721	C1472	0.600230	0.284450	0.396880
C14731	C1473	0.534080	0.352690	0.395000
C14741	C1474	0.648120	0.283840	0.350670
C14751	C1475	0.661140	0.305540	0.337830
C14761	C1476	0.683140	0.316130	0.349060
H4921	H492	0.690300	0.308400	0.363700
Cu1241	Cu124	0.607590	0.749700	0.857200
O11081	O1108	0.588850	0.870240	0.973700
O11091	O1109	0.618470	0.839980	0.973450
O11101	O1110	0.621120	0.777550	0.906170
O11111	O1111	0.589500	0.774500	0.877940
O11121	O1112	0.526030	0.843020	0.875010
O11131	O1113	0.526020	0.872740	0.905360
O11141	O1114	0.627090	0.777730	0.841590
O11151	O1115	0.658890	0.774690	0.869490
O11161	O1116	0.581430	0.743880	0.825800
C14771	C1477	0.599000	0.850420	0.964930
C14781	C1478	0.586890	0.838370	0.942100
C14791	C1479	0.597780	0.817020	0.931450
H4931	H493	0.612400	0.809500	0.939000
C14801	C1480	0.587200	0.806520	0.909430
C14811	C1481	0.566370	0.817910	0.897810
H4941	H494	0.559600	0.810900	0.882600
C14821	C1482	0.555430	0.839340	0.908300
C14831	C1483	0.565550	0.849720	0.930810
H4951	H495	0.558000	0.864300	0.938300
C14841	C1484	0.600230	0.784450	0.896880
C14851	C1485	0.534080	0.852690	0.895000
C14861	C1486	0.648120	0.783840	0.850670
C14871	C1487	0.661140	0.805540	0.837830
C14881	C1488	0.683140	0.816130	0.849060
H4961	H496	0.690300	0.808400	0.863700
Cu1251	Cu125	0.107590	0.750300	0.142800
O11171	O1117	0.088850	0.629760	0.026300
O11181	O1118	0.118470	0.660020	0.026550
O11191	O1119	0.121120	0.722450	0.093830
O11201	O1120	0.089500	0.725500	0.122060
O11211	O1121	0.026030	0.656980	0.124990
O11221	O1122	0.026020	0.627260	0.094640
O11231	O1123	0.127090	0.722270	0.158410
O11241	O1124	0.158890	0.725310	0.130510
O11251	O1125	0.081430	0.756120	0.174200
C14891	C1489	0.099000	0.649580	0.035070
C14901	C1490	0.086890	0.661630	0.057900
C14911	C1491	0.097780	0.682980	0.068550
H4971	H497	0.112400	0.690500	0.061000
C14921	C1492	0.087200	0.693480	0.090570
C14931	C1493	0.066370	0.682090	0.102190
H4981	H498	0.059600	0.689100	0.117400
C14941	C1494	0.055430	0.660660	0.091700
C14951	C1495	0.065550	0.650280	0.069190
H4991	H499	0.058000	0.635700	0.061700
C14961	C1496	0.100230	0.715550	0.103120
C14971	C1497	0.034080	0.647310	0.105000
C14981	C1498	0.148120	0.716160	0.149330
C14991	C1499	0.161140	0.694460	0.162170
C15001	C1500	0.183140	0.683870	0.150940
H5001	H500	0.190300	0.691600	0.136300
Cu1261	Cu126	0.107590	0.250300	0.642800
O11261	O1126	0.088850	0.129760	0.526300
O11271	O1127	0.118470	0.160020	0.526550
O11281	O1128	0.121120	0.222450	0.593830
O11291	O1129	0.089500	0.225500	0.622060
O11301	O1130	0.026030	0.156980	0.624990
O11311	O1131	0.026020	0.127260	0.594640
O11321	O1132	0.127090	0.222270	0.658410
O11331	O1133	0.158890	0.225310	0.630510
O11341	O1134	0.081430	0.256120	0.674200
C15011	C1501	0.099000	0.149580	0.535070
C15021	C1502	0.086890	0.161630	0.557900
C15031	C1503	0.097780	0.182980	0.568550
H5011	H501	0.112400	0.190500	0.561000
C15041	C1504	0.087200	0.193480	0.590570
C15051	C1505	0.066370	0.182090	0.602190
H5021	H502	0.059600	0.189100	0.617400
C15061	C1506	0.055430	0.160660	0.591700
C15071	C1507	0.065550	0.150280	0.569190
H5031	H503	0.058000	0.135700	0.561700
C15081	C1508	0.100230	0.215550	0.603120
C15091	C1509	0.034080	0.147310	0.605000
C15101	C1510	0.148120	0.216160	0.649330
C15111	C1511	0.161140	0.194460	0.662170
C15121	C1512	0.183140	0.183870	0.650940
H5041	H504	0.190300	0.191600	0.636300
Cu1271	Cu127	0.607590	0.750300	0.642800
O11351	O1135	0.588850	0.629760	0.526300
O11361	O1136	0.618470	0.660020	0.526550
O11371	O1137	0.621120	0.722450	0.593830
O11381	O1138	0.589500	0.725500	0.622060
O11391	O1139	0.526030	0.656980	0.624990
O11401	O1140	0.526020	0.627260	0.594640
O11411	O1141	0.627090	0.722270	0.658410
O11421	O1142	0.658890	0.725310	0.630510
O11431	O1143	0.581430	0.756120	0.674200
C15131	C1513	0.599000	0.649580	0.535070
C15141	C1514	0.586890	0.661630	0.557900
C15151	C1515	0.597780	0.682980	0.568550
H5051	H505	0.612400	0.690500	0.561000
C15161	C1516	0.587200	0.693480	0.590570
C15171	C1517	0.566370	0.682090	0.602190
H5061	H506	0.559600	0.689100	0.617400
C15181	C1518	0.555430	0.660660	0.591700
C15191	C1519	0.565550	0.650280	0.569190
H5071	H507	0.558000	0.635700	0.561700
C15201	C1520	0.600230	0.715550	0.603120
C15211	C1521	0.534080	0.647310	0.605000
C15221	C1522	0.648120	0.716160	0.649330
C15231	C1523	0.661140	0.694460	0.662170
C15241	C1524	0.683140	0.683870	0.650940
H5081	H508	0.690300	0.691600	0.636300
Cu1281	Cu128	0.607590	0.250300	0.142800
O11441	O1144	0.588850	0.129760	0.026300
O11451	O1145	0.618470	0.160020	0.026550
O11461	O1146	0.621120	0.222450	0.093830
O11471	O1147	0.589500	0.225500	0.122060
O11481	O1148	0.526030	0.156980	0.124990
O11491	O1149	0.526020	0.127260	0.094640
O11501	O1150	0.627090	0.222270	0.158410
O11511	O1151	0.658890	0.225310	0.130510
O11521	O1152	0.581430	0.256120	0.174200
C15251	C1525	0.599000	0.149580	0.035070
C15261	C1526	0.586890	0.161630	0.057900
C15271	C1527	0.597780	0.182980	0.068550
H5091	H509	0.612400	0.190500	0.061000
C15281	C1528	0.587200	0.193480	0.090570
C15291	C1529	0.566370	0.182090	0.102190
H5101	H510	0.559600	0.189100	0.117400
C15301	C1530	0.555430	0.160660	0.091700
C15311	C1531	0.565550	0.150280	0.069190
H5111	H511	0.558000	0.135700	0.061700
C15321	C1532	0.600230	0.215550	0.103120
C15331	C1533	0.534080	0.147310	0.105000
C15341	C1534	0.648120	0.216160	0.149330
C15351	C1535	0.661140	0.194460	0.162170
C15361	C1536	0.683140	0.183870	0.150940
H5121	H512	0.690300	0.191600	0.136300
Cu1291	Cu129	0.857200	0.892410	0.750300
O11531	O1153	0.973700	0.911150	0.629760
O11541	O1154	0.973450	0.881530	0.660020
O11551	O1155	0.906170	0.878880	0.722450
O11561	O1156	0.877940	0.910500	0.725500
O11571	O1157	0.875010	0.973970	0.656980
O11581	O1158	0.905360	0.973980	0.627260
O11591	O1159	0.841590	0.872910	0.722270
O11601	O1160	0.869490	0.841110	0.725310
O11611	O1161	0.825800	0.918570	0.756120
C15371	C1537	0.964930	0.901000	0.649580
C15381	C1538	0.942100	0.913110	0.661630
C15391	C1539	0.931450	0.902220	0.682980
H5131	H513	0.939000	0.887600	0.690500
C15401	C1540	0.909430	0.912800	0.693480
C15411	C1541	0.897810	0.933630	0.682090
H5141	H514	0.882600	0.940400	0.689100
C15421	C1542	0.908300	0.944570	0.660660
C15431	C1543	0.930810	0.934450	0.650280
H5151	H515	0.938300	0.942000	0.635700
C15441	C1544	0.896880	0.899770	0.715550
C15451	C1545	0.895000	0.965920	0.647310
C15461	C1546	0.850670	0.851880	0.716160
C15471	C1547	0.837830	0.838860	0.694460
C15481	C1548	0.849060	0.816860	0.683870
H5161	H516	0.863700	0.809700	0.691600
Cu1301	Cu130	0.857200	0.392410	0.250300
O11621	O1162	0.973700	0.411150	0.129760
O11631	O1163	0.973450	0.381530	0.160020
O11641	O1164	0.906170	0.378880	0.222450
O11651	O1165	0.877940	0.410500	0.225500
O11661	O1166	0.875010	0.473970	0.156980
O11671	O1167	0.905360	0.473980	0.127260
O11681	O1168	0.841590	0.372910	0.222270
O11691	O1169	0.869490	0.341110	0.225310
O11701	O1170	0.825800	0.418570	0.256120
C15491	C1549	0.964930	0.401000	0.149580
C15501	C1550	0.942100	0.413110	0.161630
C15511	C1551	0.931450	0.402220	0.182980
H5171	H517	0.939000	0.387600	0.190500
C15521	C1552	0.909430	0.412800	0.193480
C15531	C1553	0.897810	0.433630	0.182090
H5181	H518	0.882600	0.440400	0.189100
C15541	C1554	0.908300	0.444570	0.160660
C15551	C1555	0.930810	0.434450	0.150280
H5191	H519	0.938300	0.442000	0.135700
C15561	C1556	0.896880	0.399770	0.215550
C15571	C1557	0.895000	0.465920	0.147310
C15581	C1558	0.850670	0.351880	0.216160
C15591	C1559	0.837830	0.338860	0.194460
C15601	C1560	0.849060	0.316860	0.183870
H5201	H520	0.863700	0.309700	0.191600
Cu1311	Cu131	0.357200	0.892410	0.250300
O11711	O1171	0.473700	0.911150	0.129760
O11721	O1172	0.473450	0.881530	0.160020
O11731	O1173	0.406170	0.878880	0.222450
O11741	O1174	0.377940	0.910500	0.225500
O11751	O1175	0.375010	0.973970	0.156980
O11761	O1176	0.405360	0.973980	0.127260
O11771	O1177	0.341590	0.872910	0.222270
O11781	O1178	0.369490	0.841110	0.225310
O11791	O1179	0.325800	0.918570	0.256120
C15611	C1561	0.464930	0.901000	0.149580
C15621	C1562	0.442100	0.913110	0.161630
C15631	C1563	0.431450	0.902220	0.182980
H5211	H521	0.439000	0.887600	0.190500
C15641	C1564	0.409430	0.912800	0.193480
C15651	C1565	0.397810	0.933630	0.182090
H5221	H522	0.382600	0.940400	0.189100
C15661	C1566	0.408300	0.944570	0.160660
C15671	C1567	0.430810	0.934450	0.150280
H5231	H523	0.438300	0.942000	0.135700
C15681	C1568	0.396880	0.899770	0.215550
C15691	C1569	0.395000	0.965920	0.147310
C15701	C1570	0.350670	0.851880	0.216160
C15711	C1571	0.337830	0.838860	0.194460
C15721	C1572	0.349060	0.816860	0.183870
H5241	H524	0.363700	0.809700	0.191600
Cu1321	Cu132	0.357200	0.392410	0.750300
O11801	O1180	0.473700	0.411150	0.629760
O11811	O1181	0.473450	0.381530	0.660020
O11821	O1182	0.406170	0.378880	0.722450
O11831	O1183	0.377940	0.410500	0.725500
O11841	O1184	0.375010	0.473970	0.656980
O11851	O1185	0.405360	0.473980	0.627260
O11861	O1186	0.341590	0.372910	0.722270
O11871	O1187	0.369490	0.341110	0.725310
O11881	O1188	0.325800	0.418570	0.756120
C15731	C1573	0.464930	0.401000	0.649580
C15741	C1574	0.442100	0.413110	0.661630
C15751	C1575	0.431450	0.402220	0.682980
H5251	H525	0.439000	0.387600	0.690500
C15761	C1576	0.409430	0.412800	0.693480
C15771	C1577	0.397810	0.433630	0.682090
H5261	H526	0.382600	0.440400	0.689100
C15781	C1578	0.408300	0.444570	0.660660
C15791	C1579	0.430810	0.434450	0.650280
H5271	H527	0.438300	0.442000	0.635700
C15801	C1580	0.396880	0.399770	0.715550
C15811	C1581	0.395000	0.465920	0.647310
C15821	C1582	0.350670	0.351880	0.716160
C15831	C1583	0.337830	0.338860	0.694460
C15841	C1584	0.349060	0.316860	0.683870
H5281	H528	0.363700	0.309700	0.691600
Cu1331	Cu133	0.142800	0.892410	0.249700
O11891	O1189	0.026300	0.911150	0.370240
O11901	O1190	0.026550	0.881530	0.339980
O11911	O1191	0.093830	0.878880	0.277550
O11921	O1192	0.122060	0.910500	0.274500
O11931	O1193	0.124990	0.973970	0.343020
O11941	O1194	0.094640	0.973980	0.372740
O11951	O1195	0.158410	0.872910	0.277730
O11961	O1196	0.130510	0.841110	0.274690
O11971	O1197	0.174200	0.918570	0.243880
C15851	C1585	0.035070	0.901000	0.350420
C15861	C1586	0.057900	0.913110	0.338370
C15871	C1587	0.068550	0.902220	0.317020
H5291	H529	0.061000	0.887600	0.309500
C15881	C1588	0.090570	0.912800	0.306520
C15891	C1589	0.102190	0.933630	0.317910
H5301	H530	0.117400	0.940400	0.310900
C15901	C1590	0.091700	0.944570	0.339340
C15911	C1591	0.069190	0.934450	0.349720
H5311	H531	0.061700	0.942000	0.364300
C15921	C1592	0.103120	0.899770	0.284450
C15931	C1593	0.105000	0.965920	0.352690
C15941	C1594	0.149330	0.851880	0.283840
C15951	C1595	0.162170	0.838860	0.305540
C15961	C1596	0.150940	0.816860	0.316130
H5321	H532	0.136300	0.809700	0.308400
Cu1341	Cu134	0.142800	0.392410	0.749700
O11981	O1198	0.026300	0.411150	0.870240
O11991	O1199	0.026550	0.381530	0.839980
O12001	O1200	0.093830	0.378880	0.777550
O12011	O1201	0.122060	0.410500	0.774500
O12021	O1202	0.124990	0.473970	0.843020
O12031	O1203	0.094640	0.473980	0.872740
O12041	O1204	0.158410	0.372910	0.777730
O12051	O1205	0.130510	0.341110	0.774690
O12061	O1206	0.174200	0.418570	0.743880
C15971	C1597	0.035070	0.401000	0.850420
C15981	C1598	0.057900	0.413110	0.838370
C15991	C1599	0.068550	0.402220	0.817020
H5331	H533	0.061000	0.387600	0.809500
C16001	C1600	0.090570	0.412800	0.806520
C16011	C1601	0.102190	0.433630	0.817910
H5341	H534	0.117400	0.440400	0.810900
C16021	C1602	0.091700	0.444570	0.839340
C16031	C1603	0.069190	0.434450	0.849720
H5351	H535	0.061700	0.442000	0.864300
C16041	C1604	0.103120	0.399770	0.784450
C16051	C1605	0.105000	0.465920	0.852690
C16061	C1606	0.149330	0.351880	0.783840
C16071	C1607	0.162170	0.338860	0.805540
C16081	C1608	0.150940	0.316860	0.816130
H5361	H536	0.136300	0.309700	0.808400
Cu1351	Cu135	0.642800	0.892410	0.749700
O12071	O1207	0.526300	0.911150	0.870240
O12081	O1208	0.526550	0.881530	0.839980
O12091	O1209	0.593830	0.878880	0.777550
O12101	O1210	0.622060	0.910500	0.774500
O12111	O1211	0.624990	0.973970	0.843020
O12121	O1212	0.594640	0.973980	0.872740
O12131	O1213	0.658410	0.872910	0.777730
O12141	O1214	0.630510	0.841110	0.774690
O12151	O1215	0.674200	0.918570	0.743880
C16091	C1609	0.535070	0.901000	0.850420
C16101	C1610	0.557900	0.913110	0.838370
C16111	C1611	0.568550	0.902220	0.817020
H5371	H537	0.561000	0.887600	0.809500
C16121	C1612	0.590570	0.912800	0.806520
C16131	C1613	0.602190	0.933630	0.817910
H5381	H538	0.617400	0.940400	0.810900
C16141	C1614	0.591700	0.944570	0.839340
C16151	C1615	0.569190	0.934450	0.849720
H5391	H539	0.561700	0.942000	0.864300
C16161	C1616	0.603120	0.899770	0.784450
C16171	C1617	0.605000	0.965920	0.852690
C16181	C1618	0.649330	0.851880	0.783840
C16191	C1619	0.662170	0.838860	0.805540
C16201	C1620	0.650940	0.816860	0.816130
H5401	H540	0.636300	0.809700	0.808400
Cu1361	Cu136	0.642800	0.392410	0.249700
O12161	O1216	0.526300	0.411150	0.370240
O12171	O1217	0.526550	0.381530	0.339980
O12181	O1218	0.593830	0.378880	0.277550
O12191	O1219	0.622060	0.410500	0.274500
O12201	O1220	0.624990	0.473970	0.343020
O12211	O1221	0.594640	0.473980	0.372740
O12221	O1222	0.658410	0.372910	0.277730
O12231	O1223	0.630510	0.341110	0.274690
O12241	O1224	0.674200	0.418570	0.243880
C16211	C1621	0.535070	0.401000	0.350420
C16221	C1622	0.557900	0.413110	0.338370
C16231	C1623	0.568550	0.402220	0.317020
H5411	H541	0.561000	0.387600	0.309500
C16241	C1624	0.590570	0.412800	0.306520
C16251	C1625	0.602190	0.433630	0.317910
H5421	H542	0.617400	0.440400	0.310900
C16261	C1626	0.591700	0.444570	0.339340
C16271	C1627	0.569190	0.434450	0.349720
H5431	H543	0.561700	0.442000	0.364300
C16281	C1628	0.603120	0.399770	0.284450
C16291	C1629	0.605000	0.465920	0.352690
C16301	C1630	0.649330	0.351880	0.283840
C16311	C1631	0.662170	0.338860	0.305540
C16321	C1632	0.650940	0.316860	0.316130
H5441	H544	0.636300	0.309700	0.308400
Cu1371	Cu137	0.857200	0.107590	0.249700
O12251	O1225	0.973700	0.088850	0.370240
O12261	O1226	0.973450	0.118470	0.339980
O12271	O1227	0.906170	0.121120	0.277550
O12281	O1228	0.877940	0.089500	0.274500
O12291	O1229	0.875010	0.026030	0.343020
O12301	O1230	0.905360	0.026020	0.372740
O12311	O1231	0.841590	0.127090	0.277730
O12321	O1232	0.869490	0.158890	0.274690
O12331	O1233	0.825800	0.081430	0.243880
C16331	C1633	0.964930	0.099000	0.350420
C16341	C1634	0.942100	0.086890	0.338370
C16351	C1635	0.931450	0.097780	0.317020
H5451	H545	0.939000	0.112400	0.309500
C16361	C1636	0.909430	0.087200	0.306520
C16371	C1637	0.897810	0.066370	0.317910
H5461	H546	0.882600	0.059600	0.310900
C16381	C1638	0.908300	0.055430	0.339340
C16391	C1639	0.930810	0.065550	0.349720
H5471	H547	0.938300	0.058000	0.364300
C16401	C1640	0.896880	0.100230	0.284450
C16411	C1641	0.895000	0.034080	0.352690
C16421	C1642	0.850670	0.148120	0.283840
C16431	C1643	0.837830	0.161140	0.305540
C16441	C1644	0.849060	0.183140	0.316130
H5481	H548	0.863700	0.190300	0.308400
Cu1381	Cu138	0.857200	0.607590	0.749700
O12341	O1234	0.973700	0.588850	0.870240
O12351	O1235	0.973450	0.618470	0.839980
O12361	O1236	0.906170	0.621120	0.777550
O12371	O1237	0.877940	0.589500	0.774500
O12381	O1238	0.875010	0.526030	0.843020
O12391	O1239	0.905360	0.526020	0.872740
O12401	O1240	0.841590	0.627090	0.777730
O12411	O1241	0.869490	0.658890	0.774690
O12421	O1242	0.825800	0.581430	0.743880
C16451	C1645	0.964930	0.599000	0.850420
C16461	C1646	0.942100	0.586890	0.838370
C16471	C1647	0.931450	0.597780	0.817020
H5491	H549	0.939000	0.612400	0.809500
C16481	C1648	0.909430	0.587200	0.806520
C16491	C1649	0.897810	0.566370	0.817910
H5501	H550	0.882600	0.559600	0.810900
C16501	C1650	0.908300	0.555430	0.839340
C16511	C1651	0.930810	0.565550	0.849720
H5511	H551	0.938300	0.558000	0.864300
C16521	C1652	0.896880	0.600230	0.784450
C16531	C1653	0.895000	0.534080	0.852690
C16541	C1654	0.850670	0.648120	0.783840
C16551	C1655	0.837830	0.661140	0.805540
C16561	C1656	0.849060	0.683140	0.816130
H5521	H552	0.863700	0.690300	0.808400
Cu1391	Cu139	0.357200	0.107590	0.749700
O12431	O1243	0.473700	0.088850	0.870240
O12441	O1244	0.473450	0.118470	0.839980
O12451	O1245	0.406170	0.121120	0.777550
O12461	O1246	0.377940	0.089500	0.774500
O12471	O1247	0.375010	0.026030	0.843020
O12481	O1248	0.405360	0.026020	0.872740
O12491	O1249	0.341590	0.127090	0.777730
O12501	O1250	0.369490	0.158890	0.774690
O12511	O1251	0.325800	0.081430	0.743880
C16571	C1657	0.464930	0.099000	0.850420
C16581	C1658	0.442100	0.086890	0.838370
C16591	C1659	0.431450	0.097780	0.817020
H5531	H553	0.439000	0.112400	0.809500
C16601	C1660	0.409430	0.087200	0.806520
C16611	C1661	0.397810	0.066370	0.817910
H5541	H554	0.382600	0.059600	0.810900
C16621	C1662	0.408300	0.055430	0.839340
C16631	C1663	0.430810	0.065550	0.849720
H5551	H555	0.438300	0.058000	0.864300
C16641	C1664	0.396880	0.100230	0.784450
C16651	C1665	0.395000	0.034080	0.852690
C16661	C1666	0.350670	0.148120	0.783840
C16671	C1667	0.337830	0.161140	0.805540
C16681	C1668	0.349060	0.183140	0.816130
H5561	H556	0.363700	0.190300	0.808400
Cu1401	Cu140	0.357200	0.607590	0.249700
O12521	O1252	0.473700	0.588850	0.370240
O12531	O1253	0.473450	0.618470	0.339980
O12541	O1254	0.406170	0.621120	0.277550
O12551	O1255	0.377940	0.589500	0.274500
O12561	O1256	0.375010	0.526030	0.343020
O12571	O1257	0.405360	0.526020	0.372740
O12581	O1258	0.341590	0.627090	0.277730
O12591	O1259	0.369490	0.658890	0.274690
O12601	O1260	0.325800	0.581430	0.243880
C16691	C1669	0.464930	0.599000	0.350420
C16701	C1670	0.442100	0.586890	0.338370
C16711	C1671	0.431450	0.597780	0.317020
H5571	H557	0.439000	0.612400	0.309500
C16721	C1672	0.409430	0.587200	0.306520
C16731	C1673	0.397810	0.566370	0.317910
H5581	H558	0.382600	0.559600	0.310900
C16741	C1674	0.408300	0.555430	0.339340
C16751	C1675	0.430810	0.565550	0.349720
H5591	H559	0.438300	0.558000	0.364300
C16761	C1676	0.396880	0.600230	0.284450
C16771	C1677	0.395000	0.534080	0.352690
C16781	C1678	0.350670	0.648120	0.283840
C16791	C1679	0.337830	0.661140	0.305540
C16801	C1680	0.349060	0.683140	0.316130
H5601	H560	0.363700	0.690300	0.308400
Cu1411	Cu141	0.142800	0.107590	0.750300
O12611	O1261	0.026300	0.088850	0.629760
O12621	O1262	0.026550	0.118470	0.660020
O12631	O1263	0.093830	0.121120	0.722450
O12641	O1264	0.122060	0.089500	0.725500
O12651	O1265	0.124990	0.026030	0.656980
O12661	O1266	0.094640	0.026020	0.627260
O12671	O1267	0.158410	0.127090	0.722270
O12681	O1268	0.130510	0.158890	0.725310
O12691	O1269	0.174200	0.081430	0.756120
C16811	C1681	0.035070	0.099000	0.649580
C16821	C1682	0.057900	0.086890	0.661630
C16831	C1683	0.068550	0.097780	0.682980
H5611	H561	0.061000	0.112400	0.690500
C16841	C1684	0.090570	0.087200	0.693480
C16851	C1685	0.102190	0.066370	0.682090
H5621	H562	0.117400	0.059600	0.689100
C16861	C1686	0.091700	0.055430	0.660660
C16871	C1687	0.069190	0.065550	0.650280
H5631	H563	0.061700	0.058000	0.635700
C16881	C1688	0.103120	0.100230	0.715550
C16891	C1689	0.105000	0.034080	0.647310
C16901	C1690	0.149330	0.148120	0.716160
C16911	C1691	0.162170	0.161140	0.694460
C16921	C1692	0.150940	0.183140	0.683870
H5641	H564	0.136300	0.190300	0.691600
Cu1421	Cu142	0.142800	0.607590	0.250300
O12701	O1270	0.026300	0.588850	0.129760
O12711	O1271	0.026550	0.618470	0.160020
O12721	O1272	0.093830	0.621120	0.222450
O12731	O1273	0.122060	0.589500	0.225500
O12741	O1274	0.124990	0.526030	0.156980
O12751	O1275	0.094640	0.526020	0.127260
O12761	O1276	0.158410	0.627090	0.222270
O12771	O1277	0.130510	0.658890	0.225310
O12781	O1278	0.174200	0.581430	0.256120
C16931	C1693	0.035070	0.599000	0.149580
C16941	C1694	0.057900	0.586890	0.161630
C16951	C1695	0.068550	0.597780	0.182980
H5651	H565	0.061000	0.612400	0.190500
C16961	C1696	0.090570	0.587200	0.193480
C16971	C1697	0.102190	0.566370	0.182090
H5661	H566	0.117400	0.559600	0.189100
C16981	C1698	0.091700	0.555430	0.160660
C16991	C1699	0.069190	0.565550	0.150280
H5671	H567	0.061700	0.558000	0.135700
C17001	C1700	0.103120	0.600230	0.215550
C17011	C1701	0.105000	0.534080	0.147310
C17021	C1702	0.149330	0.648120	0.216160
C17031	C1703	0.162170	0.661140	0.194460
C17041	C1704	0.150940	0.683140	0.183870
H5681	H568	0.136300	0.690300	0.191600
Cu1431	Cu143	0.642800	0.107590	0.250300
O12791	O1279	0.526300	0.088850	0.129760
O12801	O1280	0.526550	0.118470	0.160020
O12811	O1281	0.593830	0.121120	0.222450
O12821	O1282	0.622060	0.089500	0.225500
O12831	O1283	0.624990	0.026030	0.156980
O12841	O1284	0.594640	0.026020	0.127260
O12851	O1285	0.658410	0.127090	0.222270
O12861	O1286	0.630510	0.158890	0.225310
O12871	O1287	0.674200	0.081430	0.256120
C17051	C1705	0.535070	0.099000	0.149580
C17061	C1706	0.557900	0.086890	0.161630
C17071	C1707	0.568550	0.097780	0.182980
H5691	H569	0.561000	0.112400	0.190500
C17081	C1708	0.590570	0.087200	0.193480
C17091	C1709	0.602190	0.066370	0.182090
H5701	H570	0.617400	0.059600	0.189100
C17101	C1710	0.591700	0.055430	0.160660
C17111	C1711	0.569190	0.065550	0.150280
H5711	H571	0.561700	0.058000	0.135700
C17121	C1712	0.603120	0.100230	0.215550
C17131	C1713	0.605000	0.034080	0.147310
C17141	C1714	0.649330	0.148120	0.216160
C17151	C1715	0.662170	0.161140	0.194460
C17161	C1716	0.650940	0.183140	0.183870
H5721	H572	0.636300	0.190300	0.191600
Cu1441	Cu144	0.642800	0.607590	0.750300
O12881	O1288	0.526300	0.588850	0.629760
O12891	O1289	0.526550	0.618470	0.660020
O12901	O1290	0.593830	0.621120	0.722450
O12911	O1291	0.622060	0.589500	0.725500
O12921	O1292	0.624990	0.526030	0.656980
O12931	O1293	0.594640	0.526020	0.627260
O12941	O1294	0.658410	0.627090	0.722270
O12951	O1295	0.630510	0.658890	0.725310
O12961	O1296	0.674200	0.581430	0.756120
C17171	C1717	0.535070	0.599000	0.649580
C17181	C1718	0.557900	0.586890	0.661630
C17191	C1719	0.568550	0.597780	0.682980
H5731	H573	0.561000	0.612400	0.690500
C17201	C1720	0.590570	0.587200	0.693480
C17211	C1721	0.602190	0.566370	0.682090
H5741	H574	0.617400	0.559600	0.689100
C17221	C1722	0.591700	0.555430	0.660660
C17231	C1723	0.569190	0.565550	0.650280
H5751	H575	0.561700	0.558000	0.635700
C17241	C1724	0.603120	0.600230	0.715550
C17251	C1725	0.605000	0.534080	0.647310
C17261	C1726	0.649330	0.648120	0.716160
C17271	C1727	0.662170	0.661140	0.694460
C17281	C1728	0.650940	0.683140	0.683870
H5761	H576	0.636300	0.690300	0.691600
Cu1451	Cu145	0.357200	0.250300	0.607590
O12971	O1297	0.473700	0.129760	0.588850
O12981	O1298	0.473450	0.160020	0.618470
O12991	O1299	0.406170	0.222450	0.621120
O13001	O1300	0.377940	0.225500	0.589500
O13011	O1301	0.375010	0.156980	0.526030
O13021	O1302	0.405360	0.127260	0.526020
O13031	O1303	0.341590	0.222270	0.627090
O13041	O1304	0.369490	0.225310	0.658890
O13051	O1305	0.325800	0.256120	0.581430
C17291	C1729	0.464930	0.149580	0.599000
C17301	C1730	0.442100	0.161630	0.586890
C17311	C1731	0.431450	0.182980	0.597780
H5771	H577	0.439000	0.190500	0.612400
C17321	C1732	0.409430	0.193480	0.587200
C17331	C1733	0.397810	0.182090	0.566370
H5781	H578	0.382600	0.189100	0.559600
C17341	C1734	0.408300	0.160660	0.555430
C17351	C1735	0.430810	0.150280	0.565550
H5791	H579	0.438300	0.135700	0.558000
C17361	C1736	0.396880	0.215550	0.600230
C17371	C1737	0.395000	0.147310	0.534080
C17381	C1738	0.350670	0.216160	0.648120
C17391	C1739	0.337830	0.194460	0.661140
C17401	C1740	0.349060	0.183870	0.683140
H5801	H580	0.363700	0.191600	0.690300
Cu1461	Cu146	0.357200	0.750300	0.107590
O13061	O1306	0.473700	0.629760	0.088850
O13071	O1307	0.473450	0.660020	0.118470
O13081	O1308	0.406170	0.722450	0.121120
O13091	O1309	0.377940	0.725500	0.089500
O13101	O1310	0.375010	0.656980	0.026030
O13111	O1311	0.405360	0.627260	0.026020
O13121	O1312	0.341590	0.722270	0.127090
O13131	O1313	0.369490	0.725310	0.158890
O13141	O1314	0.325800	0.756120	0.081430
C17411	C1741	0.464930	0.649580	0.099000
C17421	C1742	0.442100	0.661630	0.086890
C17431	C1743	0.431450	0.682980	0.097780
H5811	H581	0.439000	0.690500	0.112400
C17441	C1744	0.409430	0.693480	0.087200
C17451	C1745	0.397810	0.682090	0.066370
H5821	H582	0.382600	0.689100	0.059600
C17461	C1746	0.408300	0.660660	0.055430
C17471	C1747	0.430810	0.650280	0.065550
H5831	H583	0.438300	0.635700	0.058000
C17481	C1748	0.396880	0.715550	0.100230
C17491	C1749	0.395000	0.647310	0.034080
C17501	C1750	0.350670	0.716160	0.148120
C17511	C1751	0.337830	0.694460	0.161140
C17521	C1752	0.349060	0.683870	0.183140
H5841	H584	0.363700	0.691600	0.190300
Cu1471	Cu147	0.857200	0.250300	0.107590
O13151	O1315	0.973700	0.129760	0.088850
O13161	O1316	0.973450	0.160020	0.118470
O13171	O1317	0.906170	0.222450	0.121120
O13181	O1318	0.877940	0.225500	0.089500
O13191	O1319	0.875010	0.156980	0.026030
O13201	O1320	0.905360	0.127260	0.026020
O13211	O1321	0.841590	0.222270	0.127090
O13221	O1322	0.869490	0.225310	0.158890
O13231	O1323	0.825800	0.256120	0.081430
C17531	C1753	0.964930	0.149580	0.099000
C17541	C1754	0.942100	0.161630	0.086890
C17551	C1755	0.931450	0.182980	0.097780
H5851	H585	0.939000	0.190500	0.112400
C17561	C1756	0.909430	0.193480	0.087200
C17571	C1757	0.897810	0.182090	0.066370
H5861	H586	0.882600	0.189100	0.059600
C17581	C1758	0.908300	0.160660	0.055430
C17591	C1759	0.930810	0.150280	0.065550
H5871	H587	0.938300	0.135700	0.058000
C17601	C1760	0.896880	0.215550	0.100230
C17611	C1761	0.895000	0.147310	0.034080
C17621	C1762	0.850670	0.216160	0.148120
C17631	C1763	0.837830	0.194460	0.161140
C17641	C1764	0.849060	0.183870	0.183140
H5881	H588	0.863700	0.191600	0.190300
Cu1481	Cu148	0.857200	0.750300	0.607590
O13241	O1324	0.973700	0.629760	0.588850
O13251	O1325	0.973450	0.660020	0.618470
O13261	O1326	0.906170	0.722450	0.621120
O13271	O1327	0.877940	0.725500	0.589500
O13281	O1328	0.875010	0.656980	0.526030
O13291	O1329	0.905360	0.627260	0.526020
O13301	O1330	0.841590	0.722270	0.627090
O13311	O1331	0.869490	0.725310	0.658890
O13321	O1332	0.825800	0.756120	0.581430
C17651	C1765	0.964930	0.649580	0.599000
C17661	C1766	0.942100	0.661630	0.586890
C17671	C1767	0.931450	0.682980	0.597780
H5891	H589	0.939000	0.690500	0.612400
C17681	C1768	0.909430	0.693480	0.587200
C17691	C1769	0.897810	0.682090	0.566370
H5901	H590	0.882600	0.689100	0.559600
C17701	C1770	0.908300	0.660660	0.555430
C17711	C1771	0.930810	0.650280	0.565550
H5911	H591	0.938300	0.635700	0.558000
C17721	C1772	0.896880	0.715550	0.600230
C17731	C1773	0.895000	0.647310	0.534080
C17741	C1774	0.850670	0.716160	0.648120
C17751	C1775	0.837830	0.694460	0.661140
C17761	C1776	0.849060	0.683870	0.683140
H5921	H592	0.863700	0.691600	0.690300
Cu1491	Cu149	0.642800	0.749700	0.607590
O13331	O1333	0.526300	0.870240	0.588850
O13341	O1334	0.526550	0.839980	0.618470
O13351	O1335	0.593830	0.777550	0.621120
O13361	O1336	0.622060	0.774500	0.589500
O13371	O1337	0.624990	0.843020	0.526030
O13381	O1338	0.594640	0.872740	0.526020
O13391	O1339	0.658410	0.777730	0.627090
O13401	O1340	0.630510	0.774690	0.658890
O13411	O1341	0.674200	0.743880	0.581430
C17771	C1777	0.535070	0.850420	0.599000
C17781	C1778	0.557900	0.838370	0.586890
C17791	C1779	0.568550	0.817020	0.597780
H5931	H593	0.561000	0.809500	0.612400
C17801	C1780	0.590570	0.806520	0.587200
C17811	C1781	0.602190	0.817910	0.566370
H5941	H594	0.617400	0.810900	0.559600
C17821	C1782	0.591700	0.839340	0.555430
C17831	C1783	0.569190	0.849720	0.565550
H5951	H595	0.561700	0.864300	0.558000
C17841	C1784	0.603120	0.784450	0.600230
C17851	C1785	0.605000	0.852690	0.534080
C17861	C1786	0.649330	0.783840	0.648120
C17871	C1787	0.662170	0.805540	0.661140
C17881	C1788	0.650940	0.816130	0.683140
H5961	H596	0.636300	0.808400	0.690300
Cu1501	Cu150	0.642800	0.249700	0.107590
O13421	O1342	0.526300	0.370240	0.088850
O13431	O1343	0.526550	0.339980	0.118470
O13441	O1344	0.593830	0.277550	0.121120
O13451	O1345	0.622060	0.274500	0.089500
O13461	O1346	0.624990	0.343020	0.026030
O13471	O1347	0.594640	0.372740	0.026020
O13481	O1348	0.658410	0.277730	0.127090
O13491	O1349	0.630510	0.274690	0.158890
O13501	O1350	0.674200	0.243880	0.081430
C17891	C1789	0.535070	0.350420	0.099000
C17901	C1790	0.557900	0.338370	0.086890
C17911	C1791	0.568550	0.317020	0.097780
H5971	H597	0.561000	0.309500	0.112400
C17921	C1792	0.590570	0.306520	0.087200
C17931	C1793	0.602190	0.317910	0.066370
H5981	H598	0.617400	0.310900	0.059600
C17941	C1794	0.591700	0.339340	0.055430
C17951	C1795	0.569190	0.349720	0.065550
H5991	H599	0.561700	0.364300	0.058000
C17961	C1796	0.603120	0.284450	0.100230
C17971	C1797	0.605000	0.352690	0.034080
C17981	C1798	0.649330	0.283840	0.148120
C17991	C1799	0.662170	0.305540	0.161140
C18001	C1800	0.650940	0.316130	0.183140
H6001	H600	0.636300	0.308400	0.190300
Cu1511	Cu151	0.142800	0.749700	0.107590
O13511	O1351	0.026300	0.870240	0.088850
O13521	O1352	0.026550	0.839980	0.118470
O13531	O1353	0.093830	0.777550	0.121120
O13541	O1354	0.122060	0.774500	0.089500
O13551	O1355	0.124990	0.843020	0.026030
O13561	O1356	0.094640	0.872740	0.026020
O13571	O1357	0.158410	0.777730	0.127090
O13581	O1358	0.130510	0.774690	0.158890
O13591	O1359	0.174200	0.743880	0.081430
C18011	C1801	0.035070	0.850420	0.099000
C18021	C1802	0.057900	0.838370	0.086890
C18031	C1803	0.068550	0.817020	0.097780
H6011	H601	0.061000	0.809500	0.112400
C18041	C1804	0.090570	0.806520	0.087200
C18051	C1805	0.102190	0.817910	0.066370
H6021	H602	0.117400	0.810900	0.059600
C18061	C1806	0.091700	0.839340	0.055430
C18071	C1807	0.069190	0.849720	0.065550
H6031	H603	0.061700	0.864300	0.058000
C18081	C1808	0.103120	0.784450	0.100230
C18091	C1809	0.105000	0.852690	0.034080
C18101	C1810	0.149330	0.783840	0.148120
C18111	C1811	0.162170	0.805540	0.161140
C18121	C1812	0.150940	0.816130	0.183140
H6041	H604	0.136300	0.808400	0.190300
Cu1521	Cu152	0.142800	0.249700	0.607590
O13601	O1360	0.026300	0.370240	0.588850
O13611	O1361	0.026550	0.339980	0.618470
O13621	O1362	0.093830	0.277550	0.621120
O13631	O1363	0.122060	0.274500	0.589500
O13641	O1364	0.124990	0.343020	0.526030
O13651	O1365	0.094640	0.372740	0.526020
O13661	O1366	0.158410	0.277730	0.627090
O13671	O1367	0.130510	0.274690	0.658890
O13681	O1368	0.174200	0.243880	0.581430
C18131	C1813	0.035070	0.350420	0.599000
C18141	C1814	0.057900	0.338370	0.586890
C18151	C1815	0.068550	0.317020	0.597780
H6051	H605	0.061000	0.309500	0.612400
C18161	C1816	0.090570	0.306520	0.587200
C18171	C1817	0.102190	0.317910	0.566370
H6061	H606	0.117400	0.310900	0.559600
C18181	C1818	0.091700	0.339340	0.555430
C18191	C1819	0.069190	0.349720	0.565550
H6071	H607	0.061700	0.364300	0.558000
C18201	C1820	0.103120	0.284450	0.600230
C18211	C1821	0.105000	0.352690	0.534080
C18221	C1822	0.149330	0.283840	0.648120
C18231	C1823	0.162170	0.305540	0.661140
C18241	C1824	0.150940	0.316130	0.683140
H6081	H608	0.136300	0.308400	0.690300
Cu1531	Cu153	0.357200	0.749700	0.392410
O13691	O1369	0.473700	0.870240	0.411150
O13701	O1370	0.473450	0.839980	0.381530
O13711	O1371	0.406170	0.777550	0.378880
O13721	O1372	0.377940	0.774500	0.410500
O13731	O1373	0.375010	0.843020	0.473970
O13741	O1374	0.405360	0.872740	0.473980
O13751	O1375	0.341590	0.777730	0.372910
O13761	O1376	0.369490	0.774690	0.341110
O13771	O1377	0.325800	0.743880	0.418570
C18251	C1825	0.464930	0.850420	0.401000
C18261	C1826	0.442100	0.838370	0.413110
C18271	C1827	0.431450	0.817020	0.402220
H6091	H609	0.439000	0.809500	0.387600
C18281	C1828	0.409430	0.806520	0.412800
C18291	C1829	0.397810	0.817910	0.433630
H6101	H610	0.382600	0.810900	0.440400
C18301	C1830	0.408300	0.839340	0.444570
C18311	C1831	0.430810	0.849720	0.434450
H6111	H611	0.438300	0.864300	0.442000
C18321	C1832	0.396880	0.784450	0.399770
C18331	C1833	0.395000	0.852690	0.465920
C18341	C1834	0.350670	0.783840	0.351880
C18351	C1835	0.337830	0.805540	0.338860
C18361	C1836	0.349060	0.816130	0.316860
H6121	H612	0.363700	0.808400	0.309700
Cu1541	Cu154	0.357200	0.249700	0.892410
O13781	O1378	0.473700	0.370240	0.911150
O13791	O1379	0.473450	0.339980	0.881530
O13801	O1380	0.406170	0.277550	0.878880
O13811	O1381	0.377940	0.274500	0.910500
O13821	O1382	0.375010	0.343020	0.973970
O13831	O1383	0.405360	0.372740	0.973980
O13841	O1384	0.341590	0.277730	0.872910
O13851	O1385	0.369490	0.274690	0.841110
O13861	O1386	0.325800	0.243880	0.918570
C18371	C1837	0.464930	0.350420	0.901000
C18381	C1838	0.442100	0.338370	0.913110
C18391	C1839	0.431450	0.317020	0.902220
H6131	H613	0.439000	0.309500	0.887600
C18401	C1840	0.409430	0.306520	0.912800
C18411	C1841	0.397810	0.317910	0.933630
H6141	H614	0.382600	0.310900	0.940400
C18421	C1842	0.408300	0.339340	0.944570
C18431	C1843	0.430810	0.349720	0.934450
H6151	H615	0.438300	0.364300	0.942000
C18441	C1844	0.396880	0.284450	0.899770
C18451	C1845	0.395000	0.352690	0.965920
C18461	C1846	0.350670	0.283840	0.851880
C18471	C1847	0.337830	0.305540	0.838860
C18481	C1848	0.349060	0.316130	0.816860
H6161	H616	0.363700	0.308400	0.809700
Cu1551	Cu155	0.857200	0.749700	0.892410
O13871	O1387	0.973700	0.870240	0.911150
O13881	O1388	0.973450	0.839980	0.881530
O13891	O1389	0.906170	0.777550	0.878880
O13901	O1390	0.877940	0.774500	0.910500
O13911	O1391	0.875010	0.843020	0.973970
O13921	O1392	0.905360	0.872740	0.973980
O13931	O1393	0.841590	0.777730	0.872910
O13941	O1394	0.869490	0.774690	0.841110
O13951	O1395	0.825800	0.743880	0.918570
C18491	C1849	0.964930	0.850420	0.901000
C18501	C1850	0.942100	0.838370	0.913110
C18511	C1851	0.931450	0.817020	0.902220
H6171	H617	0.939000	0.809500	0.887600
C18521	C1852	0.909430	0.806520	0.912800
C18531	C1853	0.897810	0.817910	0.933630
H6181	H618	0.882600	0.810900	0.940400
C18541	C1854	0.908300	0.839340	0.944570
C18551	C1855	0.930810	0.849720	0.934450
H6191	H619	0.938300	0.864300	0.942000
C18561	C1856	0.896880	0.784450	0.899770
C18571	C1857	0.895000	0.852690	0.965920
C18581	C1858	0.850670	0.783840	0.851880
C18591	C1859	0.837830	0.805540	0.838860
C18601	C1860	0.849060	0.816130	0.816860
H6201	H620	0.863700	0.808400	0.809700
Cu1561	Cu156	0.857200	0.249700	0.392410
O13961	O1396	0.973700	0.370240	0.411150
O13971	O1397	0.973450	0.339980	0.381530
O13981	O1398	0.906170	0.277550	0.378880
O13991	O1399	0.877940	0.274500	0.410500
O14001	O1400	0.875010	0.343020	0.473970
O14011	O1401	0.905360	0.372740	0.473980
O14021	O1402	0.841590	0.277730	0.372910
O14031	O1403	0.869490	0.274690	0.341110
O14041	O1404	0.825800	0.243880	0.418570
C18611	C1861	0.964930	0.350420	0.401000
C18621	C1862	0.942100	0.338370	0.413110
C18631	C1863	0.931450	0.317020	0.402220
H6211	H621	0.939000	0.309500	0.387600
C18641	C1864	0.909430	0.306520	0.412800
C18651	C1865	0.897810	0.317910	0.433630
H6221	H622	0.882600	0.310900	0.440400
C18661	C1866	0.908300	0.339340	0.444570
C18671	C1867	0.930810	0.349720	0.434450
H6231	H623	0.938300	0.364300	0.442000
C18681	C1868	0.896880	0.284450	0.399770
C18691	C1869	0.895000	0.352690	0.465920
C18701	C1870	0.850670	0.283840	0.351880
C18711	C1871	0.837830	0.305540	0.338860
C18721	C1872	0.849060	0.316130	0.316860
H6241	H624	0.863700	0.308400	0.309700
Cu1571	Cu157	0.642800	0.250300	0.392410
O14051	O1405	0.526300	0.129760	0.411150
O14061	O1406	0.526550	0.160020	0.381530
O14071	O1407	0.593830	0.222450	0.378880
O14081	O1408	0.622060	0.225500	0.410500
O14091	O1409	0.624990	0.156980	0.473970
O14101	O1410	0.594640	0.127260	0.473980
O14111	O1411	0.658410	0.222270	0.372910
O14121	O1412	0.630510	0.225310	0.341110
O14131	O1413	0.674200	0.256120	0.418570
C18731	C1873	0.535070	0.149580	0.401000
C18741	C1874	0.557900	0.161630	0.413110
C18751	C1875	0.568550	0.182980	0.402220
H6251	H625	0.561000	0.190500	0.387600
C18761	C1876	0.590570	0.193480	0.412800
C18771	C1877	0.602190	0.182090	0.433630
H6261	H626	0.617400	0.189100	0.440400
C18781	C1878	0.591700	0.160660	0.444570
C18791	C1879	0.569190	0.150280	0.434450
H6271	H627	0.561700	0.135700	0.442000
C18801	C1880	0.603120	0.215550	0.399770
C18811	C1881	0.605000	0.147310	0.465920
C18821	C1882	0.649330	0.216160	0.351880
C18831	C1883	0.662170	0.194460	0.338860
C18841	C1884	0.650940	0.183870	0.316860
H6281	H628	0.636300	0.191600	0.309700
Cu1581	Cu158	0.642800	0.750300	0.892410
O14141	O1414	0.526300	0.629760	0.911150
O14151	O1415	0.526550	0.660020	0.881530
O14161	O1416	0.593830	0.722450	0.878880
O14171	O1417	0.622060	0.725500	0.910500
O14181	O1418	0.624990	0.656980	0.973970
O14191	O1419	0.594640	0.627260	0.973980
O14201	O1420	0.658410	0.722270	0.872910
O14211	O1421	0.630510	0.725310	0.841110
O14221	O1422	0.674200	0.756120	0.918570
C18851	C1885	0.535070	0.649580	0.901000
C18861	C1886	0.557900	0.661630	0.913110
C18871	C1887	0.568550	0.682980	0.902220
H6291	H629	0.561000	0.690500	0.887600
C18881	C1888	0.590570	0.693480	0.912800
C18891	C1889	0.602190	0.682090	0.933630
H6301	H630	0.617400	0.689100	0.940400
C18901	C1890	0.591700	0.660660	0.944570
C18911	C1891	0.569190	0.650280	0.934450
H6311	H631	0.561700	0.635700	0.942000
C18921	C1892	0.603120	0.715550	0.899770
C18931	C1893	0.605000	0.647310	0.965920
C18941	C1894	0.649330	0.716160	0.851880
C18951	C1895	0.662170	0.694460	0.838860
C18961	C1896	0.650940	0.683870	0.816860
H6321	H632	0.636300	0.691600	0.809700
Cu1591	Cu159	0.142800	0.250300	0.892410
O14231	O1423	0.026300	0.129760	0.911150
O14241	O1424	0.026550	0.160020	0.881530
O14251	O1425	0.093830	0.222450	0.878880
O14261	O1426	0.122060	0.225500	0.910500
O14271	O1427	0.124990	0.156980	0.973970
O14281	O1428	0.094640	0.127260	0.973980
O14291	O1429	0.158410	0.222270	0.872910
O14301	O1430	0.130510	0.225310	0.841110
O14311	O1431	0.174200	0.256120	0.918570
C18971	C1897	0.035070	0.149580	0.901000
C18981	C1898	0.057900	0.161630	0.913110
C18991	C1899	0.068550	0.182980	0.902220
H6331	H633	0.061000	0.190500	0.887600
C19001	C1900	0.090570	0.193480	0.912800
C19011	C1901	0.102190	0.182090	0.933630
H6341	H634	0.117400	0.189100	0.940400
C19021	C1902	0.091700	0.160660	0.944570
C19031	C1903	0.069190	0.150280	0.934450
H6351	H635	0.061700	0.135700	0.942000
C19041	C1904	0.103120	0.215550	0.899770
C19051	C1905	0.105000	0.147310	0.965920
C19061	C1906	0.149330	0.216160	0.851880
C19071	C1907	0.162170	0.194460	0.838860
C19081	C1908	0.150940	0.183870	0.816860
H6361	H636	0.136300	0.191600	0.809700
Cu1601	Cu160	0.142800	0.750300	0.392410
O14321	O1432	0.026300	0.629760	0.411150
O14331	O1433	0.026550	0.660020	0.381530
O14341	O1434	0.093830	0.722450	0.378880
O14351	O1435	0.122060	0.725500	0.410500
O14361	O1436	0.124990	0.656980	0.473970
O14371	O1437	0.094640	0.627260	0.473980
O14381	O1438	0.158410	0.722270	0.372910
O14391	O1439	0.130510	0.725310	0.341110
O14401	O1440	0.174200	0.756120	0.418570
C19091	C1909	0.035070	0.649580	0.401000
C19101	C1910	0.057900	0.661630	0.413110
C19111	C1911	0.068550	0.682980	0.402220
H6371	H637	0.061000	0.690500	0.387600
C19121	C1912	0.090570	0.693480	0.412800
C19131	C1913	0.102190	0.682090	0.433630
H6381	H638	0.117400	0.689100	0.440400
C19141	C1914	0.091700	0.660660	0.444570
C19151	C1915	0.069190	0.650280	0.434450
H6391	H639	0.061700	0.635700	0.442000
C19161	C1916	0.103120	0.715550	0.399770
C19171	C1917	0.105000	0.647310	0.465920
C19181	C1918	0.149330	0.716160	0.351880
C19191	C1919	0.162170	0.694460	0.338860
C19201	C1920	0.150940	0.683870	0.316860
H6401	H640	0.136300	0.691600	0.309700
Cu1611	Cu161	0.250300	0.392410	0.642800
O14411	O1441	0.129760	0.411150	0.526300
O14421	O1442	0.160020	0.381530	0.526550
O14431	O1443	0.222450	0.378880	0.593830
O14441	O1444	0.225500	0.410500	0.622060
O14451	O1445	0.156980	0.473970	0.624990
O14461	O1446	0.127260	0.473980	0.594640
O14471	O1447	0.222270	0.372910	0.658410
O14481	O1448	0.225310	0.341110	0.630510
O14491	O1449	0.256120	0.418570	0.674200
C19211	C1921	0.149580	0.401000	0.535070
C19221	C1922	0.161630	0.413110	0.557900
C19231	C1923	0.182980	0.402220	0.568550
H6411	H641	0.190500	0.387600	0.561000
C19241	C1924	0.193480	0.412800	0.590570
C19251	C1925	0.182090	0.433630	0.602190
H6421	H642	0.189100	0.440400	0.617400
C19261	C1926	0.160660	0.444570	0.591700
C19271	C1927	0.150280	0.434450	0.569190
H6431	H643	0.135700	0.442000	0.561700
C19281	C1928	0.215550	0.399770	0.603120
C19291	C1929	0.147310	0.465920	0.605000
C19301	C1930	0.216160	0.351880	0.649330
C19311	C1931	0.194460	0.338860	0.662170
C19321	C1932	0.183870	0.316860	0.650940
H6441	H644	0.191600	0.309700	0.636300
Cu1621	Cu162	0.250300	0.892410	0.142800
O14501	O1450	0.129760	0.911150	0.026300
O14511	O1451	0.160020	0.881530	0.026550
O14521	O1452	0.222450	0.878880	0.093830
O14531	O1453	0.225500	0.910500	0.122060
O14541	O1454	0.156980	0.973970	0.124990
O14551	O1455	0.127260	0.973980	0.094640
O14561	O1456	0.222270	0.872910	0.158410
O14571	O1457	0.225310	0.841110	0.130510
O14581	O1458	0.256120	0.918570	0.174200
C19331	C1933	0.149580	0.901000	0.035070
C19341	C1934	0.161630	0.913110	0.057900
C19351	C1935	0.182980	0.902220	0.068550
H6451	H645	0.190500	0.887600	0.061000
C19361	C1936	0.193480	0.912800	0.090570
C19371	C1937	0.182090	0.933630	0.102190
H6461	H646	0.189100	0.940400	0.117400
C19381	C1938	0.160660	0.944570	0.091700
C19391	C1939	0.150280	0.934450	0.069190
H6471	H647	0.135700	0.942000	0.061700
C19401	C1940	0.215550	0.899770	0.103120
C19411	C1941	0.147310	0.965920	0.105000
C19421	C1942	0.216160	0.851880	0.149330
C19431	C1943	0.194460	0.838860	0.162170
C19441	C1944	0.183870	0.816860	0.150940
H6481	H648	0.191600	0.809700	0.136300
Cu1631	Cu163	0.750300	0.392410	0.142800
O14591	O1459	0.629760	0.411150	0.026300
O14601	O1460	0.660020	0.381530	0.026550
O14611	O1461	0.722450	0.378880	0.093830
O14621	O1462	0.725500	0.410500	0.122060
O14631	O1463	0.656980	0.473970	0.124990
O14641	O1464	0.627260	0.473980	0.094640
O14651	O1465	0.722270	0.372910	0.158410
O14661	O1466	0.725310	0.341110	0.130510
O14671	O1467	0.756120	0.418570	0.174200
C19451	C1945	0.649580	0.401000	0.035070
C19461	C1946	0.661630	0.413110	0.057900
C19471	C1947	0.682980	0.402220	0.068550
H6491	H649	0.690500	0.387600	0.061000
C19481	C1948	0.693480	0.412800	0.090570
C19491	C1949	0.682090	0.433630	0.102190
H6501	H650	0.689100	0.440400	0.117400
C19501	C1950	0.660660	0.444570	0.091700
C19511	C1951	0.650280	0.434450	0.069190
H6511	H651	0.635700	0.442000	0.061700
C19521	C1952	0.715550	0.399770	0.103120
C19531	C1953	0.647310	0.465920	0.105000
C19541	C1954	0.716160	0.351880	0.149330
C19551	C1955	0.694460	0.338860	0.162170
C19561	C1956	0.683870	0.316860	0.150940
H6521	H652	0.691600	0.309700	0.136300
Cu1641	Cu164	0.750300	0.892410	0.642800
O14681	O1468	0.629760	0.911150	0.526300
O14691	O1469	0.660020	0.881530	0.526550
O14701	O1470	0.722450	0.878880	0.593830
O14711	O1471	0.725500	0.910500	0.622060
O14721	O1472	0.656980	0.973970	0.624990
O14731	O1473	0.627260	0.973980	0.594640
O14741	O1474	0.722270	0.872910	0.658410
O14751	O1475	0.725310	0.841110	0.630510
O14761	O1476	0.756120	0.918570	0.674200
C19571	C1957	0.649580	0.901000	0.535070
C19581	C1958	0.661630	0.913110	0.557900
C19591	C1959	0.682980	0.902220	0.568550
H6531	H653	0.690500	0.887600	0.561000
C19601	C1960	0.693480	0.912800	0.590570
C19611	C1961	0.682090	0.933630	0.602190
H6541	H654	0.689100	0.940400	0.617400
C19621	C1962	0.660660	0.944570	0.591700
C19631	C1963	0.650280	0.934450	0.569190
H6551	H655	0.635700	0.942000	0.561700
C19641	C1964	0.715550	0.899770	0.603120
C19651	C1965	0.647310	0.965920	0.605000
C19661	C1966	0.716160	0.851880	0.649330
C19671	C1967	0.694460	0.838860	0.662170
C19681	C1968	0.683870	0.816860	0.650940
H6561	H656	0.691600	0.809700	0.636300
Cu1651	Cu165	0.749700	0.392410	0.357200
O14771	O1477	0.870240	0.411150	0.473700
O14781	O1478	0.839980	0.381530	0.473450
O14791	O1479	0.777550	0.378880	0.406170
O14801	O1480	0.774500	0.410500	0.377940
O14811	O1481	0.843020	0.473970	0.375010
O14821	O1482	0.872740	0.473980	0.405360
O14831	O1483	0.777730	0.372910	0.341590
O14841	O1484	0.774690	0.341110	0.369490
O14851	O1485	0.743880	0.418570	0.325800
C19691	C1969	0.850420	0.401000	0.464930
C19701	C1970	0.838370	0.413110	0.442100
C19711	C1971	0.817020	0.402220	0.431450
H6571	H657	0.809500	0.387600	0.439000
C19721	C1972	0.806520	0.412800	0.409430
C19731	C1973	0.817910	0.433630	0.397810
H6581	H658	0.810900	0.440400	0.382600
C19741	C1974	0.839340	0.444570	0.408300
C19751	C1975	0.849720	0.434450	0.430810
H6591	H659	0.864300	0.442000	0.438300
C19761	C1976	0.784450	0.399770	0.396880
C19771	C1977	0.852690	0.465920	0.395000
C19781	C1978	0.783840	0.351880	0.350670
C19791	C1979	0.805540	0.338860	0.337830
C19801	C1980	0.816130	0.316860	0.349060
H6601	H660	0.808400	0.309700	0.363700
Cu1661	Cu166	0.749700	0.892410	0.857200
O14861	O1486	0.870240	0.911150	0.973700
O14871	O1487	0.839980	0.881530	0.973450
O14881	O1488	0.777550	0.878880	0.906170
O14891	O1489	0.774500	0.910500	0.877940
O14901	O1490	0.843020	0.973970	0.875010
O14911	O1491	0.872740	0.973980	0.905360
O14921	O1492	0.777730	0.872910	0.841590
O14931	O1493	0.774690	0.841110	0.869490
O14941	O1494	0.743880	0.918570	0.825800
C19811	C1981	0.850420	0.901000	0.964930
C19821	C1982	0.838370	0.913110	0.942100
C19831	C1983	0.817020	0.902220	0.931450
H6611	H661	0.809500	0.887600	0.939000
C19841	C1984	0.806520	0.912800	0.909430
C19851	C1985	0.817910	0.933630	0.897810
H6621	H662	0.810900	0.940400	0.882600
C19861	C1986	0.839340	0.944570	0.908300
C19871	C1987	0.849720	0.934450	0.930810
H6631	H663	0.864300	0.942000	0.938300
C19881	C1988	0.784450	0.899770	0.896880
C19891	C1989	0.852690	0.965920	0.895000
C19901	C1990	0.783840	0.851880	0.850670
C19911	C1991	0.805540	0.838860	0.837830
C19921	C1992	0.816130	0.816860	0.849060
H6641	H664	0.808400	0.809700	0.863700
Cu1671	Cu167	0.249700	0.392410	0.857200
O14951	O1495	0.370240	0.411150	0.973700
O14961	O1496	0.339980	0.381530	0.973450
O14971	O1497	0.277550	0.378880	0.906170
O14981	O1498	0.274500	0.410500	0.877940
O14991	O1499	0.343020	0.473970	0.875010
O15001	O1500	0.372740	0.473980	0.905360
O15011	O1501	0.277730	0.372910	0.841590
O15021	O1502	0.274690	0.341110	0.869490
O15031	O1503	0.243880	0.418570	0.825800
C19931	C1993	0.350420	0.401000	0.964930
C19941	C1994	0.338370	0.413110	0.942100
C19951	C1995	0.317020	0.402220	0.931450
H6651	H665	0.309500	0.387600	0.939000
C19961	C1996	0.306520	0.412800	0.909430
C19971	C1997	0.317910	0.433630	0.897810
H6661	H666	0.310900	0.440400	0.882600
C19981	C1998	0.339340	0.444570	0.908300
C19991	C1999	0.349720	0.434450	0.930810
H6671	H667	0.364300	0.442000	0.938300
C20001	C2000	0.284450	0.399770	0.896880
C20011	C2001	0.352690	0.465920	0.895000
C20021	C2002	0.283840	0.351880	0.850670
C20031	C2003	0.305540	0.338860	0.837830
C20041	C2004	0.316130	0.316860	0.849060
H6681	H668	0.308400	0.309700	0.863700
Cu1681	Cu168	0.249700	0.892410	0.357200
O15041	O1504	0.370240	0.911150	0.473700
O15051	O1505	0.339980	0.881530	0.473450
O15061	O1506	0.277550	0.878880	0.406170
O15071	O1507	0.274500	0.910500	0.377940
O15081	O1508	0.343020	0.973970	0.375010
O15091	O1509	0.372740	0.973980	0.405360
O15101	O1510	0.277730	0.872910	0.341590
O15111	O1511	0.274690	0.841110	0.369490
O15121	O1512	0.243880	0.918570	0.325800
C20051	C2005	0.350420	0.901000	0.464930
C20061	C2006	0.338370	0.913110	0.442100
C20071	C2007	0.317020	0.902220	0.431450
H6691	H669	0.309500	0.887600	0.439000
C20081	C2008	0.306520	0.912800	0.409430
C20091	C2009	0.317910	0.933630	0.397810
H6701	H670	0.310900	0.940400	0.382600
C20101	C2010	0.339340	0.944570	0.408300
C20111	C2011	0.349720	0.934450	0.430810
H6711	H671	0.364300	0.942000	0.438300
C20121	C2012	0.284450	0.899770	0.396880
C20131	C2013	0.352690	0.965920	0.395000
C20141	C2014	0.283840	0.851880	0.350670
C20151	C2015	0.305540	0.838860	0.337830
C20161	C2016	0.316130	0.816860	0.349060
H6721	H672	0.308400	0.809700	0.363700
Cu1691	Cu169	0.749700	0.607590	0.642800
O15131	O1513	0.870240	0.588850	0.526300
O15141	O1514	0.839980	0.618470	0.526550
O15151	O1515	0.777550	0.621120	0.593830
O15161	O1516	0.774500	0.589500	0.622060
O15171	O1517	0.843020	0.526030	0.624990
O15181	O1518	0.872740	0.526020	0.594640
O15191	O1519	0.777730	0.627090	0.658410
O15201	O1520	0.774690	0.658890	0.630510
O15211	O1521	0.743880	0.581430	0.674200
C20171	C2017	0.850420	0.599000	0.535070
C20181	C2018	0.838370	0.586890	0.557900
C20191	C2019	0.817020	0.597780	0.568550
H6731	H673	0.809500	0.612400	0.561000
C20201	C2020	0.806520	0.587200	0.590570
C20211	C2021	0.817910	0.566370	0.602190
H6741	H674	0.810900	0.559600	0.617400
C20221	C2022	0.839340	0.555430	0.591700
C20231	C2023	0.849720	0.565550	0.569190
H6751	H675	0.864300	0.558000	0.561700
C20241	C2024	0.784450	0.600230	0.603120
C20251	C2025	0.852690	0.534080	0.605000
C20261	C2026	0.783840	0.648120	0.649330
C20271	C2027	0.805540	0.661140	0.662170
C20281	C2028	0.816130	0.683140	0.650940
H6761	H676	0.808400	0.690300	0.636300
Cu1701	Cu170	0.749700	0.107590	0.142800
O15221	O1522	0.870240	0.088850	0.026300
O15231	O1523	0.839980	0.118470	0.026550
O15241	O1524	0.777550	0.121120	0.093830
O15251	O1525	0.774500	0.089500	0.122060
O15261	O1526	0.843020	0.026030	0.124990
O15271	O1527	0.872740	0.026020	0.094640
O15281	O1528	0.777730	0.127090	0.158410
O15291	O1529	0.774690	0.158890	0.130510
O15301	O1530	0.743880	0.081430	0.174200
C20291	C2029	0.850420	0.099000	0.035070
C20301	C2030	0.838370	0.086890	0.057900
C20311	C2031	0.817020	0.097780	0.068550
H6771	H677	0.809500	0.112400	0.061000
C20321	C2032	0.806520	0.087200	0.090570
C20331	C2033	0.817910	0.066370	0.102190
H6781	H678	0.810900	0.059600	0.117400
C20341	C2034	0.839340	0.055430	0.091700
C20351	C2035	0.849720	0.065550	0.069190
H6791	H679	0.864300	0.058000	0.061700
C20361	C2036	0.784450	0.100230	0.103120
C20371	C2037	0.852690	0.034080	0.105000
C20381	C2038	0.783840	0.148120	0.149330
C20391	C2039	0.805540	0.161140	0.162170
C20401	C2040	0.816130	0.183140	0.150940
H6801	H680	0.808400	0.190300	0.136300
Cu1711	Cu171	0.249700	0.607590	0.142800
O15311	O1531	0.370240	0.588850	0.026300
O15321	O1532	0.339980	0.618470	0.026550
O15331	O1533	0.277550	0.621120	0.093830
O15341	O1534	0.274500	0.589500	0.122060
O15351	O1535	0.343020	0.526030	0.124990
O15361	O1536	0.372740	0.526020	0.094640
O15371	O1537	0.277730	0.627090	0.158410
O15381	O1538	0.274690	0.658890	0.130510
O15391	O1539	0.243880	0.581430	0.174200
C20411	C2041	0.350420	0.599000	0.035070
C20421	C2042	0.338370	0.586890	0.057900
C20431	C2043	0.317020	0.597780	0.068550
H6811	H681	0.309500	0.612400	0.061000
C20441	C2044	0.306520	0.587200	0.090570
C20451	C2045	0.317910	0.566370	0.102190
H6821	H682	0.310900	0.559600	0.117400
C20461	C2046	0.339340	0.555430	0.091700
C20471	C2047	0.349720	0.565550	0.069190
H6831	H683	0.364300	0.558000	0.061700
C20481	C2048	0.284450	0.600230	0.103120
C20491	C2049	0.352690	0.534080	0.105000
C20501	C2050	0.283840	0.648120	0.149330
C20511	C2051	0.305540	0.661140	0.162170
C20521	C2052	0.316130	0.683140	0.150940
H6841	H684	0.308400	0.690300	0.136300
Cu1721	Cu172	0.249700	0.107590	0.642800
O15401	O1540	0.370240	0.088850	0.526300
O15411	O1541	0.339980	0.118470	0.526550
O15421	O1542	0.277550	0.121120	0.593830
O15431	O1543	0.274500	0.089500	0.622060
O15441	O1544	0.343020	0.026030	0.624990
O15451	O1545	0.372740	0.026020	0.594640
O15461	O1546	0.277730	0.127090	0.658410
O15471	O1547	0.274690	0.158890	0.630510
O15481	O1548	0.243880	0.081430	0.674200
C20531	C2053	0.350420	0.099000	0.535070
C20541	C2054	0.338370	0.086890	0.557900
C20551	C2055	0.317020	0.097780	0.568550
H6851	H685	0.309500	0.112400	0.561000
C20561	C2056	0.306520	0.087200	0.590570
C20571	C2057	0.317910	0.066370	0.602190
H6861	H686	0.310900	0.059600	0.617400
C20581	C2058	0.339340	0.055430	0.591700
C20591	C2059	0.349720	0.065550	0.569190
H6871	H687	0.364300	0.058000	0.561700
C20601	C2060	0.284450	0.100230	0.603120
C20611	C2061	0.352690	0.034080	0.605000
C20621	C2062	0.283840	0.148120	0.649330
C20631	C2063	0.305540	0.161140	0.662170
C20641	C2064	0.316130	0.183140	0.650940
H6881	H688	0.308400	0.190300	0.636300
Cu1731	Cu173	0.250300	0.607590	0.357200
O15491	O1549	0.129760	0.588850	0.473700
O15501	O1550	0.160020	0.618470	0.473450
O15511	O1551	0.222450	0.621120	0.406170
O15521	O1552	0.225500	0.589500	0.377940
O15531	O1553	0.156980	0.526030	0.375010
O15541	O1554	0.127260	0.526020	0.405360
O15551	O1555	0.222270	0.627090	0.341590
O15561	O1556	0.225310	0.658890	0.369490
O15571	O1557	0.256120	0.581430	0.325800
C20651	C2065	0.149580	0.599000	0.464930
C20661	C2066	0.161630	0.586890	0.442100
C20671	C2067	0.182980	0.597780	0.431450
H6891	H689	0.190500	0.612400	0.439000
C20681	C2068	0.193480	0.587200	0.409430
C20691	C2069	0.182090	0.566370	0.397810
H6901	H690	0.189100	0.559600	0.382600
C20701	C2070	0.160660	0.555430	0.408300
C20711	C2071	0.150280	0.565550	0.430810
H6911	H691	0.135700	0.558000	0.438300
C20721	C2072	0.215550	0.600230	0.396880
C20731	C2073	0.147310	0.534080	0.395000
C20741	C2074	0.216160	0.648120	0.350670
C20751	C2075	0.194460	0.661140	0.337830
C20761	C2076	0.183870	0.683140	0.349060
H6921	H692	0.191600	0.690300	0.363700
Cu1741	Cu174	0.250300	0.107590	0.857200
O15581	O1558	0.129760	0.088850	0.973700
O15591	O1559	0.160020	0.118470	0.973450
O15601	O1560	0.222450	0.121120	0.906170
O15611	O1561	0.225500	0.089500	0.877940
O15621	O1562	0.156980	0.026030	0.875010
O15631	O1563	0.127260	0.026020	0.905360
O15641	O1564	0.222270	0.127090	0.841590
O15651	O1565	0.225310	0.158890	0.869490
O15661	O1566	0.256120	0.081430	0.825800
C20771	C2077	0.149580	0.099000	0.964930
C20781	C2078	0.161630	0.086890	0.942100
C20791	C2079	0.182980	0.097780	0.931450
H6931	H693	0.190500	0.112400	0.939000
C20801	C2080	0.193480	0.087200	0.909430
C20811	C2081	0.182090	0.066370	0.897810
H6941	H694	0.189100	0.059600	0.882600
C20821	C2082	0.160660	0.055430	0.908300
C20831	C2083	0.150280	0.065550	0.930810
H6951	H695	0.135700	0.058000	0.938300
C20841	C2084	0.215550	0.100230	0.896880
C20851	C2085	0.147310	0.034080	0.895000
C20861	C2086	0.216160	0.148120	0.850670
C20871	C2087	0.194460	0.161140	0.837830
C20881	C2088	0.183870	0.183140	0.849060
H6961	H696	0.191600	0.190300	0.863700
Cu1751	Cu175	0.750300	0.607590	0.857200
O15671	O1567	0.629760	0.588850	0.973700
O15681	O1568	0.660020	0.618470	0.973450
O15691	O1569	0.722450	0.621120	0.906170
O15701	O1570	0.725500	0.589500	0.877940
O15711	O1571	0.656980	0.526030	0.875010
O15721	O1572	0.627260	0.526020	0.905360
O15731	O1573	0.722270	0.627090	0.841590
O15741	O1574	0.725310	0.658890	0.869490
O15751	O1575	0.756120	0.581430	0.825800
C20891	C2089	0.649580	0.599000	0.964930
C20901	C2090	0.661630	0.586890	0.942100
C20911	C2091	0.682980	0.597780	0.931450
H6971	H697	0.690500	0.612400	0.939000
C20921	C2092	0.693480	0.587200	0.909430
C20931	C2093	0.682090	0.566370	0.897810
H6981	H698	0.689100	0.559600	0.882600
C20941	C2094	0.660660	0.555430	0.908300
C20951	C2095	0.650280	0.565550	0.930810
H6991	H699	0.635700	0.558000	0.938300
C20961	C2096	0.715550	0.600230	0.896880
C20971	C2097	0.647310	0.534080	0.895000
C20981	C2098	0.716160	0.648120	0.850670
C20991	C2099	0.694460	0.661140	0.837830
C21001	C2100	0.683870	0.683140	0.849060
H7001	H700	0.691600	0.690300	0.863700
Cu1761	Cu176	0.750300	0.107590	0.357200
O15761	O1576	0.629760	0.088850	0.473700
O15771	O1577	0.660020	0.118470	0.473450
O15781	O1578	0.722450	0.121120	0.406170
O15791	O1579	0.725500	0.089500	0.377940
O15801	O1580	0.656980	0.026030	0.375010
O15811	O1581	0.627260	0.026020	0.405360
O15821	O1582	0.722270	0.127090	0.341590
O15831	O1583	0.725310	0.158890	0.369490
O15841	O1584	0.756120	0.081430	0.325800
C21011	C2101	0.649580	0.099000	0.464930
C21021	C2102	0.661630	0.086890	0.442100
C21031	C2103	0.682980	0.097780	0.431450
H7011	H701	0.690500	0.112400	0.439000
C21041	C2104	0.693480	0.087200	0.409430
C21051	C2105	0.682090	0.066370	0.397810
H7021	H702	0.689100	0.059600	0.382600
C21061	C2106	0.660660	0.055430	0.408300
C21071	C2107	0.650280	0.065550	0.430810
H7031	H703	0.635700	0.058000	0.438300
C21081	C2108	0.715550	0.100230	0.396880
C21091	C2109	0.647310	0.034080	0.395000
C21101	C2110	0.716160	0.148120	0.350670
C21111	C2111	0.694460	0.161140	0.337830
C21121	C2112	0.683870	0.183140	0.349060
H7041	H704	0.691600	0.190300	0.363700
Cu1771	Cu177	0.392410	0.357200	0.749700
O15851	O1585	0.411150	0.473700	0.870240
O15861	O1586	0.381530	0.473450	0.839980
O15871	O1587	0.378880	0.406170	0.777550
O15881	O1588	0.410500	0.377940	0.774500
O15891	O1589	0.473970	0.375010	0.843020
O15901	O1590	0.473980	0.405360	0.872740
O15911	O1591	0.372910	0.341590	0.777730
O15921	O1592	0.341110	0.369490	0.774690
O15931	O1593	0.418570	0.325800	0.743880
C21131	C2113	0.401000	0.464930	0.850420
C21141	C2114	0.413110	0.442100	0.838370
C21151	C2115	0.402220	0.431450	0.817020
H7051	H705	0.387600	0.439000	0.809500
C21161	C2116	0.412800	0.409430	0.806520
C21171	C2117	0.433630	0.397810	0.817910
H7061	H706	0.440400	0.382600	0.810900
C21181	C2118	0.444570	0.408300	0.839340
C21191	C2119	0.434450	0.430810	0.849720
H7071	H707	0.442000	0.438300	0.864300
C21201	C2120	0.399770	0.396880	0.784450
C21211	C2121	0.465920	0.395000	0.852690
C21221	C2122	0.351880	0.350670	0.783840
C21231	C2123	0.338860	0.337830	0.805540
C21241	C2124	0.316860	0.349060	0.816130
H7081	H708	0.309700	0.363700	0.808400
Cu1781	Cu178	0.392410	0.857200	0.249700
O15941	O1594	0.411150	0.973700	0.370240
O15951	O1595	0.381530	0.973450	0.339980
O15961	O1596	0.378880	0.906170	0.277550
O15971	O1597	0.410500	0.877940	0.274500
O15981	O1598	0.473970	0.875010	0.343020
O15991	O1599	0.473980	0.905360	0.372740
O16001	O1600	0.372910	0.841590	0.277730
O16011	O1601	0.341110	0.869490	0.274690
O16021	O1602	0.418570	0.825800	0.243880
C21251	C2125	0.401000	0.964930	0.350420
C21261	C2126	0.413110	0.942100	0.338370
C21271	C2127	0.402220	0.931450	0.317020
H7091	H709	0.387600	0.939000	0.309500
C21281	C2128	0.412800	0.909430	0.306520
C21291	C2129	0.433630	0.897810	0.317910
H7101	H710	0.440400	0.882600	0.310900
C21301	C2130	0.444570	0.908300	0.339340
C21311	C2131	0.434450	0.930810	0.349720
H7111	H711	0.442000	0.938300	0.364300
C21321	C2132	0.399770	0.896880	0.284450
C21331	C2133	0.465920	0.895000	0.352690
C21341	C2134	0.351880	0.850670	0.283840
C21351	C2135	0.338860	0.837830	0.305540
C21361	C2136	0.316860	0.849060	0.316130
H7121	H712	0.309700	0.863700	0.308400
Cu1791	Cu179	0.892410	0.357200	0.249700
O16031	O1603	0.911150	0.473700	0.370240
O16041	O1604	0.881530	0.473450	0.339980
O16051	O1605	0.878880	0.406170	0.277550
O16061	O1606	0.910500	0.377940	0.274500
O16071	O1607	0.973970	0.375010	0.343020
O16081	O1608	0.973980	0.405360	0.372740
O16091	O1609	0.872910	0.341590	0.277730
O16101	O1610	0.841110	0.369490	0.274690
O16111	O1611	0.918570	0.325800	0.243880
C21371	C2137	0.901000	0.464930	0.350420
C21381	C2138	0.913110	0.442100	0.338370
C21391	C2139	0.902220	0.431450	0.317020
H7131	H713	0.887600	0.439000	0.309500
C21401	C2140	0.912800	0.409430	0.306520
C21411	C2141	0.933630	0.397810	0.317910
H7141	H714	0.940400	0.382600	0.310900
C21421	C2142	0.944570	0.408300	0.339340
C21431	C2143	0.934450	0.430810	0.349720
H7151	H715	0.942000	0.438300	0.364300
C21441	C2144	0.899770	0.396880	0.284450
C21451	C2145	0.965920	0.395000	0.352690
C21461	C2146	0.851880	0.350670	0.283840
C21471	C2147	0.838860	0.337830	0.305540
C21481	C2148	0.816860	0.349060	0.316130
H7161	H716	0.809700	0.363700	0.308400
Cu1801	Cu180	0.892410	0.857200	0.749700
O16121	O1612	0.911150	0.973700	0.870240
O16131	O1613	0.881530	0.973450	0.839980
O16141	O1614	0.878880	0.906170	0.777550
O16151	O1615	0.910500	0.877940	0.774500
O16161	O1616	0.973970	0.875010	0.843020
O16171	O1617	0.973980	0.905360	0.872740
O16181	O1618	0.872910	0.841590	0.777730
O16191	O1619	0.841110	0.869490	0.774690
O16201	O1620	0.918570	0.825800	0.743880
C21491	C2149	0.901000	0.964930	0.850420
C21501	C2150	0.913110	0.942100	0.838370
C21511	C2151	0.902220	0.931450	0.817020
H7171	H717	0.887600	0.939000	0.809500
C21521	C2152	0.912800	0.909430	0.806520
C21531	C2153	0.933630	0.897810	0.817910
H7181	H718	0.940400	0.882600	0.810900
C21541	C2154	0.944570	0.908300	0.839340
C21551	C2155	0.934450	0.930810	0.849720
H7191	H719	0.942000	0.938300	0.864300
C21561	C2156	0.899770	0.896880	0.784450
C21571	C2157	0.965920	0.895000	0.852690
C21581	C2158	0.851880	0.850670	0.783840
C21591	C2159	0.838860	0.837830	0.805540
C21601	C2160	0.816860	0.849060	0.816130
H7201	H720	0.809700	0.863700	0.808400
Cu1811	Cu181	0.392410	0.642800	0.250300
O16211	O1621	0.411150	0.526300	0.129760
O16221	O1622	0.381530	0.526550	0.160020
O16231	O1623	0.378880	0.593830	0.222450
O16241	O1624	0.410500	0.622060	0.225500
O16251	O1625	0.473970	0.624990	0.156980
O16261	O1626	0.473980	0.594640	0.127260
O16271	O1627	0.372910	0.658410	0.222270
O16281	O1628	0.341110	0.630510	0.225310
O16291	O1629	0.418570	0.674200	0.256120
C21611	C2161	0.401000	0.535070	0.149580
C21621	C2162	0.413110	0.557900	0.161630
C21631	C2163	0.402220	0.568550	0.182980
H7211	H721	0.387600	0.561000	0.190500
C21641	C2164	0.412800	0.590570	0.193480
C21651	C2165	0.433630	0.602190	0.182090
H7221	H722	0.440400	0.617400	0.189100
C21661	C2166	0.444570	0.591700	0.160660
C21671	C2167	0.434450	0.569190	0.150280
H7231	H723	0.442000	0.561700	0.135700
C21681	C2168	0.399770	0.603120	0.215550
C21691	C2169	0.465920	0.605000	0.147310
C21701	C2170	0.351880	0.649330	0.216160
C21711	C2171	0.338860	0.662170	0.194460
C21721	C2172	0.316860	0.650940	0.183870
H7241	H724	0.309700	0.636300	0.191600
Cu1821	Cu182	0.392410	0.142800	0.750300
O16301	O1630	0.411150	0.026300	0.629760
O16311	O1631	0.381530	0.026550	0.660020
O16321	O1632	0.378880	0.093830	0.722450
O16331	O1633	0.410500	0.122060	0.725500
O16341	O1634	0.473970	0.124990	0.656980
O16351	O1635	0.473980	0.094640	0.627260
O16361	O1636	0.372910	0.158410	0.722270
O16371	O1637	0.341110	0.130510	0.725310
O16381	O1638	0.418570	0.174200	0.756120
C21731	C2173	0.401000	0.035070	0.649580
C21741	C2174	0.413110	0.057900	0.661630
C21751	C2175	0.402220	0.068550	0.682980
H7251	H725	0.387600	0.061000	0.690500
C21761	C2176	0.412800	0.090570	0.693480
C21771	C2177	0.433630	0.102190	0.682090
H7261	H726	0.440400	0.117400	0.689100
C21781	C2178	0.444570	0.091700	0.660660
C21791	C2179	0.434450	0.069190	0.650280
H7271	H727	0.442000	0.061700	0.635700
C21801	C2180	0.399770	0.103120	0.715550
C21811	C2181	0.465920	0.105000	0.647310
C21821	C2182	0.351880	0.149330	0.716160
C21831	C2183	0.338860	0.162170	0.694460
C21841	C2184	0.316860	0.150940	0.683870
H7281	H728	0.309700	0.136300	0.691600
Cu1831	Cu183	0.892410	0.642800	0.750300
O16391	O1639	0.911150	0.526300	0.629760
O16401	O1640	0.881530	0.526550	0.660020
O16411	O1641	0.878880	0.593830	0.722450
O16421	O1642	0.910500	0.622060	0.725500
O16431	O1643	0.973970	0.624990	0.656980
O16441	O1644	0.973980	0.594640	0.627260
O16451	O1645	0.872910	0.658410	0.722270
O16461	O1646	0.841110	0.630510	0.725310
O16471	O1647	0.918570	0.674200	0.756120
C21851	C2185	0.901000	0.535070	0.649580
C21861	C2186	0.913110	0.557900	0.661630
C21871	C2187	0.902220	0.568550	0.682980
H7291	H729	0.887600	0.561000	0.690500
C21881	C2188	0.912800	0.590570	0.693480
C21891	C2189	0.933630	0.602190	0.682090
H7301	H730	0.940400	0.617400	0.689100
C21901	C2190	0.944570	0.591700	0.660660
C21911	C2191	0.934450	0.569190	0.650280
H7311	H731	0.942000	0.561700	0.635700
C21921	C2192	0.899770	0.603120	0.715550
C21931	C2193	0.965920	0.605000	0.647310
C21941	C2194	0.851880	0.649330	0.716160
C21951	C2195	0.838860	0.662170	0.694460
C21961	C2196	0.816860	0.650940	0.683870
H7321	H732	0.809700	0.636300	0.691600
Cu1841	Cu184	0.892410	0.142800	0.250300
O16481	O1648	0.911150	0.026300	0.129760
O16491	O1649	0.881530	0.026550	0.160020
O16501	O1650	0.878880	0.093830	0.222450
O16511	O1651	0.910500	0.122060	0.225500
O16521	O1652	0.973970	0.124990	0.156980
O16531	O1653	0.973980	0.094640	0.127260
O16541	O1654	0.872910	0.158410	0.222270
O16551	O1655	0.841110	0.130510	0.225310
O16561	O1656	0.918570	0.174200	0.256120
C21971	C2197	0.901000	0.035070	0.149580
C21981	C2198	0.913110	0.057900	0.161630
C21991	C2199	0.902220	0.068550	0.182980
H7331	H733	0.887600	0.061000	0.190500
C22001	C2200	0.912800	0.090570	0.193480
C22011	C2201	0.933630	0.102190	0.182090
H7341	H734	0.940400	0.117400	0.189100
C22021	C2202	0.944570	0.091700	0.160660
C22031	C2203	0.934450	0.069190	0.150280
H7351	H735	0.942000	0.061700	0.135700
C22041	C2204	0.899770	0.103120	0.215550
C22051	C2205	0.965920	0.105000	0.147310
C22061	C2206	0.851880	0.149330	0.216160
C22071	C2207	0.838860	0.162170	0.194460
C22081	C2208	0.816860	0.150940	0.183870
H7361	H736	0.809700	0.136300	0.191600
Cu1851	Cu185	0.607590	0.357200	0.250300
O16571	O1657	0.588850	0.473700	0.129760
O16581	O1658	0.618470	0.473450	0.160020
O16591	O1659	0.621120	0.406170	0.222450
O16601	O1660	0.589500	0.377940	0.225500
O16611	O1661	0.526030	0.375010	0.156980
O16621	O1662	0.526020	0.405360	0.127260
O16631	O1663	0.627090	0.341590	0.222270
O16641	O1664	0.658890	0.369490	0.225310
O16651	O1665	0.581430	0.325800	0.256120
C22091	C2209	0.599000	0.464930	0.149580
C22101	C2210	0.586890	0.442100	0.161630
C22111	C2211	0.597780	0.431450	0.182980
H7371	H737	0.612400	0.439000	0.190500
C22121	C2212	0.587200	0.409430	0.193480
C22131	C2213	0.566370	0.397810	0.182090
H7381	H738	0.559600	0.382600	0.189100
C22141	C2214	0.555430	0.408300	0.160660
C22151	C2215	0.565550	0.430810	0.150280
H7391	H739	0.558000	0.438300	0.135700
C22161	C2216	0.600230	0.396880	0.215550
C22171	C2217	0.534080	0.395000	0.147310
C22181	C2218	0.648120	0.350670	0.216160
C22191	C2219	0.661140	0.337830	0.194460
C22201	C2220	0.683140	0.349060	0.183870
H7401	H740	0.690300	0.363700	0.191600
Cu1861	Cu186	0.607590	0.857200	0.750300
O16661	O1666	0.588850	0.973700	0.629760
O16671	O1667	0.618470	0.973450	0.660020
O16681	O1668	0.621120	0.906170	0.722450
O16691	O1669	0.589500	0.877940	0.725500
O16701	O1670	0.526030	0.875010	0.656980
O16711	O1671	0.526020	0.905360	0.627260
O16721	O1672	0.627090	0.841590	0.722270
O16731	O1673	0.658890	0.869490	0.725310
O16741	O1674	0.581430	0.825800	0.756120
C22211	C2221	0.599000	0.964930	0.649580
C22221	C2222	0.586890	0.942100	0.661630
C22231	C2223	0.597780	0.931450	0.682980
H7411	H741	0.612400	0.939000	0.690500
C22241	C2224	0.587200	0.909430	0.693480
C22251	C2225	0.566370	0.897810	0.682090
H7421	H742	0.559600	0.882600	0.689100
C22261	C2226	0.555430	0.908300	0.660660
C22271	C2227	0.565550	0.930810	0.650280
H7431	H743	0.558000	0.938300	0.635700
C22281	C2228	0.600230	0.896880	0.715550
C22291	C2229	0.534080	0.895000	0.647310
C22301	C2230	0.648120	0.850670	0.716160
C22311	C2231	0.661140	0.837830	0.694460
C22321	C2232	0.683140	0.849060	0.683870
H7441	H744	0.690300	0.863700	0.691600
Cu1871	Cu187	0.107590	0.357200	0.750300
O16751	O1675	0.088850	0.473700	0.629760
O16761	O1676	0.118470	0.473450	0.660020
O16771	O1677	0.121120	0.406170	0.722450
O16781	O1678	0.089500	0.377940	0.725500
O16791	O1679	0.026030	0.375010	0.656980
O16801	O1680	0.026020	0.405360	0.627260
O16811	O1681	0.127090	0.341590	0.722270
O16821	O1682	0.158890	0.369490	0.725310
O16831	O1683	0.081430	0.325800	0.756120
C22331	C2233	0.099000	0.464930	0.649580
C22341	C2234	0.086890	0.442100	0.661630
C22351	C2235	0.097780	0.431450	0.682980
H7451	H745	0.112400	0.439000	0.690500
C22361	C2236	0.087200	0.409430	0.693480
C22371	C2237	0.066370	0.397810	0.682090
H7461	H746	0.059600	0.382600	0.689100
C22381	C2238	0.055430	0.408300	0.660660
C22391	C2239	0.065550	0.430810	0.650280
H7471	H747	0.058000	0.438300	0.635700
C22401	C2240	0.100230	0.396880	0.715550
C22411	C2241	0.034080	0.395000	0.647310
C22421	C2242	0.148120	0.350670	0.716160
C22431	C2243	0.161140	0.337830	0.694460
C22441	C2244	0.183140	0.349060	0.683870
H7481	H748	0.190300	0.363700	0.691600
Cu1881	Cu188	0.107590	0.857200	0.250300
O16841	O1684	0.088850	0.973700	0.129760
O16851	O1685	0.118470	0.973450	0.160020
O16861	O1686	0.121120	0.906170	0.222450
O16871	O1687	0.089500	0.877940	0.225500
O16881	O1688	0.026030	0.875010	0.156980
O16891	O1689	0.026020	0.905360	0.127260
O16901	O1690	0.127090	0.841590	0.222270
O16911	O1691	0.158890	0.869490	0.225310
O16921	O1692	0.081430	0.825800	0.256120
C22451	C2245	0.099000	0.964930	0.149580
C22461	C2246	0.086890	0.942100	0.161630
C22471	C2247	0.097780	0.931450	0.182980
H7491	H749	0.112400	0.939000	0.190500
C22481	C2248	0.087200	0.909430	0.193480
C22491	C2249	0.066370	0.897810	0.182090
H7501	H750	0.059600	0.882600	0.189100
C22501	C2250	0.055430	0.908300	0.160660
C22511	C2251	0.065550	0.930810	0.150280
H7511	H751	0.058000	0.938300	0.135700
C22521	C2252	0.100230	0.896880	0.215550
C22531	C2253	0.034080	0.895000	0.147310
C22541	C2254	0.148120	0.850670	0.216160
C22551	C2255	0.161140	0.837830	0.194460
C22561	C2256	0.183140	0.849060	0.183870
H7521	H752	0.190300	0.863700	0.191600
Cu1891	Cu189	0.607590	0.642800	0.749700
O16931	O1693	0.588850	0.526300	0.870240
O16941	O1694	0.618470	0.526550	0.839980
O16951	O1695	0.621120	0.593830	0.777550
O16961	O1696	0.589500	0.622060	0.774500
O16971	O1697	0.526030	0.624990	0.843020
O16981	O1698	0.526020	0.594640	0.872740
O16991	O1699	0.627090	0.658410	0.777730
O17001	O1700	0.658890	0.630510	0.774690
O17011	O1701	0.581430	0.674200	0.743880
C22571	C2257	0.599000	0.535070	0.850420
C22581	C2258	0.586890	0.557900	0.838370
C22591	C2259	0.597780	0.568550	0.817020
H7531	H753	0.612400	0.561000	0.809500
C22601	C2260	0.587200	0.590570	0.806520
C22611	C2261	0.566370	0.602190	0.817910
H7541	H754	0.559600	0.617400	0.810900
C22621	C2262	0.555430	0.591700	0.839340
C22631	C2263	0.565550	0.569190	0.849720
H7551	H755	0.558000	0.561700	0.864300
C22641	C2264	0.600230	0.603120	0.784450
C22651	C2265	0.534080	0.605000	0.852690
C22661	C2266	0.648120	0.649330	0.783840
C22671	C2267	0.661140	0.662170	0.805540
C22681	C2268	0.683140	0.650940	0.816130
H7561	H756	0.690300	0.636300	0.808400
Cu1901	Cu190	0.607590	0.142800	0.249700
O17021	O1702	0.588850	0.026300	0.370240
O17031	O1703	0.618470	0.026550	0.339980
O17041	O1704	0.621120	0.093830	0.277550
O17051	O1705	0.589500	0.122060	0.274500
O17061	O1706	0.526030	0.124990	0.343020
O17071	O1707	0.526020	0.094640	0.372740
O17081	O1708	0.627090	0.158410	0.277730
O17091	O1709	0.658890	0.130510	0.274690
O17101	O1710	0.581430	0.174200	0.243880
C22691	C2269	0.599000	0.035070	0.350420
C22701	C2270	0.586890	0.057900	0.338370
C22711	C2271	0.597780	0.068550	0.317020
H7571	H757	0.612400	0.061000	0.309500
C22721	C2272	0.587200	0.090570	0.306520
C22731	C2273	0.566370	0.102190	0.317910
H7581	H758	0.559600	0.117400	0.310900
C22741	C2274	0.555430	0.091700	0.339340
C22751	C2275	0.565550	0.069190	0.349720
H7591	H759	0.558000	0.061700	0.364300
C22761	C2276	0.600230	0.103120	0.284450
C22771	C2277	0.534080	0.105000	0.352690
C22781	C2278	0.648120	0.149330	0.283840
C22791	C2279	0.661140	0.162170	0.305540
C22801	C2280	0.683140	0.150940	0.316130
H7601	H760	0.690300	0.136300	0.308400
Cu1911	Cu191	0.107590	0.642800	0.249700
O17111	O1711	0.088850	0.526300	0.370240
O17121	O1712	0.118470	0.526550	0.339980
O17131	O1713	0.121120	0.593830	0.277550
O17141	O1714	0.089500	0.622060	0.274500
O17151	O1715	0.026030	0.624990	0.343020
O17161	O1716	0.026020	0.594640	0.372740
O17171	O1717	0.127090	0.658410	0.277730
O17181	O1718	0.158890	0.630510	0.274690
O17191	O1719	0.081430	0.674200	0.243880
C22811	C2281	0.099000	0.535070	0.350420
C22821	C2282	0.086890	0.557900	0.338370
C22831	C2283	0.097780	0.568550	0.317020
H7611	H761	0.112400	0.561000	0.309500
C22841	C2284	0.087200	0.590570	0.306520
C22851	C2285	0.066370	0.602190	0.317910
H7621	H762	0.059600	0.617400	0.310900
C22861	C2286	0.055430	0.591700	0.339340
C22871	C2287	0.065550	0.569190	0.349720
H7631	H763	0.058000	0.561700	0.364300
C22881	C2288	0.100230	0.603120	0.284450
C22891	C2289	0.034080	0.605000	0.352690
C22901	C2290	0.148120	0.649330	0.283840
C22911	C2291	0.161140	0.662170	0.305540
C22921	C2292	0.183140	0.650940	0.316130
H7641	H764	0.190300	0.636300	0.308400
Cu1921	Cu192	0.107590	0.142800	0.749700
O17201	O1720	0.088850	0.026300	0.870240
O17211	O1721	0.118470	0.026550	0.839980
O17221	O1722	0.121120	0.093830	0.777550
O17231	O1723	0.089500	0.122060	0.774500
O17241	O1724	0.026030	0.124990	0.843020
O17251	O1725	0.026020	0.094640	0.872740
O17261	O1726	0.127090	0.158410	0.777730
O17271	O1727	0.158890	0.130510	0.774690
O17281	O1728	0.081430	0.174200	0.743880
C22931	C2293	0.099000	0.035070	0.850420
C22941	C2294	0.086890	0.057900	0.838370
C22951	C2295	0.097780	0.068550	0.817020
H7651	H765	0.112400	0.061000	0.809500
C22961	C2296	0.087200	0.090570	0.806520
C22971	C2297	0.066370	0.102190	0.817910
H7661	H766	0.059600	0.117400	0.810900
C22981	C2298	0.055430	0.091700	0.839340
C22991	C2299	0.065550	0.069190	0.849720
H7671	H767	0.058000	0.061700	0.864300
C23001	C2300	0.100230	0.103120	0.784450
C23011	C2301	0.034080	0.105000	0.852690
C23021	C2302	0.148120	0.149330	0.783840
C23031	C2303	0.161140	0.162170	0.805540
C23041	C2304	0.183140	0.150940	0.816130
H7681	H768	0.190300	0.136300	0.808400
Cu1931	Cu193	0.390540	0.000000	0.105350
Cu1941	Cu194	0.354660	0.000000	0.140090
O17291	O1729	0.420200	0.000000	0.077400
O17301	O1730	0.321770	0.000000	0.164870
Cu1951	Cu195	0.390540	0.500000	0.605350
Cu1961	Cu196	0.354660	0.500000	0.640090
O17311	O1731	0.420200	0.500000	0.577400
O17321	O1732	0.321770	0.500000	0.664870
Cu1971	Cu197	0.890540	0.000000	0.605350
Cu1981	Cu198	0.854660	0.000000	0.640090
O17331	O1733	0.920200	0.000000	0.577400
O17341	O1734	0.821770	0.000000	0.664870
Cu1991	Cu199	0.890540	0.500000	0.105350
Cu2001	Cu200	0.854660	0.500000	0.140090
O17351	O1735	0.920200	0.500000	0.077400
O17361	O1736	0.821770	0.500000	0.164870
Cu2011	Cu201	0.609460	0.000000	0.105350
Cu2021	Cu202	0.645340	0.000000	0.140090
O17371	O1737	0.579800	0.000000	0.077400
O17381	O1738	0.678230	0.000000	0.164870
Cu2031	Cu203	0.609460	0.500000	0.605350
Cu2041	Cu204	0.645340	0.500000	0.640090
O17391	O1739	0.579800	0.500000	0.577400
O17401	O1740	0.678230	0.500000	0.664870
Cu2051	Cu205	0.109460	0.000000	0.605350
Cu2061	Cu206	0.145340	0.000000	0.640090
O17411	O1741	0.079800	0.000000	0.577400
O17421	O1742	0.178230	0.000000	0.664870
Cu2071	Cu207	0.109460	0.500000	0.105350
Cu2081	Cu208	0.145340	0.500000	0.140090
O17431	O1743	0.079800	0.500000	0.077400
O17441	O1744	0.178230	0.500000	0.164870
Cu2091	Cu209	0.609460	0.000000	0.894650
Cu2101	Cu210	0.645340	0.000000	0.859910
O17451	O1745	0.579800	0.000000	0.922600
O17461	O1746	0.678230	0.000000	0.835130
Cu2111	Cu211	0.609460	0.500000	0.394650
Cu2121	Cu212	0.645340	0.500000	0.359910
O17471	O1747	0.579800	0.500000	0.422600
O17481	O1748	0.678230	0.500000	0.335130
Cu2131	Cu213	0.109460	0.000000	0.394650
Cu2141	Cu214	0.145340	0.000000	0.359910
O17491	O1749	0.079800	0.000000	0.422600
O17501	O1750	0.178230	0.000000	0.335130
Cu2151	Cu215	0.109460	0.500000	0.894650
Cu2161	Cu216	0.145340	0.500000	0.859910
O17511	O1751	0.079800	0.500000	0.922600
O17521	O1752	0.178230	0.500000	0.835130
Cu2171	Cu217	0.390540	0.000000	0.894650
Cu2181	Cu218	0.354660	0.000000	0.859910
O17531	O1753	0.420200	0.000000	0.922600
O17541	O1754	0.321770	0.000000	0.835130
Cu2191	Cu219	0.390540	0.500000	0.394650
Cu2201	Cu220	0.354660	0.500000	0.359910
O17551	O1755	0.420200	0.500000	0.422600
O17561	O1756	0.321770	0.500000	0.335130
Cu2211	Cu221	0.890540	0.000000	0.394650
Cu2221	Cu222	0.854660	0.000000	0.359910
O17571	O1757	0.920200	0.000000	0.422600
O17581	O1758	0.821770	0.000000	0.335130
Cu2231	Cu223	0.890540	0.500000	0.894650
Cu2241	Cu224	0.854660	0.500000	0.859910
O17591	O1759	0.920200	0.500000	0.922600
O17601	O1760	0.821770	0.500000	0.835130
Cu2251	Cu225	0.105350	0.390540	0.000000
Cu2261	Cu226	0.140090	0.354660	0.000000
O17611	O1761	0.077400	0.420200	0.000000
O17621	O1762	0.164870	0.321770	0.000000
Cu2271	Cu227	0.105350	0.890540	0.500000
Cu2281	Cu228	0.140090	0.854660	0.500000
O17631	O1763	0.077400	0.920200	0.500000
O17641	O1764	0.164870	0.821770	0.500000
Cu2291	Cu229	0.605350	0.390540	0.500000
Cu2301	Cu230	0.640090	0.354660	0.500000
O17651	O1765	0.577400	0.420200	0.500000
O17661	O1766	0.664870	0.321770	0.500000
Cu2311	Cu231	0.605350	0.890540	0.000000
Cu2321	Cu232	0.640090	0.854660	0.000000
O17671	O1767	0.577400	0.920200	0.000000
O17681	O1768	0.664870	0.821770	0.000000
Cu2331	Cu233	0.105350	0.609460	0.000000
Cu2341	Cu234	0.140090	0.645340	0.000000
O17691	O1769	0.077400	0.579800	0.000000
O17701	O1770	0.164870	0.678230	0.000000
Cu2351	Cu235	0.105350	0.109460	0.500000
Cu2361	Cu236	0.140090	0.145340	0.500000
O17711	O1771	0.077400	0.079800	0.500000
O17721	O1772	0.164870	0.178230	0.500000
Cu2371	Cu237	0.605350	0.609460	0.500000
Cu2381	Cu238	0.640090	0.645340	0.500000
O17731	O1773	0.577400	0.579800	0.500000
O17741	O1774	0.664870	0.678230	0.500000
Cu2391	Cu239	0.605350	0.109460	0.000000
Cu2401	Cu240	0.640090	0.145340	0.000000
O17751	O1775	0.577400	0.079800	0.000000
O17761	O1776	0.664870	0.178230	0.000000
Cu2411	Cu241	0.894650	0.609460	0.000000
Cu2421	Cu242	0.859910	0.645340	0.000000
O17771	O1777	0.922600	0.579800	0.000000
O17781	O1778	0.835130	0.678230	0.000000
Cu2431	Cu243	0.894650	0.109460	0.500000
Cu2441	Cu244	0.859910	0.145340	0.500000
O17791	O1779	0.922600	0.079800	0.500000
O17801	O1780	0.835130	0.178230	0.500000
Cu2451	Cu245	0.394650	0.609460	0.500000
Cu2461	Cu246	0.359910	0.645340	0.500000
O17811	O1781	0.422600	0.579800	0.500000
O17821	O1782	0.335130	0.678230	0.500000
Cu2471	Cu247	0.394650	0.109460	0.000000
Cu2481	Cu248	0.359910	0.145340	0.000000
O17831	O1783	0.422600	0.079800	0.000000
O17841	O1784	0.335130	0.178230	0.000000
Cu2491	Cu249	0.894650	0.390540	0.000000
Cu2501	Cu250	0.859910	0.354660	0.000000
O17851	O1785	0.922600	0.420200	0.000000
O17861	O1786	0.835130	0.321770	0.000000
Cu2511	Cu251	0.894650	0.890540	0.500000
Cu2521	Cu252	0.859910	0.854660	0.500000
O17871	O1787	0.922600	0.920200	0.500000
O17881	O1788	0.835130	0.821770	0.500000
Cu2531	Cu253	0.394650	0.390540	0.500000
Cu2541	Cu254	0.359910	0.354660	0.500000
O17891	O1789	0.422600	0.420200	0.500000
O17901	O1790	0.335130	0.321770	0.500000
Cu2551	Cu255	0.394650	0.890540	0.000000
Cu2561	Cu256	0.359910	0.854660	0.000000
O17911	O1791	0.422600	0.920200	0.000000
O17921	O1792	0.335130	0.821770	0.000000
Cu2571	Cu257	0.000000	0.105350	0.390540
Cu2581	Cu258	0.000000	0.140090	0.354660
O17931	O1793	0.000000	0.077400	0.420200
O17941	O1794	0.000000	0.164870	0.321770
Cu2591	Cu259	0.000000	0.605350	0.890540
Cu2601	Cu260	0.000000	0.640090	0.854660
O17951	O1795	0.000000	0.577400	0.920200
O17961	O1796	0.000000	0.664870	0.821770
Cu2611	Cu261	0.500000	0.105350	0.890540
Cu2621	Cu262	0.500000	0.140090	0.854660
O17971	O1797	0.500000	0.077400	0.920200
O17981	O1798	0.500000	0.164870	0.821770
Cu2631	Cu263	0.500000	0.605350	0.390540
Cu2641	Cu264	0.500000	0.640090	0.354660
O17991	O1799	0.500000	0.577400	0.420200
O18001	O1800	0.500000	0.664870	0.321770
Cu2651	Cu265	0.000000	0.105350	0.609460
Cu2661	Cu266	0.000000	0.140090	0.645340
O18011	O1801	0.000000	0.077400	0.579800
O18021	O1802	0.000000	0.164870	0.678230
Cu2671	Cu267	0.000000	0.605350	0.109460
Cu2681	Cu268	0.000000	0.640090	0.145340
O18031	O1803	0.000000	0.577400	0.079800
O18041	O1804	0.000000	0.664870	0.178230
Cu2691	Cu269	0.500000	0.105350	0.109460
Cu2701	Cu270	0.500000	0.140090	0.145340
O18051	O1805	0.500000	0.077400	0.079800
O18061	O1806	0.500000	0.164870	0.178230
Cu2711	Cu271	0.500000	0.605350	0.609460
Cu2721	Cu272	0.500000	0.640090	0.645340
O18071	O1807	0.500000	0.577400	0.579800
O18081	O1808	0.500000	0.664870	0.678230
Cu2731	Cu273	0.000000	0.894650	0.609460
Cu2741	Cu274	0.000000	0.859910	0.645340
O18091	O1809	0.000000	0.922600	0.579800
O18101	O1810	0.000000	0.835130	0.678230
Cu2751	Cu275	0.000000	0.394650	0.109460
Cu2761	Cu276	0.000000	0.359910	0.145340
O18111	O1811	0.000000	0.422600	0.079800
O18121	O1812	0.000000	0.335130	0.178230
Cu2771	Cu277	0.500000	0.894650	0.109460
Cu2781	Cu278	0.500000	0.859910	0.145340
O18131	O1813	0.500000	0.922600	0.079800
O18141	O1814	0.500000	0.835130	0.178230
Cu2791	Cu279	0.500000	0.394650	0.609460
Cu2801	Cu280	0.500000	0.359910	0.645340
O18151	O1815	0.500000	0.422600	0.579800
O18161	O1816	0.500000	0.335130	0.678230
Cu2811	Cu281	0.000000	0.894650	0.390540
Cu2821	Cu282	0.000000	0.859910	0.354660
O18171	O1817	0.000000	0.922600	0.420200
O18181	O1818	0.000000	0.835130	0.321770
Cu2831	Cu283	0.000000	0.394650	0.890540
Cu2841	Cu284	0.000000	0.359910	0.854660
O18191	O1819	0.000000	0.422600	0.920200
O18201	O1820	0.000000	0.335130	0.821770
Cu2851	Cu285	0.500000	0.894650	0.890540
Cu2861	Cu286	0.500000	0.859910	0.854660
O18211	O1821	0.500000	0.922600	0.920200
O18221	O1822	0.500000	0.835130	0.821770
Cu2871	Cu287	0.500000	0.394650	0.390540
Cu2881	Cu288	0.500000	0.359910	0.354660
O18231	O1823	0.500000	0.422600	0.420200
O18241	O1824	0.500000	0.335130	0.321770
Cu2891	Cu289	0.500000	0.890540	0.394650
Cu2901	Cu290	0.500000	0.854660	0.359910
O18251	O1825	0.500000	0.920200	0.422600
O18261	O1826	0.500000	0.821770	0.335130
Cu2911	Cu291	0.500000	0.390540	0.894650
Cu2921	Cu292	0.500000	0.354660	0.859910
O18271	O1827	0.500000	0.420200	0.922600
O18281	O1828	0.500000	0.321770	0.835130
Cu2931	Cu293	0.000000	0.890540	0.894650
Cu2941	Cu294	0.000000	0.854660	0.859910
O18291	O1829	0.000000	0.920200	0.922600
O18301	O1830	0.000000	0.821770	0.835130
Cu2951	Cu295	0.000000	0.390540	0.394650
Cu2961	Cu296	0.000000	0.354660	0.359910
O18311	O1831	0.000000	0.420200	0.422600
O18321	O1832	0.000000	0.321770	0.335130
Cu2971	Cu297	0.500000	0.109460	0.394650
Cu2981	Cu298	0.500000	0.145340	0.359910
O18331	O1833	0.500000	0.079800	0.422600
O18341	O1834	0.500000	0.178230	0.335130
Cu2991	Cu299	0.500000	0.609460	0.894650
Cu3001	Cu300	0.500000	0.645340	0.859910
O18351	O1835	0.500000	0.579800	0.922600
O18361	O1836	0.500000	0.678230	0.835130
Cu3011	Cu301	0.000000	0.109460	0.894650
Cu3021	Cu302	0.000000	0.145340	0.859910
O18371	O1837	0.000000	0.079800	0.922600
O18381	O1838	0.000000	0.178230	0.835130
Cu3031	Cu303	0.000000	0.609460	0.394650
Cu3041	Cu304	0.000000	0.645340	0.359910
O18391	O1839	0.000000	0.579800	0.422600
O18401	O1840	0.000000	0.678230	0.335130
Cu3051	Cu305	0.500000	0.109460	0.605350
Cu3061	Cu306	0.500000	0.145340	0.640090
O18411	O1841	0.500000	0.079800	0.577400
O18421	O1842	0.500000	0.178230	0.664870
Cu3071	Cu307	0.500000	0.609460	0.105350
Cu3081	Cu308	0.500000	0.645340	0.140090
O18431	O1843	0.500000	0.579800	0.077400
O18441	O1844	0.500000	0.678230	0.164870
Cu3091	Cu309	0.000000	0.109460	0.105350
Cu3101	Cu310	0.000000	0.145340	0.140090
O18451	O1845	0.000000	0.079800	0.077400
O18461	O1846	0.000000	0.178230	0.164870
Cu3111	Cu311	0.000000	0.609460	0.605350
Cu3121	Cu312	0.000000	0.645340	0.640090
O18471	O1847	0.000000	0.579800	0.577400
O18481	O1848	0.000000	0.678230	0.664870
Cu3131	Cu313	0.500000	0.890540	0.605350
Cu3141	Cu314	0.500000	0.854660	0.640090
O18491	O1849	0.500000	0.920200	0.577400
O18501	O1850	0.500000	0.821770	0.664870
Cu3151	Cu315	0.500000	0.390540	0.105350
Cu3161	Cu316	0.500000	0.354660	0.140090
O18511	O1851	0.500000	0.420200	0.077400
O18521	O1852	0.500000	0.321770	0.164870
Cu3171	Cu317	0.000000	0.890540	0.105350
Cu3181	Cu318	0.000000	0.854660	0.140090
O18531	O1853	0.000000	0.920200	0.077400
O18541	O1854	0.000000	0.821770	0.164870
Cu3191	Cu319	0.000000	0.390540	0.605350
Cu3201	Cu320	0.000000	0.354660	0.640090
O18551	O1855	0.000000	0.420200	0.577400
O18561	O1856	0.000000	0.321770	0.664870
Cu3211	Cu321	0.890540	0.605350	0.500000
Cu3221	Cu322	0.854660	0.640090	0.500000
O18571	O1857	0.920200	0.577400	0.500000
O18581	O1858	0.821770	0.664870	0.500000
Cu3231	Cu323	0.890540	0.105350	0.000000
Cu3241	Cu324	0.854660	0.140090	0.000000
O18591	O1859	0.920200	0.077400	0.000000
O18601	O1860	0.821770	0.164870	0.000000
Cu3251	Cu325	0.390540	0.605350	0.000000
Cu3261	Cu326	0.354660	0.640090	0.000000
O18611	O1861	0.420200	0.577400	0.000000
O18621	O1862	0.321770	0.664870	0.000000
Cu3271	Cu327	0.390540	0.105350	0.500000
Cu3281	Cu328	0.354660	0.140090	0.500000
O18631	O1863	0.420200	0.077400	0.500000
O18641	O1864	0.321770	0.164870	0.500000
Cu3291	Cu329	0.109460	0.605350	0.500000
Cu3301	Cu330	0.145340	0.640090	0.500000
O18651	O1865	0.079800	0.577400	0.500000
O18661	O1866	0.178230	0.664870	0.500000
Cu3311	Cu331	0.109460	0.105350	0.000000
Cu3321	Cu332	0.145340	0.140090	0.000000
O18671	O1867	0.079800	0.077400	0.000000
O18681	O1868	0.178230	0.164870	0.000000
Cu3331	Cu333	0.609460	0.605350	0.000000
Cu3341	Cu334	0.645340	0.640090	0.000000
O18691	O1869	0.579800	0.577400	0.000000
O18701	O1870	0.678230	0.664870	0.000000
Cu3351	Cu335	0.609460	0.105350	0.500000
Cu3361	Cu336	0.645340	0.140090	0.500000
O18711	O1871	0.579800	0.077400	0.500000
O18721	O1872	0.678230	0.164870	0.500000
Cu3371	Cu337	0.109460	0.394650	0.500000
Cu3381	Cu338	0.145340	0.359910	0.500000
O18731	O1873	0.079800	0.422600	0.500000
O18741	O1874	0.178230	0.335130	0.500000
Cu3391	Cu339	0.109460	0.894650	0.000000
Cu3401	Cu340	0.145340	0.859910	0.000000
O18751	O1875	0.079800	0.922600	0.000000
O18761	O1876	0.178230	0.835130	0.000000
Cu3411	Cu341	0.609460	0.394650	0.000000
Cu3421	Cu342	0.645340	0.359910	0.000000
O18771	O1877	0.579800	0.422600	0.000000
O18781	O1878	0.678230	0.335130	0.000000
Cu3431	Cu343	0.609460	0.894650	0.500000
Cu3441	Cu344	0.645340	0.859910	0.500000
O18791	O1879	0.579800	0.922600	0.500000
O18801	O1880	0.678230	0.835130	0.500000
Cu3451	Cu345	0.890540	0.394650	0.500000
Cu3461	Cu346	0.854660	0.359910	0.500000
O18811	O1881	0.920200	0.422600	0.500000
O18821	O1882	0.821770	0.335130	0.500000
Cu3471	Cu347	0.890540	0.894650	0.000000
Cu3481	Cu348	0.854660	0.859910	0.000000
O18831	O1883	0.920200	0.922600	0.000000
O18841	O1884	0.821770	0.835130	0.000000
Cu3491	Cu349	0.390540	0.394650	0.000000
Cu3501	Cu350	0.354660	0.359910	0.000000
O18851	O1885	0.420200	0.422600	0.000000
O18861	O1886	0.321770	0.335130	0.000000
Cu3511	Cu351	0.390540	0.894650	0.500000
Cu3521	Cu352	0.354660	0.859910	0.500000
O18871	O1887	0.420200	0.922600	0.500000
O18881	O1888	0.321770	0.835130	0.500000
Cu3531	Cu353	0.605350	0.500000	0.109460
Cu3541	Cu354	0.640090	0.500000	0.145340
O18891	O1889	0.577400	0.500000	0.079800
O18901	O1890	0.664870	0.500000	0.178230
Cu3551	Cu355	0.605350	0.000000	0.609460
Cu3561	Cu356	0.640090	0.000000	0.645340
O18911	O1891	0.577400	0.000000	0.579800
O18921	O1892	0.664870	0.000000	0.678230
Cu3571	Cu357	0.105350	0.500000	0.609460
Cu3581	Cu358	0.140090	0.500000	0.645340
O18931	O1893	0.077400	0.500000	0.579800
O18941	O1894	0.164870	0.500000	0.678230
Cu3591	Cu359	0.105350	0.000000	0.109460
Cu3601	Cu360	0.140090	0.000000	0.145340
O18951	O1895	0.077400	0.000000	0.079800
O18961	O1896	0.164870	0.000000	0.178230
Cu3611	Cu361	0.605350	0.500000	0.890540
Cu3621	Cu362	0.640090	0.500000	0.854660
O18971	O1897	0.577400	0.500000	0.920200
O18981	O1898	0.664870	0.500000	0.821770
Cu3631	Cu363	0.605350	0.000000	0.390540
Cu3641	Cu364	0.640090	0.000000	0.354660
O18991	O1899	0.577400	0.000000	0.420200
O19001	O1900	0.664870	0.000000	0.321770
Cu3651	Cu365	0.105350	0.500000	0.390540
Cu3661	Cu366	0.140090	0.500000	0.354660
O19011	O1901	0.077400	0.500000	0.420200
O19021	O1902	0.164870	0.500000	0.321770
Cu3671	Cu367	0.105350	0.000000	0.890540
Cu3681	Cu368	0.140090	0.000000	0.854660
O19031	O1903	0.077400	0.000000	0.920200
O19041	O1904	0.164870	0.000000	0.821770
Cu3691	Cu369	0.394650	0.500000	0.890540
Cu3701	Cu370	0.359910	0.500000	0.854660
O19051	O1905	0.422600	0.500000	0.920200
O19061	O1906	0.335130	0.500000	0.821770
Cu3711	Cu371	0.394650	0.000000	0.390540
Cu3721	Cu372	0.359910	0.000000	0.354660
O19071	O1907	0.422600	0.000000	0.420200
O19081	O1908	0.335130	0.000000	0.321770
Cu3731	Cu373	0.894650	0.500000	0.390540
Cu3741	Cu374	0.859910	0.500000	0.354660
O19091	O1909	0.922600	0.500000	0.420200
O19101	O1910	0.835130	0.500000	0.321770
Cu3751	Cu375	0.894650	0.000000	0.890540
Cu3761	Cu376	0.859910	0.000000	0.854660
O19111	O1911	0.922600	0.000000	0.920200
O19121	O1912	0.835130	0.000000	0.821770
Cu3771	Cu377	0.394650	0.500000	0.109460
Cu3781	Cu378	0.359910	0.500000	0.145340
O19131	O1913	0.422600	0.500000	0.079800
O19141	O1914	0.335130	0.500000	0.178230
Cu3791	Cu379	0.394650	0.000000	0.609460
Cu3801	Cu380	0.359910	0.000000	0.645340
O19151	O1915	0.422600	0.000000	0.579800
O19161	O1916	0.335130	0.000000	0.678230
Cu3811	Cu381	0.894650	0.500000	0.609460
Cu3821	Cu382	0.859910	0.500000	0.645340
O19171	O1917	0.922600	0.500000	0.579800
O19181	O1918	0.835130	0.500000	0.678230
Cu3831	Cu383	0.894650	0.000000	0.109460
Cu3841	Cu384	0.859910	0.000000	0.145340
O19191	O1919	0.922600	0.000000	0.079800
O19201	O1920	0.835130	0.000000	0.178230
