data_BOFBII_freeONLY_PM
_symmetry_space_group_name_H-M	'P1'
_cell_length_a	12.020000
_cell_length_b	11.190000
_cell_length_c	11.067000
_cell_angle_alpha	90.000000
_cell_angle_beta	121.780000
_cell_angle_gamma	90.000000
_symmetry_Int_Tables_number 1

loop_
_symmetry_equiv_pos_as_xyz
'x,y,z'

loop_
_atom_site_label
_atom_site_type_symbol
_atom_site_fract_x
_atom_site_fract_y
_atom_site_fract_z
O11	O1	0.034000	0.119600	0.114200
O21	O2	0.338600	0.129200	0.493900
O31	O3	0.409700	0.293400	0.625200
C11	C1	0.321900	0.227700	0.534000
H11	H1	0.327000	0.063000	0.220000
O41	O4	0.534000	0.619600	0.114200
O51	O5	0.838600	0.629200	0.493900
O61	O6	0.909700	0.793400	0.625200
C21	C2	0.821900	0.727700	0.534000
H21	H2	0.827000	0.563000	0.220000
O71	O7	0.966000	0.119600	0.885800
O81	O8	0.661400	0.129200	0.506100
O91	O9	0.590300	0.293400	0.374800
C31	C3	0.678100	0.227700	0.466000
H31	H3	0.673000	0.063000	0.780000
O101	O10	0.466000	0.619600	0.885800
O111	O11	0.161400	0.629200	0.506100
O121	O12	0.090300	0.793400	0.374800
C41	C4	0.178100	0.727700	0.466000
H41	H4	0.173000	0.563000	0.780000
O131	O13	0.966000	0.880400	0.885800
O141	O14	0.661400	0.870800	0.506100
O151	O15	0.590300	0.706600	0.374800
C51	C5	0.678100	0.772300	0.466000
H51	H5	0.673000	0.937000	0.780000
O161	O16	0.466000	0.380400	0.885800
O171	O17	0.161400	0.370800	0.506100
O181	O18	0.090300	0.206600	0.374800
C61	C6	0.178100	0.272300	0.466000
H61	H6	0.173000	0.437000	0.780000
O191	O19	0.034000	0.880400	0.114200
O201	O20	0.338600	0.870800	0.493900
O211	O21	0.409700	0.706600	0.625200
C71	C7	0.321900	0.772300	0.534000
H71	H7	0.327000	0.937000	0.220000
O221	O22	0.534000	0.380400	0.114200
O231	O23	0.838600	0.370800	0.493900
O241	O24	0.909700	0.206600	0.625200
C81	C8	0.821900	0.272300	0.534000
H81	H8	0.827000	0.437000	0.220000
Bi11	Bi1	0.143180	0.000000	0.339870
O251	O25	0.935900	0.000000	0.315500
O261	O26	0.831700	0.000000	0.431200
C91	C9	0.934300	0.000000	0.427800
O271	O27	0.321100	0.000000	0.257300
Bi21	Bi2	0.643180	0.500000	0.339870
O281	O28	0.435900	0.500000	0.315500
O291	O29	0.331700	0.500000	0.431200
C101	C10	0.434300	0.500000	0.427800
O301	O30	0.821100	0.500000	0.257300
Bi31	Bi3	0.856820	0.000000	0.660130
O311	O31	0.064100	0.000000	0.684500
O321	O32	0.168300	0.000000	0.568800
C111	C11	0.065700	0.000000	0.572200
O331	O33	0.678900	0.000000	0.742700
Bi41	Bi4	0.356820	0.500000	0.660130
O341	O34	0.564100	0.500000	0.684500
O351	O35	0.668300	0.500000	0.568800
C121	C12	0.565700	0.500000	0.572200
O361	O36	0.178900	0.500000	0.742700
Na11	Na1	0.500000	0.000000	0.500000
Na21	Na2	0.000000	0.500000	0.500000
C131	C13	0.000000	0.068600	0.000000
C141	C14	0.500000	0.568600	0.000000
C151	C15	0.000000	0.931400	0.000000
C161	C16	0.500000	0.431400	0.000000
