data_BOJCIN_freeONLY_PM
_symmetry_space_group_name_H-M	'P1'
_cell_length_a	14.703100
_cell_length_b	20.837900
_cell_length_c	20.837900
_cell_angle_alpha	82.850100
_cell_angle_beta	69.341500
_cell_angle_gamma	69.341600
_symmetry_Int_Tables_number 1

loop_
_symmetry_equiv_pos_as_xyz
'x,y,z'

loop_
_atom_site_label
_atom_site_type_symbol
_atom_site_fract_x
_atom_site_fract_y
_atom_site_fract_z
Mo11	Mo1	0.510220	0.947110	0.003410
Mo21	Mo2	0.960740	0.552890	0.496590
Mo31	Mo3	0.513630	0.996590	0.447110
Mo41	Mo4	0.457330	0.503410	0.052890
Mo51	Mo5	0.489780	0.052890	0.996590
Mo61	Mo6	0.039260	0.447110	0.503410
Mo71	Mo7	0.486370	0.003410	0.552890
Mo81	Mo8	0.542670	0.496590	0.947110
H11	H1	0.986700	0.933100	0.737300
H21	H2	0.767100	0.041200	0.072200
H31	H3	0.774800	0.945000	0.020400
H41	H4	0.757400	0.063000	0.997800
H51	H5	0.027800	0.934900	0.918100
H61	H6	0.928300	0.864800	0.032200
H71	H7	0.169000	0.913000	0.820000
H81	H8	0.119600	0.003800	0.719800
H91	H9	0.131800	0.018700	0.789300
H101	H10	0.864200	0.049600	0.010000
H111	H11	0.976200	0.924400	0.025400
H121	H12	0.879800	0.921400	0.091200
H131	H13	0.165700	0.857300	0.712900
H141	H14	0.717100	0.947900	0.814100
H151	H15	0.773000	0.892100	0.714500
H161	H16	0.871000	0.917100	0.682500
H171	H17	0.870400	0.858400	0.740000
H181	H18	0.708700	0.031300	0.720100
H191	H19	0.701200	0.062500	0.788900
H201	H20	0.807300	0.043200	0.725800
H211	H21	0.554700	0.891700	0.209700
H221	H22	0.541400	0.089000	0.190400
H231	H23	0.567700	0.893000	0.317200
H241	H24	0.544600	0.083800	0.300400
H251	H25	0.230800	0.976800	0.728600
H261	H26	0.265400	0.853100	0.730100
H271	H27	0.181600	0.822300	0.782700
H281	H28	0.157100	0.566900	0.762700
H291	H29	0.380500	0.458800	0.427800
H301	H30	0.240200	0.555000	0.479600
H311	H31	0.318200	0.437000	0.502200
H321	H32	0.380800	0.565100	0.581900
H331	H33	0.325300	0.635200	0.467800
H341	H34	0.402000	0.587000	0.680000
H351	H35	0.343200	0.496200	0.780200
H361	H36	0.439800	0.481300	0.710700
H371	H37	0.423800	0.450400	0.490000
H381	H38	0.426000	0.575600	0.474600
H391	H39	0.392400	0.578600	0.408800
H401	H40	0.235900	0.642700	0.787100
H411	H41	0.979100	0.552100	0.685900
H421	H42	0.879600	0.607900	0.785500
H431	H43	0.970600	0.582900	0.817500
H441	H44	0.968800	0.641600	0.760000
H451	H45	0.960100	0.468700	0.779900
H461	H46	0.052600	0.437500	0.711100
H471	H47	0.076300	0.456800	0.774200
H481	H48	0.156100	0.608300	0.290300
H491	H49	0.320800	0.411000	0.309600
H501	H50	0.277900	0.607000	0.182800
H511	H51	0.428800	0.416200	0.199600
H521	H52	0.436200	0.523200	0.771400
H531	H53	0.348600	0.646900	0.769900
H541	H54	0.286600	0.677700	0.717300
H551	H55	0.724000	0.262700	0.433100
H561	H56	0.839300	0.927800	0.541200
H571	H57	0.795200	0.979600	0.445000
H581	H58	0.755200	0.002200	0.563000
H591	H59	0.945900	0.081900	0.434900
H601	H60	0.960500	0.967800	0.364800
H611	H61	0.989000	0.180000	0.413000
H621	H62	0.839400	0.280200	0.503800
H631	H63	0.921100	0.210700	0.518700
H641	H64	0.874200	0.990000	0.549600
H651	H65	0.001600	0.974600	0.424400
H661	H66	0.971000	0.908800	0.421400
H671	H67	0.878600	0.287100	0.357300
H681	H68	0.531200	0.185900	0.447900
H691	H69	0.487500	0.285500	0.392100
H701	H70	0.553500	0.317500	0.417100
H711	H71	0.610400	0.260000	0.358400
H721	H72	0.428800	0.279900	0.531300
H731	H73	0.490100	0.211100	0.562500
H741	H74	0.533100	0.274200	0.543200
H751	H75	0.764400	0.790300	0.391700
H761	H76	0.731800	0.809600	0.589000
H771	H77	0.884900	0.682800	0.393000
H781	H78	0.845000	0.699600	0.583800
H791	H79	0.959400	0.271400	0.476800
H801	H80	0.995500	0.269900	0.353100
H811	H81	0.964300	0.217300	0.322300
H821	H82	0.919800	0.237300	0.066900
H831	H83	0.808300	0.572200	0.958800
H841	H84	0.719800	0.520400	0.055000
H851	H85	0.820400	0.497800	0.937000
H861	H86	0.962700	0.418100	0.065100
H871	H87	0.793100	0.532200	0.135200
H881	H88	0.082000	0.320000	0.087000
H891	H89	0.123400	0.219800	0.996200
H901	H90	0.150500	0.289300	0.981300
H911	H91	0.913800	0.510000	0.950400
H921	H92	0.900600	0.525400	0.075600
H931	H93	0.801200	0.591200	0.078600
H941	H94	0.023000	0.212900	0.142700
H951	H95	0.665000	0.314100	0.052100
H961	H96	0.665100	0.214500	0.107900
H971	H97	0.788100	0.182500	0.082900
H981	H98	0.728800	0.240000	0.141600
H991	H99	0.740000	0.220100	0.968700
H1001	H100	0.763700	0.288900	0.937500
H1011	H101	0.850500	0.225800	0.956800
H1021	H102	0.446400	0.709700	0.108300
H1031	H103	0.630400	0.690400	0.911000
H1041	H104	0.460700	0.817200	0.107000
H1051	H105	0.628400	0.800400	0.916200
H1061	H106	0.207600	0.228600	0.023200
H1071	H107	0.118500	0.230100	0.146900
H1081	H108	0.003900	0.282700	0.177700
H1091	H109	0.013300	0.066900	0.262700
H1101	H110	0.232900	0.958800	0.927800
H1111	H111	0.225200	0.055000	0.979600
H1121	H112	0.242600	0.937000	0.002200
H1131	H113	0.972200	0.065100	0.081900
H1141	H114	0.071700	0.135200	0.967800
H1151	H115	0.831000	0.087000	0.180000
H1161	H116	0.880400	0.996200	0.280200
H1171	H117	0.868200	0.981300	0.210700
H1181	H118	0.135800	0.950400	0.990000
H1191	H119	0.023800	0.075600	0.974600
H1201	H120	0.120200	0.078600	0.908800
H1211	H121	0.834300	0.142700	0.287100
H1221	H122	0.282900	0.052100	0.185900
H1231	H123	0.227000	0.107900	0.285500
H1241	H124	0.129000	0.082900	0.317500
H1251	H125	0.129600	0.141600	0.260000
H1261	H126	0.291300	0.968700	0.279900
H1271	H127	0.298800	0.937500	0.211100
H1281	H128	0.192700	0.956800	0.274200
H1291	H129	0.445300	0.108300	0.790300
H1301	H130	0.458600	0.911000	0.809600
H1311	H131	0.432300	0.107000	0.682800
H1321	H132	0.455400	0.916200	0.699600
H1331	H133	0.769200	0.023200	0.271400
H1341	H134	0.734600	0.146900	0.269900
H1351	H135	0.818400	0.177700	0.217300
H1361	H136	0.842900	0.433100	0.237300
H1371	H137	0.619500	0.541200	0.572200
H1381	H138	0.759800	0.445000	0.520400
H1391	H139	0.681800	0.563000	0.497800
H1401	H140	0.619200	0.434900	0.418100
H1411	H141	0.674700	0.364800	0.532200
H1421	H142	0.598000	0.413000	0.320000
H1431	H143	0.656800	0.503800	0.219800
H1441	H144	0.560200	0.518700	0.289300
H1451	H145	0.576200	0.549600	0.510000
H1461	H146	0.574000	0.424400	0.525400
H1471	H147	0.607600	0.421400	0.591200
H1481	H148	0.764100	0.357300	0.212900
H1491	H149	0.020900	0.447900	0.314100
H1501	H150	0.120400	0.392100	0.214500
H1511	H151	0.029400	0.417100	0.182500
H1521	H152	0.031200	0.358400	0.240000
H1531	H153	0.039900	0.531300	0.220100
H1541	H154	0.947400	0.562500	0.288900
H1551	H155	0.923700	0.543200	0.225800
H1561	H156	0.843900	0.391700	0.709700
H1571	H157	0.679200	0.589000	0.690400
H1581	H158	0.722100	0.393000	0.817200
H1591	H159	0.571200	0.583800	0.800400
H1601	H160	0.563800	0.476800	0.228600
H1611	H161	0.651400	0.353100	0.230100
H1621	H162	0.713400	0.322300	0.282700
H1631	H163	0.276000	0.737300	0.566900
H1641	H164	0.160700	0.072200	0.458800
H1651	H165	0.204800	0.020400	0.555000
H1661	H166	0.244800	0.997800	0.437000
H1671	H167	0.054100	0.918100	0.565100
H1681	H168	0.039500	0.032200	0.635200
H1691	H169	0.011000	0.820000	0.587000
H1701	H170	0.160600	0.719800	0.496200
H1711	H171	0.078900	0.789300	0.481300
H1721	H172	0.125800	0.010000	0.450400
H1731	H173	0.998400	0.025400	0.575600
H1741	H174	0.029000	0.091200	0.578600
H1751	H175	0.121400	0.712900	0.642700
H1761	H176	0.468800	0.814100	0.552100
H1771	H177	0.512500	0.714500	0.607900
H1781	H178	0.446500	0.682500	0.582900
H1791	H179	0.389600	0.740000	0.641600
H1801	H180	0.571200	0.720100	0.468700
H1811	H181	0.509900	0.788900	0.437500
H1821	H182	0.466900	0.725800	0.456800
H1831	H183	0.235600	0.209700	0.608300
H1841	H184	0.268200	0.190400	0.411000
H1851	H185	0.115100	0.317200	0.607000
H1861	H186	0.155000	0.300400	0.416200
H1871	H187	0.040600	0.728600	0.523200
H1881	H188	0.004500	0.730100	0.646900
H1891	H189	0.035700	0.782700	0.677700
H1901	H190	0.080200	0.762700	0.933100
H1911	H191	0.191700	0.427800	0.041200
H1921	H192	0.280200	0.479600	0.945000
H1931	H193	0.179600	0.502200	0.063000
H1941	H194	0.037300	0.581900	0.934900
H1951	H195	0.206900	0.467800	0.864800
H1961	H196	0.918000	0.680000	0.913000
H1971	H197	0.876600	0.780200	0.003800
H1981	H198	0.849500	0.710700	0.018700
H1991	H199	0.086200	0.490000	0.049600
H2001	H200	0.099400	0.474600	0.924400
H2011	H201	0.198800	0.408800	0.921400
H2021	H202	0.977000	0.787100	0.857300
H2031	H203	0.335000	0.685900	0.947900
H2041	H204	0.334900	0.785500	0.892100
H2051	H205	0.211900	0.817500	0.917100
H2061	H206	0.271200	0.760000	0.858400
H2071	H207	0.260000	0.779900	0.031300
H2081	H208	0.236300	0.711100	0.062500
H2091	H209	0.149500	0.774200	0.043200
H2101	H210	0.553600	0.290300	0.891700
H2111	H211	0.369600	0.309600	0.089000
H2121	H212	0.539300	0.182800	0.893000
H2131	H213	0.371600	0.199600	0.083800
H2141	H214	0.792400	0.771400	0.976800
H2151	H215	0.881500	0.769900	0.853100
H2161	H216	0.996100	0.717300	0.822300
C11	C1	0.703000	0.971210	0.927790
C21	C2	0.815810	0.957080	0.890300
C31	C3	0.881760	0.951040	0.926640
C41	C4	0.983400	0.939200	0.892800
C51	C5	0.023700	0.933400	0.823000
C61	C6	0.959000	0.938000	0.785800
C71	C7	0.853100	0.950010	0.819590
C81	C8	0.837780	0.958920	0.004120
C91	C9	0.803500	0.035100	0.022700
C101	C10	0.912300	0.913200	0.041800
C111	C11	0.140300	0.920200	0.781800
C121	C12	0.157100	0.985400	0.752400
C131	C13	0.191700	0.859100	0.749700
C141	C14	0.780200	0.956000	0.780600
C151	C15	0.828000	0.900900	0.724300
C161	C16	0.746200	0.030100	0.751100
C171	C17	0.533550	0.993770	0.120530
C181	C18	0.543730	0.991630	0.188310
C191	C19	0.552720	0.932540	0.226820
C201	C20	0.543670	0.047780	0.216080
C211	C21	0.558800	0.934400	0.291600
C221	C22	0.547000	0.043750	0.281450
C231	C23	0.102000	0.528790	0.572210
C241	C24	0.163190	0.542920	0.609700
C251	C25	0.259440	0.548960	0.573360
C261	C26	0.315400	0.560800	0.607200
C271	C27	0.280100	0.566600	0.677000
C281	C28	0.182800	0.562000	0.714200
C291	C29	0.122700	0.549990	0.680410
C301	C30	0.300820	0.541080	0.495880
C311	C31	0.361300	0.464900	0.477300
C321	C32	0.367300	0.586800	0.458200
C331	C33	0.342300	0.579800	0.718200
C341	C34	0.394900	0.514600	0.747600
C351	C35	0.300500	0.640900	0.750300
C361	C36	0.016800	0.544000	0.719400
C371	C37	0.953200	0.599100	0.775700
C381	C38	0.027400	0.469900	0.748900
C391	C39	0.147850	0.506230	0.379470
C401	C40	0.223670	0.508370	0.311690
C411	C41	0.212080	0.567460	0.273180
C421	C42	0.307530	0.452220	0.283920
C431	C43	0.284800	0.565600	0.208400
C441	C44	0.372200	0.456250	0.218550
C451	C45	0.630790	0.072210	0.471210
C461	C46	0.706110	0.109700	0.457080
C471	C47	0.808400	0.073360	0.451040
C481	C48	0.876200	0.107200	0.439200
C491	C49	0.846700	0.177000	0.433400
C501	C50	0.744800	0.214200	0.438000
C511	C51	0.672690	0.180410	0.450010
C521	C52	0.841900	0.995880	0.458920
C531	C53	0.826200	0.977300	0.535100
C541	C54	0.954100	0.958200	0.413200
C551	C55	0.922100	0.218200	0.420200
C561	C56	0.909500	0.247600	0.485400
C571	C57	0.941400	0.250300	0.359100
C581	C58	0.560800	0.219400	0.456000
C591	C59	0.552300	0.275700	0.400900
C601	C60	0.497300	0.248900	0.530100
C611	C61	0.654080	0.879470	0.493770
C621	C62	0.732040	0.811690	0.491630
C631	C63	0.779540	0.773180	0.432540
C641	C64	0.759750	0.783920	0.547780
C651	C65	0.850400	0.708400	0.434400
C661	C66	0.828450	0.718550	0.543750
C671	C67	0.674210	0.427790	0.028790
C681	C68	0.772890	0.390300	0.042920
C691	C69	0.832800	0.426640	0.048960
C701	C70	0.922600	0.392800	0.060800
C711	C71	0.957100	0.323000	0.066600
C721	C72	0.897000	0.285800	0.062000
C731	C73	0.803110	0.319590	0.049990
C741	C74	0.796700	0.504120	0.041080
C751	C75	0.838600	0.522700	0.964900
C761	C76	0.825500	0.541800	0.086800
C771	C77	0.060500	0.281800	0.079800
C781	C78	0.142500	0.252400	0.014600
C791	C79	0.050800	0.249700	0.140900
C801	C80	0.736200	0.280600	0.044000
C811	C81	0.728900	0.224300	0.099100
C821	C82	0.776300	0.251100	0.969900
C831	C83	0.527320	0.620530	0.006230
C841	C84	0.535360	0.688310	0.008370
C851	C85	0.485260	0.726820	0.067460
C861	C86	0.591450	0.716080	0.952220
C871	C87	0.493200	0.791600	0.065600
C881	C88	0.590750	0.781450	0.956250
C891	C89	0.297000	0.028790	0.072210
C901	C90	0.184190	0.042920	0.109700
C911	C91	0.118240	0.048960	0.073360
C921	C92	0.016600	0.060800	0.107200
C931	C93	0.976300	0.066600	0.177000
C941	C94	0.041000	0.062000	0.214200
C951	C95	0.146900	0.049990	0.180410
C961	C96	0.162220	0.041080	0.995880
C971	C97	0.196500	0.964900	0.977300
C981	C98	0.087700	0.086800	0.958200
C991	C99	0.859700	0.079800	0.218200
C1001	C100	0.842900	0.014600	0.247600
C1011	C101	0.808300	0.140900	0.250300
C1021	C102	0.219800	0.044000	0.219400
C1031	C103	0.172000	0.099100	0.275700
C1041	C104	0.253800	0.969900	0.248900
C1051	C105	0.466450	0.006230	0.879470
C1061	C106	0.456270	0.008370	0.811690
C1071	C107	0.447280	0.067460	0.773180
C1081	C108	0.456330	0.952220	0.783920
C1091	C109	0.441200	0.065600	0.708400
C1101	C110	0.453000	0.956250	0.718550
C1111	C111	0.898000	0.471210	0.427790
C1121	C112	0.836810	0.457080	0.390300
C1131	C113	0.740560	0.451040	0.426640
C1141	C114	0.684600	0.439200	0.392800
C1151	C115	0.719900	0.433400	0.323000
C1161	C116	0.817200	0.438000	0.285800
C1171	C117	0.877300	0.450010	0.319590
C1181	C118	0.699180	0.458920	0.504120
C1191	C119	0.638700	0.535100	0.522700
C1201	C120	0.632700	0.413200	0.541800
C1211	C121	0.657700	0.420200	0.281800
C1221	C122	0.605100	0.485400	0.252400
C1231	C123	0.699500	0.359100	0.249700
C1241	C124	0.983200	0.456000	0.280600
C1251	C125	0.046800	0.400900	0.224300
C1261	C126	0.972600	0.530100	0.251100
C1271	C127	0.852150	0.493770	0.620530
C1281	C128	0.776330	0.491630	0.688310
C1291	C129	0.787920	0.432540	0.726820
C1301	C130	0.692470	0.547780	0.716080
C1311	C131	0.715200	0.434400	0.791600
C1321	C132	0.627800	0.543750	0.781450
C1331	C133	0.369210	0.927790	0.528790
C1341	C134	0.293890	0.890300	0.542920
C1351	C135	0.191600	0.926640	0.548960
C1361	C136	0.123800	0.892800	0.560800
C1371	C137	0.153300	0.823000	0.566600
C1381	C138	0.255200	0.785800	0.562000
C1391	C139	0.327310	0.819590	0.549990
C1401	C140	0.158100	0.004120	0.541080
C1411	C141	0.173800	0.022700	0.464900
C1421	C142	0.045900	0.041800	0.586800
C1431	C143	0.077900	0.781800	0.579800
C1441	C144	0.090500	0.752400	0.514600
C1451	C145	0.058600	0.749700	0.640900
C1461	C146	0.439200	0.780600	0.544000
C1471	C147	0.447700	0.724300	0.599100
C1481	C148	0.502700	0.751100	0.469900
C1491	C149	0.345920	0.120530	0.506230
C1501	C150	0.267960	0.188310	0.508370
C1511	C151	0.220460	0.226820	0.567460
C1521	C152	0.240250	0.216080	0.452220
C1531	C153	0.149600	0.291600	0.565600
C1541	C154	0.171550	0.281450	0.456250
C1551	C155	0.325790	0.572210	0.971210
C1561	C156	0.227110	0.609700	0.957080
C1571	C157	0.167200	0.573360	0.951040
C1581	C158	0.077400	0.607200	0.939200
C1591	C159	0.042900	0.677000	0.933400
C1601	C160	0.103000	0.714200	0.938000
C1611	C161	0.196890	0.680410	0.950010
C1621	C162	0.203300	0.495880	0.958920
C1631	C163	0.161400	0.477300	0.035100
C1641	C164	0.174500	0.458200	0.913200
C1651	C165	0.939500	0.718200	0.920200
C1661	C166	0.857500	0.747600	0.985400
C1671	C167	0.949200	0.750300	0.859100
C1681	C168	0.263800	0.719400	0.956000
C1691	C169	0.271100	0.775700	0.900900
C1701	C170	0.223700	0.748900	0.030100
C1711	C171	0.472680	0.379470	0.993770
C1721	C172	0.464640	0.311690	0.991630
C1731	C173	0.514740	0.273180	0.932540
C1741	C174	0.408550	0.283920	0.047780
C1751	C175	0.506800	0.208400	0.934400
C1761	C176	0.409250	0.218550	0.043750
N11	N1	0.553380	0.988330	0.319710
N21	N2	0.361420	0.511670	0.180290
N31	N3	0.873090	0.680290	0.488330
N41	N4	0.541710	0.819710	0.011670
N51	N5	0.446620	0.011670	0.680290
N61	N6	0.638580	0.488330	0.819710
N71	N7	0.126910	0.319710	0.511670
N81	N8	0.458290	0.180290	0.988330
O11	O1	0.668220	0.922060	0.947060
O21	O2	0.538370	0.938900	0.096520
O31	O3	0.646780	0.033820	0.939900
O41	O4	0.516740	0.050760	0.089340
O51	O5	0.037340	0.577940	0.552940
O61	O6	0.073790	0.561100	0.403480
O71	O7	0.120500	0.466180	0.560100
O81	O8	0.156840	0.449240	0.410660
O91	O9	0.615280	0.052940	0.422060
O101	O10	0.634890	0.903480	0.438900
O111	O11	0.586680	0.060100	0.533820
O121	O12	0.606080	0.910660	0.550760
O131	O13	0.590280	0.447060	0.077940
O141	O14	0.477270	0.596520	0.061100
O151	O15	0.680600	0.439900	0.966180
O161	O16	0.567500	0.589340	0.949240
O171	O17	0.331780	0.077940	0.052940
O181	O18	0.461630	0.061100	0.903480
O191	O19	0.353220	0.966180	0.060100
O201	O20	0.483260	0.949240	0.910660
O211	O21	0.962660	0.422060	0.447060
O221	O22	0.926210	0.438900	0.596520
O231	O23	0.879500	0.533820	0.439900
O241	O24	0.843160	0.550760	0.589340
O251	O25	0.384720	0.947060	0.577940
O261	O26	0.365110	0.096520	0.561100
O271	O27	0.413320	0.939900	0.466180
O281	O28	0.393920	0.089340	0.449240
O291	O29	0.409720	0.552940	0.922060
O301	O30	0.522730	0.403480	0.938900
O311	O31	0.319400	0.560100	0.033820
O321	O32	0.432500	0.410660	0.050760
