data_BOLPAU_freeONLY_PM
_symmetry_space_group_name_H-M	'P1'
_cell_length_a	22.575600
_cell_length_b	29.630200
_cell_length_c	28.208000
_cell_angle_alpha	90.000000
_cell_angle_beta	90.000000
_cell_angle_gamma	90.000000
_symmetry_Int_Tables_number 1

loop_
_symmetry_equiv_pos_as_xyz
'x,y,z'

loop_
_atom_site_label
_atom_site_type_symbol
_atom_site_fract_x
_atom_site_fract_y
_atom_site_fract_z
Zn11	Zn1	0.357140	0.126400	0.658020
Zn21	Zn2	0.421350	0.124950	0.773070
Zn31	Zn3	0.854140	0.371890	0.861280
Zn41	Zn4	0.761010	0.458670	0.900020
Zn51	Zn5	0.857140	0.873600	0.841980
Zn61	Zn6	0.921350	0.875050	0.726930
Zn71	Zn7	0.354140	0.628110	0.638720
Zn81	Zn8	0.261010	0.541330	0.599980
Zn91	Zn9	0.642860	0.873600	0.341980
Zn101	Zn10	0.578650	0.875050	0.226930
Zn111	Zn11	0.145860	0.628110	0.138720
Zn121	Zn12	0.238990	0.541330	0.099980
Zn131	Zn13	0.142860	0.126400	0.158020
Zn141	Zn14	0.078650	0.124950	0.273070
Zn151	Zn15	0.645860	0.371890	0.361280
Zn161	Zn16	0.738990	0.458670	0.400020
Si11	Si1	0.561810	0.377650	0.660040
Si21	Si2	0.061760	0.122150	0.857710
Si31	Si3	0.061810	0.622350	0.839960
Si41	Si4	0.561760	0.877850	0.642290
Si51	Si5	0.438190	0.622350	0.339960
Si61	Si6	0.938240	0.877850	0.142290
Si71	Si7	0.938190	0.377650	0.160040
Si81	Si8	0.438240	0.122150	0.357710
H11	H1	0.475000	0.320100	0.609500
H21	H2	0.425200	0.253700	0.625400
H31	H3	0.508200	0.244600	0.751000
H41	H4	0.557700	0.310700	0.735100
H51	H5	0.565700	0.412100	0.753800
H61	H6	0.634800	0.415300	0.815500
H71	H7	0.758400	0.358400	0.730200
H81	H8	0.689300	0.355200	0.668400
H91	H9	0.628000	0.442800	0.610000
H101	H10	0.669200	0.451200	0.534400
H111	H11	0.613100	0.325700	0.499400
H121	H12	0.571900	0.317300	0.575000
H131	H13	0.568500	0.476000	0.661100
H141	H14	0.503300	0.535000	0.654000
H151	H15	0.366600	0.448300	0.661400
H161	H16	0.433000	0.388900	0.668200
H171	H17	0.189700	0.117300	0.870500
H181	H18	0.273500	0.117200	0.823300
H191	H19	0.169800	0.145000	0.710500
H201	H20	0.088400	0.144800	0.758000
H211	H21	0.074600	0.220400	0.850800
H221	H22	0.010300	0.282400	0.850900
H231	H23	0.871100	0.199200	0.850700
H241	H24	0.933300	0.137200	0.850400
H251	H25	0.067300	0.056700	0.778700
H261	H26	0.018900	0.990400	0.758700
H271	H27	0.919200	0.999900	0.877100
H281	H28	0.966700	0.066700	0.896300
H291	H29	0.103400	0.046900	0.916100
H301	H30	0.140300	0.037500	0.991400
H311	H31	0.112400	0.166900	0.020900
H321	H32	0.075300	0.178700	0.943600
H331	H33	0.975000	0.679900	0.890500
H341	H34	0.925200	0.746300	0.874600
H351	H35	0.008200	0.755400	0.749000
H361	H36	0.057700	0.689300	0.764900
H371	H37	0.065700	0.587900	0.746200
H381	H38	0.134800	0.584700	0.684500
H391	H39	0.258400	0.641600	0.769800
H401	H40	0.189300	0.644800	0.831600
H411	H41	0.128000	0.557200	0.890000
H421	H42	0.169200	0.548800	0.965600
H431	H43	0.113100	0.674300	0.000600
H441	H44	0.071900	0.682700	0.925000
H451	H45	0.068500	0.524000	0.838900
H461	H46	0.003300	0.465000	0.846000
H471	H47	0.866600	0.551700	0.838600
H481	H48	0.933000	0.611100	0.831800
H491	H49	0.689700	0.882700	0.629500
H501	H50	0.773500	0.882800	0.676700
H511	H51	0.669800	0.855000	0.789500
H521	H52	0.588400	0.855200	0.742000
H531	H53	0.574600	0.779600	0.649200
H541	H54	0.510300	0.717600	0.649100
H551	H55	0.371100	0.800800	0.649300
H561	H56	0.433300	0.862800	0.649600
H571	H57	0.567300	0.943300	0.721300
H581	H58	0.518900	0.009600	0.741300
H591	H59	0.419200	0.000100	0.622900
H601	H60	0.466700	0.933300	0.603700
H611	H61	0.603400	0.953100	0.583900
H621	H62	0.640300	0.962500	0.508600
H631	H63	0.612400	0.833100	0.479100
H641	H64	0.575300	0.821300	0.556400
H651	H65	0.525000	0.679900	0.390500
H661	H66	0.574800	0.746300	0.374600
H671	H67	0.491800	0.755400	0.249000
H681	H68	0.442300	0.689300	0.264900
H691	H69	0.434300	0.587900	0.246200
H701	H70	0.365200	0.584700	0.184500
H711	H71	0.241600	0.641600	0.269800
H721	H72	0.310700	0.644800	0.331600
H731	H73	0.372000	0.557200	0.390000
H741	H74	0.330800	0.548800	0.465600
H751	H75	0.386900	0.674300	0.500600
H761	H76	0.428100	0.682700	0.425000
H771	H77	0.431500	0.524000	0.338900
H781	H78	0.496700	0.465000	0.346000
H791	H79	0.633400	0.551700	0.338600
H801	H80	0.567000	0.611100	0.331800
H811	H81	0.810300	0.882700	0.129500
H821	H82	0.726500	0.882800	0.176700
H831	H83	0.830200	0.855000	0.289500
H841	H84	0.911600	0.855200	0.242000
H851	H85	0.925400	0.779600	0.149200
H861	H86	0.989700	0.717600	0.149100
H871	H87	0.128900	0.800800	0.149300
H881	H88	0.066700	0.862800	0.149600
H891	H89	0.932700	0.943300	0.221300
H901	H90	0.981100	0.009600	0.241300
H911	H91	0.080800	0.000100	0.122900
H921	H92	0.033300	0.933300	0.103700
H931	H93	0.896600	0.953100	0.083900
H941	H94	0.859700	0.962500	0.008600
H951	H95	0.887600	0.833100	0.979100
H961	H96	0.924700	0.821300	0.056400
H971	H97	0.025000	0.320100	0.109500
H981	H98	0.074800	0.253700	0.125400
H991	H99	0.991800	0.244600	0.251000
H1001	H100	0.942300	0.310700	0.235100
H1011	H101	0.934300	0.412100	0.253800
H1021	H102	0.865200	0.415300	0.315500
H1031	H103	0.741600	0.358400	0.230200
H1041	H104	0.810700	0.355200	0.168400
H1051	H105	0.872000	0.442800	0.110000
H1061	H106	0.830800	0.451200	0.034400
H1071	H107	0.886900	0.325700	0.999400
H1081	H108	0.928100	0.317300	0.075000
H1091	H109	0.931500	0.476000	0.161100
H1101	H110	0.996700	0.535000	0.154000
H1111	H111	0.133400	0.448300	0.161400
H1121	H112	0.067000	0.388900	0.168200
H1131	H113	0.310300	0.117300	0.370500
H1141	H114	0.226500	0.117200	0.323300
H1151	H115	0.330200	0.145000	0.210500
H1161	H116	0.411600	0.144800	0.258000
H1171	H117	0.425400	0.220400	0.350800
H1181	H118	0.489700	0.282400	0.350900
H1191	H119	0.628900	0.199200	0.350700
H1201	H120	0.566700	0.137200	0.350400
H1211	H121	0.432700	0.056700	0.278700
H1221	H122	0.481100	0.990400	0.258700
H1231	H123	0.580800	0.999900	0.377100
H1241	H124	0.533300	0.066700	0.396300
H1251	H125	0.396600	0.046900	0.416100
H1261	H126	0.359700	0.037500	0.491400
H1271	H127	0.387600	0.166900	0.520900
H1281	H128	0.424700	0.178700	0.443600
C11	C1	0.522330	0.323250	0.671280
C21	C2	0.482200	0.304730	0.638550
C31	C3	0.453200	0.264950	0.647600
C41	C4	0.464400	0.241090	0.688760
C51	C5	0.502000	0.259510	0.721530
C61	C6	0.530700	0.299290	0.712190
C71	C7	0.435100	0.196890	0.697700
C81	C8	0.621000	0.383380	0.705290
C91	C9	0.604800	0.401200	0.749000
C101	C10	0.645900	0.403100	0.785660
C111	C11	0.703100	0.387200	0.778640
C121	C12	0.719300	0.369300	0.735000
C131	C13	0.678300	0.367400	0.698280
C141	C14	0.746000	0.390200	0.819000
C151	C15	0.596050	0.379270	0.599590
C161	C16	0.625000	0.419060	0.587530
C171	C17	0.649500	0.424040	0.542630
C181	C18	0.645100	0.389230	0.509790
C191	C19	0.616100	0.349440	0.521840
C201	C20	0.591600	0.344460	0.566740
C211	C21	0.670900	0.394800	0.461100
C221	C22	0.507260	0.425890	0.662730
C231	C23	0.527200	0.470070	0.660260
C241	C24	0.488400	0.505120	0.656610
C251	C25	0.427500	0.498260	0.656600
C261	C26	0.407920	0.454250	0.660890
C271	C27	0.447600	0.418750	0.664460
C281	C28	0.385800	0.536010	0.649900
C291	C29	0.129180	0.129250	0.819410
C301	C30	0.185500	0.122330	0.837440
C311	C31	0.235600	0.122410	0.809720
C321	C32	0.229510	0.130260	0.761640
C331	C33	0.174100	0.138770	0.743360
C341	C34	0.126000	0.138430	0.771620
C351	C35	0.284600	0.129660	0.731870
C361	C36	0.011870	0.171580	0.852600
C371	C37	0.033070	0.215380	0.851560
C381	C38	0.994600	0.252660	0.851600
C391	C39	0.934920	0.246310	0.852580
C401	C40	0.912780	0.203620	0.851450
C411	C41	0.949900	0.166650	0.851350
C421	C42	0.891800	0.286300	0.855940
C431	C43	0.022020	0.069220	0.840340
C441	C44	0.036990	0.045390	0.798760
C451	C45	0.008440	0.005990	0.786850
C461	C46	0.964630	0.989290	0.815910
C471	C47	0.949140	0.011620	0.856940
C481	C48	0.977840	0.051170	0.868180
C491	C49	0.934690	0.945990	0.802490
C501	C50	0.086800	0.114590	0.920770
C511	C51	0.105600	0.072190	0.936820
C521	C52	0.127300	0.066500	0.981710
C531	C53	0.130400	0.100400	0.011670
C541	C54	0.110900	0.142700	0.998890
C551	C55	0.088900	0.149600	0.952730
C561	C56	0.153200	0.095800	0.062800
C571	C57	0.022330	0.676750	0.828720
C581	C58	0.982200	0.695270	0.861450
C591	C59	0.953200	0.735050	0.852400
C601	C60	0.964400	0.758910	0.811240
C611	C61	0.002000	0.740490	0.778470
C621	C62	0.030700	0.700710	0.787810
C631	C63	0.935100	0.803110	0.802300
C641	C64	0.121000	0.616620	0.794710
C651	C65	0.104800	0.598800	0.751000
C661	C66	0.145900	0.596900	0.714340
C671	C67	0.203100	0.612800	0.721360
C681	C68	0.219300	0.630700	0.765000
C691	C69	0.178300	0.632600	0.801720
C701	C70	0.246000	0.609800	0.681000
C711	C71	0.096050	0.620730	0.900410
C721	C72	0.125000	0.580940	0.912470
C731	C73	0.149500	0.575960	0.957370
C741	C74	0.145100	0.610770	0.990210
C751	C75	0.116100	0.650560	0.978160
C761	C76	0.091600	0.655540	0.933260
C771	C77	0.170900	0.605200	0.038900
C781	C78	0.007260	0.574110	0.837270
C791	C79	0.027200	0.529930	0.839740
C801	C80	0.988400	0.494880	0.843390
C811	C81	0.927500	0.501740	0.843400
C821	C82	0.907920	0.545750	0.839110
C831	C83	0.947600	0.581250	0.835540
C841	C84	0.885800	0.463990	0.850100
C851	C85	0.629180	0.870750	0.680590
C861	C86	0.685500	0.877670	0.662560
C871	C87	0.735600	0.877590	0.690280
C881	C88	0.729510	0.869740	0.738360
C891	C89	0.674100	0.861230	0.756640
C901	C90	0.626000	0.861570	0.728380
C911	C91	0.784600	0.870340	0.768130
C921	C92	0.511870	0.828420	0.647400
C931	C93	0.533070	0.784620	0.648440
C941	C94	0.494600	0.747340	0.648400
C951	C95	0.434920	0.753690	0.647420
C961	C96	0.412780	0.796380	0.648550
C971	C97	0.449900	0.833350	0.648650
C981	C98	0.391800	0.713700	0.644060
C991	C99	0.522020	0.930780	0.659660
C1001	C100	0.536990	0.954610	0.701240
C1011	C101	0.508440	0.994010	0.713150
C1021	C102	0.464630	0.010710	0.684090
C1031	C103	0.449140	0.988380	0.643060
C1041	C104	0.477840	0.948830	0.631820
C1051	C105	0.434690	0.054010	0.697510
C1061	C106	0.586800	0.885410	0.579230
C1071	C107	0.605600	0.927810	0.563180
C1081	C108	0.627300	0.933500	0.518290
C1091	C109	0.630400	0.899600	0.488330
C1101	C110	0.610900	0.857300	0.501110
C1111	C111	0.588900	0.850400	0.547270
C1121	C112	0.653200	0.904200	0.437200
C1131	C113	0.477670	0.676750	0.328720
C1141	C114	0.517800	0.695270	0.361450
C1151	C115	0.546800	0.735050	0.352400
C1161	C116	0.535600	0.758910	0.311240
C1171	C117	0.498000	0.740490	0.278470
C1181	C118	0.469300	0.700710	0.287810
C1191	C119	0.564900	0.803110	0.302300
C1201	C120	0.379000	0.616620	0.294710
C1211	C121	0.395200	0.598800	0.251000
C1221	C122	0.354100	0.596900	0.214340
C1231	C123	0.296900	0.612800	0.221360
C1241	C124	0.280700	0.630700	0.265000
C1251	C125	0.321700	0.632600	0.301720
C1261	C126	0.254000	0.609800	0.181000
C1271	C127	0.403950	0.620730	0.400410
C1281	C128	0.375000	0.580940	0.412470
C1291	C129	0.350500	0.575960	0.457370
C1301	C130	0.354900	0.610770	0.490210
C1311	C131	0.383900	0.650560	0.478160
C1321	C132	0.408400	0.655540	0.433260
C1331	C133	0.329100	0.605200	0.538900
C1341	C134	0.492740	0.574110	0.337270
C1351	C135	0.472800	0.529930	0.339740
C1361	C136	0.511600	0.494880	0.343390
C1371	C137	0.572500	0.501740	0.343400
C1381	C138	0.592080	0.545750	0.339110
C1391	C139	0.552400	0.581250	0.335540
C1401	C140	0.614200	0.463990	0.350100
C1411	C141	0.870820	0.870750	0.180590
C1421	C142	0.814500	0.877670	0.162560
C1431	C143	0.764400	0.877590	0.190280
C1441	C144	0.770490	0.869740	0.238360
C1451	C145	0.825900	0.861230	0.256640
C1461	C146	0.874000	0.861570	0.228380
C1471	C147	0.715400	0.870340	0.268130
C1481	C148	0.988130	0.828420	0.147400
C1491	C149	0.966930	0.784620	0.148440
C1501	C150	0.005400	0.747340	0.148400
C1511	C151	0.065080	0.753690	0.147420
C1521	C152	0.087220	0.796380	0.148550
C1531	C153	0.050100	0.833350	0.148650
C1541	C154	0.108200	0.713700	0.144060
C1551	C155	0.977980	0.930780	0.159660
C1561	C156	0.963010	0.954610	0.201240
C1571	C157	0.991560	0.994010	0.213150
C1581	C158	0.035370	0.010710	0.184090
C1591	C159	0.050860	0.988380	0.143060
C1601	C160	0.022160	0.948830	0.131820
C1611	C161	0.065310	0.054010	0.197510
C1621	C162	0.913200	0.885410	0.079230
C1631	C163	0.894400	0.927810	0.063180
C1641	C164	0.872700	0.933500	0.018290
C1651	C165	0.869600	0.899600	0.988330
C1661	C166	0.889100	0.857300	0.001110
C1671	C167	0.911100	0.850400	0.047270
C1681	C168	0.846800	0.904200	0.937200
C1691	C169	0.977670	0.323250	0.171280
C1701	C170	0.017800	0.304730	0.138550
C1711	C171	0.046800	0.264950	0.147600
C1721	C172	0.035600	0.241090	0.188760
C1731	C173	0.998000	0.259510	0.221530
C1741	C174	0.969300	0.299290	0.212190
C1751	C175	0.064900	0.196890	0.197700
C1761	C176	0.879000	0.383380	0.205290
C1771	C177	0.895200	0.401200	0.249000
C1781	C178	0.854100	0.403100	0.285660
C1791	C179	0.796900	0.387200	0.278640
C1801	C180	0.780700	0.369300	0.235000
C1811	C181	0.821700	0.367400	0.198280
C1821	C182	0.754000	0.390200	0.319000
C1831	C183	0.903950	0.379270	0.099590
C1841	C184	0.875000	0.419060	0.087530
C1851	C185	0.850500	0.424040	0.042630
C1861	C186	0.854900	0.389230	0.009790
C1871	C187	0.883900	0.349440	0.021840
C1881	C188	0.908400	0.344460	0.066740
C1891	C189	0.829100	0.394800	0.961100
C1901	C190	0.992740	0.425890	0.162730
C1911	C191	0.972800	0.470070	0.160260
C1921	C192	0.011600	0.505120	0.156610
C1931	C193	0.072500	0.498260	0.156600
C1941	C194	0.092080	0.454250	0.160890
C1951	C195	0.052400	0.418750	0.164460
C1961	C196	0.114200	0.536010	0.149900
C1971	C197	0.370820	0.129250	0.319410
C1981	C198	0.314500	0.122330	0.337440
C1991	C199	0.264400	0.122410	0.309720
C2001	C200	0.270490	0.130260	0.261640
C2011	C201	0.325900	0.138770	0.243360
C2021	C202	0.374000	0.138430	0.271620
C2031	C203	0.215400	0.129660	0.231870
C2041	C204	0.488130	0.171580	0.352600
C2051	C205	0.466930	0.215380	0.351560
C2061	C206	0.505400	0.252660	0.351600
C2071	C207	0.565080	0.246310	0.352580
C2081	C208	0.587220	0.203620	0.351450
C2091	C209	0.550100	0.166650	0.351350
C2101	C210	0.608200	0.286300	0.355940
C2111	C211	0.477980	0.069220	0.340340
C2121	C212	0.463010	0.045390	0.298760
C2131	C213	0.491560	0.005990	0.286850
C2141	C214	0.535370	0.989290	0.315910
C2151	C215	0.550860	0.011620	0.356940
C2161	C216	0.522160	0.051170	0.368180
C2171	C217	0.565310	0.945990	0.302490
C2181	C218	0.413200	0.114590	0.420770
C2191	C219	0.394400	0.072190	0.436820
C2201	C220	0.372700	0.066500	0.481710
C2211	C221	0.369600	0.100400	0.511670
C2221	C222	0.389100	0.142700	0.498890
C2231	C223	0.411100	0.149600	0.452730
C2241	C224	0.346800	0.095800	0.562800
O11	O1	0.403960	0.181420	0.665540
O21	O2	0.443820	0.178720	0.736950
O31	O3	0.729700	0.410000	0.856480
O41	O4	0.794600	0.370300	0.813000
O51	O5	0.691400	0.433600	0.451800
O61	O6	0.658700	0.365200	0.430700
O71	O7	0.405750	0.575590	0.649540
O81	O8	0.332220	0.527570	0.645870
O91	O9	0.332700	0.125980	0.751540
O101	O10	0.278090	0.131000	0.687030
O111	O11	0.914990	0.325140	0.849320
O121	O12	0.840030	0.280890	0.865090
O131	O13	0.943190	0.930370	0.761990
O141	O14	0.901430	0.929130	0.833990
O151	O15	0.168400	0.054800	0.073900
O161	O16	0.149800	0.128930	0.089260
O171	O17	0.390800	0.176700	0.821400
O181	O18	0.513100	0.125000	0.792100
O191	O19	0.679900	0.455800	0.939400
O201	O20	0.727500	0.513600	0.866100
O211	O21	0.903960	0.818580	0.834460
O221	O22	0.943820	0.821280	0.763050
O231	O23	0.229700	0.590000	0.643520
O241	O24	0.294600	0.629700	0.687000
O251	O25	0.191400	0.566400	0.048200
O261	O26	0.158700	0.634800	0.069300
O271	O27	0.905750	0.424410	0.850460
O281	O28	0.832220	0.472430	0.854130
O291	O29	0.832700	0.874020	0.748460
O301	O30	0.778090	0.869000	0.812970
O311	O31	0.414990	0.674860	0.650680
O321	O32	0.340030	0.719110	0.634910
O331	O33	0.443190	0.069630	0.738010
O341	O34	0.401430	0.070870	0.666010
O351	O35	0.668400	0.945200	0.426100
O361	O36	0.649800	0.871070	0.410740
O371	O37	0.890800	0.823300	0.678600
O381	O38	0.013100	0.875000	0.707900
O391	O39	0.179900	0.544200	0.560600
O401	O40	0.227500	0.486400	0.633900
O411	O41	0.596040	0.818580	0.334460
O421	O42	0.556180	0.821280	0.263050
O431	O43	0.270300	0.590000	0.143520
O441	O44	0.205400	0.629700	0.187000
O451	O45	0.308600	0.566400	0.548200
O461	O46	0.341300	0.634800	0.569300
O471	O47	0.594250	0.424410	0.350460
O481	O48	0.667780	0.472430	0.354130
O491	O49	0.667300	0.874020	0.248460
O501	O50	0.721910	0.869000	0.312970
O511	O51	0.085010	0.674860	0.150680
O521	O52	0.159970	0.719110	0.134910
O531	O53	0.056810	0.069630	0.238010
O541	O54	0.098570	0.070870	0.166010
O551	O55	0.831600	0.945200	0.926100
O561	O56	0.850200	0.871070	0.910740
O571	O57	0.609200	0.823300	0.178600
O581	O58	0.486900	0.875000	0.207900
O591	O59	0.320100	0.544200	0.060600
O601	O60	0.272500	0.486400	0.133900
O611	O61	0.096040	0.181420	0.165540
O621	O62	0.056180	0.178720	0.236950
O631	O63	0.770300	0.410000	0.356480
O641	O64	0.705400	0.370300	0.313000
O651	O65	0.808600	0.433600	0.951800
O661	O66	0.841300	0.365200	0.930700
O671	O67	0.094250	0.575590	0.149540
O681	O68	0.167780	0.527570	0.145870
O691	O69	0.167300	0.125980	0.251540
O701	O70	0.221910	0.131000	0.187030
O711	O71	0.585010	0.325140	0.349320
O721	O72	0.659970	0.280890	0.365090
O731	O73	0.556810	0.930370	0.261990
O741	O74	0.598570	0.929130	0.333990
O751	O75	0.331600	0.054800	0.573900
O761	O76	0.350200	0.128930	0.589260
O771	O77	0.109200	0.176700	0.321400
O781	O78	0.986900	0.125000	0.292100
O791	O79	0.820100	0.455800	0.439400
O801	O80	0.772500	0.513600	0.366100
Zn171	Zn17	0.142860	0.373600	0.658020
Zn181	Zn18	0.078650	0.375050	0.773070
Zn191	Zn19	0.645860	0.128110	0.861280
Zn201	Zn20	0.738990	0.041330	0.900020
Zn211	Zn21	0.642860	0.626400	0.841980
Zn221	Zn22	0.578650	0.624950	0.726930
Zn231	Zn23	0.145860	0.871890	0.638720
Zn241	Zn24	0.238990	0.958670	0.599980
Zn251	Zn25	0.857140	0.626400	0.341980
Zn261	Zn26	0.921350	0.624950	0.226930
Zn271	Zn27	0.354140	0.871890	0.138720
Zn281	Zn28	0.261010	0.958670	0.099980
Zn291	Zn29	0.357140	0.373600	0.158020
Zn301	Zn30	0.421350	0.375050	0.273070
Zn311	Zn31	0.854140	0.128110	0.361280
Zn321	Zn32	0.761010	0.041330	0.400020
Si91	Si9	0.938190	0.122350	0.660040
Si101	Si10	0.438240	0.377850	0.857710
Si111	Si11	0.438190	0.877650	0.839960
Si121	Si12	0.938240	0.622150	0.642290
Si131	Si13	0.061810	0.877650	0.339960
Si141	Si14	0.561760	0.622150	0.142290
Si151	Si15	0.561810	0.122350	0.160040
Si161	Si16	0.061760	0.377850	0.357710
H1291	H129	0.025000	0.179900	0.609500
H1301	H130	0.074800	0.246300	0.625400
H1311	H131	0.991800	0.255400	0.751000
H1321	H132	0.942300	0.189300	0.735100
H1331	H133	0.934300	0.087900	0.753800
H1341	H134	0.865200	0.084700	0.815500
H1351	H135	0.741600	0.141600	0.730200
H1361	H136	0.810700	0.144800	0.668400
H1371	H137	0.872000	0.057200	0.610000
H1381	H138	0.830800	0.048800	0.534400
H1391	H139	0.886900	0.174300	0.499400
H1401	H140	0.928100	0.182700	0.575000
H1411	H141	0.931500	0.024000	0.661100
H1421	H142	0.996700	0.965000	0.654000
H1431	H143	0.133400	0.051700	0.661400
H1441	H144	0.067000	0.111100	0.668200
H1451	H145	0.310300	0.382700	0.870500
H1461	H146	0.226500	0.382800	0.823300
H1471	H147	0.330200	0.355000	0.710500
H1481	H148	0.411600	0.355200	0.758000
H1491	H149	0.425400	0.279600	0.850800
H1501	H150	0.489700	0.217600	0.850900
H1511	H151	0.628900	0.300800	0.850700
H1521	H152	0.566700	0.362800	0.850400
H1531	H153	0.432700	0.443300	0.778700
H1541	H154	0.481100	0.509600	0.758700
H1551	H155	0.580800	0.500100	0.877100
H1561	H156	0.533300	0.433300	0.896300
H1571	H157	0.396600	0.453100	0.916100
H1581	H158	0.359700	0.462500	0.991400
H1591	H159	0.387600	0.333100	0.020900
H1601	H160	0.424700	0.321300	0.943600
H1611	H161	0.525000	0.820100	0.890500
H1621	H162	0.574800	0.753700	0.874600
H1631	H163	0.491800	0.744600	0.749000
H1641	H164	0.442300	0.810700	0.764900
H1651	H165	0.434300	0.912100	0.746200
H1661	H166	0.365200	0.915300	0.684500
H1671	H167	0.241600	0.858400	0.769800
H1681	H168	0.310700	0.855200	0.831600
H1691	H169	0.372000	0.942800	0.890000
H1701	H170	0.330800	0.951200	0.965600
H1711	H171	0.386900	0.825700	0.000600
H1721	H172	0.428100	0.817300	0.925000
H1731	H173	0.431500	0.976000	0.838900
H1741	H174	0.496700	0.035000	0.846000
H1751	H175	0.633400	0.948300	0.838600
H1761	H176	0.567000	0.888900	0.831800
H1771	H177	0.810300	0.617300	0.629500
H1781	H178	0.726500	0.617200	0.676700
H1791	H179	0.830200	0.645000	0.789500
H1801	H180	0.911600	0.644800	0.742000
H1811	H181	0.925400	0.720400	0.649200
H1821	H182	0.989700	0.782400	0.649100
H1831	H183	0.128900	0.699200	0.649300
H1841	H184	0.066700	0.637200	0.649600
H1851	H185	0.932700	0.556700	0.721300
H1861	H186	0.981100	0.490400	0.741300
H1871	H187	0.080800	0.499900	0.622900
H1881	H188	0.033300	0.566700	0.603700
H1891	H189	0.896600	0.546900	0.583900
H1901	H190	0.859700	0.537500	0.508600
H1911	H191	0.887600	0.666900	0.479100
H1921	H192	0.924700	0.678700	0.556400
H1931	H193	0.975000	0.820100	0.390500
H1941	H194	0.925200	0.753700	0.374600
H1951	H195	0.008200	0.744600	0.249000
H1961	H196	0.057700	0.810700	0.264900
H1971	H197	0.065700	0.912100	0.246200
H1981	H198	0.134800	0.915300	0.184500
H1991	H199	0.258400	0.858400	0.269800
H2001	H200	0.189300	0.855200	0.331600
H2011	H201	0.128000	0.942800	0.390000
H2021	H202	0.169200	0.951200	0.465600
H2031	H203	0.113100	0.825700	0.500600
H2041	H204	0.071900	0.817300	0.425000
H2051	H205	0.068500	0.976000	0.338900
H2061	H206	0.003300	0.035000	0.346000
H2071	H207	0.866600	0.948300	0.338600
H2081	H208	0.933000	0.888900	0.331800
H2091	H209	0.689700	0.617300	0.129500
H2101	H210	0.773500	0.617200	0.176700
H2111	H211	0.669800	0.645000	0.289500
H2121	H212	0.588400	0.644800	0.242000
H2131	H213	0.574600	0.720400	0.149200
H2141	H214	0.510300	0.782400	0.149100
H2151	H215	0.371100	0.699200	0.149300
H2161	H216	0.433300	0.637200	0.149600
H2171	H217	0.567300	0.556700	0.221300
H2181	H218	0.518900	0.490400	0.241300
H2191	H219	0.419200	0.499900	0.122900
H2201	H220	0.466700	0.566700	0.103700
H2211	H221	0.603400	0.546900	0.083900
H2221	H222	0.640300	0.537500	0.008600
H2231	H223	0.612400	0.666900	0.979100
H2241	H224	0.575300	0.678700	0.056400
H2251	H225	0.475000	0.179900	0.109500
H2261	H226	0.425200	0.246300	0.125400
H2271	H227	0.508200	0.255400	0.251000
H2281	H228	0.557700	0.189300	0.235100
H2291	H229	0.565700	0.087900	0.253800
H2301	H230	0.634800	0.084700	0.315500
H2311	H231	0.758400	0.141600	0.230200
H2321	H232	0.689300	0.144800	0.168400
H2331	H233	0.628000	0.057200	0.110000
H2341	H234	0.669200	0.048800	0.034400
H2351	H235	0.613100	0.174300	0.999400
H2361	H236	0.571900	0.182700	0.075000
H2371	H237	0.568500	0.024000	0.161100
H2381	H238	0.503300	0.965000	0.154000
H2391	H239	0.366600	0.051700	0.161400
H2401	H240	0.433000	0.111100	0.168200
H2411	H241	0.189700	0.382700	0.370500
H2421	H242	0.273500	0.382800	0.323300
H2431	H243	0.169800	0.355000	0.210500
H2441	H244	0.088400	0.355200	0.258000
H2451	H245	0.074600	0.279600	0.350800
H2461	H246	0.010300	0.217600	0.350900
H2471	H247	0.871100	0.300800	0.350700
H2481	H248	0.933300	0.362800	0.350400
H2491	H249	0.067300	0.443300	0.278700
H2501	H250	0.018900	0.509600	0.258700
H2511	H251	0.919200	0.500100	0.377100
H2521	H252	0.966700	0.433300	0.396300
H2531	H253	0.103400	0.453100	0.416100
H2541	H254	0.140300	0.462500	0.491400
H2551	H255	0.112400	0.333100	0.520900
H2561	H256	0.075300	0.321300	0.443600
C2251	C225	0.977670	0.176750	0.671280
C2261	C226	0.017800	0.195270	0.638550
C2271	C227	0.046800	0.235050	0.647600
C2281	C228	0.035600	0.258910	0.688760
C2291	C229	0.998000	0.240490	0.721530
C2301	C230	0.969300	0.200710	0.712190
C2311	C231	0.064900	0.303110	0.697700
C2321	C232	0.879000	0.116620	0.705290
C2331	C233	0.895200	0.098800	0.749000
C2341	C234	0.854100	0.096900	0.785660
C2351	C235	0.796900	0.112800	0.778640
C2361	C236	0.780700	0.130700	0.735000
C2371	C237	0.821700	0.132600	0.698280
C2381	C238	0.754000	0.109800	0.819000
C2391	C239	0.903950	0.120730	0.599590
C2401	C240	0.875000	0.080940	0.587530
C2411	C241	0.850500	0.075960	0.542630
C2421	C242	0.854900	0.110770	0.509790
C2431	C243	0.883900	0.150560	0.521840
C2441	C244	0.908400	0.155540	0.566740
C2451	C245	0.829100	0.105200	0.461100
C2461	C246	0.992740	0.074110	0.662730
C2471	C247	0.972800	0.029930	0.660260
C2481	C248	0.011600	0.994880	0.656610
C2491	C249	0.072500	0.001740	0.656600
C2501	C250	0.092080	0.045750	0.660890
C2511	C251	0.052400	0.081250	0.664460
C2521	C252	0.114200	0.963990	0.649900
C2531	C253	0.370820	0.370750	0.819410
C2541	C254	0.314500	0.377670	0.837440
C2551	C255	0.264400	0.377590	0.809720
C2561	C256	0.270490	0.369740	0.761640
C2571	C257	0.325900	0.361230	0.743360
C2581	C258	0.374000	0.361570	0.771620
C2591	C259	0.215400	0.370340	0.731870
C2601	C260	0.488130	0.328420	0.852600
C2611	C261	0.466930	0.284620	0.851560
C2621	C262	0.505400	0.247340	0.851600
C2631	C263	0.565080	0.253690	0.852580
C2641	C264	0.587220	0.296380	0.851450
C2651	C265	0.550100	0.333350	0.851350
C2661	C266	0.608200	0.213700	0.855940
C2671	C267	0.477980	0.430780	0.840340
C2681	C268	0.463010	0.454610	0.798760
C2691	C269	0.491560	0.494010	0.786850
C2701	C270	0.535370	0.510710	0.815910
C2711	C271	0.550860	0.488380	0.856940
C2721	C272	0.522160	0.448830	0.868180
C2731	C273	0.565310	0.554010	0.802490
C2741	C274	0.413200	0.385410	0.920770
C2751	C275	0.394400	0.427810	0.936820
C2761	C276	0.372700	0.433500	0.981710
C2771	C277	0.369600	0.399600	0.011670
C2781	C278	0.389100	0.357300	0.998890
C2791	C279	0.411100	0.350400	0.952730
C2801	C280	0.346800	0.404200	0.062800
C2811	C281	0.477670	0.823250	0.828720
C2821	C282	0.517800	0.804730	0.861450
C2831	C283	0.546800	0.764950	0.852400
C2841	C284	0.535600	0.741090	0.811240
C2851	C285	0.498000	0.759510	0.778470
C2861	C286	0.469300	0.799290	0.787810
C2871	C287	0.564900	0.696890	0.802300
C2881	C288	0.379000	0.883380	0.794710
C2891	C289	0.395200	0.901200	0.751000
C2901	C290	0.354100	0.903100	0.714340
C2911	C291	0.296900	0.887200	0.721360
C2921	C292	0.280700	0.869300	0.765000
C2931	C293	0.321700	0.867400	0.801720
C2941	C294	0.254000	0.890200	0.681000
C2951	C295	0.403950	0.879270	0.900410
C2961	C296	0.375000	0.919060	0.912470
C2971	C297	0.350500	0.924040	0.957370
C2981	C298	0.354900	0.889230	0.990210
C2991	C299	0.383900	0.849440	0.978160
C3001	C300	0.408400	0.844460	0.933260
C3011	C301	0.329100	0.894800	0.038900
C3021	C302	0.492740	0.925890	0.837270
C3031	C303	0.472800	0.970070	0.839740
C3041	C304	0.511600	0.005120	0.843390
C3051	C305	0.572500	0.998260	0.843400
C3061	C306	0.592080	0.954250	0.839110
C3071	C307	0.552400	0.918750	0.835540
C3081	C308	0.614200	0.036010	0.850100
C3091	C309	0.870820	0.629250	0.680590
C3101	C310	0.814500	0.622330	0.662560
C3111	C311	0.764400	0.622410	0.690280
C3121	C312	0.770490	0.630260	0.738360
C3131	C313	0.825900	0.638770	0.756640
C3141	C314	0.874000	0.638430	0.728380
C3151	C315	0.715400	0.629660	0.768130
C3161	C316	0.988130	0.671580	0.647400
C3171	C317	0.966930	0.715380	0.648440
C3181	C318	0.005400	0.752660	0.648400
C3191	C319	0.065080	0.746310	0.647420
C3201	C320	0.087220	0.703620	0.648550
C3211	C321	0.050100	0.666650	0.648650
C3221	C322	0.108200	0.786300	0.644060
C3231	C323	0.977980	0.569220	0.659660
C3241	C324	0.963010	0.545390	0.701240
C3251	C325	0.991560	0.505990	0.713150
C3261	C326	0.035370	0.489290	0.684090
C3271	C327	0.050860	0.511620	0.643060
C3281	C328	0.022160	0.551170	0.631820
C3291	C329	0.065310	0.445990	0.697510
C3301	C330	0.913200	0.614590	0.579230
C3311	C331	0.894400	0.572190	0.563180
C3321	C332	0.872700	0.566500	0.518290
C3331	C333	0.869600	0.600400	0.488330
C3341	C334	0.889100	0.642700	0.501110
C3351	C335	0.911100	0.649600	0.547270
C3361	C336	0.846800	0.595800	0.437200
C3371	C337	0.022330	0.823250	0.328720
C3381	C338	0.982200	0.804730	0.361450
C3391	C339	0.953200	0.764950	0.352400
C3401	C340	0.964400	0.741090	0.311240
C3411	C341	0.002000	0.759510	0.278470
C3421	C342	0.030700	0.799290	0.287810
C3431	C343	0.935100	0.696890	0.302300
C3441	C344	0.121000	0.883380	0.294710
C3451	C345	0.104800	0.901200	0.251000
C3461	C346	0.145900	0.903100	0.214340
C3471	C347	0.203100	0.887200	0.221360
C3481	C348	0.219300	0.869300	0.265000
C3491	C349	0.178300	0.867400	0.301720
C3501	C350	0.246000	0.890200	0.181000
C3511	C351	0.096050	0.879270	0.400410
C3521	C352	0.125000	0.919060	0.412470
C3531	C353	0.149500	0.924040	0.457370
C3541	C354	0.145100	0.889230	0.490210
C3551	C355	0.116100	0.849440	0.478160
C3561	C356	0.091600	0.844460	0.433260
C3571	C357	0.170900	0.894800	0.538900
C3581	C358	0.007260	0.925890	0.337270
C3591	C359	0.027200	0.970070	0.339740
C3601	C360	0.988400	0.005120	0.343390
C3611	C361	0.927500	0.998260	0.343400
C3621	C362	0.907920	0.954250	0.339110
C3631	C363	0.947600	0.918750	0.335540
C3641	C364	0.885800	0.036010	0.350100
C3651	C365	0.629180	0.629250	0.180590
C3661	C366	0.685500	0.622330	0.162560
C3671	C367	0.735600	0.622410	0.190280
C3681	C368	0.729510	0.630260	0.238360
C3691	C369	0.674100	0.638770	0.256640
C3701	C370	0.626000	0.638430	0.228380
C3711	C371	0.784600	0.629660	0.268130
C3721	C372	0.511870	0.671580	0.147400
C3731	C373	0.533070	0.715380	0.148440
C3741	C374	0.494600	0.752660	0.148400
C3751	C375	0.434920	0.746310	0.147420
C3761	C376	0.412780	0.703620	0.148550
C3771	C377	0.449900	0.666650	0.148650
C3781	C378	0.391800	0.786300	0.144060
C3791	C379	0.522020	0.569220	0.159660
C3801	C380	0.536990	0.545390	0.201240
C3811	C381	0.508440	0.505990	0.213150
C3821	C382	0.464630	0.489290	0.184090
C3831	C383	0.449140	0.511620	0.143060
C3841	C384	0.477840	0.551170	0.131820
C3851	C385	0.434690	0.445990	0.197510
C3861	C386	0.586800	0.614590	0.079230
C3871	C387	0.605600	0.572190	0.063180
C3881	C388	0.627300	0.566500	0.018290
C3891	C389	0.630400	0.600400	0.988330
C3901	C390	0.610900	0.642700	0.001110
C3911	C391	0.588900	0.649600	0.047270
C3921	C392	0.653200	0.595800	0.937200
C3931	C393	0.522330	0.176750	0.171280
C3941	C394	0.482200	0.195270	0.138550
C3951	C395	0.453200	0.235050	0.147600
C3961	C396	0.464400	0.258910	0.188760
C3971	C397	0.502000	0.240490	0.221530
C3981	C398	0.530700	0.200710	0.212190
C3991	C399	0.435100	0.303110	0.197700
C4001	C400	0.621000	0.116620	0.205290
C4011	C401	0.604800	0.098800	0.249000
C4021	C402	0.645900	0.096900	0.285660
C4031	C403	0.703100	0.112800	0.278640
C4041	C404	0.719300	0.130700	0.235000
C4051	C405	0.678300	0.132600	0.198280
C4061	C406	0.746000	0.109800	0.319000
C4071	C407	0.596050	0.120730	0.099590
C4081	C408	0.625000	0.080940	0.087530
C4091	C409	0.649500	0.075960	0.042630
C4101	C410	0.645100	0.110770	0.009790
C4111	C411	0.616100	0.150560	0.021840
C4121	C412	0.591600	0.155540	0.066740
C4131	C413	0.670900	0.105200	0.961100
C4141	C414	0.507260	0.074110	0.162730
C4151	C415	0.527200	0.029930	0.160260
C4161	C416	0.488400	0.994880	0.156610
C4171	C417	0.427500	0.001740	0.156600
C4181	C418	0.407920	0.045750	0.160890
C4191	C419	0.447600	0.081250	0.164460
C4201	C420	0.385800	0.963990	0.149900
C4211	C421	0.129180	0.370750	0.319410
C4221	C422	0.185500	0.377670	0.337440
C4231	C423	0.235600	0.377590	0.309720
C4241	C424	0.229510	0.369740	0.261640
C4251	C425	0.174100	0.361230	0.243360
C4261	C426	0.126000	0.361570	0.271620
C4271	C427	0.284600	0.370340	0.231870
C4281	C428	0.011870	0.328420	0.352600
C4291	C429	0.033070	0.284620	0.351560
C4301	C430	0.994600	0.247340	0.351600
C4311	C431	0.934920	0.253690	0.352580
C4321	C432	0.912780	0.296380	0.351450
C4331	C433	0.949900	0.333350	0.351350
C4341	C434	0.891800	0.213700	0.355940
C4351	C435	0.022020	0.430780	0.340340
C4361	C436	0.036990	0.454610	0.298760
C4371	C437	0.008440	0.494010	0.286850
C4381	C438	0.964630	0.510710	0.315910
C4391	C439	0.949140	0.488380	0.356940
C4401	C440	0.977840	0.448830	0.368180
C4411	C441	0.934690	0.554010	0.302490
C4421	C442	0.086800	0.385410	0.420770
C4431	C443	0.105600	0.427810	0.436820
C4441	C444	0.127300	0.433500	0.481710
C4451	C445	0.130400	0.399600	0.511670
C4461	C446	0.110900	0.357300	0.498890
C4471	C447	0.088900	0.350400	0.452730
C4481	C448	0.153200	0.404200	0.562800
O811	O81	0.096040	0.318580	0.665540
O821	O82	0.056180	0.321280	0.736950
O831	O83	0.770300	0.090000	0.856480
O841	O84	0.705400	0.129700	0.813000
O851	O85	0.808600	0.066400	0.451800
O861	O86	0.841300	0.134800	0.430700
O871	O87	0.094250	0.924410	0.649540
O881	O88	0.167780	0.972430	0.645870
O891	O89	0.167300	0.374020	0.751540
O901	O90	0.221910	0.369000	0.687030
O911	O91	0.585010	0.174860	0.849320
O921	O92	0.659970	0.219110	0.865090
O931	O93	0.556810	0.569630	0.761990
O941	O94	0.598570	0.570870	0.833990
O951	O95	0.331600	0.445200	0.073900
O961	O96	0.350200	0.371070	0.089260
O971	O97	0.109200	0.323300	0.821400
O981	O98	0.986900	0.375000	0.792100
O991	O99	0.820100	0.044200	0.939400
O1001	O100	0.772500	0.986400	0.866100
O1011	O101	0.596040	0.681420	0.834460
O1021	O102	0.556180	0.678720	0.763050
O1031	O103	0.270300	0.910000	0.643520
O1041	O104	0.205400	0.870300	0.687000
O1051	O105	0.308600	0.933600	0.048200
O1061	O106	0.341300	0.865200	0.069300
O1071	O107	0.594250	0.075590	0.850460
O1081	O108	0.667780	0.027570	0.854130
O1091	O109	0.667300	0.625980	0.748460
O1101	O110	0.721910	0.631000	0.812970
O1111	O111	0.085010	0.825140	0.650680
O1121	O112	0.159970	0.780890	0.634910
O1131	O113	0.056810	0.430370	0.738010
O1141	O114	0.098570	0.429130	0.666010
O1151	O115	0.831600	0.554800	0.426100
O1161	O116	0.850200	0.628930	0.410740
O1171	O117	0.609200	0.676700	0.678600
O1181	O118	0.486900	0.625000	0.707900
O1191	O119	0.320100	0.955800	0.560600
O1201	O120	0.272500	0.013600	0.633900
O1211	O121	0.903960	0.681420	0.334460
O1221	O122	0.943820	0.678720	0.263050
O1231	O123	0.229700	0.910000	0.143520
O1241	O124	0.294600	0.870300	0.187000
O1251	O125	0.191400	0.933600	0.548200
O1261	O126	0.158700	0.865200	0.569300
O1271	O127	0.905750	0.075590	0.350460
O1281	O128	0.832220	0.027570	0.354130
O1291	O129	0.832700	0.625980	0.248460
O1301	O130	0.778090	0.631000	0.312970
O1311	O131	0.414990	0.825140	0.150680
O1321	O132	0.340030	0.780890	0.134910
O1331	O133	0.443190	0.430370	0.238010
O1341	O134	0.401430	0.429130	0.166010
O1351	O135	0.668400	0.554800	0.926100
O1361	O136	0.649800	0.628930	0.910740
O1371	O137	0.890800	0.676700	0.178600
O1381	O138	0.013100	0.625000	0.207900
O1391	O139	0.179900	0.955800	0.060600
O1401	O140	0.227500	0.013600	0.133900
O1411	O141	0.403960	0.318580	0.165540
O1421	O142	0.443820	0.321280	0.236950
O1431	O143	0.729700	0.090000	0.356480
O1441	O144	0.794600	0.129700	0.313000
O1451	O145	0.691400	0.066400	0.951800
O1461	O146	0.658700	0.134800	0.930700
O1471	O147	0.405750	0.924410	0.149540
O1481	O148	0.332220	0.972430	0.145870
O1491	O149	0.332700	0.374020	0.251540
O1501	O150	0.278090	0.369000	0.187030
O1511	O151	0.914990	0.174860	0.349320
O1521	O152	0.840030	0.219110	0.365090
O1531	O153	0.943190	0.569630	0.261990
O1541	O154	0.901430	0.570870	0.333990
O1551	O155	0.168400	0.445200	0.573900
O1561	O156	0.149800	0.371070	0.589260
O1571	O157	0.390800	0.323300	0.321400
O1581	O158	0.513100	0.375000	0.292100
O1591	O159	0.679900	0.044200	0.439400
O1601	O160	0.727500	0.986400	0.366100
