data_BOXYIY_freeONLY_PM
_symmetry_space_group_name_H-M	'P1'
_cell_length_a	8.035200
_cell_length_b	10.189500
_cell_length_c	16.026600
_cell_angle_alpha	93.349000
_cell_angle_beta	94.504000
_cell_angle_gamma	92.452000
_symmetry_Int_Tables_number 1

loop_
_symmetry_equiv_pos_as_xyz
'x,y,z'

loop_
_atom_site_label
_atom_site_type_symbol
_atom_site_fract_x
_atom_site_fract_y
_atom_site_fract_z
Mn11	Mn1	0.388420	0.554710	0.136080
Mn21	Mn2	0.256000	0.063210	0.286290
Mn31	Mn3	0.555670	0.244480	0.423580
P11	P1	0.741580	0.410410	0.064100
P21	P2	0.869690	0.160690	0.305980
O11	O1	0.608600	0.487700	0.096270
O21	O2	0.733100	0.380600	0.971720
O31	O3	0.906100	0.493700	0.096500
H11	H1	0.986400	0.461100	0.076000
O41	O4	0.758200	0.276700	0.103600
H21	H2	0.810700	0.287700	0.149600
O51	O5	0.764800	0.171100	0.379640
O61	O6	0.044800	0.129100	0.334440
O71	O7	0.862400	0.281200	0.255030
O81	O8	0.798900	0.039000	0.244280
H31	H3	0.697100	0.031400	0.245100
O91	O9	0.513100	0.748700	0.181500
O101	O10	0.459400	0.951300	0.230960
O111	O11	0.203900	0.664300	0.208750
O121	O12	0.150100	0.866000	0.257320
O131	O13	0.232600	0.366600	0.119260
O141	O14	0.213400	0.167200	0.168620
O151	O15	0.426500	0.452600	0.257920
O161	O16	0.405100	0.252000	0.306120
O171	O17	0.366400	0.359600	0.490340
O181	O18	0.324800	0.561200	0.543150
O191	O19	0.603500	0.145400	0.543060
O201	O20	0.599100	0.943500	0.590600
C11	C1	0.421800	0.831600	0.211200
C21	C2	0.242500	0.782900	0.227070
C31	C3	0.263900	0.285700	0.172900
C41	C4	0.376700	0.336300	0.252500
C51	C5	0.410800	0.477100	0.509970
C61	C6	0.559200	0.027500	0.538550
Mn41	Mn4	0.611580	0.445290	0.863920
Mn51	Mn5	0.744000	0.936790	0.713710
Mn61	Mn6	0.444330	0.755520	0.576420
P31	P3	0.258420	0.589590	0.935900
P41	P4	0.130310	0.839310	0.694020
O211	O21	0.391400	0.512300	0.903730
O221	O22	0.266900	0.619400	0.028280
O231	O23	0.093900	0.506300	0.903500
H41	H4	0.013600	0.538900	0.924000
O241	O24	0.241800	0.723300	0.896400
H51	H5	0.189300	0.712300	0.850400
O251	O25	0.235200	0.828900	0.620360
O261	O26	0.955200	0.870900	0.665560
O271	O27	0.137600	0.718800	0.744970
O281	O28	0.201100	0.961000	0.755720
H61	H6	0.302900	0.968600	0.754900
O291	O29	0.486900	0.251300	0.818500
O301	O30	0.540600	0.048700	0.769040
O311	O31	0.796100	0.335700	0.791250
O321	O32	0.849900	0.134000	0.742680
O331	O33	0.767400	0.633400	0.880740
O341	O34	0.786600	0.832800	0.831380
O351	O35	0.573500	0.547400	0.742080
O361	O36	0.594900	0.748000	0.693880
O371	O37	0.633600	0.640400	0.509660
O381	O38	0.675200	0.438800	0.456850
O391	O39	0.396500	0.854600	0.456940
O401	O40	0.400900	0.056500	0.409400
C71	C7	0.578200	0.168400	0.788800
C81	C8	0.757500	0.217100	0.772930
C91	C9	0.736100	0.714300	0.827100
C101	C10	0.623300	0.663700	0.747500
C111	C11	0.589200	0.522900	0.490030
C121	C12	0.440800	0.972500	0.461450
