data_BUCSIC_charged_PM
_symmetry_space_group_name_H-M	'P1'
_cell_length_a	13.596000
_cell_length_b	14.676000
_cell_length_c	17.160000
_cell_angle_alpha	90.000000
_cell_angle_beta	90.000000
_cell_angle_gamma	90.000000
_symmetry_Int_Tables_number 1

loop_
_symmetry_equiv_pos_as_xyz
'x,y,z'

loop_
_atom_site_label
_atom_site_type_symbol
_atom_site_fract_x
_atom_site_fract_y
_atom_site_fract_z
Fe11	Fe1	0.224120	0.607460	0.720280
Fe21	Fe2	0.775880	0.392540	0.720280
Fe31	Fe3	0.275880	0.107460	0.779720
Fe41	Fe4	0.724120	0.892540	0.779720
Fe51	Fe5	0.775880	0.392540	0.279720
Fe61	Fe6	0.224120	0.607460	0.279720
Fe71	Fe7	0.724120	0.892540	0.220280
Fe81	Fe8	0.275880	0.107460	0.220280
Co11	Co1	0.500000	0.000000	0.500000
Co21	Co2	0.000000	0.500000	0.000000
Co31	Co3	0.259140	0.908640	0.500000
Co41	Co4	0.740860	0.091360	0.500000
Co51	Co5	0.240860	0.408640	0.000000
Co61	Co6	0.759140	0.591360	0.000000
H11	H1	0.428800	0.846800	0.453500
H21	H2	0.121800	0.770900	0.698900
H31	H3	0.065100	0.681500	0.803900
H41	H4	0.347000	0.609400	0.851600
H51	H5	0.402300	0.696600	0.746600
H61	H6	0.255100	0.597500	0.565000
H71	H7	0.381000	0.520800	0.652100
H81	H8	0.289100	0.434700	0.757600
H91	H9	0.106300	0.458200	0.735700
H101	H10	0.085300	0.558800	0.616600
H111	H11	0.089700	0.949000	0.534200
H121	H12	0.571200	0.153200	0.453500
H131	H13	0.878200	0.229100	0.698900
H141	H14	0.934900	0.318500	0.803900
H151	H15	0.653000	0.390600	0.851600
H161	H16	0.597700	0.303400	0.746600
H171	H17	0.744900	0.402500	0.565000
H181	H18	0.619000	0.479200	0.652100
H191	H19	0.710900	0.565300	0.757600
H201	H20	0.893700	0.541800	0.735700
H211	H21	0.914700	0.441200	0.616600
H221	H22	0.910300	0.051000	0.534200
H231	H23	0.071200	0.346800	0.046500
H241	H24	0.378200	0.270900	0.801100
H251	H25	0.434900	0.181500	0.696100
H261	H26	0.153000	0.109400	0.648400
H271	H27	0.097700	0.196600	0.753400
H281	H28	0.244900	0.097500	0.935000
H291	H29	0.119000	0.020800	0.847900
H301	H30	0.210900	0.934700	0.742400
H311	H31	0.393700	0.958200	0.764300
H321	H32	0.414700	0.058800	0.883400
H331	H33	0.410300	0.449000	0.965800
H341	H34	0.928800	0.653200	0.046500
H351	H35	0.621800	0.729100	0.801100
H361	H36	0.565100	0.818500	0.696100
H371	H37	0.847000	0.890600	0.648400
H381	H38	0.902300	0.803400	0.753400
H391	H39	0.755100	0.902500	0.935000
H401	H40	0.881000	0.979200	0.847900
H411	H41	0.789100	0.065300	0.742400
H421	H42	0.606300	0.041800	0.764300
H431	H43	0.585300	0.941200	0.883400
H441	H44	0.589700	0.551000	0.965800
H451	H45	0.571200	0.153200	0.546500
H461	H46	0.878200	0.229100	0.301100
H471	H47	0.934900	0.318500	0.196100
H481	H48	0.653000	0.390600	0.148400
H491	H49	0.597700	0.303400	0.253400
H501	H50	0.744900	0.402500	0.435000
H511	H51	0.619000	0.479200	0.347900
H521	H52	0.710900	0.565300	0.242400
H531	H53	0.893700	0.541800	0.264300
H541	H54	0.914700	0.441200	0.383400
H551	H55	0.910300	0.051000	0.465800
H561	H56	0.428800	0.846800	0.546500
H571	H57	0.121800	0.770900	0.301100
H581	H58	0.065100	0.681500	0.196100
H591	H59	0.347000	0.609400	0.148400
H601	H60	0.402300	0.696600	0.253400
H611	H61	0.255100	0.597500	0.435000
H621	H62	0.381000	0.520800	0.347900
H631	H63	0.289100	0.434700	0.242400
H641	H64	0.106300	0.458200	0.264300
H651	H65	0.085300	0.558800	0.383400
H661	H66	0.089700	0.949000	0.465800
H671	H67	0.928800	0.653200	0.953500
H681	H68	0.621800	0.729100	0.198900
H691	H69	0.565100	0.818500	0.303900
H701	H70	0.847000	0.890600	0.351600
H711	H71	0.902300	0.803400	0.246600
H721	H72	0.755100	0.902500	0.065000
H731	H73	0.881000	0.979200	0.152100
H741	H74	0.789100	0.065300	0.257600
H751	H75	0.606300	0.041800	0.235700
H761	H76	0.585300	0.941200	0.116600
H771	H77	0.589700	0.551000	0.034200
H781	H78	0.071200	0.346800	0.953500
H791	H79	0.378200	0.270900	0.198900
H801	H80	0.434900	0.181500	0.303900
H811	H81	0.153000	0.109400	0.351600
H821	H82	0.097700	0.196600	0.246600
H831	H83	0.244900	0.097500	0.065000
H841	H84	0.119000	0.020800	0.152100
H851	H85	0.210900	0.934700	0.257600
H861	H86	0.393700	0.958200	0.235700
H871	H87	0.414700	0.058800	0.116600
H881	H88	0.410300	0.449000	0.034200
C11	C1	0.303200	0.789600	0.637900
C21	C2	0.266600	0.741300	0.711300
C31	C3	0.167400	0.737100	0.729200
C41	C4	0.133100	0.683700	0.791500
C51	C5	0.203100	0.632900	0.835700
C61	C6	0.300700	0.640500	0.819800
C71	C7	0.333900	0.693200	0.757700
C81	C8	0.666800	0.937000	0.604900
C91	C9	0.241100	0.560700	0.609200
C101	C10	0.311600	0.517800	0.658000
C111	C11	0.260100	0.469600	0.717000
C121	C12	0.157800	0.482800	0.704700
C131	C13	0.146100	0.539100	0.638100
C141	C14	0.696800	0.210400	0.637900
C151	C15	0.733400	0.258700	0.711300
C161	C16	0.832600	0.262900	0.729200
C171	C17	0.866900	0.316300	0.791500
C181	C18	0.796900	0.367100	0.835700
C191	C19	0.699300	0.359500	0.819800
C201	C20	0.666100	0.306800	0.757700
C211	C21	0.333200	0.063000	0.604900
C221	C22	0.758900	0.439300	0.609200
C231	C23	0.688400	0.482200	0.658000
C241	C24	0.739900	0.530400	0.717000
C251	C25	0.842200	0.517200	0.704700
C261	C26	0.853900	0.460900	0.638100
C271	C27	0.196800	0.289600	0.862100
C281	C28	0.233400	0.241300	0.788700
C291	C29	0.332600	0.237100	0.770800
C301	C30	0.366900	0.183700	0.708500
C311	C31	0.296900	0.132900	0.664300
C321	C32	0.199300	0.140500	0.680200
C331	C33	0.166100	0.193200	0.742300
C341	C34	0.833200	0.437000	0.895100
C351	C35	0.258900	0.060700	0.890800
C361	C36	0.188400	0.017800	0.842000
C371	C37	0.239900	0.969600	0.783000
C381	C38	0.342200	0.982800	0.795300
C391	C39	0.353900	0.039100	0.861900
C401	C40	0.803200	0.710400	0.862100
C411	C41	0.766600	0.758700	0.788700
C421	C42	0.667400	0.762900	0.770800
C431	C43	0.633100	0.816300	0.708500
C441	C44	0.703100	0.867100	0.664300
C451	C45	0.800700	0.859500	0.680200
C461	C46	0.833900	0.806800	0.742300
C471	C47	0.166800	0.563000	0.895100
C481	C48	0.741100	0.939300	0.890800
C491	C49	0.811600	0.982200	0.842000
C501	C50	0.760100	0.030400	0.783000
C511	C51	0.657800	0.017200	0.795300
C521	C52	0.646100	0.960900	0.861900
C531	C53	0.696800	0.210400	0.362100
C541	C54	0.733400	0.258700	0.288700
C551	C55	0.832600	0.262900	0.270800
C561	C56	0.866900	0.316300	0.208500
C571	C57	0.796900	0.367100	0.164300
C581	C58	0.699300	0.359500	0.180200
C591	C59	0.666100	0.306800	0.242300
C601	C60	0.333200	0.063000	0.395100
C611	C61	0.758900	0.439300	0.390800
C621	C62	0.688400	0.482200	0.342000
C631	C63	0.739900	0.530400	0.283000
C641	C64	0.842200	0.517200	0.295300
C651	C65	0.853900	0.460900	0.361900
C661	C66	0.303200	0.789600	0.362100
C671	C67	0.266600	0.741300	0.288700
C681	C68	0.167400	0.737100	0.270800
C691	C69	0.133100	0.683700	0.208500
C701	C70	0.203100	0.632900	0.164300
C711	C71	0.300700	0.640500	0.180200
C721	C72	0.333900	0.693200	0.242300
C731	C73	0.666800	0.937000	0.395100
C741	C74	0.241100	0.560700	0.390800
C751	C75	0.311600	0.517800	0.342000
C761	C76	0.260100	0.469600	0.283000
C771	C77	0.157800	0.482800	0.295300
C781	C78	0.146100	0.539100	0.361900
C791	C79	0.803200	0.710400	0.137900
C801	C80	0.766600	0.758700	0.211300
C811	C81	0.667400	0.762900	0.229200
C821	C82	0.633100	0.816300	0.291500
C831	C83	0.703100	0.867100	0.335700
C841	C84	0.800700	0.859500	0.319800
C851	C85	0.833900	0.806800	0.257700
C861	C86	0.166800	0.563000	0.104900
C871	C87	0.741100	0.939300	0.109200
C881	C88	0.811600	0.982200	0.158000
C891	C89	0.760100	0.030400	0.217000
C901	C90	0.657800	0.017200	0.204700
C911	C91	0.646100	0.960900	0.138100
C921	C92	0.196800	0.289600	0.137900
C931	C93	0.233400	0.241300	0.211300
C941	C94	0.332600	0.237100	0.229200
C951	C95	0.366900	0.183700	0.291500
C961	C96	0.296900	0.132900	0.335700
C971	C97	0.199300	0.140500	0.319800
C981	C98	0.166100	0.193200	0.257700
C991	C99	0.833200	0.437000	0.104900
C1001	C100	0.258900	0.060700	0.109200
C1011	C101	0.188400	0.017800	0.158000
C1021	C102	0.239900	0.969600	0.217000
C1031	C103	0.342200	0.982800	0.204700
C1041	C104	0.353900	0.039100	0.138100
O11	O1	0.239700	0.814500	0.589700
O21	O2	0.394200	0.799100	0.632200
O31	O3	0.580300	0.934600	0.586700
O41	O4	0.268500	0.007400	0.584300
O51	O5	0.760300	0.185500	0.589700
O61	O6	0.605800	0.200900	0.632200
O71	O7	0.419700	0.065400	0.586700
O81	O8	0.731500	0.992600	0.584300
O91	O9	0.260300	0.314500	0.910300
O101	O10	0.105800	0.299100	0.867800
O111	O11	0.919700	0.434600	0.913300
O121	O12	0.231500	0.507400	0.915700
O131	O13	0.739700	0.685500	0.910300
O141	O14	0.894200	0.700900	0.867800
O151	O15	0.080300	0.565400	0.913300
O161	O16	0.768500	0.492600	0.915700
O171	O17	0.760300	0.185500	0.410300
O181	O18	0.605800	0.200900	0.367800
O191	O19	0.419700	0.065400	0.413300
O201	O20	0.731500	0.992600	0.415700
O211	O21	0.239700	0.814500	0.410300
O221	O22	0.394200	0.799100	0.367800
O231	O23	0.580300	0.934600	0.413300
O241	O24	0.268500	0.007400	0.415700
O251	O25	0.739700	0.685500	0.089700
O261	O26	0.894200	0.700900	0.132200
O271	O27	0.080300	0.565400	0.086700
O281	O28	0.768500	0.492600	0.084300
O291	O29	0.260300	0.314500	0.089700
O301	O30	0.105800	0.299100	0.132200
O311	O31	0.919700	0.434600	0.086700
O321	O32	0.231500	0.507400	0.084300
O331	O33	0.412300	0.883600	0.500000
O341	O34	0.106300	0.915900	0.500000
O351	O35	0.587700	0.116400	0.500000
O361	O36	0.893700	0.084100	0.500000
O371	O37	0.087700	0.383600	0.000000
O381	O38	0.393700	0.415900	0.000000
O391	O39	0.912300	0.616400	0.000000
O401	O40	0.606300	0.584100	0.000000
N11	N1	0.000000	0.000000	0.684900
O411	O41	0.028000	0.930200	0.721800
O421	O42	0.972000	0.069800	0.721800
O431	O43	0.000000	0.000000	0.613400
N21	N2	0.500000	0.500000	0.815100
O441	O44	0.472000	0.430200	0.778200
O451	O45	0.528000	0.569800	0.778200
O461	O46	0.500000	0.500000	0.886600
N31	N3	0.000000	0.000000	0.315100
O471	O47	0.972000	0.069800	0.278200
O481	O48	0.028000	0.930200	0.278200
O491	O49	0.000000	0.000000	0.386600
N41	N4	0.500000	0.500000	0.184900
O501	O50	0.528000	0.569800	0.221800
O511	O51	0.472000	0.430200	0.221800
O521	O52	0.500000	0.500000	0.113400
