data_BUCVAY_freeONLY_PM
_symmetry_space_group_name_H-M	'P1'
_cell_length_a	40.999000
_cell_length_b	14.353000
_cell_length_c	20.257000
_cell_angle_alpha	90.000000
_cell_angle_beta	108.790000
_cell_angle_gamma	90.000000
_symmetry_Int_Tables_number 1

loop_
_symmetry_equiv_pos_as_xyz
'x,y,z'

loop_
_atom_site_label
_atom_site_type_symbol
_atom_site_fract_x
_atom_site_fract_y
_atom_site_fract_z
Co11	Co1	0.917970	0.534170	0.379120
Co21	Co2	0.276650	0.345640	0.170340
N11	N1	0.947280	0.420200	0.396100
N21	N2	0.983270	0.311500	0.387500
N31	N3	0.067690	0.668700	0.114100
N41	N4	0.069660	0.811100	0.151200
N51	N5	0.193200	0.091200	0.745350
N61	N6	0.164010	0.060500	0.635010
N71	N7	0.228710	0.352000	0.176690
N81	N8	0.183950	0.321400	0.209540
O11	O1	0.884240	0.529800	0.431190
O21	O2	0.933820	0.529600	0.517380
O31	O3	0.885260	0.486600	0.783350
O41	O4	0.932700	0.461000	0.755260
O51	O5	0.277010	0.387700	0.080560
O61	O6	0.274230	0.538000	0.103400
O71	O7	0.216020	0.284000	0.844400
O81	O8	0.225080	0.362300	0.757300
C11	C1	0.902150	0.530000	0.495900
C21	C2	0.882700	0.531800	0.548300
C31	C3	0.898930	0.507400	0.615700
H11	H1	0.922200	0.489200	0.629300
C41	C4	0.881990	0.508800	0.665100
C51	C5	0.848060	0.535500	0.645500
H21	H2	0.836400	0.536400	0.678600
C61	C6	0.830970	0.561200	0.577300
H31	H3	0.807900	0.580600	0.564000
C71	C7	0.848260	0.558000	0.528100
H41	H4	0.836600	0.573700	0.481400
C81	C8	0.901880	0.483000	0.739400
C91	C9	0.970000	0.393700	0.365800
H51	H5	0.975900	0.429600	0.332500
C101	C10	0.968560	0.281000	0.434700
H61	H6	0.972900	0.224300	0.459200
C111	C11	0.946730	0.347300	0.439400
H71	H7	0.932900	0.344500	0.468400
C121	C12	0.010520	0.264000	0.369500
C131	C13	0.034020	0.315100	0.348800
H81	H8	0.031600	0.380100	0.343900
C141	C14	0.061390	0.270200	0.335200
H91	H9	0.077200	0.305400	0.320700
C151	C15	0.065520	0.175400	0.342700
C161	C16	0.041250	0.126700	0.364300
H101	H10	0.043700	0.061900	0.370700
C171	C17	0.013920	0.170700	0.376600
H111	H11	0.997700	0.135800	0.390000
C181	C18	0.098270	0.124500	0.340500
C191	C19	0.073700	0.724000	0.168600
H121	H12	0.080200	0.702600	0.214900
C201	C20	0.060400	0.816100	0.079900
H131	H13	0.055600	0.870200	0.052300
C211	C21	0.059680	0.727400	0.057900
H141	H14	0.054500	0.708800	0.011200
C221	C22	0.076230	0.889600	0.199700
C231	C23	0.107550	0.896900	0.250100
H151	H15	0.124700	0.851900	0.253600
C241	C24	0.113860	0.971100	0.296000
H161	H16	0.135700	0.977200	0.329800
C251	C25	0.088730	0.036600	0.293200
C261	C26	0.057320	0.027700	0.241000
H171	H17	0.040000	0.072100	0.237700
C271	C27	0.050860	0.955900	0.194400
H181	H18	0.029500	0.951500	0.159000
C281	C28	0.178660	0.127200	0.682600
H191	H19	0.178500	0.191100	0.672300
C291	C29	0.169590	0.978000	0.668600
H201	H20	0.162500	0.919000	0.649100
C301	C30	0.187520	0.997300	0.736100
H211	H21	0.195000	0.952400	0.771600
C311	C31	0.147500	0.076000	0.561600
C321	C32	0.145940	0.163300	0.533000
H221	H22	0.155200	0.214700	0.561700
C331	C33	0.130700	0.175500	0.462100
H231	H23	0.129700	0.235800	0.443400
C341	C34	0.116930	0.102200	0.417800
C351	C35	0.118110	0.016600	0.447700
H241	H24	0.108500	0.965300	0.419300
C361	C36	0.133220	0.003000	0.519400
H251	H25	0.133500	0.943200	0.538600
C371	C37	0.215830	0.294200	0.212200
H261	H26	0.227300	0.241400	0.236100
C381	C38	0.175730	0.400600	0.171300
H271	H27	0.155200	0.434900	0.160500
C391	C39	0.204170	0.419400	0.151700
H281	H28	0.206500	0.471100	0.125100
C401	C40	0.162330	0.273200	0.243100
C411	C41	0.176790	0.231900	0.306600
H291	H29	0.200700	0.235400	0.328900
C421	C42	0.156530	0.185600	0.338000
H301	H30	0.166900	0.155500	0.380900
C431	C43	0.121270	0.182300	0.308000
C441	C44	0.107000	0.223300	0.243100
H311	H31	0.083100	0.220300	0.220700
C451	C45	0.127560	0.268800	0.210700
H321	H32	0.117600	0.296600	0.166800
C461	C46	0.272270	0.472800	0.062700
C471	C47	0.263120	0.491700	0.985700
C481	C48	0.249880	0.418100	0.939200
H331	H33	0.247500	0.358200	0.955800
C491	C49	0.240410	0.435500	0.868400
C501	C50	0.244050	0.523200	0.843900
H341	H34	0.237600	0.534200	0.795700
C511	C51	0.257040	0.594000	0.890100
H351	H35	0.259600	0.653500	0.873000
C521	C52	0.266410	0.580000	0.960800
H361	H36	0.274900	0.629600	0.991900
C531	C53	0.225800	0.356200	0.818800
Zn11	Zn1	0.082030	0.534170	0.120880
Zn21	Zn2	0.223350	0.154360	0.829660
Co31	Co3	0.417970	0.034170	0.379120
Co41	Co4	0.776650	0.845640	0.170340
N91	N9	0.447280	0.920200	0.396100
N101	N10	0.483270	0.811500	0.387500
N111	N11	0.567690	0.168700	0.114100
N121	N12	0.569660	0.311100	0.151200
N131	N13	0.693200	0.591200	0.745350
N141	N14	0.664010	0.560500	0.635010
N151	N15	0.728710	0.852000	0.176690
N161	N16	0.683950	0.821400	0.209540
O91	O9	0.384240	0.029800	0.431190
O101	O10	0.433820	0.029600	0.517380
O111	O11	0.385260	0.986600	0.783350
O121	O12	0.432700	0.961000	0.755260
O131	O13	0.777010	0.887700	0.080560
O141	O14	0.774230	0.038000	0.103400
O151	O15	0.716020	0.784000	0.844400
O161	O16	0.725080	0.862300	0.757300
C541	C54	0.402150	0.030000	0.495900
C551	C55	0.382700	0.031800	0.548300
C561	C56	0.398930	0.007400	0.615700
H371	H37	0.422200	0.989200	0.629300
C571	C57	0.381990	0.008800	0.665100
C581	C58	0.348060	0.035500	0.645500
H381	H38	0.336400	0.036400	0.678600
C591	C59	0.330970	0.061200	0.577300
H391	H39	0.307900	0.080600	0.564000
C601	C60	0.348260	0.058000	0.528100
H401	H40	0.336600	0.073700	0.481400
C611	C61	0.401880	0.983000	0.739400
C621	C62	0.470000	0.893700	0.365800
H411	H41	0.475900	0.929600	0.332500
C631	C63	0.468560	0.781000	0.434700
H421	H42	0.472900	0.724300	0.459200
C641	C64	0.446730	0.847300	0.439400
H431	H43	0.432900	0.844500	0.468400
C651	C65	0.510520	0.764000	0.369500
C661	C66	0.534020	0.815100	0.348800
H441	H44	0.531600	0.880100	0.343900
C671	C67	0.561390	0.770200	0.335200
H451	H45	0.577200	0.805400	0.320700
C681	C68	0.565520	0.675400	0.342700
C691	C69	0.541250	0.626700	0.364300
H461	H46	0.543700	0.561900	0.370700
C701	C70	0.513920	0.670700	0.376600
H471	H47	0.497700	0.635800	0.390000
C711	C71	0.598270	0.624500	0.340500
C721	C72	0.573700	0.224000	0.168600
H481	H48	0.580200	0.202600	0.214900
C731	C73	0.560400	0.316100	0.079900
H491	H49	0.555600	0.370200	0.052300
C741	C74	0.559680	0.227400	0.057900
H501	H50	0.554500	0.208800	0.011200
C751	C75	0.576230	0.389600	0.199700
C761	C76	0.607550	0.396900	0.250100
H511	H51	0.624700	0.351900	0.253600
C771	C77	0.613860	0.471100	0.296000
H521	H52	0.635700	0.477200	0.329800
C781	C78	0.588730	0.536600	0.293200
C791	C79	0.557320	0.527700	0.241000
H531	H53	0.540000	0.572100	0.237700
C801	C80	0.550860	0.455900	0.194400
H541	H54	0.529500	0.451500	0.159000
C811	C81	0.678660	0.627200	0.682600
H551	H55	0.678500	0.691100	0.672300
C821	C82	0.669590	0.478000	0.668600
H561	H56	0.662500	0.419000	0.649100
C831	C83	0.687520	0.497300	0.736100
H571	H57	0.695000	0.452400	0.771600
C841	C84	0.647500	0.576000	0.561600
C851	C85	0.645940	0.663300	0.533000
H581	H58	0.655200	0.714700	0.561700
C861	C86	0.630700	0.675500	0.462100
H591	H59	0.629700	0.735800	0.443400
C871	C87	0.616930	0.602200	0.417800
C881	C88	0.618110	0.516600	0.447700
H601	H60	0.608500	0.465300	0.419300
C891	C89	0.633220	0.503000	0.519400
H611	H61	0.633500	0.443200	0.538600
C901	C90	0.715830	0.794200	0.212200
H621	H62	0.727300	0.741400	0.236100
C911	C91	0.675730	0.900600	0.171300
H631	H63	0.655200	0.934900	0.160500
C921	C92	0.704170	0.919400	0.151700
H641	H64	0.706500	0.971100	0.125100
C931	C93	0.662330	0.773200	0.243100
C941	C94	0.676790	0.731900	0.306600
H651	H65	0.700700	0.735400	0.328900
C951	C95	0.656530	0.685600	0.338000
H661	H66	0.666900	0.655500	0.380900
C961	C96	0.621270	0.682300	0.308000
C971	C97	0.607000	0.723300	0.243100
H671	H67	0.583100	0.720300	0.220700
C981	C98	0.627560	0.768800	0.210700
H681	H68	0.617600	0.796600	0.166800
C991	C99	0.772270	0.972800	0.062700
C1001	C100	0.763120	0.991700	0.985700
C1011	C101	0.749880	0.918100	0.939200
H691	H69	0.747500	0.858200	0.955800
C1021	C102	0.740410	0.935500	0.868400
C1031	C103	0.744050	0.023200	0.843900
H701	H70	0.737600	0.034200	0.795700
C1041	C104	0.757040	0.094000	0.890100
H711	H71	0.759600	0.153500	0.873000
C1051	C105	0.766410	0.080000	0.960800
H721	H72	0.774900	0.129600	0.991900
C1061	C106	0.725800	0.856200	0.818800
Zn31	Zn3	0.582030	0.034170	0.120880
Zn41	Zn4	0.723350	0.654360	0.829660
Co51	Co5	0.723350	0.345640	0.329660
N171	N17	0.052720	0.420200	0.103900
N181	N18	0.016730	0.311500	0.112500
N191	N19	0.932310	0.668700	0.385900
N201	N20	0.930340	0.811100	0.348800
N211	N21	0.806800	0.091200	0.754650
N221	N22	0.835990	0.060500	0.864990
N231	N23	0.771290	0.352000	0.323310
N241	N24	0.816050	0.321400	0.290460
O171	O17	0.115760	0.529800	0.068810
O181	O18	0.066180	0.529600	0.982620
O191	O19	0.114740	0.486600	0.716650
O201	O20	0.067300	0.461000	0.744740
O211	O21	0.722990	0.387700	0.419440
O221	O22	0.725770	0.538000	0.396600
O231	O23	0.783980	0.284000	0.655600
O241	O24	0.774920	0.362300	0.742700
C1071	C107	0.097850	0.530000	0.004100
C1081	C108	0.117300	0.531800	0.951700
C1091	C109	0.101070	0.507400	0.884300
H731	H73	0.077800	0.489200	0.870700
C1101	C110	0.118010	0.508800	0.834900
C1111	C111	0.151940	0.535500	0.854500
H741	H74	0.163600	0.536400	0.821400
C1121	C112	0.169030	0.561200	0.922700
H751	H75	0.192100	0.580600	0.936000
C1131	C113	0.151740	0.558000	0.971900
H761	H76	0.163400	0.573700	0.018600
C1141	C114	0.098120	0.483000	0.760600
C1151	C115	0.030000	0.393700	0.134200
H771	H77	0.024100	0.429600	0.167500
C1161	C116	0.031440	0.281000	0.065300
H781	H78	0.027100	0.224300	0.040800
C1171	C117	0.053270	0.347300	0.060600
H791	H79	0.067100	0.344500	0.031600
C1181	C118	0.989480	0.264000	0.130500
C1191	C119	0.965980	0.315100	0.151200
H801	H80	0.968400	0.380100	0.156100
C1201	C120	0.938610	0.270200	0.164800
H811	H81	0.922800	0.305400	0.179300
C1211	C121	0.934480	0.175400	0.157300
C1221	C122	0.958750	0.126700	0.135700
H821	H82	0.956300	0.061900	0.129300
C1231	C123	0.986080	0.170700	0.123400
H831	H83	0.002300	0.135800	0.110000
C1241	C124	0.901730	0.124500	0.159500
C1251	C125	0.926300	0.724000	0.331400
H841	H84	0.919800	0.702600	0.285100
C1261	C126	0.939600	0.816100	0.420100
H851	H85	0.944400	0.870200	0.447700
C1271	C127	0.940320	0.727400	0.442100
H861	H86	0.945500	0.708800	0.488800
C1281	C128	0.923770	0.889600	0.300300
C1291	C129	0.892450	0.896900	0.249900
H871	H87	0.875300	0.851900	0.246400
C1301	C130	0.886140	0.971100	0.204000
H881	H88	0.864300	0.977200	0.170200
C1311	C131	0.911270	0.036600	0.206800
C1321	C132	0.942680	0.027700	0.259000
H891	H89	0.960000	0.072100	0.262300
C1331	C133	0.949140	0.955900	0.305600
H901	H90	0.970500	0.951500	0.341000
C1341	C134	0.821340	0.127200	0.817400
H911	H91	0.821500	0.191100	0.827700
C1351	C135	0.830410	0.978000	0.831400
H921	H92	0.837500	0.919000	0.850900
C1361	C136	0.812480	0.997300	0.763900
H931	H93	0.805000	0.952400	0.728400
C1371	C137	0.852500	0.076000	0.938400
C1381	C138	0.854060	0.163300	0.967000
H941	H94	0.844800	0.214700	0.938300
C1391	C139	0.869300	0.175500	0.037900
H951	H95	0.870300	0.235800	0.056600
C1401	C140	0.883070	0.102200	0.082200
C1411	C141	0.881890	0.016600	0.052300
H961	H96	0.891500	0.965300	0.080700
C1421	C142	0.866780	0.003000	0.980600
H971	H97	0.866500	0.943200	0.961400
C1431	C143	0.784170	0.294200	0.287800
H981	H98	0.772700	0.241400	0.263900
C1441	C144	0.824270	0.400600	0.328700
H991	H99	0.844800	0.434900	0.339500
C1451	C145	0.795830	0.419400	0.348300
H1001	H100	0.793500	0.471100	0.374900
C1461	C146	0.837670	0.273200	0.256900
C1471	C147	0.823210	0.231900	0.193400
H1011	H101	0.799300	0.235400	0.171100
C1481	C148	0.843470	0.185600	0.162000
H1021	H102	0.833100	0.155500	0.119100
C1491	C149	0.878730	0.182300	0.192000
C1501	C150	0.893000	0.223300	0.256900
H1031	H103	0.916900	0.220300	0.279300
C1511	C151	0.872440	0.268800	0.289300
H1041	H104	0.882400	0.296600	0.333200
C1521	C152	0.727730	0.472800	0.437300
C1531	C153	0.736880	0.491700	0.514300
C1541	C154	0.750120	0.418100	0.560800
H1051	H105	0.752500	0.358200	0.544200
C1551	C155	0.759590	0.435500	0.631600
C1561	C156	0.755950	0.523200	0.656100
H1061	H106	0.762400	0.534200	0.704300
C1571	C157	0.742960	0.594000	0.609900
H1071	H107	0.740400	0.653500	0.627000
C1581	C158	0.733590	0.580000	0.539200
H1081	H108	0.725100	0.629600	0.508100
C1591	C159	0.774200	0.356200	0.681200
Zn51	Zn5	0.776650	0.154360	0.670340
Co61	Co6	0.223350	0.845640	0.329660
N251	N25	0.552720	0.920200	0.103900
N261	N26	0.516730	0.811500	0.112500
N271	N27	0.432310	0.168700	0.385900
N281	N28	0.430340	0.311100	0.348800
N291	N29	0.306800	0.591200	0.754650
N301	N30	0.335990	0.560500	0.864990
N311	N31	0.271290	0.852000	0.323310
N321	N32	0.316050	0.821400	0.290460
O251	O25	0.615760	0.029800	0.068810
O261	O26	0.566180	0.029600	0.982620
O271	O27	0.614740	0.986600	0.716650
O281	O28	0.567300	0.961000	0.744740
O291	O29	0.222990	0.887700	0.419440
O301	O30	0.225770	0.038000	0.396600
O311	O31	0.283980	0.784000	0.655600
O321	O32	0.274920	0.862300	0.742700
C1601	C160	0.597850	0.030000	0.004100
C1611	C161	0.617300	0.031800	0.951700
C1621	C162	0.601070	0.007400	0.884300
H1091	H109	0.577800	0.989200	0.870700
C1631	C163	0.618010	0.008800	0.834900
C1641	C164	0.651940	0.035500	0.854500
H1101	H110	0.663600	0.036400	0.821400
C1651	C165	0.669030	0.061200	0.922700
H1111	H111	0.692100	0.080600	0.936000
C1661	C166	0.651740	0.058000	0.971900
H1121	H112	0.663400	0.073700	0.018600
C1671	C167	0.598120	0.983000	0.760600
C1681	C168	0.530000	0.893700	0.134200
H1131	H113	0.524100	0.929600	0.167500
C1691	C169	0.531440	0.781000	0.065300
H1141	H114	0.527100	0.724300	0.040800
C1701	C170	0.553270	0.847300	0.060600
H1151	H115	0.567100	0.844500	0.031600
C1711	C171	0.489480	0.764000	0.130500
C1721	C172	0.465980	0.815100	0.151200
H1161	H116	0.468400	0.880100	0.156100
C1731	C173	0.438610	0.770200	0.164800
H1171	H117	0.422800	0.805400	0.179300
C1741	C174	0.434480	0.675400	0.157300
C1751	C175	0.458750	0.626700	0.135700
H1181	H118	0.456300	0.561900	0.129300
C1761	C176	0.486080	0.670700	0.123400
H1191	H119	0.502300	0.635800	0.110000
C1771	C177	0.401730	0.624500	0.159500
C1781	C178	0.426300	0.224000	0.331400
H1201	H120	0.419800	0.202600	0.285100
C1791	C179	0.439600	0.316100	0.420100
H1211	H121	0.444400	0.370200	0.447700
C1801	C180	0.440320	0.227400	0.442100
H1221	H122	0.445500	0.208800	0.488800
C1811	C181	0.423770	0.389600	0.300300
C1821	C182	0.392450	0.396900	0.249900
H1231	H123	0.375300	0.351900	0.246400
C1831	C183	0.386140	0.471100	0.204000
H1241	H124	0.364300	0.477200	0.170200
C1841	C184	0.411270	0.536600	0.206800
C1851	C185	0.442680	0.527700	0.259000
H1251	H125	0.460000	0.572100	0.262300
C1861	C186	0.449140	0.455900	0.305600
H1261	H126	0.470500	0.451500	0.341000
C1871	C187	0.321340	0.627200	0.817400
H1271	H127	0.321500	0.691100	0.827700
C1881	C188	0.330410	0.478000	0.831400
H1281	H128	0.337500	0.419000	0.850900
C1891	C189	0.312480	0.497300	0.763900
H1291	H129	0.305000	0.452400	0.728400
C1901	C190	0.352500	0.576000	0.938400
C1911	C191	0.354060	0.663300	0.967000
H1301	H130	0.344800	0.714700	0.938300
C1921	C192	0.369300	0.675500	0.037900
H1311	H131	0.370300	0.735800	0.056600
C1931	C193	0.383070	0.602200	0.082200
C1941	C194	0.381890	0.516600	0.052300
H1321	H132	0.391500	0.465300	0.080700
C1951	C195	0.366780	0.503000	0.980600
H1331	H133	0.366500	0.443200	0.961400
C1961	C196	0.284170	0.794200	0.287800
H1341	H134	0.272700	0.741400	0.263900
C1971	C197	0.324270	0.900600	0.328700
H1351	H135	0.344800	0.934900	0.339500
C1981	C198	0.295830	0.919400	0.348300
H1361	H136	0.293500	0.971100	0.374900
C1991	C199	0.337670	0.773200	0.256900
C2001	C200	0.323210	0.731900	0.193400
H1371	H137	0.299300	0.735400	0.171100
C2011	C201	0.343470	0.685600	0.162000
H1381	H138	0.333100	0.655500	0.119100
C2021	C202	0.378730	0.682300	0.192000
C2031	C203	0.393000	0.723300	0.256900
H1391	H139	0.416900	0.720300	0.279300
C2041	C204	0.372440	0.768800	0.289300
H1401	H140	0.382400	0.796600	0.333200
C2051	C205	0.227730	0.972800	0.437300
C2061	C206	0.236880	0.991700	0.514300
C2071	C207	0.250120	0.918100	0.560800
H1411	H141	0.252500	0.858200	0.544200
C2081	C208	0.259590	0.935500	0.631600
C2091	C209	0.255950	0.023200	0.656100
H1421	H142	0.262400	0.034200	0.704300
C2101	C210	0.242960	0.094000	0.609900
H1431	H143	0.240400	0.153500	0.627000
C2111	C211	0.233590	0.080000	0.539200
H1441	H144	0.225100	0.129600	0.508100
C2121	C212	0.274200	0.856200	0.681200
Zn61	Zn6	0.276650	0.654360	0.670340
Co71	Co7	0.082030	0.465830	0.620880
N331	N33	0.052720	0.579800	0.603900
N341	N34	0.016730	0.688500	0.612500
N351	N35	0.932310	0.331300	0.885900
N361	N36	0.930340	0.188900	0.848800
N371	N37	0.806800	0.908800	0.254650
N381	N38	0.835990	0.939500	0.364990
N391	N39	0.771290	0.648000	0.823310
N401	N40	0.816050	0.678600	0.790460
O331	O33	0.115760	0.470200	0.568810
O341	O34	0.066180	0.470400	0.482620
O351	O35	0.114740	0.513400	0.216650
O361	O36	0.067300	0.539000	0.244740
O371	O37	0.722990	0.612300	0.919440
O381	O38	0.725770	0.462000	0.896600
O391	O39	0.783980	0.716000	0.155600
O401	O40	0.774920	0.637700	0.242700
C2131	C213	0.097850	0.470000	0.504100
C2141	C214	0.117300	0.468200	0.451700
C2151	C215	0.101070	0.492600	0.384300
H1451	H145	0.077800	0.510800	0.370700
C2161	C216	0.118010	0.491200	0.334900
C2171	C217	0.151940	0.464500	0.354500
H1461	H146	0.163600	0.463600	0.321400
C2181	C218	0.169030	0.438800	0.422700
H1471	H147	0.192100	0.419400	0.436000
C2191	C219	0.151740	0.442000	0.471900
H1481	H148	0.163400	0.426300	0.518600
C2201	C220	0.098120	0.517000	0.260600
C2211	C221	0.030000	0.606300	0.634200
H1491	H149	0.024100	0.570400	0.667500
C2221	C222	0.031440	0.719000	0.565300
H1501	H150	0.027100	0.775700	0.540800
C2231	C223	0.053270	0.652700	0.560600
H1511	H151	0.067100	0.655500	0.531600
C2241	C224	0.989480	0.736000	0.630500
C2251	C225	0.965980	0.684900	0.651200
H1521	H152	0.968400	0.619900	0.656100
C2261	C226	0.938610	0.729800	0.664800
H1531	H153	0.922800	0.694600	0.679300
C2271	C227	0.934480	0.824600	0.657300
C2281	C228	0.958750	0.873300	0.635700
H1541	H154	0.956300	0.938100	0.629300
C2291	C229	0.986080	0.829300	0.623400
H1551	H155	0.002300	0.864200	0.610000
C2301	C230	0.901730	0.875500	0.659500
C2311	C231	0.926300	0.276000	0.831400
H1561	H156	0.919800	0.297400	0.785100
C2321	C232	0.939600	0.183900	0.920100
H1571	H157	0.944400	0.129800	0.947700
C2331	C233	0.940320	0.272600	0.942100
H1581	H158	0.945500	0.291200	0.988800
C2341	C234	0.923770	0.110400	0.800300
C2351	C235	0.892450	0.103100	0.749900
H1591	H159	0.875300	0.148100	0.746400
C2361	C236	0.886140	0.028900	0.704000
H1601	H160	0.864300	0.022800	0.670200
C2371	C237	0.911270	0.963400	0.706800
C2381	C238	0.942680	0.972300	0.759000
H1611	H161	0.960000	0.927900	0.762300
C2391	C239	0.949140	0.044100	0.805600
H1621	H162	0.970500	0.048500	0.841000
C2401	C240	0.821340	0.872800	0.317400
H1631	H163	0.821500	0.808900	0.327700
C2411	C241	0.830410	0.022000	0.331400
H1641	H164	0.837500	0.081000	0.350900
C2421	C242	0.812480	0.002700	0.263900
H1651	H165	0.805000	0.047600	0.228400
C2431	C243	0.852500	0.924000	0.438400
C2441	C244	0.854060	0.836700	0.467000
H1661	H166	0.844800	0.785300	0.438300
C2451	C245	0.869300	0.824500	0.537900
H1671	H167	0.870300	0.764200	0.556600
C2461	C246	0.883070	0.897800	0.582200
C2471	C247	0.881890	0.983400	0.552300
H1681	H168	0.891500	0.034700	0.580700
C2481	C248	0.866780	0.997000	0.480600
H1691	H169	0.866500	0.056800	0.461400
C2491	C249	0.784170	0.705800	0.787800
H1701	H170	0.772700	0.758600	0.763900
C2501	C250	0.824270	0.599400	0.828700
H1711	H171	0.844800	0.565100	0.839500
C2511	C251	0.795830	0.580600	0.848300
H1721	H172	0.793500	0.528900	0.874900
C2521	C252	0.837670	0.726800	0.756900
C2531	C253	0.823210	0.768100	0.693400
H1731	H173	0.799300	0.764600	0.671100
C2541	C254	0.843470	0.814400	0.662000
H1741	H174	0.833100	0.844500	0.619100
C2551	C255	0.878730	0.817700	0.692000
C2561	C256	0.893000	0.776700	0.756900
H1751	H175	0.916900	0.779700	0.779300
C2571	C257	0.872440	0.731200	0.789300
H1761	H176	0.882400	0.703400	0.833200
C2581	C258	0.727730	0.527200	0.937300
C2591	C259	0.736880	0.508300	0.014300
C2601	C260	0.750120	0.581900	0.060800
H1771	H177	0.752500	0.641800	0.044200
C2611	C261	0.759590	0.564500	0.131600
C2621	C262	0.755950	0.476800	0.156100
H1781	H178	0.762400	0.465800	0.204300
C2631	C263	0.742960	0.406000	0.109900
H1791	H179	0.740400	0.346500	0.127000
C2641	C264	0.733590	0.420000	0.039200
H1801	H180	0.725100	0.370400	0.008100
C2651	C265	0.774200	0.643800	0.181200
Zn71	Zn7	0.917970	0.465830	0.879120
Co81	Co8	0.582030	0.965830	0.620880
N411	N41	0.552720	0.079800	0.603900
N421	N42	0.516730	0.188500	0.612500
N431	N43	0.432310	0.831300	0.885900
N441	N44	0.430340	0.688900	0.848800
N451	N45	0.306800	0.408800	0.254650
N461	N46	0.335990	0.439500	0.364990
N471	N47	0.271290	0.148000	0.823310
N481	N48	0.316050	0.178600	0.790460
O411	O41	0.615760	0.970200	0.568810
O421	O42	0.566180	0.970400	0.482620
O431	O43	0.614740	0.013400	0.216650
O441	O44	0.567300	0.039000	0.244740
O451	O45	0.222990	0.112300	0.919440
O461	O46	0.225770	0.962000	0.896600
O471	O47	0.283980	0.216000	0.155600
O481	O48	0.274920	0.137700	0.242700
C2661	C266	0.597850	0.970000	0.504100
C2671	C267	0.617300	0.968200	0.451700
C2681	C268	0.601070	0.992600	0.384300
H1811	H181	0.577800	0.010800	0.370700
C2691	C269	0.618010	0.991200	0.334900
C2701	C270	0.651940	0.964500	0.354500
H1821	H182	0.663600	0.963600	0.321400
C2711	C271	0.669030	0.938800	0.422700
H1831	H183	0.692100	0.919400	0.436000
C2721	C272	0.651740	0.942000	0.471900
H1841	H184	0.663400	0.926300	0.518600
C2731	C273	0.598120	0.017000	0.260600
C2741	C274	0.530000	0.106300	0.634200
H1851	H185	0.524100	0.070400	0.667500
C2751	C275	0.531440	0.219000	0.565300
H1861	H186	0.527100	0.275700	0.540800
C2761	C276	0.553270	0.152700	0.560600
H1871	H187	0.567100	0.155500	0.531600
C2771	C277	0.489480	0.236000	0.630500
C2781	C278	0.465980	0.184900	0.651200
H1881	H188	0.468400	0.119900	0.656100
C2791	C279	0.438610	0.229800	0.664800
H1891	H189	0.422800	0.194600	0.679300
C2801	C280	0.434480	0.324600	0.657300
C2811	C281	0.458750	0.373300	0.635700
H1901	H190	0.456300	0.438100	0.629300
C2821	C282	0.486080	0.329300	0.623400
H1911	H191	0.502300	0.364200	0.610000
C2831	C283	0.401730	0.375500	0.659500
C2841	C284	0.426300	0.776000	0.831400
H1921	H192	0.419800	0.797400	0.785100
C2851	C285	0.439600	0.683900	0.920100
H1931	H193	0.444400	0.629800	0.947700
C2861	C286	0.440320	0.772600	0.942100
H1941	H194	0.445500	0.791200	0.988800
C2871	C287	0.423770	0.610400	0.800300
C2881	C288	0.392450	0.603100	0.749900
H1951	H195	0.375300	0.648100	0.746400
C2891	C289	0.386140	0.528900	0.704000
H1961	H196	0.364300	0.522800	0.670200
C2901	C290	0.411270	0.463400	0.706800
C2911	C291	0.442680	0.472300	0.759000
H1971	H197	0.460000	0.427900	0.762300
C2921	C292	0.449140	0.544100	0.805600
H1981	H198	0.470500	0.548500	0.841000
C2931	C293	0.321340	0.372800	0.317400
H1991	H199	0.321500	0.308900	0.327700
C2941	C294	0.330410	0.522000	0.331400
H2001	H200	0.337500	0.581000	0.350900
C2951	C295	0.312480	0.502700	0.263900
H2011	H201	0.305000	0.547600	0.228400
C2961	C296	0.352500	0.424000	0.438400
C2971	C297	0.354060	0.336700	0.467000
H2021	H202	0.344800	0.285300	0.438300
C2981	C298	0.369300	0.324500	0.537900
H2031	H203	0.370300	0.264200	0.556600
C2991	C299	0.383070	0.397800	0.582200
C3001	C300	0.381890	0.483400	0.552300
H2041	H204	0.391500	0.534700	0.580700
C3011	C301	0.366780	0.497000	0.480600
H2051	H205	0.366500	0.556800	0.461400
C3021	C302	0.284170	0.205800	0.787800
H2061	H206	0.272700	0.258600	0.763900
C3031	C303	0.324270	0.099400	0.828700
H2071	H207	0.344800	0.065100	0.839500
C3041	C304	0.295830	0.080600	0.848300
H2081	H208	0.293500	0.028900	0.874900
C3051	C305	0.337670	0.226800	0.756900
C3061	C306	0.323210	0.268100	0.693400
H2091	H209	0.299300	0.264600	0.671100
C3071	C307	0.343470	0.314400	0.662000
H2101	H210	0.333100	0.344500	0.619100
C3081	C308	0.378730	0.317700	0.692000
C3091	C309	0.393000	0.276700	0.756900
H2111	H211	0.416900	0.279700	0.779300
C3101	C310	0.372440	0.231200	0.789300
H2121	H212	0.382400	0.203400	0.833200
C3111	C311	0.227730	0.027200	0.937300
C3121	C312	0.236880	0.008300	0.014300
C3131	C313	0.250120	0.081900	0.060800
H2131	H213	0.252500	0.141800	0.044200
C3141	C314	0.259590	0.064500	0.131600
C3151	C315	0.255950	0.976800	0.156100
H2141	H214	0.262400	0.965800	0.204300
C3161	C316	0.242960	0.906000	0.109900
H2151	H215	0.240400	0.846500	0.127000
C3171	C317	0.233590	0.920000	0.039200
H2161	H216	0.225100	0.870400	0.008100
C3181	C318	0.274200	0.143800	0.181200
Zn81	Zn8	0.417970	0.965830	0.879120
N491	N49	0.947280	0.579800	0.896100
N501	N50	0.983270	0.688500	0.887500
N511	N51	0.067690	0.331300	0.614100
N521	N52	0.069660	0.188900	0.651200
N531	N53	0.193200	0.908800	0.245350
N541	N54	0.164010	0.939500	0.135010
N551	N55	0.228710	0.648000	0.676690
N561	N56	0.183950	0.678600	0.709540
O491	O49	0.884240	0.470200	0.931190
O501	O50	0.933820	0.470400	0.017380
O511	O51	0.885260	0.513400	0.283350
O521	O52	0.932700	0.539000	0.255260
O531	O53	0.277010	0.612300	0.580560
O541	O54	0.274230	0.462000	0.603400
O551	O55	0.216020	0.716000	0.344400
O561	O56	0.225080	0.637700	0.257300
C3191	C319	0.902150	0.470000	0.995900
C3201	C320	0.882700	0.468200	0.048300
C3211	C321	0.898930	0.492600	0.115700
H2171	H217	0.922200	0.510800	0.129300
C3221	C322	0.881990	0.491200	0.165100
C3231	C323	0.848060	0.464500	0.145500
H2181	H218	0.836400	0.463600	0.178600
C3241	C324	0.830970	0.438800	0.077300
H2191	H219	0.807900	0.419400	0.064000
C3251	C325	0.848260	0.442000	0.028100
H2201	H220	0.836600	0.426300	0.981400
C3261	C326	0.901880	0.517000	0.239400
C3271	C327	0.970000	0.606300	0.865800
H2211	H221	0.975900	0.570400	0.832500
C3281	C328	0.968560	0.719000	0.934700
H2221	H222	0.972900	0.775700	0.959200
C3291	C329	0.946730	0.652700	0.939400
H2231	H223	0.932900	0.655500	0.968400
C3301	C330	0.010520	0.736000	0.869500
C3311	C331	0.034020	0.684900	0.848800
H2241	H224	0.031600	0.619900	0.843900
C3321	C332	0.061390	0.729800	0.835200
H2251	H225	0.077200	0.694600	0.820700
C3331	C333	0.065520	0.824600	0.842700
C3341	C334	0.041250	0.873300	0.864300
H2261	H226	0.043700	0.938100	0.870700
C3351	C335	0.013920	0.829300	0.876600
H2271	H227	0.997700	0.864200	0.890000
C3361	C336	0.098270	0.875500	0.840500
C3371	C337	0.073700	0.276000	0.668600
H2281	H228	0.080200	0.297400	0.714900
C3381	C338	0.060400	0.183900	0.579900
H2291	H229	0.055600	0.129800	0.552300
C3391	C339	0.059680	0.272600	0.557900
H2301	H230	0.054500	0.291200	0.511200
C3401	C340	0.076230	0.110400	0.699700
C3411	C341	0.107550	0.103100	0.750100
H2311	H231	0.124700	0.148100	0.753600
C3421	C342	0.113860	0.028900	0.796000
H2321	H232	0.135700	0.022800	0.829800
C3431	C343	0.088730	0.963400	0.793200
C3441	C344	0.057320	0.972300	0.741000
H2331	H233	0.040000	0.927900	0.737700
C3451	C345	0.050860	0.044100	0.694400
H2341	H234	0.029500	0.048500	0.659000
C3461	C346	0.178660	0.872800	0.182600
H2351	H235	0.178500	0.808900	0.172300
C3471	C347	0.169590	0.022000	0.168600
H2361	H236	0.162500	0.081000	0.149100
C3481	C348	0.187520	0.002700	0.236100
H2371	H237	0.195000	0.047600	0.271600
C3491	C349	0.147500	0.924000	0.061600
C3501	C350	0.145940	0.836700	0.033000
H2381	H238	0.155200	0.785300	0.061700
C3511	C351	0.130700	0.824500	0.962100
H2391	H239	0.129700	0.764200	0.943400
C3521	C352	0.116930	0.897800	0.917800
C3531	C353	0.118110	0.983400	0.947700
H2401	H240	0.108500	0.034700	0.919300
C3541	C354	0.133220	0.997000	0.019400
H2411	H241	0.133500	0.056800	0.038600
C3551	C355	0.215830	0.705800	0.712200
H2421	H242	0.227300	0.758600	0.736100
C3561	C356	0.175730	0.599400	0.671300
H2431	H243	0.155200	0.565100	0.660500
C3571	C357	0.204170	0.580600	0.651700
H2441	H244	0.206500	0.528900	0.625100
C3581	C358	0.162330	0.726800	0.743100
C3591	C359	0.176790	0.768100	0.806600
H2451	H245	0.200700	0.764600	0.828900
C3601	C360	0.156530	0.814400	0.838000
H2461	H246	0.166900	0.844500	0.880900
C3611	C361	0.121270	0.817700	0.808000
C3621	C362	0.107000	0.776700	0.743100
H2471	H247	0.083100	0.779700	0.720700
C3631	C363	0.127560	0.731200	0.710700
H2481	H248	0.117600	0.703400	0.666800
C3641	C364	0.272270	0.527200	0.562700
C3651	C365	0.263120	0.508300	0.485700
C3661	C366	0.249880	0.581900	0.439200
H2491	H249	0.247500	0.641800	0.455800
C3671	C367	0.240410	0.564500	0.368400
C3681	C368	0.244050	0.476800	0.343900
H2501	H250	0.237600	0.465800	0.295700
C3691	C369	0.257040	0.406000	0.390100
H2511	H251	0.259600	0.346500	0.373000
C3701	C370	0.266410	0.420000	0.460800
H2521	H252	0.274900	0.370400	0.491900
C3711	C371	0.225800	0.643800	0.318800
N571	N57	0.447280	0.079800	0.896100
N581	N58	0.483270	0.188500	0.887500
N591	N59	0.567690	0.831300	0.614100
N601	N60	0.569660	0.688900	0.651200
N611	N61	0.693200	0.408800	0.245350
N621	N62	0.664010	0.439500	0.135010
N631	N63	0.728710	0.148000	0.676690
N641	N64	0.683950	0.178600	0.709540
O571	O57	0.384240	0.970200	0.931190
O581	O58	0.433820	0.970400	0.017380
O591	O59	0.385260	0.013400	0.283350
O601	O60	0.432700	0.039000	0.255260
O611	O61	0.777010	0.112300	0.580560
O621	O62	0.774230	0.962000	0.603400
O631	O63	0.716020	0.216000	0.344400
O641	O64	0.725080	0.137700	0.257300
C3721	C372	0.402150	0.970000	0.995900
C3731	C373	0.382700	0.968200	0.048300
C3741	C374	0.398930	0.992600	0.115700
H2531	H253	0.422200	0.010800	0.129300
C3751	C375	0.381990	0.991200	0.165100
C3761	C376	0.348060	0.964500	0.145500
H2541	H254	0.336400	0.963600	0.178600
C3771	C377	0.330970	0.938800	0.077300
H2551	H255	0.307900	0.919400	0.064000
C3781	C378	0.348260	0.942000	0.028100
H2561	H256	0.336600	0.926300	0.981400
C3791	C379	0.401880	0.017000	0.239400
C3801	C380	0.470000	0.106300	0.865800
H2571	H257	0.475900	0.070400	0.832500
C3811	C381	0.468560	0.219000	0.934700
H2581	H258	0.472900	0.275700	0.959200
C3821	C382	0.446730	0.152700	0.939400
H2591	H259	0.432900	0.155500	0.968400
C3831	C383	0.510520	0.236000	0.869500
C3841	C384	0.534020	0.184900	0.848800
H2601	H260	0.531600	0.119900	0.843900
C3851	C385	0.561390	0.229800	0.835200
H2611	H261	0.577200	0.194600	0.820700
C3861	C386	0.565520	0.324600	0.842700
C3871	C387	0.541250	0.373300	0.864300
H2621	H262	0.543700	0.438100	0.870700
C3881	C388	0.513920	0.329300	0.876600
H2631	H263	0.497700	0.364200	0.890000
C3891	C389	0.598270	0.375500	0.840500
C3901	C390	0.573700	0.776000	0.668600
H2641	H264	0.580200	0.797400	0.714900
C3911	C391	0.560400	0.683900	0.579900
H2651	H265	0.555600	0.629800	0.552300
C3921	C392	0.559680	0.772600	0.557900
H2661	H266	0.554500	0.791200	0.511200
C3931	C393	0.576230	0.610400	0.699700
C3941	C394	0.607550	0.603100	0.750100
H2671	H267	0.624700	0.648100	0.753600
C3951	C395	0.613860	0.528900	0.796000
H2681	H268	0.635700	0.522800	0.829800
C3961	C396	0.588730	0.463400	0.793200
C3971	C397	0.557320	0.472300	0.741000
H2691	H269	0.540000	0.427900	0.737700
C3981	C398	0.550860	0.544100	0.694400
H2701	H270	0.529500	0.548500	0.659000
C3991	C399	0.678660	0.372800	0.182600
H2711	H271	0.678500	0.308900	0.172300
C4001	C400	0.669590	0.522000	0.168600
H2721	H272	0.662500	0.581000	0.149100
C4011	C401	0.687520	0.502700	0.236100
H2731	H273	0.695000	0.547600	0.271600
C4021	C402	0.647500	0.424000	0.061600
C4031	C403	0.645940	0.336700	0.033000
H2741	H274	0.655200	0.285300	0.061700
C4041	C404	0.630700	0.324500	0.962100
H2751	H275	0.629700	0.264200	0.943400
C4051	C405	0.616930	0.397800	0.917800
C4061	C406	0.618110	0.483400	0.947700
H2761	H276	0.608500	0.534700	0.919300
C4071	C407	0.633220	0.497000	0.019400
H2771	H277	0.633500	0.556800	0.038600
C4081	C408	0.715830	0.205800	0.712200
H2781	H278	0.727300	0.258600	0.736100
C4091	C409	0.675730	0.099400	0.671300
H2791	H279	0.655200	0.065100	0.660500
C4101	C410	0.704170	0.080600	0.651700
H2801	H280	0.706500	0.028900	0.625100
C4111	C411	0.662330	0.226800	0.743100
C4121	C412	0.676790	0.268100	0.806600
H2811	H281	0.700700	0.264600	0.828900
C4131	C413	0.656530	0.314400	0.838000
H2821	H282	0.666900	0.344500	0.880900
C4141	C414	0.621270	0.317700	0.808000
C4151	C415	0.607000	0.276700	0.743100
H2831	H283	0.583100	0.279700	0.720700
C4161	C416	0.627560	0.231200	0.710700
H2841	H284	0.617600	0.203400	0.666800
C4171	C417	0.772270	0.027200	0.562700
C4181	C418	0.763120	0.008300	0.485700
C4191	C419	0.749880	0.081900	0.439200
H2851	H285	0.747500	0.141800	0.455800
C4201	C420	0.740410	0.064500	0.368400
C4211	C421	0.744050	0.976800	0.343900
H2861	H286	0.737600	0.965800	0.295700
C4221	C422	0.757040	0.906000	0.390100
H2871	H287	0.759600	0.846500	0.373000
C4231	C423	0.766410	0.920000	0.460800
H2881	H288	0.774900	0.870400	0.491900
C4241	C424	0.725800	0.143800	0.318800
