data_BUCVIG_freeONLY_PM
_symmetry_space_group_name_H-M	'P1'
_cell_length_a	40.575000
_cell_length_b	14.374700
_cell_length_c	20.156000
_cell_angle_alpha	90.000000
_cell_angle_beta	108.058000
_cell_angle_gamma	90.000000
_symmetry_Int_Tables_number 1

loop_
_symmetry_equiv_pos_as_xyz
'x,y,z'

loop_
_atom_site_label
_atom_site_type_symbol
_atom_site_fract_x
_atom_site_fract_y
_atom_site_fract_z
Co11	Co1	0.416480	0.465310	0.879100
Co21	Co2	0.778850	0.654380	0.671450
O11	O1	0.382550	0.483500	0.784490
O21	O2	0.430910	0.463540	0.758860
O31	O3	0.382130	0.532070	0.431760
O41	O4	0.432250	0.531680	0.515080
O51	O5	0.780210	0.624500	0.578400
O61	O6	0.772320	0.480600	0.605370
O71	O7	0.714360	0.711930	0.337000
O81	O8	0.725850	0.630700	0.253710
N11	N1	0.444750	0.583680	0.894910
N21	N2	0.481440	0.692100	0.887710
N31	N3	0.568260	0.331330	0.612680
N41	N4	0.568750	0.188070	0.649610
N51	N5	0.730440	0.647570	0.677880
N61	N6	0.685000	0.679740	0.710860
N71	N7	0.691210	0.912600	0.243840
N81	N8	0.662410	0.942240	0.134290
C11	C1	0.399910	0.483700	0.741320
C21	C2	0.380720	0.510200	0.667130
C31	C3	0.398150	0.509300	0.617560
H11	H1	0.421400	0.492100	0.630400
C41	C4	0.380970	0.534040	0.549060
C51	C5	0.400260	0.532600	0.496440
C61	C6	0.346610	0.560000	0.530370
H21	H2	0.335000	0.576100	0.484300
C71	C7	0.329280	0.562300	0.579550
H31	H3	0.306200	0.581100	0.566900
C81	C8	0.346420	0.536500	0.648080
H41	H4	0.334700	0.537000	0.681100
C91	C9	0.467480	0.609800	0.864480
H51	H5	0.473200	0.575000	0.830700
C101	C10	0.465500	0.722600	0.935090
H61	H6	0.469500	0.778400	0.959600
C111	C11	0.443290	0.656000	0.938700
H71	H7	0.428900	0.658000	0.966700
C121	C12	0.508940	0.737900	0.869770
C131	C13	0.532260	0.686500	0.848150
H81	H8	0.529500	0.622400	0.842600
C141	C14	0.560000	0.730800	0.834580
H91	H9	0.575700	0.695900	0.819800
C151	C15	0.564510	0.826000	0.842690
C161	C16	0.540260	0.876600	0.864190
H101	H10	0.542900	0.940700	0.869900
C171	C17	0.512470	0.833300	0.877080
H111	H11	0.496300	0.868000	0.890600
C181	C18	0.597360	0.877760	0.839890
C191	C19	0.574770	0.276100	0.667470
H121	H12	0.582700	0.296900	0.713400
C201	C20	0.558350	0.183700	0.577930
H131	H13	0.552800	0.130700	0.550300
C211	C21	0.557820	0.273100	0.556160
H141	H14	0.551400	0.292000	0.509800
C221	C22	0.575110	0.111100	0.697660
C231	C23	0.606820	0.104800	0.748540
H151	H15	0.623700	0.149800	0.751600
C241	C24	0.613460	0.031000	0.795270
H161	H16	0.635100	0.026100	0.829000
C251	C25	0.588210	0.964060	0.792380
C261	C26	0.556910	0.971900	0.740800
H171	H17	0.539800	0.927500	0.737800
C271	C27	0.550150	0.045000	0.692780
H181	H18	0.528900	0.048800	0.657900
C281	C28	0.716830	0.706000	0.712620
H191	H19	0.728000	0.758900	0.735500
C291	C29	0.705490	0.579500	0.652930
H201	H20	0.707800	0.528300	0.626400
C301	C30	0.677550	0.598600	0.672790
H211	H21	0.657200	0.564000	0.662800
C311	C31	0.663070	0.727180	0.743950
C321	C32	0.677570	0.768500	0.808160
H221	H22	0.701300	0.764900	0.830300
C331	C33	0.656500	0.815200	0.839340
H231	H23	0.666400	0.844100	0.882200
C341	C34	0.620890	0.819800	0.808130
C351	C35	0.607180	0.778200	0.742950
H241	H24	0.583400	0.781300	0.720600
C361	C36	0.628000	0.732600	0.710860
H251	H25	0.618400	0.705700	0.667200
C371	C37	0.676190	0.876000	0.181820
H261	H26	0.675300	0.812600	0.172200
C381	C38	0.687040	0.007000	0.235350
H271	H27	0.695200	0.050900	0.270500
C391	C39	0.669310	0.026400	0.168320
H281	H28	0.663000	0.085000	0.149000
C401	C40	0.645690	0.928000	0.060840
C411	C41	0.644190	0.839300	0.033420
H291	H29	0.653200	0.788900	0.062300
C421	C42	0.629220	0.826800	0.962870
H301	H30	0.628200	0.767000	0.944700
C431	C43	0.615650	0.899900	0.917630
C441	C44	0.616950	0.986900	0.947000
H311	H31	0.607800	0.037500	0.918400
C451	C45	0.631670	0.000900	0.018490
H321	H32	0.631900	0.060100	0.037300
C461	C46	0.773720	0.539400	0.562590
C471	C47	0.765240	0.515400	0.486970
C481	C48	0.751820	0.585100	0.437430
H331	H33	0.749700	0.645400	0.452300
C491	C49	0.741660	0.565800	0.366630
C501	C50	0.726750	0.640800	0.314900
C511	C51	0.746420	0.476700	0.346240
H341	H34	0.740800	0.463800	0.298800
C521	C52	0.758940	0.407400	0.392300
H351	H35	0.761500	0.347900	0.376600
C531	C53	0.768160	0.426100	0.464700
H361	H36	0.776100	0.378500	0.496900
Co31	Co3	0.916480	0.965310	0.879100
Co41	Co4	0.278850	0.154380	0.671450
O91	O9	0.882550	0.983500	0.784490
O101	O10	0.930910	0.963540	0.758860
O111	O11	0.882130	0.032070	0.431760
O121	O12	0.932250	0.031680	0.515080
O131	O13	0.280210	0.124500	0.578400
O141	O14	0.272320	0.980600	0.605370
O151	O15	0.214360	0.211930	0.337000
O161	O16	0.225850	0.130700	0.253710
N91	N9	0.944750	0.083680	0.894910
N101	N10	0.981440	0.192100	0.887710
N111	N11	0.068260	0.831330	0.612680
N121	N12	0.068750	0.688070	0.649610
N131	N13	0.230440	0.147570	0.677880
N141	N14	0.185000	0.179740	0.710860
N151	N15	0.191210	0.412600	0.243840
N161	N16	0.162410	0.442240	0.134290
C541	C54	0.899910	0.983700	0.741320
C551	C55	0.880720	0.010200	0.667130
C561	C56	0.898150	0.009300	0.617560
H371	H37	0.921400	0.992100	0.630400
C571	C57	0.880970	0.034040	0.549060
C581	C58	0.900260	0.032600	0.496440
C591	C59	0.846610	0.060000	0.530370
H381	H38	0.835000	0.076100	0.484300
C601	C60	0.829280	0.062300	0.579550
H391	H39	0.806200	0.081100	0.566900
C611	C61	0.846420	0.036500	0.648080
H401	H40	0.834700	0.037000	0.681100
C621	C62	0.967480	0.109800	0.864480
H411	H41	0.973200	0.075000	0.830700
C631	C63	0.965500	0.222600	0.935090
H421	H42	0.969500	0.278400	0.959600
C641	C64	0.943290	0.156000	0.938700
H431	H43	0.928900	0.158000	0.966700
C651	C65	0.008940	0.237900	0.869770
C661	C66	0.032260	0.186500	0.848150
H441	H44	0.029500	0.122400	0.842600
C671	C67	0.060000	0.230800	0.834580
H451	H45	0.075700	0.195900	0.819800
C681	C68	0.064510	0.326000	0.842690
C691	C69	0.040260	0.376600	0.864190
H461	H46	0.042900	0.440700	0.869900
C701	C70	0.012470	0.333300	0.877080
H471	H47	0.996300	0.368000	0.890600
C711	C71	0.097360	0.377760	0.839890
C721	C72	0.074770	0.776100	0.667470
H481	H48	0.082700	0.796900	0.713400
C731	C73	0.058350	0.683700	0.577930
H491	H49	0.052800	0.630700	0.550300
C741	C74	0.057820	0.773100	0.556160
H501	H50	0.051400	0.792000	0.509800
C751	C75	0.075110	0.611100	0.697660
C761	C76	0.106820	0.604800	0.748540
H511	H51	0.123700	0.649800	0.751600
C771	C77	0.113460	0.531000	0.795270
H521	H52	0.135100	0.526100	0.829000
C781	C78	0.088210	0.464060	0.792380
C791	C79	0.056910	0.471900	0.740800
H531	H53	0.039800	0.427500	0.737800
C801	C80	0.050150	0.545000	0.692780
H541	H54	0.028900	0.548800	0.657900
C811	C81	0.216830	0.206000	0.712620
H551	H55	0.228000	0.258900	0.735500
C821	C82	0.205490	0.079500	0.652930
H561	H56	0.207800	0.028300	0.626400
C831	C83	0.177550	0.098600	0.672790
H571	H57	0.157200	0.064000	0.662800
C841	C84	0.163070	0.227180	0.743950
C851	C85	0.177570	0.268500	0.808160
H581	H58	0.201300	0.264900	0.830300
C861	C86	0.156500	0.315200	0.839340
H591	H59	0.166400	0.344100	0.882200
C871	C87	0.120890	0.319800	0.808130
C881	C88	0.107180	0.278200	0.742950
H601	H60	0.083400	0.281300	0.720600
C891	C89	0.128000	0.232600	0.710860
H611	H61	0.118400	0.205700	0.667200
C901	C90	0.176190	0.376000	0.181820
H621	H62	0.175300	0.312600	0.172200
C911	C91	0.187040	0.507000	0.235350
H631	H63	0.195200	0.550900	0.270500
C921	C92	0.169310	0.526400	0.168320
H641	H64	0.163000	0.585000	0.149000
C931	C93	0.145690	0.428000	0.060840
C941	C94	0.144190	0.339300	0.033420
H651	H65	0.153200	0.288900	0.062300
C951	C95	0.129220	0.326800	0.962870
H661	H66	0.128200	0.267000	0.944700
C961	C96	0.115650	0.399900	0.917630
C971	C97	0.116950	0.486900	0.947000
H671	H67	0.107800	0.537500	0.918400
C981	C98	0.131670	0.500900	0.018490
H681	H68	0.131900	0.560100	0.037300
C991	C99	0.273720	0.039400	0.562590
C1001	C100	0.265240	0.015400	0.486970
C1011	C101	0.251820	0.085100	0.437430
H691	H69	0.249700	0.145400	0.452300
C1021	C102	0.241660	0.065800	0.366630
C1031	C103	0.226750	0.140800	0.314900
C1041	C104	0.246420	0.976700	0.346240
H701	H70	0.240800	0.963800	0.298800
C1051	C105	0.258940	0.907400	0.392300
H711	H71	0.261500	0.847900	0.376600
C1061	C106	0.268160	0.926100	0.464700
H721	H72	0.276100	0.878500	0.496900
Co51	Co5	0.583520	0.465310	0.620900
Co61	Co6	0.221150	0.654380	0.828550
O171	O17	0.617450	0.483500	0.715510
O181	O18	0.569090	0.463540	0.741140
O191	O19	0.617870	0.532070	0.068240
O201	O20	0.567750	0.531680	0.984920
O211	O21	0.219790	0.624500	0.921600
O221	O22	0.227680	0.480600	0.894630
O231	O23	0.285640	0.711930	0.163000
O241	O24	0.274150	0.630700	0.246290
N171	N17	0.555250	0.583680	0.605090
N181	N18	0.518560	0.692100	0.612290
N191	N19	0.431740	0.331330	0.887320
N201	N20	0.431250	0.188070	0.850390
N211	N21	0.269560	0.647570	0.822120
N221	N22	0.315000	0.679740	0.789140
N231	N23	0.308790	0.912600	0.256160
N241	N24	0.337590	0.942240	0.365710
C1071	C107	0.600090	0.483700	0.758680
C1081	C108	0.619280	0.510200	0.832870
C1091	C109	0.601850	0.509300	0.882440
H731	H73	0.578600	0.492100	0.869600
C1101	C110	0.619030	0.534040	0.950940
C1111	C111	0.599740	0.532600	0.003560
C1121	C112	0.653390	0.560000	0.969630
H741	H74	0.665000	0.576100	0.015700
C1131	C113	0.670720	0.562300	0.920450
H751	H75	0.693800	0.581100	0.933100
C1141	C114	0.653580	0.536500	0.851920
H761	H76	0.665300	0.537000	0.818900
C1151	C115	0.532520	0.609800	0.635520
H771	H77	0.526800	0.575000	0.669300
C1161	C116	0.534500	0.722600	0.564910
H781	H78	0.530500	0.778400	0.540400
C1171	C117	0.556710	0.656000	0.561300
H791	H79	0.571100	0.658000	0.533300
C1181	C118	0.491060	0.737900	0.630230
C1191	C119	0.467740	0.686500	0.651850
H801	H80	0.470500	0.622400	0.657400
C1201	C120	0.440000	0.730800	0.665420
H811	H81	0.424300	0.695900	0.680200
C1211	C121	0.435490	0.826000	0.657310
C1221	C122	0.459740	0.876600	0.635810
H821	H82	0.457100	0.940700	0.630100
C1231	C123	0.487530	0.833300	0.622920
H831	H83	0.503700	0.868000	0.609400
C1241	C124	0.402640	0.877760	0.660110
C1251	C125	0.425230	0.276100	0.832530
H841	H84	0.417300	0.296900	0.786600
C1261	C126	0.441650	0.183700	0.922070
H851	H85	0.447200	0.130700	0.949700
C1271	C127	0.442180	0.273100	0.943840
H861	H86	0.448600	0.292000	0.990200
C1281	C128	0.424890	0.111100	0.802340
C1291	C129	0.393180	0.104800	0.751460
H871	H87	0.376300	0.149800	0.748400
C1301	C130	0.386540	0.031000	0.704730
H881	H88	0.364900	0.026100	0.671000
C1311	C131	0.411790	0.964060	0.707620
C1321	C132	0.443090	0.971900	0.759200
H891	H89	0.460200	0.927500	0.762200
C1331	C133	0.449850	0.045000	0.807220
H901	H90	0.471100	0.048800	0.842100
C1341	C134	0.283170	0.706000	0.787380
H911	H91	0.272000	0.758900	0.764500
C1351	C135	0.294510	0.579500	0.847070
H921	H92	0.292200	0.528300	0.873600
C1361	C136	0.322450	0.598600	0.827210
H931	H93	0.342800	0.564000	0.837200
C1371	C137	0.336930	0.727180	0.756050
C1381	C138	0.322430	0.768500	0.691840
H941	H94	0.298700	0.764900	0.669700
C1391	C139	0.343500	0.815200	0.660660
H951	H95	0.333600	0.844100	0.617800
C1401	C140	0.379110	0.819800	0.691870
C1411	C141	0.392820	0.778200	0.757050
H961	H96	0.416600	0.781300	0.779400
C1421	C142	0.372000	0.732600	0.789140
H971	H97	0.381600	0.705700	0.832800
C1431	C143	0.323810	0.876000	0.318180
H981	H98	0.324700	0.812600	0.327800
C1441	C144	0.312960	0.007000	0.264650
H991	H99	0.304800	0.050900	0.229500
C1451	C145	0.330690	0.026400	0.331680
H1001	H100	0.337000	0.085000	0.351000
C1461	C146	0.354310	0.928000	0.439160
C1471	C147	0.355810	0.839300	0.466580
H1011	H101	0.346800	0.788900	0.437700
C1481	C148	0.370780	0.826800	0.537130
H1021	H102	0.371800	0.767000	0.555300
C1491	C149	0.384350	0.899900	0.582370
C1501	C150	0.383050	0.986900	0.553000
H1031	H103	0.392200	0.037500	0.581600
C1511	C151	0.368330	0.000900	0.481510
H1041	H104	0.368100	0.060100	0.462700
C1521	C152	0.226280	0.539400	0.937410
C1531	C153	0.234760	0.515400	0.013030
C1541	C154	0.248180	0.585100	0.062570
H1051	H105	0.250300	0.645400	0.047700
C1551	C155	0.258340	0.565800	0.133370
C1561	C156	0.273250	0.640800	0.185100
C1571	C157	0.253580	0.476700	0.153760
H1061	H106	0.259200	0.463800	0.201200
C1581	C158	0.241060	0.407400	0.107700
H1071	H107	0.238500	0.347900	0.123400
C1591	C159	0.231840	0.426100	0.035300
H1081	H108	0.223900	0.378500	0.003100
Co71	Co7	0.083520	0.965310	0.620900
Co81	Co8	0.721150	0.154380	0.828550
O251	O25	0.117450	0.983500	0.715510
O261	O26	0.069090	0.963540	0.741140
O271	O27	0.117870	0.032070	0.068240
O281	O28	0.067750	0.031680	0.984920
O291	O29	0.719790	0.124500	0.921600
O301	O30	0.727680	0.980600	0.894630
O311	O31	0.785640	0.211930	0.163000
O321	O32	0.774150	0.130700	0.246290
N251	N25	0.055250	0.083680	0.605090
N261	N26	0.018560	0.192100	0.612290
N271	N27	0.931740	0.831330	0.887320
N281	N28	0.931250	0.688070	0.850390
N291	N29	0.769560	0.147570	0.822120
N301	N30	0.815000	0.179740	0.789140
N311	N31	0.808790	0.412600	0.256160
N321	N32	0.837590	0.442240	0.365710
C1601	C160	0.100090	0.983700	0.758680
C1611	C161	0.119280	0.010200	0.832870
C1621	C162	0.101850	0.009300	0.882440
H1091	H109	0.078600	0.992100	0.869600
C1631	C163	0.119030	0.034040	0.950940
C1641	C164	0.099740	0.032600	0.003560
C1651	C165	0.153390	0.060000	0.969630
H1101	H110	0.165000	0.076100	0.015700
C1661	C166	0.170720	0.062300	0.920450
H1111	H111	0.193800	0.081100	0.933100
C1671	C167	0.153580	0.036500	0.851920
H1121	H112	0.165300	0.037000	0.818900
C1681	C168	0.032520	0.109800	0.635520
H1131	H113	0.026800	0.075000	0.669300
C1691	C169	0.034500	0.222600	0.564910
H1141	H114	0.030500	0.278400	0.540400
C1701	C170	0.056710	0.156000	0.561300
H1151	H115	0.071100	0.158000	0.533300
C1711	C171	0.991060	0.237900	0.630230
C1721	C172	0.967740	0.186500	0.651850
H1161	H116	0.970500	0.122400	0.657400
C1731	C173	0.940000	0.230800	0.665420
H1171	H117	0.924300	0.195900	0.680200
C1741	C174	0.935490	0.326000	0.657310
C1751	C175	0.959740	0.376600	0.635810
H1181	H118	0.957100	0.440700	0.630100
C1761	C176	0.987530	0.333300	0.622920
H1191	H119	0.003700	0.368000	0.609400
C1771	C177	0.902640	0.377760	0.660110
C1781	C178	0.925230	0.776100	0.832530
H1201	H120	0.917300	0.796900	0.786600
C1791	C179	0.941650	0.683700	0.922070
H1211	H121	0.947200	0.630700	0.949700
C1801	C180	0.942180	0.773100	0.943840
H1221	H122	0.948600	0.792000	0.990200
C1811	C181	0.924890	0.611100	0.802340
C1821	C182	0.893180	0.604800	0.751460
H1231	H123	0.876300	0.649800	0.748400
C1831	C183	0.886540	0.531000	0.704730
H1241	H124	0.864900	0.526100	0.671000
C1841	C184	0.911790	0.464060	0.707620
C1851	C185	0.943090	0.471900	0.759200
H1251	H125	0.960200	0.427500	0.762200
C1861	C186	0.949850	0.545000	0.807220
H1261	H126	0.971100	0.548800	0.842100
C1871	C187	0.783170	0.206000	0.787380
H1271	H127	0.772000	0.258900	0.764500
C1881	C188	0.794510	0.079500	0.847070
H1281	H128	0.792200	0.028300	0.873600
C1891	C189	0.822450	0.098600	0.827210
H1291	H129	0.842800	0.064000	0.837200
C1901	C190	0.836930	0.227180	0.756050
C1911	C191	0.822430	0.268500	0.691840
H1301	H130	0.798700	0.264900	0.669700
C1921	C192	0.843500	0.315200	0.660660
H1311	H131	0.833600	0.344100	0.617800
C1931	C193	0.879110	0.319800	0.691870
C1941	C194	0.892820	0.278200	0.757050
H1321	H132	0.916600	0.281300	0.779400
C1951	C195	0.872000	0.232600	0.789140
H1331	H133	0.881600	0.205700	0.832800
C1961	C196	0.823810	0.376000	0.318180
H1341	H134	0.824700	0.312600	0.327800
C1971	C197	0.812960	0.507000	0.264650
H1351	H135	0.804800	0.550900	0.229500
C1981	C198	0.830690	0.526400	0.331680
H1361	H136	0.837000	0.585000	0.351000
C1991	C199	0.854310	0.428000	0.439160
C2001	C200	0.855810	0.339300	0.466580
H1371	H137	0.846800	0.288900	0.437700
C2011	C201	0.870780	0.326800	0.537130
H1381	H138	0.871800	0.267000	0.555300
C2021	C202	0.884350	0.399900	0.582370
C2031	C203	0.883050	0.486900	0.553000
H1391	H139	0.892200	0.537500	0.581600
C2041	C204	0.868330	0.500900	0.481510
H1401	H140	0.868100	0.560100	0.462700
C2051	C205	0.726280	0.039400	0.937410
C2061	C206	0.734760	0.015400	0.013030
C2071	C207	0.748180	0.085100	0.062570
H1411	H141	0.750300	0.145400	0.047700
C2081	C208	0.758340	0.065800	0.133370
C2091	C209	0.773250	0.140800	0.185100
C2101	C210	0.753580	0.976700	0.153760
H1421	H142	0.759200	0.963800	0.201200
C2111	C211	0.741060	0.907400	0.107700
H1431	H143	0.738500	0.847900	0.123400
C2121	C212	0.731840	0.926100	0.035300
H1441	H144	0.723900	0.878500	0.003100
Co91	Co9	0.583520	0.534690	0.120900
Co101	Co10	0.221150	0.345620	0.328550
O331	O33	0.617450	0.516500	0.215510
O341	O34	0.569090	0.536460	0.241140
O351	O35	0.617870	0.467930	0.568240
O361	O36	0.567750	0.468320	0.484920
O371	O37	0.219790	0.375500	0.421600
O381	O38	0.227680	0.519400	0.394630
O391	O39	0.285640	0.288070	0.663000
O401	O40	0.274150	0.369300	0.746290
N331	N33	0.555250	0.416320	0.105090
N341	N34	0.518560	0.307900	0.112290
N351	N35	0.431740	0.668670	0.387320
N361	N36	0.431250	0.811930	0.350390
N371	N37	0.269560	0.352430	0.322120
N381	N38	0.315000	0.320260	0.289140
N391	N39	0.308790	0.087400	0.756160
N401	N40	0.337590	0.057760	0.865710
C2131	C213	0.600090	0.516300	0.258680
C2141	C214	0.619280	0.489800	0.332870
C2151	C215	0.601850	0.490700	0.382440
H1451	H145	0.578600	0.507900	0.369600
C2161	C216	0.619030	0.465960	0.450940
C2171	C217	0.599740	0.467400	0.503560
C2181	C218	0.653390	0.440000	0.469630
H1461	H146	0.665000	0.423900	0.515700
C2191	C219	0.670720	0.437700	0.420450
H1471	H147	0.693800	0.418900	0.433100
C2201	C220	0.653580	0.463500	0.351920
H1481	H148	0.665300	0.463000	0.318900
C2211	C221	0.532520	0.390200	0.135520
H1491	H149	0.526800	0.425000	0.169300
C2221	C222	0.534500	0.277400	0.064910
H1501	H150	0.530500	0.221600	0.040400
C2231	C223	0.556710	0.344000	0.061300
H1511	H151	0.571100	0.342000	0.033300
C2241	C224	0.491060	0.262100	0.130230
C2251	C225	0.467740	0.313500	0.151850
H1521	H152	0.470500	0.377600	0.157400
C2261	C226	0.440000	0.269200	0.165420
H1531	H153	0.424300	0.304100	0.180200
C2271	C227	0.435490	0.174000	0.157310
C2281	C228	0.459740	0.123400	0.135810
H1541	H154	0.457100	0.059300	0.130100
C2291	C229	0.487530	0.166700	0.122920
H1551	H155	0.503700	0.132000	0.109400
C2301	C230	0.402640	0.122240	0.160110
C2311	C231	0.425230	0.723900	0.332530
H1561	H156	0.417300	0.703100	0.286600
C2321	C232	0.441650	0.816300	0.422070
H1571	H157	0.447200	0.869300	0.449700
C2331	C233	0.442180	0.726900	0.443840
H1581	H158	0.448600	0.708000	0.490200
C2341	C234	0.424890	0.888900	0.302340
C2351	C235	0.393180	0.895200	0.251460
H1591	H159	0.376300	0.850200	0.248400
C2361	C236	0.386540	0.969000	0.204730
H1601	H160	0.364900	0.973900	0.171000
C2371	C237	0.411790	0.035940	0.207620
C2381	C238	0.443090	0.028100	0.259200
H1611	H161	0.460200	0.072500	0.262200
C2391	C239	0.449850	0.955000	0.307220
H1621	H162	0.471100	0.951200	0.342100
C2401	C240	0.283170	0.294000	0.287380
H1631	H163	0.272000	0.241100	0.264500
C2411	C241	0.294510	0.420500	0.347070
H1641	H164	0.292200	0.471700	0.373600
C2421	C242	0.322450	0.401400	0.327210
H1651	H165	0.342800	0.436000	0.337200
C2431	C243	0.336930	0.272820	0.256050
C2441	C244	0.322430	0.231500	0.191840
H1661	H166	0.298700	0.235100	0.169700
C2451	C245	0.343500	0.184800	0.160660
H1671	H167	0.333600	0.155900	0.117800
C2461	C246	0.379110	0.180200	0.191870
C2471	C247	0.392820	0.221800	0.257050
H1681	H168	0.416600	0.218700	0.279400
C2481	C248	0.372000	0.267400	0.289140
H1691	H169	0.381600	0.294300	0.332800
C2491	C249	0.323810	0.124000	0.818180
H1701	H170	0.324700	0.187400	0.827800
C2501	C250	0.312960	0.993000	0.764650
H1711	H171	0.304800	0.949100	0.729500
C2511	C251	0.330690	0.973600	0.831680
H1721	H172	0.337000	0.915000	0.851000
C2521	C252	0.354310	0.072000	0.939160
C2531	C253	0.355810	0.160700	0.966580
H1731	H173	0.346800	0.211100	0.937700
C2541	C254	0.370780	0.173200	0.037130
H1741	H174	0.371800	0.233000	0.055300
C2551	C255	0.384350	0.100100	0.082370
C2561	C256	0.383050	0.013100	0.053000
H1751	H175	0.392200	0.962500	0.081600
C2571	C257	0.368330	0.999100	0.981510
H1761	H176	0.368100	0.939900	0.962700
C2581	C258	0.226280	0.460600	0.437410
C2591	C259	0.234760	0.484600	0.513030
C2601	C260	0.248180	0.414900	0.562570
H1771	H177	0.250300	0.354600	0.547700
C2611	C261	0.258340	0.434200	0.633370
C2621	C262	0.273250	0.359200	0.685100
C2631	C263	0.253580	0.523300	0.653760
H1781	H178	0.259200	0.536200	0.701200
C2641	C264	0.241060	0.592600	0.607700
H1791	H179	0.238500	0.652100	0.623400
C2651	C265	0.231840	0.573900	0.535300
H1801	H180	0.223900	0.621500	0.503100
Co111	Co11	0.083520	0.034690	0.120900
Co121	Co12	0.721150	0.845620	0.328550
O411	O41	0.117450	0.016500	0.215510
O421	O42	0.069090	0.036460	0.241140
O431	O43	0.117870	0.967930	0.568240
O441	O44	0.067750	0.968320	0.484920
O451	O45	0.719790	0.875500	0.421600
O461	O46	0.727680	0.019400	0.394630
O471	O47	0.785640	0.788070	0.663000
O481	O48	0.774150	0.869300	0.746290
N411	N41	0.055250	0.916320	0.105090
N421	N42	0.018560	0.807900	0.112290
N431	N43	0.931740	0.168670	0.387320
N441	N44	0.931250	0.311930	0.350390
N451	N45	0.769560	0.852430	0.322120
N461	N46	0.815000	0.820260	0.289140
N471	N47	0.808790	0.587400	0.756160
N481	N48	0.837590	0.557760	0.865710
C2661	C266	0.100090	0.016300	0.258680
C2671	C267	0.119280	0.989800	0.332870
C2681	C268	0.101850	0.990700	0.382440
H1811	H181	0.078600	0.007900	0.369600
C2691	C269	0.119030	0.965960	0.450940
C2701	C270	0.099740	0.967400	0.503560
C2711	C271	0.153390	0.940000	0.469630
H1821	H182	0.165000	0.923900	0.515700
C2721	C272	0.170720	0.937700	0.420450
H1831	H183	0.193800	0.918900	0.433100
C2731	C273	0.153580	0.963500	0.351920
H1841	H184	0.165300	0.963000	0.318900
C2741	C274	0.032520	0.890200	0.135520
H1851	H185	0.026800	0.925000	0.169300
C2751	C275	0.034500	0.777400	0.064910
H1861	H186	0.030500	0.721600	0.040400
C2761	C276	0.056710	0.844000	0.061300
H1871	H187	0.071100	0.842000	0.033300
C2771	C277	0.991060	0.762100	0.130230
C2781	C278	0.967740	0.813500	0.151850
H1881	H188	0.970500	0.877600	0.157400
C2791	C279	0.940000	0.769200	0.165420
H1891	H189	0.924300	0.804100	0.180200
C2801	C280	0.935490	0.674000	0.157310
C2811	C281	0.959740	0.623400	0.135810
H1901	H190	0.957100	0.559300	0.130100
C2821	C282	0.987530	0.666700	0.122920
H1911	H191	0.003700	0.632000	0.109400
C2831	C283	0.902640	0.622240	0.160110
C2841	C284	0.925230	0.223900	0.332530
H1921	H192	0.917300	0.203100	0.286600
C2851	C285	0.941650	0.316300	0.422070
H1931	H193	0.947200	0.369300	0.449700
C2861	C286	0.942180	0.226900	0.443840
H1941	H194	0.948600	0.208000	0.490200
C2871	C287	0.924890	0.388900	0.302340
C2881	C288	0.893180	0.395200	0.251460
H1951	H195	0.876300	0.350200	0.248400
C2891	C289	0.886540	0.469000	0.204730
H1961	H196	0.864900	0.473900	0.171000
C2901	C290	0.911790	0.535940	0.207620
C2911	C291	0.943090	0.528100	0.259200
H1971	H197	0.960200	0.572500	0.262200
C2921	C292	0.949850	0.455000	0.307220
H1981	H198	0.971100	0.451200	0.342100
C2931	C293	0.783170	0.794000	0.287380
H1991	H199	0.772000	0.741100	0.264500
C2941	C294	0.794510	0.920500	0.347070
H2001	H200	0.792200	0.971700	0.373600
C2951	C295	0.822450	0.901400	0.327210
H2011	H201	0.842800	0.936000	0.337200
C2961	C296	0.836930	0.772820	0.256050
C2971	C297	0.822430	0.731500	0.191840
H2021	H202	0.798700	0.735100	0.169700
C2981	C298	0.843500	0.684800	0.160660
H2031	H203	0.833600	0.655900	0.117800
C2991	C299	0.879110	0.680200	0.191870
C3001	C300	0.892820	0.721800	0.257050
H2041	H204	0.916600	0.718700	0.279400
C3011	C301	0.872000	0.767400	0.289140
H2051	H205	0.881600	0.794300	0.332800
C3021	C302	0.823810	0.624000	0.818180
H2061	H206	0.824700	0.687400	0.827800
C3031	C303	0.812960	0.493000	0.764650
H2071	H207	0.804800	0.449100	0.729500
C3041	C304	0.830690	0.473600	0.831680
H2081	H208	0.837000	0.415000	0.851000
C3051	C305	0.854310	0.572000	0.939160
C3061	C306	0.855810	0.660700	0.966580
H2091	H209	0.846800	0.711100	0.937700
C3071	C307	0.870780	0.673200	0.037130
H2101	H210	0.871800	0.733000	0.055300
C3081	C308	0.884350	0.600100	0.082370
C3091	C309	0.883050	0.513100	0.053000
H2111	H211	0.892200	0.462500	0.081600
C3101	C310	0.868330	0.499100	0.981510
H2121	H212	0.868100	0.439900	0.962700
C3111	C311	0.726280	0.960600	0.437410
C3121	C312	0.734760	0.984600	0.513030
C3131	C313	0.748180	0.914900	0.562570
H2131	H213	0.750300	0.854600	0.547700
C3141	C314	0.758340	0.934200	0.633370
C3151	C315	0.773250	0.859200	0.685100
C3161	C316	0.753580	0.023300	0.653760
H2141	H214	0.759200	0.036200	0.701200
C3171	C317	0.741060	0.092600	0.607700
H2151	H215	0.738500	0.152100	0.623400
C3181	C318	0.731840	0.073900	0.535300
H2161	H216	0.723900	0.121500	0.503100
Co131	Co13	0.416480	0.534690	0.379100
Co141	Co14	0.778850	0.345620	0.171450
O491	O49	0.382550	0.516500	0.284490
O501	O50	0.430910	0.536460	0.258860
O511	O51	0.382130	0.467930	0.931760
O521	O52	0.432250	0.468320	0.015080
O531	O53	0.780210	0.375500	0.078400
O541	O54	0.772320	0.519400	0.105370
O551	O55	0.714360	0.288070	0.837000
O561	O56	0.725850	0.369300	0.753710
N491	N49	0.444750	0.416320	0.394910
N501	N50	0.481440	0.307900	0.387710
N511	N51	0.568260	0.668670	0.112680
N521	N52	0.568750	0.811930	0.149610
N531	N53	0.730440	0.352430	0.177880
N541	N54	0.685000	0.320260	0.210860
N551	N55	0.691210	0.087400	0.743840
N561	N56	0.662410	0.057760	0.634290
C3191	C319	0.399910	0.516300	0.241320
C3201	C320	0.380720	0.489800	0.167130
C3211	C321	0.398150	0.490700	0.117560
H2171	H217	0.421400	0.507900	0.130400
C3221	C322	0.380970	0.465960	0.049060
C3231	C323	0.400260	0.467400	0.996440
C3241	C324	0.346610	0.440000	0.030370
H2181	H218	0.335000	0.423900	0.984300
C3251	C325	0.329280	0.437700	0.079550
H2191	H219	0.306200	0.418900	0.066900
C3261	C326	0.346420	0.463500	0.148080
H2201	H220	0.334700	0.463000	0.181100
C3271	C327	0.467480	0.390200	0.364480
H2211	H221	0.473200	0.425000	0.330700
C3281	C328	0.465500	0.277400	0.435090
H2221	H222	0.469500	0.221600	0.459600
C3291	C329	0.443290	0.344000	0.438700
H2231	H223	0.428900	0.342000	0.466700
C3301	C330	0.508940	0.262100	0.369770
C3311	C331	0.532260	0.313500	0.348150
H2241	H224	0.529500	0.377600	0.342600
C3321	C332	0.560000	0.269200	0.334580
H2251	H225	0.575700	0.304100	0.319800
C3331	C333	0.564510	0.174000	0.342690
C3341	C334	0.540260	0.123400	0.364190
H2261	H226	0.542900	0.059300	0.369900
C3351	C335	0.512470	0.166700	0.377080
H2271	H227	0.496300	0.132000	0.390600
C3361	C336	0.597360	0.122240	0.339890
C3371	C337	0.574770	0.723900	0.167470
H2281	H228	0.582700	0.703100	0.213400
C3381	C338	0.558350	0.816300	0.077930
H2291	H229	0.552800	0.869300	0.050300
C3391	C339	0.557820	0.726900	0.056160
H2301	H230	0.551400	0.708000	0.009800
C3401	C340	0.575110	0.888900	0.197660
C3411	C341	0.606820	0.895200	0.248540
H2311	H231	0.623700	0.850200	0.251600
C3421	C342	0.613460	0.969000	0.295270
H2321	H232	0.635100	0.973900	0.329000
C3431	C343	0.588210	0.035940	0.292380
C3441	C344	0.556910	0.028100	0.240800
H2331	H233	0.539800	0.072500	0.237800
C3451	C345	0.550150	0.955000	0.192780
H2341	H234	0.528900	0.951200	0.157900
C3461	C346	0.716830	0.294000	0.212620
H2351	H235	0.728000	0.241100	0.235500
C3471	C347	0.705490	0.420500	0.152930
H2361	H236	0.707800	0.471700	0.126400
C3481	C348	0.677550	0.401400	0.172790
H2371	H237	0.657200	0.436000	0.162800
C3491	C349	0.663070	0.272820	0.243950
C3501	C350	0.677570	0.231500	0.308160
H2381	H238	0.701300	0.235100	0.330300
C3511	C351	0.656500	0.184800	0.339340
H2391	H239	0.666400	0.155900	0.382200
C3521	C352	0.620890	0.180200	0.308130
C3531	C353	0.607180	0.221800	0.242950
H2401	H240	0.583400	0.218700	0.220600
C3541	C354	0.628000	0.267400	0.210860
H2411	H241	0.618400	0.294300	0.167200
C3551	C355	0.676190	0.124000	0.681820
H2421	H242	0.675300	0.187400	0.672200
C3561	C356	0.687040	0.993000	0.735350
H2431	H243	0.695200	0.949100	0.770500
C3571	C357	0.669310	0.973600	0.668320
H2441	H244	0.663000	0.915000	0.649000
C3581	C358	0.645690	0.072000	0.560840
C3591	C359	0.644190	0.160700	0.533420
H2451	H245	0.653200	0.211100	0.562300
C3601	C360	0.629220	0.173200	0.462870
H2461	H246	0.628200	0.233000	0.444700
C3611	C361	0.615650	0.100100	0.417630
C3621	C362	0.616950	0.013100	0.447000
H2471	H247	0.607800	0.962500	0.418400
C3631	C363	0.631670	0.999100	0.518490
H2481	H248	0.631900	0.939900	0.537300
C3641	C364	0.773720	0.460600	0.062590
C3651	C365	0.765240	0.484600	0.986970
C3661	C366	0.751820	0.414900	0.937430
H2491	H249	0.749700	0.354600	0.952300
C3671	C367	0.741660	0.434200	0.866630
C3681	C368	0.726750	0.359200	0.814900
C3691	C369	0.746420	0.523300	0.846240
H2501	H250	0.740800	0.536200	0.798800
C3701	C370	0.758940	0.592600	0.892300
H2511	H251	0.761500	0.652100	0.876600
C3711	C371	0.768160	0.573900	0.964700
H2521	H252	0.776100	0.621500	0.996900
Co151	Co15	0.916480	0.034690	0.379100
Co161	Co16	0.278850	0.845620	0.171450
O571	O57	0.882550	0.016500	0.284490
O581	O58	0.930910	0.036460	0.258860
O591	O59	0.882130	0.967930	0.931760
O601	O60	0.932250	0.968320	0.015080
O611	O61	0.280210	0.875500	0.078400
O621	O62	0.272320	0.019400	0.105370
O631	O63	0.214360	0.788070	0.837000
O641	O64	0.225850	0.869300	0.753710
N571	N57	0.944750	0.916320	0.394910
N581	N58	0.981440	0.807900	0.387710
N591	N59	0.068260	0.168670	0.112680
N601	N60	0.068750	0.311930	0.149610
N611	N61	0.230440	0.852430	0.177880
N621	N62	0.185000	0.820260	0.210860
N631	N63	0.191210	0.587400	0.743840
N641	N64	0.162410	0.557760	0.634290
C3721	C372	0.899910	0.016300	0.241320
C3731	C373	0.880720	0.989800	0.167130
C3741	C374	0.898150	0.990700	0.117560
H2531	H253	0.921400	0.007900	0.130400
C3751	C375	0.880970	0.965960	0.049060
C3761	C376	0.900260	0.967400	0.996440
C3771	C377	0.846610	0.940000	0.030370
H2541	H254	0.835000	0.923900	0.984300
C3781	C378	0.829280	0.937700	0.079550
H2551	H255	0.806200	0.918900	0.066900
C3791	C379	0.846420	0.963500	0.148080
H2561	H256	0.834700	0.963000	0.181100
C3801	C380	0.967480	0.890200	0.364480
H2571	H257	0.973200	0.925000	0.330700
C3811	C381	0.965500	0.777400	0.435090
H2581	H258	0.969500	0.721600	0.459600
C3821	C382	0.943290	0.844000	0.438700
H2591	H259	0.928900	0.842000	0.466700
C3831	C383	0.008940	0.762100	0.369770
C3841	C384	0.032260	0.813500	0.348150
H2601	H260	0.029500	0.877600	0.342600
C3851	C385	0.060000	0.769200	0.334580
H2611	H261	0.075700	0.804100	0.319800
C3861	C386	0.064510	0.674000	0.342690
C3871	C387	0.040260	0.623400	0.364190
H2621	H262	0.042900	0.559300	0.369900
C3881	C388	0.012470	0.666700	0.377080
H2631	H263	0.996300	0.632000	0.390600
C3891	C389	0.097360	0.622240	0.339890
C3901	C390	0.074770	0.223900	0.167470
H2641	H264	0.082700	0.203100	0.213400
C3911	C391	0.058350	0.316300	0.077930
H2651	H265	0.052800	0.369300	0.050300
C3921	C392	0.057820	0.226900	0.056160
H2661	H266	0.051400	0.208000	0.009800
C3931	C393	0.075110	0.388900	0.197660
C3941	C394	0.106820	0.395200	0.248540
H2671	H267	0.123700	0.350200	0.251600
C3951	C395	0.113460	0.469000	0.295270
H2681	H268	0.135100	0.473900	0.329000
C3961	C396	0.088210	0.535940	0.292380
C3971	C397	0.056910	0.528100	0.240800
H2691	H269	0.039800	0.572500	0.237800
C3981	C398	0.050150	0.455000	0.192780
H2701	H270	0.028900	0.451200	0.157900
C3991	C399	0.216830	0.794000	0.212620
H2711	H271	0.228000	0.741100	0.235500
C4001	C400	0.205490	0.920500	0.152930
H2721	H272	0.207800	0.971700	0.126400
C4011	C401	0.177550	0.901400	0.172790
H2731	H273	0.157200	0.936000	0.162800
C4021	C402	0.163070	0.772820	0.243950
C4031	C403	0.177570	0.731500	0.308160
H2741	H274	0.201300	0.735100	0.330300
C4041	C404	0.156500	0.684800	0.339340
H2751	H275	0.166400	0.655900	0.382200
C4051	C405	0.120890	0.680200	0.308130
C4061	C406	0.107180	0.721800	0.242950
H2761	H276	0.083400	0.718700	0.220600
C4071	C407	0.128000	0.767400	0.210860
H2771	H277	0.118400	0.794300	0.167200
C4081	C408	0.176190	0.624000	0.681820
H2781	H278	0.175300	0.687400	0.672200
C4091	C409	0.187040	0.493000	0.735350
H2791	H279	0.195200	0.449100	0.770500
C4101	C410	0.169310	0.473600	0.668320
H2801	H280	0.163000	0.415000	0.649000
C4111	C411	0.145690	0.572000	0.560840
C4121	C412	0.144190	0.660700	0.533420
H2811	H281	0.153200	0.711100	0.562300
C4131	C413	0.129220	0.673200	0.462870
H2821	H282	0.128200	0.733000	0.444700
C4141	C414	0.115650	0.600100	0.417630
C4151	C415	0.116950	0.513100	0.447000
H2831	H283	0.107800	0.462500	0.418400
C4161	C416	0.131670	0.499100	0.518490
H2841	H284	0.131900	0.439900	0.537300
C4171	C417	0.273720	0.960600	0.062590
C4181	C418	0.265240	0.984600	0.986970
C4191	C419	0.251820	0.914900	0.937430
H2851	H285	0.249700	0.854600	0.952300
C4201	C420	0.241660	0.934200	0.866630
C4211	C421	0.226750	0.859200	0.814900
C4221	C422	0.246420	0.023300	0.846240
H2861	H286	0.240800	0.036200	0.798800
C4231	C423	0.258940	0.092600	0.892300
H2871	H287	0.261500	0.152100	0.876600
C4241	C424	0.268160	0.073900	0.964700
H2881	H288	0.276100	0.121500	0.996900
