data_BUCYAA_freeONLY_PM
_symmetry_space_group_name_H-M	'P1'
_cell_length_a	16.540800
_cell_length_b	17.458900
_cell_length_c	17.458900
_cell_angle_alpha	97.996100
_cell_angle_beta	95.471900
_cell_angle_gamma	84.528100
_symmetry_Int_Tables_number 1

loop_
_symmetry_equiv_pos_as_xyz
'x,y,z'

loop_
_atom_site_label
_atom_site_type_symbol
_atom_site_fract_x
_atom_site_fract_y
_atom_site_fract_z
Zn11	Zn1	0.042910	0.479210	0.246570
Zn21	Zn2	0.862830	0.936210	0.288230
Zn31	Zn3	0.774290	0.755060	0.258300
Zn41	Zn4	0.679500	0.577480	0.231620
Zn51	Zn5	0.039050	0.206600	0.416520
Zn61	Zn6	0.008020	0.237790	0.014150
Zn71	Zn7	0.028420	0.043150	0.276870
Zn81	Zn8	0.457090	0.246570	0.479210
Zn91	Zn9	0.637170	0.288230	0.936210
Zn101	Zn10	0.725710	0.258300	0.755060
Zn111	Zn11	0.820500	0.231620	0.577480
Zn121	Zn12	0.460950	0.416520	0.206600
Zn131	Zn13	0.491980	0.014150	0.237790
Zn141	Zn14	0.471580	0.276870	0.043150
Zn151	Zn15	0.957090	0.520790	0.753430
Zn161	Zn16	0.137170	0.063790	0.711770
Zn171	Zn17	0.225710	0.244940	0.741700
Zn181	Zn18	0.320500	0.422520	0.768380
Zn191	Zn19	0.960950	0.793400	0.583480
Zn201	Zn20	0.991980	0.762210	0.985850
Zn211	Zn21	0.971580	0.956850	0.723130
Zn221	Zn22	0.542910	0.753430	0.520790
Zn231	Zn23	0.362830	0.711770	0.063790
Zn241	Zn24	0.274290	0.741700	0.244940
Zn251	Zn25	0.179500	0.768380	0.422520
Zn261	Zn26	0.539050	0.583480	0.793400
Zn271	Zn27	0.508020	0.985850	0.762210
Zn281	Zn28	0.528420	0.723130	0.956850
H11	H1	0.899700	0.065800	0.341600
H21	H2	0.140300	0.103000	0.363000
H31	H3	0.818800	0.665200	0.098600
H41	H4	0.871600	0.667600	0.034600
H51	H5	0.970500	0.900300	0.132500
H61	H6	0.796000	0.421900	0.210300
H71	H7	0.885600	0.401100	0.213900
H81	H8	0.956500	0.651400	0.259200
H91	H9	0.714500	0.845800	0.115000
H101	H10	0.650900	0.846200	0.048600
H111	H11	0.557800	0.614700	0.079100
H121	H12	0.066600	0.640900	0.446300
H131	H13	0.039000	0.567200	0.402800
H141	H14	0.181300	0.576300	0.190700
H151	H15	0.940300	0.980400	0.460400
H161	H16	0.962600	0.940600	0.530600
H171	H17	0.876500	0.706000	0.420800
H181	H18	0.737000	0.089500	0.274300
H191	H19	0.646800	0.106400	0.266200
H201	H20	0.590100	0.853600	0.261000
H211	H21	0.945400	0.198600	0.242800
H221	H22	0.949600	0.251000	0.183200
H231	H23	0.058100	0.978700	0.103300
H241	H24	0.251300	0.324200	0.445400
H251	H25	0.201500	0.261300	0.458900
H261	H26	0.964600	0.352300	0.334700
H271	H27	0.600300	0.341600	0.065800
H281	H28	0.359700	0.363000	0.103000
H291	H29	0.681200	0.098600	0.665200
H301	H30	0.628400	0.034600	0.667600
H311	H31	0.529500	0.132500	0.900300
H321	H32	0.704000	0.210300	0.421900
H331	H33	0.614400	0.213900	0.401100
H341	H34	0.543500	0.259200	0.651400
H351	H35	0.785500	0.115000	0.845800
H361	H36	0.849100	0.048600	0.846200
H371	H37	0.942200	0.079100	0.614700
H381	H38	0.433400	0.446300	0.640900
H391	H39	0.461000	0.402800	0.567200
H401	H40	0.318700	0.190700	0.576300
H411	H41	0.559700	0.460400	0.980400
H421	H42	0.537400	0.530600	0.940600
H431	H43	0.623500	0.420800	0.706000
H441	H44	0.763000	0.274300	0.089500
H451	H45	0.853200	0.266200	0.106400
H461	H46	0.909900	0.261000	0.853600
H471	H47	0.554600	0.242800	0.198600
H481	H48	0.550400	0.183200	0.251000
H491	H49	0.441900	0.103300	0.978700
H501	H50	0.248700	0.445400	0.324200
H511	H51	0.298500	0.458900	0.261300
H521	H52	0.535400	0.334700	0.352300
H531	H53	0.100300	0.934200	0.658400
H541	H54	0.859700	0.897000	0.637000
H551	H55	0.181200	0.334800	0.901400
H561	H56	0.128400	0.332400	0.965400
H571	H57	0.029500	0.099700	0.867500
H581	H58	0.204000	0.578100	0.789700
H591	H59	0.114400	0.598900	0.786100
H601	H60	0.043500	0.348600	0.740800
H611	H61	0.285500	0.154200	0.885000
H621	H62	0.349100	0.153800	0.951400
H631	H63	0.442200	0.385300	0.920900
H641	H64	0.933400	0.359100	0.553700
H651	H65	0.961000	0.432800	0.597200
H661	H66	0.818700	0.423700	0.809300
H671	H67	0.059700	0.019600	0.539600
H681	H68	0.037400	0.059400	0.469400
H691	H69	0.123500	0.294000	0.579200
H701	H70	0.263000	0.910500	0.725700
H711	H71	0.353200	0.893600	0.733800
H721	H72	0.409900	0.146400	0.739000
H731	H73	0.054600	0.801400	0.757200
H741	H74	0.050400	0.749000	0.816800
H751	H75	0.941900	0.021300	0.896700
H761	H76	0.748700	0.675800	0.554600
H771	H77	0.798500	0.738700	0.541100
H781	H78	0.035400	0.647700	0.665300
H791	H79	0.399700	0.658400	0.934200
H801	H80	0.640300	0.637000	0.897000
H811	H81	0.318800	0.901400	0.334800
H821	H82	0.371600	0.965400	0.332400
H831	H83	0.470500	0.867500	0.099700
H841	H84	0.296000	0.789700	0.578100
H851	H85	0.385600	0.786100	0.598900
H861	H86	0.456500	0.740800	0.348600
H871	H87	0.214500	0.885000	0.154200
H881	H88	0.150900	0.951400	0.153800
H891	H89	0.057800	0.920900	0.385300
H901	H90	0.566600	0.553700	0.359100
H911	H91	0.539000	0.597200	0.432800
H921	H92	0.681300	0.809300	0.423700
H931	H93	0.440300	0.539600	0.019600
H941	H94	0.462600	0.469400	0.059400
H951	H95	0.376500	0.579200	0.294000
H961	H96	0.237000	0.725700	0.910500
H971	H97	0.146800	0.733800	0.893600
H981	H98	0.090100	0.739000	0.146400
H991	H99	0.445400	0.757200	0.801400
H1001	H100	0.449600	0.816800	0.749000
H1011	H101	0.558100	0.896700	0.021300
H1021	H102	0.751300	0.554600	0.675800
H1031	H103	0.701500	0.541100	0.738700
H1041	H104	0.464600	0.665300	0.647700
C11	C1	0.042500	0.366300	0.120500
C21	C2	0.623300	0.430900	0.188100
C31	C3	0.876600	0.756900	0.111900
C41	C4	0.937300	0.861100	0.136300
C51	C5	0.858100	0.512500	0.228700
C61	C6	0.916400	0.616600	0.250400
C71	C7	0.651100	0.757800	0.102600
C81	C8	0.592300	0.654000	0.095400
C91	C9	0.114600	0.613500	0.347700
C101	C10	0.167500	0.597300	0.240100
C111	C11	0.913400	0.873200	0.444400
C121	C12	0.883000	0.757600	0.416800
C131	C13	0.679300	0.997900	0.268500
C141	C14	0.627800	0.890400	0.264000
C151	C15	0.002100	0.146600	0.153200
C161	C16	0.045100	0.032000	0.109000
C171	C17	0.139400	0.335500	0.395300
C181	C18	0.019900	0.356200	0.348400
C191	C19	0.457500	0.120500	0.366300
C201	C20	0.876700	0.188100	0.430900
C211	C21	0.623400	0.111900	0.756900
C221	C22	0.562700	0.136300	0.861100
C231	C23	0.641900	0.228700	0.512500
C241	C24	0.583600	0.250400	0.616600
C251	C25	0.848900	0.102600	0.757800
C261	C26	0.907700	0.095400	0.654000
C271	C27	0.385400	0.347700	0.613500
C281	C28	0.332500	0.240100	0.597300
C291	C29	0.586600	0.444400	0.873200
C301	C30	0.617000	0.416800	0.757600
C311	C31	0.820700	0.268500	0.997900
C321	C32	0.872200	0.264000	0.890400
C331	C33	0.497900	0.153200	0.146600
C341	C34	0.454900	0.109000	0.032000
C351	C35	0.360600	0.395300	0.335500
C361	C36	0.480100	0.348400	0.356200
C371	C37	0.957500	0.633700	0.879500
C381	C38	0.376700	0.569100	0.811900
C391	C39	0.123400	0.243100	0.888100
C401	C40	0.062700	0.138900	0.863700
C411	C41	0.141900	0.487500	0.771300
C421	C42	0.083600	0.383400	0.749600
C431	C43	0.348900	0.242200	0.897400
C441	C44	0.407700	0.346000	0.904600
C451	C45	0.885400	0.386500	0.652300
C461	C46	0.832500	0.402700	0.759900
C471	C47	0.086600	0.126800	0.555600
C481	C48	0.117000	0.242400	0.583200
C491	C49	0.320700	0.002100	0.731500
C501	C50	0.372200	0.109600	0.736000
C511	C51	0.997900	0.853400	0.846800
C521	C52	0.954900	0.968000	0.891000
C531	C53	0.860600	0.664500	0.604700
C541	C54	0.980100	0.643800	0.651600
C551	C55	0.542500	0.879500	0.633700
C561	C56	0.123300	0.811900	0.569100
C571	C57	0.376600	0.888100	0.243100
C581	C58	0.437300	0.863700	0.138900
C591	C59	0.358100	0.771300	0.487500
C601	C60	0.416400	0.749600	0.383400
C611	C61	0.151100	0.897400	0.242200
C621	C62	0.092300	0.904600	0.346000
C631	C63	0.614600	0.652300	0.386500
C641	C64	0.667500	0.759900	0.402700
C651	C65	0.413400	0.555600	0.126800
C661	C66	0.383000	0.583200	0.242400
C671	C67	0.179300	0.731500	0.002100
C681	C68	0.127800	0.736000	0.109600
C691	C69	0.502100	0.846800	0.853400
C701	C70	0.545100	0.891000	0.968000
C711	C71	0.639400	0.604700	0.664500
C721	C72	0.519900	0.651600	0.643800
N11	N1	0.930800	0.797080	0.082720
N21	N2	0.850900	0.793380	0.178620
N31	N3	0.892000	0.861710	0.193890
N41	N4	0.852800	0.688500	0.077700
N51	N5	0.933000	0.539040	0.238960
N61	N6	0.799700	0.570040	0.232960
N71	N7	0.838100	0.638280	0.247720
N81	N8	0.844900	0.435700	0.216100
N91	N9	0.591500	0.717850	0.060750
N101	N10	0.685600	0.721250	0.160550
N111	N11	0.646600	0.652950	0.154650
N121	N12	0.675000	0.824600	0.086800
N131	N13	0.116700	0.565300	0.280900
N141	N14	0.160000	0.672120	0.349080
N151	N15	0.194900	0.661320	0.278080
N161	N16	0.067600	0.606200	0.406200
N171	N17	0.916800	0.806810	0.475390
N181	N18	0.881000	0.866200	0.371400
N191	N19	0.860500	0.789900	0.353700
N201	N20	0.942300	0.939500	0.483300
N211	N21	0.606300	0.968030	0.261370
N221	N22	0.741500	0.943700	0.273900
N231	N23	0.707100	0.873480	0.271120
N241	N24	0.688900	0.073800	0.269800
N251	N25	0.020200	0.077700	0.173700
N261	N26	0.015400	0.151510	0.079690
N271	N27	0.047100	0.078500	0.056100
N281	N28	0.960400	0.206300	0.198900
N291	N29	0.065200	0.306600	0.388800
N301	N30	0.139300	0.398600	0.362000
N311	N31	0.059200	0.410700	0.329900
N321	N32	0.205900	0.302800	0.438800
N331	N33	0.569200	0.082720	0.797080
N341	N34	0.649100	0.178620	0.793380
N351	N35	0.608000	0.193890	0.861710
N361	N36	0.647200	0.077700	0.688500
N371	N37	0.567000	0.238960	0.539040
N381	N38	0.700300	0.232960	0.570040
N391	N39	0.661900	0.247720	0.638280
N401	N40	0.655100	0.216100	0.435700
N411	N41	0.908500	0.060750	0.717850
N421	N42	0.814400	0.160550	0.721250
N431	N43	0.853400	0.154650	0.652950
N441	N44	0.825000	0.086800	0.824600
N451	N45	0.383300	0.280900	0.565300
N461	N46	0.340000	0.349080	0.672120
N471	N47	0.305100	0.278080	0.661320
N481	N48	0.432400	0.406200	0.606200
N491	N49	0.583200	0.475390	0.806810
N501	N50	0.619000	0.371400	0.866200
N511	N51	0.639500	0.353700	0.789900
N521	N52	0.557700	0.483300	0.939500
N531	N53	0.893700	0.261370	0.968030
N541	N54	0.758500	0.273900	0.943700
N551	N55	0.792900	0.271120	0.873480
N561	N56	0.811100	0.269800	0.073800
N571	N57	0.479800	0.173700	0.077700
N581	N58	0.484600	0.079690	0.151510
N591	N59	0.452900	0.056100	0.078500
N601	N60	0.539600	0.198900	0.206300
N611	N61	0.434800	0.388800	0.306600
N621	N62	0.360700	0.362000	0.398600
N631	N63	0.440800	0.329900	0.410700
N641	N64	0.294100	0.438800	0.302800
N651	N65	0.069200	0.202920	0.917280
N661	N66	0.149100	0.206620	0.821380
N671	N67	0.108000	0.138290	0.806110
N681	N68	0.147200	0.311500	0.922300
N691	N69	0.067000	0.460960	0.761040
N701	N70	0.200300	0.429960	0.767040
N711	N71	0.161900	0.361720	0.752280
N721	N72	0.155100	0.564300	0.783900
N731	N73	0.408500	0.282150	0.939250
N741	N74	0.314400	0.278750	0.839450
N751	N75	0.353400	0.347050	0.845350
N761	N76	0.325000	0.175400	0.913200
N771	N77	0.883300	0.434700	0.719100
N781	N78	0.840000	0.327880	0.650920
N791	N79	0.805100	0.338680	0.721920
N801	N80	0.932400	0.393800	0.593800
N811	N81	0.083200	0.193190	0.524610
N821	N82	0.119000	0.133800	0.628600
N831	N83	0.139500	0.210100	0.646300
N841	N84	0.057700	0.060500	0.516700
N851	N85	0.393700	0.031970	0.738630
N861	N86	0.258500	0.056300	0.726100
N871	N87	0.292900	0.126520	0.728880
N881	N88	0.311100	0.926200	0.730200
N891	N89	0.979800	0.922300	0.826300
N901	N90	0.984600	0.848490	0.920310
N911	N91	0.952900	0.921500	0.943900
N921	N92	0.039600	0.793700	0.801100
N931	N93	0.934800	0.693400	0.611200
N941	N94	0.860700	0.601400	0.638000
N951	N95	0.940800	0.589300	0.670100
N961	N96	0.794100	0.697200	0.561200
N971	N97	0.430800	0.917280	0.202920
N981	N98	0.350900	0.821380	0.206620
N991	N99	0.392000	0.806110	0.138290
N1001	N100	0.352800	0.922300	0.311500
N1011	N101	0.433000	0.761040	0.460960
N1021	N102	0.299700	0.767040	0.429960
N1031	N103	0.338100	0.752280	0.361720
N1041	N104	0.344900	0.783900	0.564300
N1051	N105	0.091500	0.939250	0.282150
N1061	N106	0.185600	0.839450	0.278750
N1071	N107	0.146600	0.845350	0.347050
N1081	N108	0.175000	0.913200	0.175400
N1091	N109	0.616700	0.719100	0.434700
N1101	N110	0.660000	0.650920	0.327880
N1111	N111	0.694900	0.721920	0.338680
N1121	N112	0.567600	0.593800	0.393800
N1131	N113	0.416800	0.524610	0.193190
N1141	N114	0.381000	0.628600	0.133800
N1151	N115	0.360500	0.646300	0.210100
N1161	N116	0.442300	0.516700	0.060500
N1171	N117	0.106300	0.738630	0.031970
N1181	N118	0.241500	0.726100	0.056300
N1191	N119	0.207100	0.728880	0.126520
N1201	N120	0.188900	0.730200	0.926200
N1211	N121	0.520200	0.826300	0.922300
N1221	N122	0.515400	0.920310	0.848490
N1231	N123	0.547100	0.943900	0.921500
N1241	N124	0.460400	0.801100	0.793700
N1251	N125	0.565200	0.611200	0.693400
N1261	N126	0.639300	0.638000	0.601400
N1271	N127	0.559200	0.670100	0.589300
N1281	N128	0.705900	0.561200	0.697200
O11	O1	0.923900	0.024500	0.309900
O21	O2	0.084300	0.114450	0.354450
O31	O3	0.980000	0.350030	0.148170
O41	O4	0.083600	0.424320	0.151500
O51	O5	0.070000	0.324680	0.059880
O61	O6	0.613900	0.493790	0.234810
O71	O7	0.571800	0.379100	0.186900
O81	O8	0.685300	0.406600	0.151600
O91	O9	0.576100	0.309900	0.024500
O101	O10	0.415700	0.354450	0.114450
O111	O11	0.520000	0.148170	0.350030
O121	O12	0.416400	0.151500	0.424320
O131	O13	0.430000	0.059880	0.324680
O141	O14	0.886100	0.234810	0.493790
O151	O15	0.928200	0.186900	0.379100
O161	O16	0.814700	0.151600	0.406600
O171	O17	0.076100	0.975500	0.690100
O181	O18	0.915700	0.885550	0.645550
O191	O19	0.020000	0.649970	0.851830
O201	O20	0.916400	0.575680	0.848500
O211	O21	0.930000	0.675320	0.940120
O221	O22	0.386100	0.506210	0.765190
O231	O23	0.428200	0.620900	0.813100
O241	O24	0.314700	0.593400	0.848400
O251	O25	0.423900	0.690100	0.975500
O261	O26	0.584300	0.645550	0.885550
O271	O27	0.480000	0.851830	0.649970
O281	O28	0.583600	0.848500	0.575680
O291	O29	0.570000	0.940120	0.675320
O301	O30	0.113900	0.765190	0.506210
O311	O31	0.071800	0.813100	0.620900
O321	O32	0.185300	0.848400	0.593400
