data_BUFNEW_charged_PM
_symmetry_space_group_name_H-M	'P1'
_cell_length_a	34.170900
_cell_length_b	34.170900
_cell_length_c	34.170900
_cell_angle_alpha	60.000000
_cell_angle_beta	60.000000
_cell_angle_gamma	60.000000
_symmetry_Int_Tables_number 1

loop_
_symmetry_equiv_pos_as_xyz
'x,y,z'

loop_
_atom_site_label
_atom_site_type_symbol
_atom_site_fract_x
_atom_site_fract_y
_atom_site_fract_z
Cd11	Cd1	0.575060	0.978040	0.021960
Cd21	Cd2	0.978040	0.575060	0.424940
Cd31	Cd3	0.021960	0.424940	0.575060
Cd41	Cd4	0.424940	0.021960	0.978040
Cd51	Cd5	0.575060	0.021960	0.424940
Cd61	Cd6	0.978040	0.424940	0.021960
Cd71	Cd7	0.021960	0.575060	0.978040
Cd81	Cd8	0.424940	0.978040	0.575060
Cd91	Cd9	0.575060	0.424940	0.978040
Cd101	Cd10	0.978040	0.021960	0.575060
Cd111	Cd11	0.021960	0.978040	0.424940
Cd121	Cd12	0.424940	0.575060	0.021960
Cd131	Cd13	0.521960	0.924940	0.478040
Cd141	Cd14	0.924940	0.521960	0.075060
Cd151	Cd15	0.075060	0.478040	0.924940
Cd161	Cd16	0.478040	0.075060	0.521960
Cd171	Cd17	0.478040	0.924940	0.075060
Cd181	Cd18	0.075060	0.521960	0.478040
Cd191	Cd19	0.924940	0.478040	0.521960
Cd201	Cd20	0.521960	0.075060	0.924940
Cd211	Cd21	0.075060	0.924940	0.521960
Cd221	Cd22	0.478040	0.521960	0.924940
Cd231	Cd23	0.521960	0.478040	0.075060
Cd241	Cd24	0.924940	0.075060	0.478040
H11	H1	0.541000	0.053200	0.071400
H21	H2	0.559200	0.203200	0.006000
H31	H3	0.552600	0.175800	0.960400
H41	H4	0.595200	0.006800	0.167600
H51	H5	0.592700	0.007500	0.121900
H61	H6	0.647400	0.049400	0.070000
H71	H7	0.670300	0.003900	0.108900
H81	H8	0.646500	0.055900	0.113700
H91	H9	0.498500	0.043500	0.157500
H101	H10	0.503000	0.044400	0.201400
H111	H11	0.458800	0.126600	0.183600
H121	H12	0.428600	0.099200	0.189400
H131	H13	0.456700	0.128100	0.137100
H141	H14	0.053200	0.541000	0.334400
H151	H15	0.203200	0.559200	0.231600
H161	H16	0.175800	0.552600	0.311200
H171	H17	0.006800	0.595200	0.230400
H181	H18	0.007500	0.592700	0.277900
H191	H19	0.049400	0.647400	0.233200
H201	H20	0.003900	0.670300	0.216900
H211	H21	0.055900	0.646500	0.183900
H221	H22	0.043500	0.498500	0.300500
H231	H23	0.044400	0.503000	0.251200
H241	H24	0.126600	0.458800	0.231000
H251	H25	0.099200	0.428600	0.282800
H261	H26	0.128100	0.456700	0.278100
H271	H27	0.071400	0.334400	0.541000
H281	H28	0.006000	0.231600	0.559200
H291	H29	0.960400	0.311200	0.552600
H301	H30	0.167600	0.230400	0.595200
H311	H31	0.121900	0.277900	0.592700
H321	H32	0.070000	0.233200	0.647400
H331	H33	0.108900	0.216900	0.670300
H341	H34	0.113700	0.183900	0.646500
H351	H35	0.157500	0.300500	0.498500
H361	H36	0.201400	0.251200	0.503000
H371	H37	0.183600	0.231000	0.458800
H381	H38	0.189400	0.282800	0.428600
H391	H39	0.137100	0.278100	0.456700
H401	H40	0.334400	0.071400	0.053200
H411	H41	0.231600	0.006000	0.203200
H421	H42	0.311200	0.960400	0.175800
H431	H43	0.230400	0.167600	0.006800
H441	H44	0.277900	0.121900	0.007500
H451	H45	0.233200	0.070000	0.049400
H461	H46	0.216900	0.108900	0.003900
H471	H47	0.183900	0.113700	0.055900
H481	H48	0.300500	0.157500	0.043500
H491	H49	0.251200	0.201400	0.044400
H501	H50	0.231000	0.183600	0.126600
H511	H51	0.282800	0.189400	0.099200
H521	H52	0.278100	0.137100	0.128100
H531	H53	0.541000	0.071400	0.334400
H541	H54	0.559200	0.006000	0.231600
H551	H55	0.552600	0.960400	0.311200
H561	H56	0.595200	0.167600	0.230400
H571	H57	0.592700	0.121900	0.277900
H581	H58	0.647400	0.070000	0.233200
H591	H59	0.670300	0.108900	0.216900
H601	H60	0.646500	0.113700	0.183900
H611	H61	0.498500	0.157500	0.300500
H621	H62	0.503000	0.201400	0.251200
H631	H63	0.458800	0.183600	0.231000
H641	H64	0.428600	0.189400	0.282800
H651	H65	0.456700	0.137100	0.278100
H661	H66	0.053200	0.334400	0.071400
H671	H67	0.203200	0.231600	0.006000
H681	H68	0.175800	0.311200	0.960400
H691	H69	0.006800	0.230400	0.167600
H701	H70	0.007500	0.277900	0.121900
H711	H71	0.049400	0.233200	0.070000
H721	H72	0.003900	0.216900	0.108900
H731	H73	0.055900	0.183900	0.113700
H741	H74	0.043500	0.300500	0.157500
H751	H75	0.044400	0.251200	0.201400
H761	H76	0.126600	0.231000	0.183600
H771	H77	0.099200	0.282800	0.189400
H781	H78	0.128100	0.278100	0.137100
H791	H79	0.071400	0.541000	0.053200
H801	H80	0.006000	0.559200	0.203200
H811	H81	0.960400	0.552600	0.175800
H821	H82	0.167600	0.595200	0.006800
H831	H83	0.121900	0.592700	0.007500
H841	H84	0.070000	0.647400	0.049400
H851	H85	0.108900	0.670300	0.003900
H861	H86	0.113700	0.646500	0.055900
H871	H87	0.157500	0.498500	0.043500
H881	H88	0.201400	0.503000	0.044400
H891	H89	0.183600	0.458800	0.126600
H901	H90	0.189400	0.428600	0.099200
H911	H91	0.137100	0.456700	0.128100
H921	H92	0.334400	0.053200	0.541000
H931	H93	0.231600	0.203200	0.559200
H941	H94	0.311200	0.175800	0.552600
H951	H95	0.230400	0.006800	0.595200
H961	H96	0.277900	0.007500	0.592700
H971	H97	0.233200	0.049400	0.647400
H981	H98	0.216900	0.003900	0.670300
H991	H99	0.183900	0.055900	0.646500
H1001	H100	0.300500	0.043500	0.498500
H1011	H101	0.251200	0.044400	0.503000
H1021	H102	0.231000	0.126600	0.458800
H1031	H103	0.282800	0.099200	0.428600
H1041	H104	0.278100	0.128100	0.456700
H1051	H105	0.541000	0.334400	0.053200
H1061	H106	0.559200	0.231600	0.203200
H1071	H107	0.552600	0.311200	0.175800
H1081	H108	0.595200	0.230400	0.006800
H1091	H109	0.592700	0.277900	0.007500
H1101	H110	0.647400	0.233200	0.049400
H1111	H111	0.670300	0.216900	0.003900
H1121	H112	0.646500	0.183900	0.055900
H1131	H113	0.498500	0.300500	0.043500
H1141	H114	0.503000	0.251200	0.044400
H1151	H115	0.458800	0.231000	0.126600
H1161	H116	0.428600	0.282800	0.099200
H1171	H117	0.456700	0.278100	0.128100
H1181	H118	0.053200	0.071400	0.541000
H1191	H119	0.203200	0.006000	0.559200
H1201	H120	0.175800	0.960400	0.552600
H1211	H121	0.006800	0.167600	0.595200
H1221	H122	0.007500	0.121900	0.592700
H1231	H123	0.049400	0.070000	0.647400
H1241	H124	0.003900	0.108900	0.670300
H1251	H125	0.055900	0.113700	0.646500
H1261	H126	0.043500	0.157500	0.498500
H1271	H127	0.044400	0.201400	0.503000
H1281	H128	0.126600	0.183600	0.458800
H1291	H129	0.099200	0.189400	0.428600
H1301	H130	0.128100	0.137100	0.456700
H1311	H131	0.071400	0.053200	0.334400
H1321	H132	0.006000	0.203200	0.231600
H1331	H133	0.960400	0.175800	0.311200
H1341	H134	0.167600	0.006800	0.230400
H1351	H135	0.121900	0.007500	0.277900
H1361	H136	0.070000	0.049400	0.233200
H1371	H137	0.108900	0.003900	0.216900
H1381	H138	0.113700	0.055900	0.183900
H1391	H139	0.157500	0.043500	0.300500
H1401	H140	0.201400	0.044400	0.251200
H1411	H141	0.183600	0.126600	0.231000
H1421	H142	0.189400	0.099200	0.282800
H1431	H143	0.137100	0.128100	0.278100
H1441	H144	0.334400	0.541000	0.071400
H1451	H145	0.231600	0.559200	0.006000
H1461	H146	0.311200	0.552600	0.960400
H1471	H147	0.230400	0.595200	0.167600
H1481	H148	0.277900	0.592700	0.121900
H1491	H149	0.233200	0.647400	0.070000
H1501	H150	0.216900	0.670300	0.108900
H1511	H151	0.183900	0.646500	0.113700
H1521	H152	0.300500	0.498500	0.157500
H1531	H153	0.251200	0.503000	0.201400
H1541	H154	0.231000	0.458800	0.183600
H1551	H155	0.282800	0.428600	0.189400
H1561	H156	0.278100	0.456700	0.137100
H1571	H157	0.446800	0.959000	0.428600
H1581	H158	0.296800	0.940800	0.494000
H1591	H159	0.324200	0.947400	0.539600
H1601	H160	0.493200	0.904800	0.332400
H1611	H161	0.492500	0.907300	0.378100
H1621	H162	0.450600	0.852600	0.430000
H1631	H163	0.496100	0.829700	0.391100
H1641	H164	0.444100	0.853500	0.386300
H1651	H165	0.456500	0.001500	0.342500
H1661	H166	0.455600	0.997000	0.298600
H1671	H167	0.373400	0.041200	0.316400
H1681	H168	0.400800	0.071400	0.310600
H1691	H169	0.371900	0.043300	0.362900
H1701	H170	0.959000	0.446800	0.165600
H1711	H171	0.940800	0.296800	0.268400
H1721	H172	0.947400	0.324200	0.188800
H1731	H173	0.904800	0.493200	0.269600
H1741	H174	0.907300	0.492500	0.222100
H1751	H175	0.852600	0.450600	0.266800
H1761	H176	0.829700	0.496100	0.283100
H1771	H177	0.853500	0.444100	0.316100
H1781	H178	0.001500	0.456500	0.199500
H1791	H179	0.997000	0.455600	0.248800
H1801	H180	0.041200	0.373400	0.269000
H1811	H181	0.071400	0.400800	0.217200
H1821	H182	0.043300	0.371900	0.221900
H1831	H183	0.165600	0.428600	0.959000
H1841	H184	0.268400	0.494000	0.940800
H1851	H185	0.188800	0.539600	0.947400
H1861	H186	0.269600	0.332400	0.904800
H1871	H187	0.222100	0.378100	0.907300
H1881	H188	0.266800	0.430000	0.852600
H1891	H189	0.283100	0.391100	0.829700
H1901	H190	0.316100	0.386300	0.853500
H1911	H191	0.199500	0.342500	0.001500
H1921	H192	0.248800	0.298600	0.997000
H1931	H193	0.269000	0.316400	0.041200
H1941	H194	0.217200	0.310600	0.071400
H1951	H195	0.221900	0.362900	0.043300
H1961	H196	0.428600	0.165600	0.446800
H1971	H197	0.494000	0.268400	0.296800
H1981	H198	0.539600	0.188800	0.324200
H1991	H199	0.332400	0.269600	0.493200
H2001	H200	0.378100	0.222100	0.492500
H2011	H201	0.430000	0.266800	0.450600
H2021	H202	0.391100	0.283100	0.496100
H2031	H203	0.386300	0.316100	0.444100
H2041	H204	0.342500	0.199500	0.456500
H2051	H205	0.298600	0.248800	0.455600
H2061	H206	0.316400	0.269000	0.373400
H2071	H207	0.310600	0.217200	0.400800
H2081	H208	0.362900	0.221900	0.371900
H2091	H209	0.428600	0.959000	0.165600
H2101	H210	0.494000	0.940800	0.268400
H2111	H211	0.539600	0.947400	0.188800
H2121	H212	0.332400	0.904800	0.269600
H2131	H213	0.378100	0.907300	0.222100
H2141	H214	0.430000	0.852600	0.266800
H2151	H215	0.391100	0.829700	0.283100
H2161	H216	0.386300	0.853500	0.316100
H2171	H217	0.342500	0.001500	0.199500
H2181	H218	0.298600	0.997000	0.248800
H2191	H219	0.316400	0.041200	0.269000
H2201	H220	0.310600	0.071400	0.217200
H2211	H221	0.362900	0.043300	0.221900
H2221	H222	0.165600	0.446800	0.428600
H2231	H223	0.268400	0.296800	0.494000
H2241	H224	0.188800	0.324200	0.539600
H2251	H225	0.269600	0.493200	0.332400
H2261	H226	0.222100	0.492500	0.378100
H2271	H227	0.266800	0.450600	0.430000
H2281	H228	0.283100	0.496100	0.391100
H2291	H229	0.316100	0.444100	0.386300
H2301	H230	0.199500	0.456500	0.342500
H2311	H231	0.248800	0.455600	0.298600
H2321	H232	0.269000	0.373400	0.316400
H2331	H233	0.217200	0.400800	0.310600
H2341	H234	0.221900	0.371900	0.362900
H2351	H235	0.959000	0.428600	0.446800
H2361	H236	0.940800	0.494000	0.296800
H2371	H237	0.947400	0.539600	0.324200
H2381	H238	0.904800	0.332400	0.493200
H2391	H239	0.907300	0.378100	0.492500
H2401	H240	0.852600	0.430000	0.450600
H2411	H241	0.829700	0.391100	0.496100
H2421	H242	0.853500	0.386300	0.444100
H2431	H243	0.001500	0.342500	0.456500
H2441	H244	0.997000	0.298600	0.455600
H2451	H245	0.041200	0.316400	0.373400
H2461	H246	0.071400	0.310600	0.400800
H2471	H247	0.043300	0.362900	0.371900
H2481	H248	0.446800	0.165600	0.959000
H2491	H249	0.296800	0.268400	0.940800
H2501	H250	0.324200	0.188800	0.947400
H2511	H251	0.493200	0.269600	0.904800
H2521	H252	0.492500	0.222100	0.907300
H2531	H253	0.450600	0.266800	0.852600
H2541	H254	0.496100	0.283100	0.829700
H2551	H255	0.444100	0.316100	0.853500
H2561	H256	0.456500	0.199500	0.001500
H2571	H257	0.455600	0.248800	0.997000
H2581	H258	0.373400	0.269000	0.041200
H2591	H259	0.400800	0.217200	0.071400
H2601	H260	0.371900	0.221900	0.043300
H2611	H261	0.165600	0.959000	0.446800
H2621	H262	0.268400	0.940800	0.296800
H2631	H263	0.188800	0.947400	0.324200
H2641	H264	0.269600	0.904800	0.493200
H2651	H265	0.222100	0.907300	0.492500
H2661	H266	0.266800	0.852600	0.450600
H2671	H267	0.283100	0.829700	0.496100
H2681	H268	0.316100	0.853500	0.444100
H2691	H269	0.199500	0.001500	0.456500
H2701	H270	0.248800	0.997000	0.455600
H2711	H271	0.269000	0.041200	0.373400
H2721	H272	0.217200	0.071400	0.400800
H2731	H273	0.221900	0.043300	0.371900
H2741	H274	0.428600	0.446800	0.959000
H2751	H275	0.494000	0.296800	0.940800
H2761	H276	0.539600	0.324200	0.947400
H2771	H277	0.332400	0.493200	0.904800
H2781	H278	0.378100	0.492500	0.907300
H2791	H279	0.430000	0.450600	0.852600
H2801	H280	0.391100	0.496100	0.829700
H2811	H281	0.386300	0.444100	0.853500
H2821	H282	0.342500	0.456500	0.001500
H2831	H283	0.298600	0.455600	0.997000
H2841	H284	0.316400	0.373400	0.041200
H2851	H285	0.310600	0.400800	0.071400
H2861	H286	0.362900	0.371900	0.043300
H2871	H287	0.446800	0.428600	0.165600
H2881	H288	0.296800	0.494000	0.268400
H2891	H289	0.324200	0.539600	0.188800
H2901	H290	0.493200	0.332400	0.269600
H2911	H291	0.492500	0.378100	0.222100
H2921	H292	0.450600	0.430000	0.266800
H2931	H293	0.496100	0.391100	0.283100
H2941	H294	0.444100	0.386300	0.316100
H2951	H295	0.456500	0.342500	0.199500
H2961	H296	0.455600	0.298600	0.248800
H2971	H297	0.373400	0.316400	0.269000
H2981	H298	0.400800	0.310600	0.217200
H2991	H299	0.371900	0.362900	0.221900
H3001	H300	0.959000	0.165600	0.428600
H3011	H301	0.940800	0.268400	0.494000
H3021	H302	0.947400	0.188800	0.539600
H3031	H303	0.904800	0.269600	0.332400
H3041	H304	0.907300	0.222100	0.378100
H3051	H305	0.852600	0.266800	0.430000
H3061	H306	0.829700	0.283100	0.391100
H3071	H307	0.853500	0.316100	0.386300
H3081	H308	0.001500	0.199500	0.342500
H3091	H309	0.997000	0.248800	0.298600
H3101	H310	0.041200	0.269000	0.316400
H3111	H311	0.071400	0.217200	0.310600
H3121	H312	0.043300	0.221900	0.362900
H3131	H313	0.459000	0.946800	0.928600
H3141	H314	0.440800	0.796800	0.994000
H3151	H315	0.447400	0.824200	0.039600
H3161	H316	0.404800	0.993200	0.832400
H3171	H317	0.407300	0.992500	0.878100
H3181	H318	0.352600	0.950600	0.930000
H3191	H319	0.329700	0.996100	0.891100
H3201	H320	0.353500	0.944100	0.886300
H3211	H321	0.501500	0.956500	0.842500
H3221	H322	0.497000	0.955600	0.798600
H3231	H323	0.541200	0.873400	0.816400
H3241	H324	0.571400	0.900800	0.810600
H3251	H325	0.543300	0.871900	0.862900
H3261	H326	0.946800	0.459000	0.665600
H3271	H327	0.796800	0.440800	0.768400
H3281	H328	0.824200	0.447400	0.688800
H3291	H329	0.993200	0.404800	0.769600
H3301	H330	0.992500	0.407300	0.722100
H3311	H331	0.950600	0.352600	0.766800
H3321	H332	0.996100	0.329700	0.783100
H3331	H333	0.944100	0.353500	0.816100
H3341	H334	0.956500	0.501500	0.699500
H3351	H335	0.955600	0.497000	0.748800
H3361	H336	0.873400	0.541200	0.769000
H3371	H337	0.900800	0.571400	0.717200
H3381	H338	0.871900	0.543300	0.721900
H3391	H339	0.928600	0.665600	0.459000
H3401	H340	0.994000	0.768400	0.440800
H3411	H341	0.039600	0.688800	0.447400
H3421	H342	0.832400	0.769600	0.404800
H3431	H343	0.878100	0.722100	0.407300
H3441	H344	0.930000	0.766800	0.352600
H3451	H345	0.891100	0.783100	0.329700
H3461	H346	0.886300	0.816100	0.353500
H3471	H347	0.842500	0.699500	0.501500
H3481	H348	0.798600	0.748800	0.497000
H3491	H349	0.816400	0.769000	0.541200
H3501	H350	0.810600	0.717200	0.571400
H3511	H351	0.862900	0.721900	0.543300
H3521	H352	0.665600	0.928600	0.946800
H3531	H353	0.768400	0.994000	0.796800
H3541	H354	0.688800	0.039600	0.824200
H3551	H355	0.769600	0.832400	0.993200
H3561	H356	0.722100	0.878100	0.992500
H3571	H357	0.766800	0.930000	0.950600
H3581	H358	0.783100	0.891100	0.996100
H3591	H359	0.816100	0.886300	0.944100
H3601	H360	0.699500	0.842500	0.956500
H3611	H361	0.748800	0.798600	0.955600
H3621	H362	0.769000	0.816400	0.873400
H3631	H363	0.717200	0.810600	0.900800
H3641	H364	0.721900	0.862900	0.871900
H3651	H365	0.459000	0.928600	0.665600
H3661	H366	0.440800	0.994000	0.768400
H3671	H367	0.447400	0.039600	0.688800
H3681	H368	0.404800	0.832400	0.769600
H3691	H369	0.407300	0.878100	0.722100
H3701	H370	0.352600	0.930000	0.766800
H3711	H371	0.329700	0.891100	0.783100
H3721	H372	0.353500	0.886300	0.816100
H3731	H373	0.501500	0.842500	0.699500
H3741	H374	0.497000	0.798600	0.748800
H3751	H375	0.541200	0.816400	0.769000
H3761	H376	0.571400	0.810600	0.717200
H3771	H377	0.543300	0.862900	0.721900
H3781	H378	0.946800	0.665600	0.928600
H3791	H379	0.796800	0.768400	0.994000
H3801	H380	0.824200	0.688800	0.039600
H3811	H381	0.993200	0.769600	0.832400
H3821	H382	0.992500	0.722100	0.878100
H3831	H383	0.950600	0.766800	0.930000
H3841	H384	0.996100	0.783100	0.891100
H3851	H385	0.944100	0.816100	0.886300
H3861	H386	0.956500	0.699500	0.842500
H3871	H387	0.955600	0.748800	0.798600
H3881	H388	0.873400	0.769000	0.816400
H3891	H389	0.900800	0.717200	0.810600
H3901	H390	0.871900	0.721900	0.862900
H3911	H391	0.928600	0.459000	0.946800
H3921	H392	0.994000	0.440800	0.796800
H3931	H393	0.039600	0.447400	0.824200
H3941	H394	0.832400	0.404800	0.993200
H3951	H395	0.878100	0.407300	0.992500
H3961	H396	0.930000	0.352600	0.950600
H3971	H397	0.891100	0.329700	0.996100
H3981	H398	0.886300	0.353500	0.944100
H3991	H399	0.842500	0.501500	0.956500
H4001	H400	0.798600	0.497000	0.955600
H4011	H401	0.816400	0.541200	0.873400
H4021	H402	0.810600	0.571400	0.900800
H4031	H403	0.862900	0.543300	0.871900
H4041	H404	0.665600	0.946800	0.459000
H4051	H405	0.768400	0.796800	0.440800
H4061	H406	0.688800	0.824200	0.447400
H4071	H407	0.769600	0.993200	0.404800
H4081	H408	0.722100	0.992500	0.407300
H4091	H409	0.766800	0.950600	0.352600
H4101	H410	0.783100	0.996100	0.329700
H4111	H411	0.816100	0.944100	0.353500
H4121	H412	0.699500	0.956500	0.501500
H4131	H413	0.748800	0.955600	0.497000
H4141	H414	0.769000	0.873400	0.541200
H4151	H415	0.717200	0.900800	0.571400
H4161	H416	0.721900	0.871900	0.543300
H4171	H417	0.459000	0.665600	0.946800
H4181	H418	0.440800	0.768400	0.796800
H4191	H419	0.447400	0.688800	0.824200
H4201	H420	0.404800	0.769600	0.993200
H4211	H421	0.407300	0.722100	0.992500
H4221	H422	0.352600	0.766800	0.950600
H4231	H423	0.329700	0.783100	0.996100
H4241	H424	0.353500	0.816100	0.944100
H4251	H425	0.501500	0.699500	0.956500
H4261	H426	0.497000	0.748800	0.955600
H4271	H427	0.541200	0.769000	0.873400
H4281	H428	0.571400	0.717200	0.900800
H4291	H429	0.543300	0.721900	0.871900
H4301	H430	0.946800	0.928600	0.459000
H4311	H431	0.796800	0.994000	0.440800
H4321	H432	0.824200	0.039600	0.447400
H4331	H433	0.993200	0.832400	0.404800
H4341	H434	0.992500	0.878100	0.407300
H4351	H435	0.950600	0.930000	0.352600
H4361	H436	0.996100	0.891100	0.329700
H4371	H437	0.944100	0.886300	0.353500
H4381	H438	0.956500	0.842500	0.501500
H4391	H439	0.955600	0.798600	0.497000
H4401	H440	0.873400	0.816400	0.541200
H4411	H441	0.900800	0.810600	0.571400
H4421	H442	0.871900	0.862900	0.543300
H4431	H443	0.928600	0.946800	0.665600
H4441	H444	0.994000	0.796800	0.768400
H4451	H445	0.039600	0.824200	0.688800
H4461	H446	0.832400	0.993200	0.769600
H4471	H447	0.878100	0.992500	0.722100
H4481	H448	0.930000	0.950600	0.766800
H4491	H449	0.891100	0.996100	0.783100
H4501	H450	0.886300	0.944100	0.816100
H4511	H451	0.842500	0.956500	0.699500
H4521	H452	0.798600	0.955600	0.748800
H4531	H453	0.816400	0.873400	0.769000
H4541	H454	0.810600	0.900800	0.717200
H4551	H455	0.862900	0.871900	0.721900
H4561	H456	0.665600	0.459000	0.928600
H4571	H457	0.768400	0.440800	0.994000
H4581	H458	0.688800	0.447400	0.039600
H4591	H459	0.769600	0.404800	0.832400
H4601	H460	0.722100	0.407300	0.878100
H4611	H461	0.766800	0.352600	0.930000
H4621	H462	0.783100	0.329700	0.891100
H4631	H463	0.816100	0.353500	0.886300
H4641	H464	0.699500	0.501500	0.842500
H4651	H465	0.748800	0.497000	0.798600
H4661	H466	0.769000	0.541200	0.816400
H4671	H467	0.717200	0.571400	0.810600
H4681	H468	0.721900	0.543300	0.862900
H4691	H469	0.553200	0.041000	0.571400
H4701	H470	0.703200	0.059200	0.506000
H4711	H471	0.675800	0.052600	0.460400
H4721	H472	0.506800	0.095200	0.667600
H4731	H473	0.507500	0.092700	0.621900
H4741	H474	0.549400	0.147400	0.570000
H4751	H475	0.503900	0.170300	0.608900
H4761	H476	0.555900	0.146500	0.613700
H4771	H477	0.543500	0.998500	0.657500
H4781	H478	0.544400	0.003000	0.701400
H4791	H479	0.626600	0.958800	0.683600
H4801	H480	0.599200	0.928600	0.689400
H4811	H481	0.628100	0.956700	0.637100
H4821	H482	0.041000	0.553200	0.834400
H4831	H483	0.059200	0.703200	0.731600
H4841	H484	0.052600	0.675800	0.811200
H4851	H485	0.095200	0.506800	0.730400
H4861	H486	0.092700	0.507500	0.777900
H4871	H487	0.147400	0.549400	0.733200
H4881	H488	0.170300	0.503900	0.716900
H4891	H489	0.146500	0.555900	0.683900
H4901	H490	0.998500	0.543500	0.800500
H4911	H491	0.003000	0.544400	0.751200
H4921	H492	0.958800	0.626600	0.731000
H4931	H493	0.928600	0.599200	0.782800
H4941	H494	0.956700	0.628100	0.778100
H4951	H495	0.834400	0.571400	0.041000
H4961	H496	0.731600	0.506000	0.059200
H4971	H497	0.811200	0.460400	0.052600
H4981	H498	0.730400	0.667600	0.095200
H4991	H499	0.777900	0.621900	0.092700
H5001	H500	0.733200	0.570000	0.147400
H5011	H501	0.716900	0.608900	0.170300
H5021	H502	0.683900	0.613700	0.146500
H5031	H503	0.800500	0.657500	0.998500
H5041	H504	0.751200	0.701400	0.003000
H5051	H505	0.731000	0.683600	0.958800
H5061	H506	0.782800	0.689400	0.928600
H5071	H507	0.778100	0.637100	0.956700
H5081	H508	0.571400	0.834400	0.553200
H5091	H509	0.506000	0.731600	0.703200
H5101	H510	0.460400	0.811200	0.675800
H5111	H511	0.667600	0.730400	0.506800
H5121	H512	0.621900	0.777900	0.507500
H5131	H513	0.570000	0.733200	0.549400
H5141	H514	0.608900	0.716900	0.503900
H5151	H515	0.613700	0.683900	0.555900
H5161	H516	0.657500	0.800500	0.543500
H5171	H517	0.701400	0.751200	0.544400
H5181	H518	0.683600	0.731000	0.626600
H5191	H519	0.689400	0.782800	0.599200
H5201	H520	0.637100	0.778100	0.628100
H5211	H521	0.571400	0.041000	0.834400
H5221	H522	0.506000	0.059200	0.731600
H5231	H523	0.460400	0.052600	0.811200
H5241	H524	0.667600	0.095200	0.730400
H5251	H525	0.621900	0.092700	0.777900
H5261	H526	0.570000	0.147400	0.733200
H5271	H527	0.608900	0.170300	0.716900
H5281	H528	0.613700	0.146500	0.683900
H5291	H529	0.657500	0.998500	0.800500
H5301	H530	0.701400	0.003000	0.751200
H5311	H531	0.683600	0.958800	0.731000
H5321	H532	0.689400	0.928600	0.782800
H5331	H533	0.637100	0.956700	0.778100
H5341	H534	0.834400	0.553200	0.571400
H5351	H535	0.731600	0.703200	0.506000
H5361	H536	0.811200	0.675800	0.460400
H5371	H537	0.730400	0.506800	0.667600
H5381	H538	0.777900	0.507500	0.621900
H5391	H539	0.733200	0.549400	0.570000
H5401	H540	0.716900	0.503900	0.608900
H5411	H541	0.683900	0.555900	0.613700
H5421	H542	0.800500	0.543500	0.657500
H5431	H543	0.751200	0.544400	0.701400
H5441	H544	0.731000	0.626600	0.683600
H5451	H545	0.782800	0.599200	0.689400
H5461	H546	0.778100	0.628100	0.637100
H5471	H547	0.041000	0.571400	0.553200
H5481	H548	0.059200	0.506000	0.703200
H5491	H549	0.052600	0.460400	0.675800
H5501	H550	0.095200	0.667600	0.506800
H5511	H551	0.092700	0.621900	0.507500
H5521	H552	0.147400	0.570000	0.549400
H5531	H553	0.170300	0.608900	0.503900
H5541	H554	0.146500	0.613700	0.555900
H5551	H555	0.998500	0.657500	0.543500
H5561	H556	0.003000	0.701400	0.544400
H5571	H557	0.958800	0.683600	0.626600
H5581	H558	0.928600	0.689400	0.599200
H5591	H559	0.956700	0.637100	0.628100
H5601	H560	0.553200	0.834400	0.041000
H5611	H561	0.703200	0.731600	0.059200
H5621	H562	0.675800	0.811200	0.052600
H5631	H563	0.506800	0.730400	0.095200
H5641	H564	0.507500	0.777900	0.092700
H5651	H565	0.549400	0.733200	0.147400
H5661	H566	0.503900	0.716900	0.170300
H5671	H567	0.555900	0.683900	0.146500
H5681	H568	0.543500	0.800500	0.998500
H5691	H569	0.544400	0.751200	0.003000
H5701	H570	0.626600	0.731000	0.958800
H5711	H571	0.599200	0.782800	0.928600
H5721	H572	0.628100	0.778100	0.956700
H5731	H573	0.834400	0.041000	0.553200
H5741	H574	0.731600	0.059200	0.703200
H5751	H575	0.811200	0.052600	0.675800
H5761	H576	0.730400	0.095200	0.506800
H5771	H577	0.777900	0.092700	0.507500
H5781	H578	0.733200	0.147400	0.549400
H5791	H579	0.716900	0.170300	0.503900
H5801	H580	0.683900	0.146500	0.555900
H5811	H581	0.800500	0.998500	0.543500
H5821	H582	0.751200	0.003000	0.544400
H5831	H583	0.731000	0.958800	0.626600
H5841	H584	0.782800	0.928600	0.599200
H5851	H585	0.778100	0.956700	0.628100
H5861	H586	0.571400	0.553200	0.041000
H5871	H587	0.506000	0.703200	0.059200
H5881	H588	0.460400	0.675800	0.052600
H5891	H589	0.667600	0.506800	0.095200
H5901	H590	0.621900	0.507500	0.092700
H5911	H591	0.570000	0.549400	0.147400
H5921	H592	0.608900	0.503900	0.170300
H5931	H593	0.613700	0.555900	0.146500
H5941	H594	0.657500	0.543500	0.998500
H5951	H595	0.701400	0.544400	0.003000
H5961	H596	0.683600	0.626600	0.958800
H5971	H597	0.689400	0.599200	0.928600
H5981	H598	0.637100	0.628100	0.956700
H5991	H599	0.553200	0.571400	0.834400
H6001	H600	0.703200	0.506000	0.731600
H6011	H601	0.675800	0.460400	0.811200
H6021	H602	0.506800	0.667600	0.730400
H6031	H603	0.507500	0.621900	0.777900
H6041	H604	0.549400	0.570000	0.733200
H6051	H605	0.503900	0.608900	0.716900
H6061	H606	0.555900	0.613700	0.683900
H6071	H607	0.543500	0.657500	0.800500
H6081	H608	0.544400	0.701400	0.751200
H6091	H609	0.626600	0.683600	0.731000
H6101	H610	0.599200	0.689400	0.782800
H6111	H611	0.628100	0.637100	0.778100
H6121	H612	0.041000	0.834400	0.571400
H6131	H613	0.059200	0.731600	0.506000
H6141	H614	0.052600	0.811200	0.460400
H6151	H615	0.095200	0.730400	0.667600
H6161	H616	0.092700	0.777900	0.621900
H6171	H617	0.147400	0.733200	0.570000
H6181	H618	0.170300	0.716900	0.608900
H6191	H619	0.146500	0.683900	0.613700
H6201	H620	0.998500	0.800500	0.657500
H6211	H621	0.003000	0.751200	0.701400
H6221	H622	0.958800	0.731000	0.683600
H6231	H623	0.928600	0.782800	0.689400
H6241	H624	0.956700	0.778100	0.637100
C11	C1	0.536880	0.098160	0.982040
C21	C2	0.545110	0.112470	0.011550
C31	C3	0.544410	0.083630	0.058170
C41	C4	0.548780	0.099980	0.084920
C51	C5	0.553430	0.144510	0.067090
C61	C6	0.555230	0.172970	0.019470
C71	C7	0.551190	0.156590	0.992650
C81	C8	0.550070	0.072870	0.135470
C91	C9	0.555730	0.151490	0.105430
C101	C10	0.554930	0.108630	0.145750
C111	C11	0.595390	0.026410	0.134370
C121	C12	0.644500	0.034700	0.103900
C131	C13	0.501830	0.063290	0.168450
C141	C14	0.457430	0.108370	0.169770
C151	C15	0.098160	0.536880	0.382920
C161	C16	0.112470	0.545110	0.330870
C171	C17	0.083630	0.544410	0.313790
C181	C18	0.099980	0.548780	0.266320
C191	C19	0.144510	0.553430	0.234970
C201	C20	0.172970	0.555230	0.252330
C211	C21	0.156590	0.551190	0.299570
C221	C22	0.072870	0.550070	0.241590
C231	C23	0.151490	0.555730	0.187350
C241	C24	0.108630	0.554930	0.190690
C251	C25	0.026410	0.595390	0.243830
C261	C26	0.034700	0.644500	0.216900
C271	C27	0.063290	0.501830	0.266430
C281	C28	0.108370	0.457430	0.264430
C291	C29	0.982040	0.382920	0.536880
C301	C30	0.011550	0.330870	0.545110
C311	C31	0.058170	0.313790	0.544410
C321	C32	0.084920	0.266320	0.548780
C331	C33	0.067090	0.234970	0.553430
C341	C34	0.019470	0.252330	0.555230
C351	C35	0.992650	0.299570	0.551190
C361	C36	0.135470	0.241590	0.550070
C371	C37	0.105430	0.187350	0.555730
C381	C38	0.145750	0.190690	0.554930
C391	C39	0.134370	0.243830	0.595390
C401	C40	0.103900	0.216900	0.644500
C411	C41	0.168450	0.266430	0.501830
C421	C42	0.169770	0.264430	0.457430
C431	C43	0.382920	0.982040	0.098160
C441	C44	0.330870	0.011550	0.112470
C451	C45	0.313790	0.058170	0.083630
C461	C46	0.266320	0.084920	0.099980
C471	C47	0.234970	0.067090	0.144510
C481	C48	0.252330	0.019470	0.172970
C491	C49	0.299570	0.992650	0.156590
C501	C50	0.241590	0.135470	0.072870
C511	C51	0.187350	0.105430	0.151490
C521	C52	0.190690	0.145750	0.108630
C531	C53	0.243830	0.134370	0.026410
C541	C54	0.216900	0.103900	0.034700
C551	C55	0.266430	0.168450	0.063290
C561	C56	0.264430	0.169770	0.108370
C571	C57	0.536880	0.982040	0.382920
C581	C58	0.545110	0.011550	0.330870
C591	C59	0.544410	0.058170	0.313790
C601	C60	0.548780	0.084920	0.266320
C611	C61	0.553430	0.067090	0.234970
C621	C62	0.555230	0.019470	0.252330
C631	C63	0.551190	0.992650	0.299570
C641	C64	0.550070	0.135470	0.241590
C651	C65	0.555730	0.105430	0.187350
C661	C66	0.554930	0.145750	0.190690
C671	C67	0.595390	0.134370	0.243830
C681	C68	0.644500	0.103900	0.216900
C691	C69	0.501830	0.168450	0.266430
C701	C70	0.457430	0.169770	0.264430
C711	C71	0.098160	0.382920	0.982040
C721	C72	0.112470	0.330870	0.011550
C731	C73	0.083630	0.313790	0.058170
C741	C74	0.099980	0.266320	0.084920
C751	C75	0.144510	0.234970	0.067090
C761	C76	0.172970	0.252330	0.019470
C771	C77	0.156590	0.299570	0.992650
C781	C78	0.072870	0.241590	0.135470
C791	C79	0.151490	0.187350	0.105430
C801	C80	0.108630	0.190690	0.145750
C811	C81	0.026410	0.243830	0.134370
C821	C82	0.034700	0.216900	0.103900
C831	C83	0.063290	0.266430	0.168450
C841	C84	0.108370	0.264430	0.169770
C851	C85	0.982040	0.536880	0.098160
C861	C86	0.011550	0.545110	0.112470
C871	C87	0.058170	0.544410	0.083630
C881	C88	0.084920	0.548780	0.099980
C891	C89	0.067090	0.553430	0.144510
C901	C90	0.019470	0.555230	0.172970
C911	C91	0.992650	0.551190	0.156590
C921	C92	0.135470	0.550070	0.072870
C931	C93	0.105430	0.555730	0.151490
C941	C94	0.145750	0.554930	0.108630
C951	C95	0.134370	0.595390	0.026410
C961	C96	0.103900	0.644500	0.034700
C971	C97	0.168450	0.501830	0.063290
C981	C98	0.169770	0.457430	0.108370
C991	C99	0.382920	0.098160	0.536880
C1001	C100	0.330870	0.112470	0.545110
C1011	C101	0.313790	0.083630	0.544410
C1021	C102	0.266320	0.099980	0.548780
C1031	C103	0.234970	0.144510	0.553430
C1041	C104	0.252330	0.172970	0.555230
C1051	C105	0.299570	0.156590	0.551190
C1061	C106	0.241590	0.072870	0.550070
C1071	C107	0.187350	0.151490	0.555730
C1081	C108	0.190690	0.108630	0.554930
C1091	C109	0.243830	0.026410	0.595390
C1101	C110	0.216900	0.034700	0.644500
C1111	C111	0.266430	0.063290	0.501830
C1121	C112	0.264430	0.108370	0.457430
C1131	C113	0.536880	0.382920	0.098160
C1141	C114	0.545110	0.330870	0.112470
C1151	C115	0.544410	0.313790	0.083630
C1161	C116	0.548780	0.266320	0.099980
C1171	C117	0.553430	0.234970	0.144510
C1181	C118	0.555230	0.252330	0.172970
C1191	C119	0.551190	0.299570	0.156590
C1201	C120	0.550070	0.241590	0.072870
C1211	C121	0.555730	0.187350	0.151490
C1221	C122	0.554930	0.190690	0.108630
C1231	C123	0.595390	0.243830	0.026410
C1241	C124	0.644500	0.216900	0.034700
C1251	C125	0.501830	0.266430	0.063290
C1261	C126	0.457430	0.264430	0.108370
C1271	C127	0.098160	0.982040	0.536880
C1281	C128	0.112470	0.011550	0.545110
C1291	C129	0.083630	0.058170	0.544410
C1301	C130	0.099980	0.084920	0.548780
C1311	C131	0.144510	0.067090	0.553430
C1321	C132	0.172970	0.019470	0.555230
C1331	C133	0.156590	0.992650	0.551190
C1341	C134	0.072870	0.135470	0.550070
C1351	C135	0.151490	0.105430	0.555730
C1361	C136	0.108630	0.145750	0.554930
C1371	C137	0.026410	0.134370	0.595390
C1381	C138	0.034700	0.103900	0.644500
C1391	C139	0.063290	0.168450	0.501830
C1401	C140	0.108370	0.169770	0.457430
C1411	C141	0.982040	0.098160	0.382920
C1421	C142	0.011550	0.112470	0.330870
C1431	C143	0.058170	0.083630	0.313790
C1441	C144	0.084920	0.099980	0.266320
C1451	C145	0.067090	0.144510	0.234970
C1461	C146	0.019470	0.172970	0.252330
C1471	C147	0.992650	0.156590	0.299570
C1481	C148	0.135470	0.072870	0.241590
C1491	C149	0.105430	0.151490	0.187350
C1501	C150	0.145750	0.108630	0.190690
C1511	C151	0.134370	0.026410	0.243830
C1521	C152	0.103900	0.034700	0.216900
C1531	C153	0.168450	0.063290	0.266430
C1541	C154	0.169770	0.108370	0.264430
C1551	C155	0.382920	0.536880	0.982040
C1561	C156	0.330870	0.545110	0.011550
C1571	C157	0.313790	0.544410	0.058170
C1581	C158	0.266320	0.548780	0.084920
C1591	C159	0.234970	0.553430	0.067090
C1601	C160	0.252330	0.555230	0.019470
C1611	C161	0.299570	0.551190	0.992650
C1621	C162	0.241590	0.550070	0.135470
C1631	C163	0.187350	0.555730	0.105430
C1641	C164	0.190690	0.554930	0.145750
C1651	C165	0.243830	0.595390	0.134370
C1661	C166	0.216900	0.644500	0.103900
C1671	C167	0.266430	0.501830	0.168450
C1681	C168	0.264430	0.457430	0.169770
C1691	C169	0.401840	0.963120	0.517960
C1701	C170	0.387530	0.954890	0.488450
C1711	C171	0.416370	0.955590	0.441830
C1721	C172	0.400020	0.951220	0.415080
C1731	C173	0.355490	0.946570	0.432910
C1741	C174	0.327030	0.944770	0.480530
C1751	C175	0.343410	0.948810	0.507350
C1761	C176	0.427130	0.949930	0.364530
C1771	C177	0.348510	0.944270	0.394570
C1781	C178	0.391370	0.945070	0.354250
C1791	C179	0.473590	0.904610	0.365630
C1801	C180	0.465300	0.855500	0.396100
C1811	C181	0.436710	0.998170	0.331550
C1821	C182	0.391630	0.042570	0.330230
C1831	C183	0.963120	0.401840	0.117080
C1841	C184	0.954890	0.387530	0.169130
C1851	C185	0.955590	0.416370	0.186210
C1861	C186	0.951220	0.400020	0.233680
C1871	C187	0.946570	0.355490	0.265030
C1881	C188	0.944770	0.327030	0.247670
C1891	C189	0.948810	0.343410	0.200430
C1901	C190	0.949930	0.427130	0.258410
C1911	C191	0.944270	0.348510	0.312650
C1921	C192	0.945070	0.391370	0.309310
C1931	C193	0.904610	0.473590	0.256170
C1941	C194	0.855500	0.465300	0.283100
C1951	C195	0.998170	0.436710	0.233570
C1961	C196	0.042570	0.391630	0.235570
C1971	C197	0.117080	0.517960	0.963120
C1981	C198	0.169130	0.488450	0.954890
C1991	C199	0.186210	0.441830	0.955590
C2001	C200	0.233680	0.415080	0.951220
C2011	C201	0.265030	0.432910	0.946570
C2021	C202	0.247670	0.480530	0.944770
C2031	C203	0.200430	0.507350	0.948810
C2041	C204	0.258410	0.364530	0.949930
C2051	C205	0.312650	0.394570	0.944270
C2061	C206	0.309310	0.354250	0.945070
C2071	C207	0.256170	0.365630	0.904610
C2081	C208	0.283100	0.396100	0.855500
C2091	C209	0.233570	0.331550	0.998170
C2101	C210	0.235570	0.330230	0.042570
C2111	C211	0.517960	0.117080	0.401840
C2121	C212	0.488450	0.169130	0.387530
C2131	C213	0.441830	0.186210	0.416370
C2141	C214	0.415080	0.233680	0.400020
C2151	C215	0.432910	0.265030	0.355490
C2161	C216	0.480530	0.247670	0.327030
C2171	C217	0.507350	0.200430	0.343410
C2181	C218	0.364530	0.258410	0.427130
C2191	C219	0.394570	0.312650	0.348510
C2201	C220	0.354250	0.309310	0.391370
C2211	C221	0.365630	0.256170	0.473590
C2221	C222	0.396100	0.283100	0.465300
C2231	C223	0.331550	0.233570	0.436710
C2241	C224	0.330230	0.235570	0.391630
C2251	C225	0.517960	0.963120	0.117080
C2261	C226	0.488450	0.954890	0.169130
C2271	C227	0.441830	0.955590	0.186210
C2281	C228	0.415080	0.951220	0.233680
C2291	C229	0.432910	0.946570	0.265030
C2301	C230	0.480530	0.944770	0.247670
C2311	C231	0.507350	0.948810	0.200430
C2321	C232	0.364530	0.949930	0.258410
C2331	C233	0.394570	0.944270	0.312650
C2341	C234	0.354250	0.945070	0.309310
C2351	C235	0.365630	0.904610	0.256170
C2361	C236	0.396100	0.855500	0.283100
C2371	C237	0.331550	0.998170	0.233570
C2381	C238	0.330230	0.042570	0.235570
C2391	C239	0.117080	0.401840	0.517960
C2401	C240	0.169130	0.387530	0.488450
C2411	C241	0.186210	0.416370	0.441830
C2421	C242	0.233680	0.400020	0.415080
C2431	C243	0.265030	0.355490	0.432910
C2441	C244	0.247670	0.327030	0.480530
C2451	C245	0.200430	0.343410	0.507350
C2461	C246	0.258410	0.427130	0.364530
C2471	C247	0.312650	0.348510	0.394570
C2481	C248	0.309310	0.391370	0.354250
C2491	C249	0.256170	0.473590	0.365630
C2501	C250	0.283100	0.465300	0.396100
C2511	C251	0.233570	0.436710	0.331550
C2521	C252	0.235570	0.391630	0.330230
C2531	C253	0.963120	0.517960	0.401840
C2541	C254	0.954890	0.488450	0.387530
C2551	C255	0.955590	0.441830	0.416370
C2561	C256	0.951220	0.415080	0.400020
C2571	C257	0.946570	0.432910	0.355490
C2581	C258	0.944770	0.480530	0.327030
C2591	C259	0.948810	0.507350	0.343410
C2601	C260	0.949930	0.364530	0.427130
C2611	C261	0.944270	0.394570	0.348510
C2621	C262	0.945070	0.354250	0.391370
C2631	C263	0.904610	0.365630	0.473590
C2641	C264	0.855500	0.396100	0.465300
C2651	C265	0.998170	0.331550	0.436710
C2661	C266	0.042570	0.330230	0.391630
C2671	C267	0.401840	0.117080	0.963120
C2681	C268	0.387530	0.169130	0.954890
C2691	C269	0.416370	0.186210	0.955590
C2701	C270	0.400020	0.233680	0.951220
C2711	C271	0.355490	0.265030	0.946570
C2721	C272	0.327030	0.247670	0.944770
C2731	C273	0.343410	0.200430	0.948810
C2741	C274	0.427130	0.258410	0.949930
C2751	C275	0.348510	0.312650	0.944270
C2761	C276	0.391370	0.309310	0.945070
C2771	C277	0.473590	0.256170	0.904610
C2781	C278	0.465300	0.283100	0.855500
C2791	C279	0.436710	0.233570	0.998170
C2801	C280	0.391630	0.235570	0.042570
C2811	C281	0.117080	0.963120	0.401840
C2821	C282	0.169130	0.954890	0.387530
C2831	C283	0.186210	0.955590	0.416370
C2841	C284	0.233680	0.951220	0.400020
C2851	C285	0.265030	0.946570	0.355490
C2861	C286	0.247670	0.944770	0.327030
C2871	C287	0.200430	0.948810	0.343410
C2881	C288	0.258410	0.949930	0.427130
C2891	C289	0.312650	0.944270	0.348510
C2901	C290	0.309310	0.945070	0.391370
C2911	C291	0.256170	0.904610	0.473590
C2921	C292	0.283100	0.855500	0.465300
C2931	C293	0.233570	0.998170	0.436710
C2941	C294	0.235570	0.042570	0.391630
C2951	C295	0.517960	0.401840	0.963120
C2961	C296	0.488450	0.387530	0.954890
C2971	C297	0.441830	0.416370	0.955590
C2981	C298	0.415080	0.400020	0.951220
C2991	C299	0.432910	0.355490	0.946570
C3001	C300	0.480530	0.327030	0.944770
C3011	C301	0.507350	0.343410	0.948810
C3021	C302	0.364530	0.427130	0.949930
C3031	C303	0.394570	0.348510	0.944270
C3041	C304	0.354250	0.391370	0.945070
C3051	C305	0.365630	0.473590	0.904610
C3061	C306	0.396100	0.465300	0.855500
C3071	C307	0.331550	0.436710	0.998170
C3081	C308	0.330230	0.391630	0.042570
C3091	C309	0.401840	0.517960	0.117080
C3101	C310	0.387530	0.488450	0.169130
C3111	C311	0.416370	0.441830	0.186210
C3121	C312	0.400020	0.415080	0.233680
C3131	C313	0.355490	0.432910	0.265030
C3141	C314	0.327030	0.480530	0.247670
C3151	C315	0.343410	0.507350	0.200430
C3161	C316	0.427130	0.364530	0.258410
C3171	C317	0.348510	0.394570	0.312650
C3181	C318	0.391370	0.354250	0.309310
C3191	C319	0.473590	0.365630	0.256170
C3201	C320	0.465300	0.396100	0.283100
C3211	C321	0.436710	0.331550	0.233570
C3221	C322	0.391630	0.330230	0.235570
C3231	C323	0.963120	0.117080	0.517960
C3241	C324	0.954890	0.169130	0.488450
C3251	C325	0.955590	0.186210	0.441830
C3261	C326	0.951220	0.233680	0.415080
C3271	C327	0.946570	0.265030	0.432910
C3281	C328	0.944770	0.247670	0.480530
C3291	C329	0.948810	0.200430	0.507350
C3301	C330	0.949930	0.258410	0.364530
C3311	C331	0.944270	0.312650	0.394570
C3321	C332	0.945070	0.309310	0.354250
C3331	C333	0.904610	0.256170	0.365630
C3341	C334	0.855500	0.283100	0.396100
C3351	C335	0.998170	0.233570	0.331550
C3361	C336	0.042570	0.235570	0.330230
C3371	C337	0.463120	0.901840	0.017960
C3381	C338	0.454890	0.887530	0.988450
C3391	C339	0.455590	0.916370	0.941830
C3401	C340	0.451220	0.900020	0.915080
C3411	C341	0.446570	0.855490	0.932910
C3421	C342	0.444770	0.827030	0.980530
C3431	C343	0.448810	0.843410	0.007350
C3441	C344	0.449930	0.927130	0.864530
C3451	C345	0.444270	0.848510	0.894570
C3461	C346	0.445070	0.891370	0.854250
C3471	C347	0.404610	0.973590	0.865630
C3481	C348	0.355500	0.965300	0.896100
C3491	C349	0.498170	0.936710	0.831550
C3501	C350	0.542570	0.891630	0.830230
C3511	C351	0.901840	0.463120	0.617080
C3521	C352	0.887530	0.454890	0.669130
C3531	C353	0.916370	0.455590	0.686210
C3541	C354	0.900020	0.451220	0.733680
C3551	C355	0.855490	0.446570	0.765030
C3561	C356	0.827030	0.444770	0.747670
C3571	C357	0.843410	0.448810	0.700430
C3581	C358	0.927130	0.449930	0.758410
C3591	C359	0.848510	0.444270	0.812650
C3601	C360	0.891370	0.445070	0.809310
C3611	C361	0.973590	0.404610	0.756170
C3621	C362	0.965300	0.355500	0.783100
C3631	C363	0.936710	0.498170	0.733570
C3641	C364	0.891630	0.542570	0.735570
C3651	C365	0.017960	0.617080	0.463120
C3661	C366	0.988450	0.669130	0.454890
C3671	C367	0.941830	0.686210	0.455590
C3681	C368	0.915080	0.733680	0.451220
C3691	C369	0.932910	0.765030	0.446570
C3701	C370	0.980530	0.747670	0.444770
C3711	C371	0.007350	0.700430	0.448810
C3721	C372	0.864530	0.758410	0.449930
C3731	C373	0.894570	0.812650	0.444270
C3741	C374	0.854250	0.809310	0.445070
C3751	C375	0.865630	0.756170	0.404610
C3761	C376	0.896100	0.783100	0.355500
C3771	C377	0.831550	0.733570	0.498170
C3781	C378	0.830230	0.735570	0.542570
C3791	C379	0.617080	0.017960	0.901840
C3801	C380	0.669130	0.988450	0.887530
C3811	C381	0.686210	0.941830	0.916370
C3821	C382	0.733680	0.915080	0.900020
C3831	C383	0.765030	0.932910	0.855490
C3841	C384	0.747670	0.980530	0.827030
C3851	C385	0.700430	0.007350	0.843410
C3861	C386	0.758410	0.864530	0.927130
C3871	C387	0.812650	0.894570	0.848510
C3881	C388	0.809310	0.854250	0.891370
C3891	C389	0.756170	0.865630	0.973590
C3901	C390	0.783100	0.896100	0.965300
C3911	C391	0.733570	0.831550	0.936710
C3921	C392	0.735570	0.830230	0.891630
C3931	C393	0.463120	0.017960	0.617080
C3941	C394	0.454890	0.988450	0.669130
C3951	C395	0.455590	0.941830	0.686210
C3961	C396	0.451220	0.915080	0.733680
C3971	C397	0.446570	0.932910	0.765030
C3981	C398	0.444770	0.980530	0.747670
C3991	C399	0.448810	0.007350	0.700430
C4001	C400	0.449930	0.864530	0.758410
C4011	C401	0.444270	0.894570	0.812650
C4021	C402	0.445070	0.854250	0.809310
C4031	C403	0.404610	0.865630	0.756170
C4041	C404	0.355500	0.896100	0.783100
C4051	C405	0.498170	0.831550	0.733570
C4061	C406	0.542570	0.830230	0.735570
C4071	C407	0.901840	0.617080	0.017960
C4081	C408	0.887530	0.669130	0.988450
C4091	C409	0.916370	0.686210	0.941830
C4101	C410	0.900020	0.733680	0.915080
C4111	C411	0.855490	0.765030	0.932910
C4121	C412	0.827030	0.747670	0.980530
C4131	C413	0.843410	0.700430	0.007350
C4141	C414	0.927130	0.758410	0.864530
C4151	C415	0.848510	0.812650	0.894570
C4161	C416	0.891370	0.809310	0.854250
C4171	C417	0.973590	0.756170	0.865630
C4181	C418	0.965300	0.783100	0.896100
C4191	C419	0.936710	0.733570	0.831550
C4201	C420	0.891630	0.735570	0.830230
C4211	C421	0.017960	0.463120	0.901840
C4221	C422	0.988450	0.454890	0.887530
C4231	C423	0.941830	0.455590	0.916370
C4241	C424	0.915080	0.451220	0.900020
C4251	C425	0.932910	0.446570	0.855490
C4261	C426	0.980530	0.444770	0.827030
C4271	C427	0.007350	0.448810	0.843410
C4281	C428	0.864530	0.449930	0.927130
C4291	C429	0.894570	0.444270	0.848510
C4301	C430	0.854250	0.445070	0.891370
C4311	C431	0.865630	0.404610	0.973590
C4321	C432	0.896100	0.355500	0.965300
C4331	C433	0.831550	0.498170	0.936710
C4341	C434	0.830230	0.542570	0.891630
C4351	C435	0.617080	0.901840	0.463120
C4361	C436	0.669130	0.887530	0.454890
C4371	C437	0.686210	0.916370	0.455590
C4381	C438	0.733680	0.900020	0.451220
C4391	C439	0.765030	0.855490	0.446570
C4401	C440	0.747670	0.827030	0.444770
C4411	C441	0.700430	0.843410	0.448810
C4421	C442	0.758410	0.927130	0.449930
C4431	C443	0.812650	0.848510	0.444270
C4441	C444	0.809310	0.891370	0.445070
C4451	C445	0.756170	0.973590	0.404610
C4461	C446	0.783100	0.965300	0.355500
C4471	C447	0.733570	0.936710	0.498170
C4481	C448	0.735570	0.891630	0.542570
C4491	C449	0.463120	0.617080	0.901840
C4501	C450	0.454890	0.669130	0.887530
C4511	C451	0.455590	0.686210	0.916370
C4521	C452	0.451220	0.733680	0.900020
C4531	C453	0.446570	0.765030	0.855490
C4541	C454	0.444770	0.747670	0.827030
C4551	C455	0.448810	0.700430	0.843410
C4561	C456	0.449930	0.758410	0.927130
C4571	C457	0.444270	0.812650	0.848510
C4581	C458	0.445070	0.809310	0.891370
C4591	C459	0.404610	0.756170	0.973590
C4601	C460	0.355500	0.783100	0.965300
C4611	C461	0.498170	0.733570	0.936710
C4621	C462	0.542570	0.735570	0.891630
C4631	C463	0.901840	0.017960	0.463120
C4641	C464	0.887530	0.988450	0.454890
C4651	C465	0.916370	0.941830	0.455590
C4661	C466	0.900020	0.915080	0.451220
C4671	C467	0.855490	0.932910	0.446570
C4681	C468	0.827030	0.980530	0.444770
C4691	C469	0.843410	0.007350	0.448810
C4701	C470	0.927130	0.864530	0.449930
C4711	C471	0.848510	0.894570	0.444270
C4721	C472	0.891370	0.854250	0.445070
C4731	C473	0.973590	0.865630	0.404610
C4741	C474	0.965300	0.896100	0.355500
C4751	C475	0.936710	0.831550	0.498170
C4761	C476	0.891630	0.830230	0.542570
C4771	C477	0.017960	0.901840	0.617080
C4781	C478	0.988450	0.887530	0.669130
C4791	C479	0.941830	0.916370	0.686210
C4801	C480	0.915080	0.900020	0.733680
C4811	C481	0.932910	0.855490	0.765030
C4821	C482	0.980530	0.827030	0.747670
C4831	C483	0.007350	0.843410	0.700430
C4841	C484	0.864530	0.927130	0.758410
C4851	C485	0.894570	0.848510	0.812650
C4861	C486	0.854250	0.891370	0.809310
C4871	C487	0.865630	0.973590	0.756170
C4881	C488	0.896100	0.965300	0.783100
C4891	C489	0.831550	0.936710	0.733570
C4901	C490	0.830230	0.891630	0.735570
C4911	C491	0.617080	0.463120	0.017960
C4921	C492	0.669130	0.454890	0.988450
C4931	C493	0.686210	0.455590	0.941830
C4941	C494	0.733680	0.451220	0.915080
C4951	C495	0.765030	0.446570	0.932910
C4961	C496	0.747670	0.444770	0.980530
C4971	C497	0.700430	0.448810	0.007350
C4981	C498	0.758410	0.449930	0.864530
C4991	C499	0.812650	0.444270	0.894570
C5001	C500	0.809310	0.445070	0.854250
C5011	C501	0.756170	0.404610	0.865630
C5021	C502	0.783100	0.355500	0.896100
C5031	C503	0.733570	0.498170	0.831550
C5041	C504	0.735570	0.542570	0.830230
C5051	C505	0.598160	0.036880	0.482040
C5061	C506	0.612470	0.045110	0.511550
C5071	C507	0.583630	0.044410	0.558170
C5081	C508	0.599980	0.048780	0.584920
C5091	C509	0.644510	0.053430	0.567090
C5101	C510	0.672970	0.055230	0.519470
C5111	C511	0.656590	0.051190	0.492650
C5121	C512	0.572870	0.050070	0.635470
C5131	C513	0.651490	0.055730	0.605430
C5141	C514	0.608630	0.054930	0.645750
C5151	C515	0.526410	0.095390	0.634370
C5161	C516	0.534700	0.144500	0.603900
C5171	C517	0.563290	0.001830	0.668450
C5181	C518	0.608370	0.957430	0.669770
C5191	C519	0.036880	0.598160	0.882920
C5201	C520	0.045110	0.612470	0.830870
C5211	C521	0.044410	0.583630	0.813790
C5221	C522	0.048780	0.599980	0.766320
C5231	C523	0.053430	0.644510	0.734970
C5241	C524	0.055230	0.672970	0.752330
C5251	C525	0.051190	0.656590	0.799570
C5261	C526	0.050070	0.572870	0.741590
C5271	C527	0.055730	0.651490	0.687350
C5281	C528	0.054930	0.608630	0.690690
C5291	C529	0.095390	0.526410	0.743830
C5301	C530	0.144500	0.534700	0.716900
C5311	C531	0.001830	0.563290	0.766430
C5321	C532	0.957430	0.608370	0.764430
C5331	C533	0.882920	0.482040	0.036880
C5341	C534	0.830870	0.511550	0.045110
C5351	C535	0.813790	0.558170	0.044410
C5361	C536	0.766320	0.584920	0.048780
C5371	C537	0.734970	0.567090	0.053430
C5381	C538	0.752330	0.519470	0.055230
C5391	C539	0.799570	0.492650	0.051190
C5401	C540	0.741590	0.635470	0.050070
C5411	C541	0.687350	0.605430	0.055730
C5421	C542	0.690690	0.645750	0.054930
C5431	C543	0.743830	0.634370	0.095390
C5441	C544	0.716900	0.603900	0.144500
C5451	C545	0.766430	0.668450	0.001830
C5461	C546	0.764430	0.669770	0.957430
C5471	C547	0.482040	0.882920	0.598160
C5481	C548	0.511550	0.830870	0.612470
C5491	C549	0.558170	0.813790	0.583630
C5501	C550	0.584920	0.766320	0.599980
C5511	C551	0.567090	0.734970	0.644510
C5521	C552	0.519470	0.752330	0.672970
C5531	C553	0.492650	0.799570	0.656590
C5541	C554	0.635470	0.741590	0.572870
C5551	C555	0.605430	0.687350	0.651490
C5561	C556	0.645750	0.690690	0.608630
C5571	C557	0.634370	0.743830	0.526410
C5581	C558	0.603900	0.716900	0.534700
C5591	C559	0.668450	0.766430	0.563290
C5601	C560	0.669770	0.764430	0.608370
C5611	C561	0.482040	0.036880	0.882920
C5621	C562	0.511550	0.045110	0.830870
C5631	C563	0.558170	0.044410	0.813790
C5641	C564	0.584920	0.048780	0.766320
C5651	C565	0.567090	0.053430	0.734970
C5661	C566	0.519470	0.055230	0.752330
C5671	C567	0.492650	0.051190	0.799570
C5681	C568	0.635470	0.050070	0.741590
C5691	C569	0.605430	0.055730	0.687350
C5701	C570	0.645750	0.054930	0.690690
C5711	C571	0.634370	0.095390	0.743830
C5721	C572	0.603900	0.144500	0.716900
C5731	C573	0.668450	0.001830	0.766430
C5741	C574	0.669770	0.957430	0.764430
C5751	C575	0.882920	0.598160	0.482040
C5761	C576	0.830870	0.612470	0.511550
C5771	C577	0.813790	0.583630	0.558170
C5781	C578	0.766320	0.599980	0.584920
C5791	C579	0.734970	0.644510	0.567090
C5801	C580	0.752330	0.672970	0.519470
C5811	C581	0.799570	0.656590	0.492650
C5821	C582	0.741590	0.572870	0.635470
C5831	C583	0.687350	0.651490	0.605430
C5841	C584	0.690690	0.608630	0.645750
C5851	C585	0.743830	0.526410	0.634370
C5861	C586	0.716900	0.534700	0.603900
C5871	C587	0.766430	0.563290	0.668450
C5881	C588	0.764430	0.608370	0.669770
C5891	C589	0.036880	0.482040	0.598160
C5901	C590	0.045110	0.511550	0.612470
C5911	C591	0.044410	0.558170	0.583630
C5921	C592	0.048780	0.584920	0.599980
C5931	C593	0.053430	0.567090	0.644510
C5941	C594	0.055230	0.519470	0.672970
C5951	C595	0.051190	0.492650	0.656590
C5961	C596	0.050070	0.635470	0.572870
C5971	C597	0.055730	0.605430	0.651490
C5981	C598	0.054930	0.645750	0.608630
C5991	C599	0.095390	0.634370	0.526410
C6001	C600	0.144500	0.603900	0.534700
C6011	C601	0.001830	0.668450	0.563290
C6021	C602	0.957430	0.669770	0.608370
C6031	C603	0.598160	0.882920	0.036880
C6041	C604	0.612470	0.830870	0.045110
C6051	C605	0.583630	0.813790	0.044410
C6061	C606	0.599980	0.766320	0.048780
C6071	C607	0.644510	0.734970	0.053430
C6081	C608	0.672970	0.752330	0.055230
C6091	C609	0.656590	0.799570	0.051190
C6101	C610	0.572870	0.741590	0.050070
C6111	C611	0.651490	0.687350	0.055730
C6121	C612	0.608630	0.690690	0.054930
C6131	C613	0.526410	0.743830	0.095390
C6141	C614	0.534700	0.716900	0.144500
C6151	C615	0.563290	0.766430	0.001830
C6161	C616	0.608370	0.764430	0.957430
C6171	C617	0.882920	0.036880	0.598160
C6181	C618	0.830870	0.045110	0.612470
C6191	C619	0.813790	0.044410	0.583630
C6201	C620	0.766320	0.048780	0.599980
C6211	C621	0.734970	0.053430	0.644510
C6221	C622	0.752330	0.055230	0.672970
C6231	C623	0.799570	0.051190	0.656590
C6241	C624	0.741590	0.050070	0.572870
C6251	C625	0.687350	0.055730	0.651490
C6261	C626	0.690690	0.054930	0.608630
C6271	C627	0.743830	0.095390	0.526410
C6281	C628	0.716900	0.144500	0.534700
C6291	C629	0.766430	0.001830	0.563290
C6301	C630	0.764430	0.957430	0.608370
C6311	C631	0.482040	0.598160	0.036880
C6321	C632	0.511550	0.612470	0.045110
C6331	C633	0.558170	0.583630	0.044410
C6341	C634	0.584920	0.599980	0.048780
C6351	C635	0.567090	0.644510	0.053430
C6361	C636	0.519470	0.672970	0.055230
C6371	C637	0.492650	0.656590	0.051190
C6381	C638	0.635470	0.572870	0.050070
C6391	C639	0.605430	0.651490	0.055730
C6401	C640	0.645750	0.608630	0.054930
C6411	C641	0.634370	0.526410	0.095390
C6421	C642	0.603900	0.534700	0.144500
C6431	C643	0.668450	0.563290	0.001830
C6441	C644	0.669770	0.608370	0.957430
C6451	C645	0.598160	0.482040	0.882920
C6461	C646	0.612470	0.511550	0.830870
C6471	C647	0.583630	0.558170	0.813790
C6481	C648	0.599980	0.584920	0.766320
C6491	C649	0.644510	0.567090	0.734970
C6501	C650	0.672970	0.519470	0.752330
C6511	C651	0.656590	0.492650	0.799570
C6521	C652	0.572870	0.635470	0.741590
C6531	C653	0.651490	0.605430	0.687350
C6541	C654	0.608630	0.645750	0.690690
C6551	C655	0.526410	0.634370	0.743830
C6561	C656	0.534700	0.603900	0.716900
C6571	C657	0.563290	0.668450	0.766430
C6581	C658	0.608370	0.669770	0.764430
C6591	C659	0.036880	0.882920	0.482040
C6601	C660	0.045110	0.830870	0.511550
C6611	C661	0.044410	0.813790	0.558170
C6621	C662	0.048780	0.766320	0.584920
C6631	C663	0.053430	0.734970	0.567090
C6641	C664	0.055230	0.752330	0.519470
C6651	C665	0.051190	0.799570	0.492650
C6661	C666	0.050070	0.741590	0.635470
C6671	C667	0.055730	0.687350	0.605430
C6681	C668	0.054930	0.690690	0.645750
C6691	C669	0.095390	0.743830	0.634370
C6701	C670	0.144500	0.716900	0.603900
C6711	C671	0.001830	0.766430	0.668450
C6721	C672	0.957430	0.764430	0.669770
C6731	C673	0.665900	0.982300	0.017700
C6741	C674	0.982300	0.665900	0.334100
C6751	C675	0.017700	0.334100	0.665900
C6761	C676	0.334100	0.017700	0.982300
C6771	C677	0.665900	0.017700	0.334100
C6781	C678	0.982300	0.334100	0.017700
C6791	C679	0.017700	0.665900	0.982300
C6801	C680	0.334100	0.982300	0.665900
C6811	C681	0.665900	0.334100	0.982300
C6821	C682	0.982300	0.017700	0.665900
C6831	C683	0.017700	0.982300	0.334100
C6841	C684	0.334100	0.665900	0.017700
C6851	C685	0.517700	0.834100	0.482300
C6861	C686	0.834100	0.517700	0.165900
C6871	C687	0.165900	0.482300	0.834100
C6881	C688	0.482300	0.165900	0.517700
C6891	C689	0.482300	0.834100	0.165900
C6901	C690	0.165900	0.517700	0.482300
C6911	C691	0.834100	0.482300	0.517700
C6921	C692	0.517700	0.165900	0.834100
C6931	C693	0.165900	0.834100	0.517700
C6941	C694	0.482300	0.517700	0.834100
C6951	C695	0.517700	0.482300	0.165900
C6961	C696	0.834100	0.165900	0.482300
O11	O1	0.529110	0.058190	0.001170
O21	O2	0.624810	0.898090	0.035750
O31	O3	0.058190	0.529110	0.411530
O41	O4	0.898090	0.624810	0.441350
O51	O5	0.001170	0.411530	0.529110
O61	O6	0.035750	0.441350	0.624810
O71	O7	0.411530	0.001170	0.058190
O81	O8	0.441350	0.035750	0.898090
O91	O9	0.529110	0.001170	0.411530
O101	O10	0.624810	0.035750	0.441350
O111	O11	0.058190	0.411530	0.001170
O121	O12	0.898090	0.441350	0.035750
O131	O13	0.001170	0.529110	0.058190
O141	O14	0.035750	0.624810	0.898090
O151	O15	0.411530	0.058190	0.529110
O161	O16	0.441350	0.898090	0.624810
O171	O17	0.529110	0.411530	0.058190
O181	O18	0.624810	0.441350	0.898090
O191	O19	0.058190	0.001170	0.529110
O201	O20	0.898090	0.035750	0.624810
O211	O21	0.001170	0.058190	0.411530
O221	O22	0.035750	0.898090	0.441350
O231	O23	0.411530	0.529110	0.001170
O241	O24	0.441350	0.624810	0.035750
O251	O25	0.441810	0.970890	0.498830
O261	O26	0.601910	0.875190	0.464250
O271	O27	0.970890	0.441810	0.088470
O281	O28	0.875190	0.601910	0.058650
O291	O29	0.088470	0.498830	0.970890
O301	O30	0.058650	0.464250	0.875190
O311	O31	0.498830	0.088470	0.441810
O321	O32	0.464250	0.058650	0.601910
O331	O33	0.498830	0.970890	0.088470
O341	O34	0.464250	0.875190	0.058650
O351	O35	0.088470	0.441810	0.498830
O361	O36	0.058650	0.601910	0.464250
O371	O37	0.970890	0.498830	0.441810
O381	O38	0.875190	0.464250	0.601910
O391	O39	0.441810	0.088470	0.970890
O401	O40	0.601910	0.058650	0.875190
O411	O41	0.088470	0.970890	0.441810
O421	O42	0.058650	0.875190	0.601910
O431	O43	0.498830	0.441810	0.970890
O441	O44	0.464250	0.601910	0.875190
O451	O45	0.441810	0.498830	0.088470
O461	O46	0.601910	0.464250	0.058650
O471	O47	0.970890	0.088470	0.498830
O481	O48	0.875190	0.058650	0.464250
O491	O49	0.470890	0.941810	0.998830
O501	O50	0.375190	0.101910	0.964250
O511	O51	0.941810	0.470890	0.588470
O521	O52	0.101910	0.375190	0.558650
O531	O53	0.998830	0.588470	0.470890
O541	O54	0.964250	0.558650	0.375190
O551	O55	0.588470	0.998830	0.941810
O561	O56	0.558650	0.964250	0.101910
O571	O57	0.470890	0.998830	0.588470
O581	O58	0.375190	0.964250	0.558650
O591	O59	0.941810	0.588470	0.998830
O601	O60	0.101910	0.558650	0.964250
O611	O61	0.998830	0.470890	0.941810
O621	O62	0.964250	0.375190	0.101910
O631	O63	0.588470	0.941810	0.470890
O641	O64	0.558650	0.101910	0.375190
O651	O65	0.470890	0.588470	0.941810
O661	O66	0.375190	0.558650	0.101910
O671	O67	0.941810	0.998830	0.470890
O681	O68	0.101910	0.964250	0.375190
O691	O69	0.998830	0.941810	0.588470
O701	O70	0.964250	0.101910	0.558650
O711	O71	0.588470	0.470890	0.998830
O721	O72	0.558650	0.375190	0.964250
O731	O73	0.558190	0.029110	0.501170
O741	O74	0.398090	0.124810	0.535750
O751	O75	0.029110	0.558190	0.911530
O761	O76	0.124810	0.398090	0.941350
O771	O77	0.911530	0.501170	0.029110
O781	O78	0.941350	0.535750	0.124810
O791	O79	0.501170	0.911530	0.558190
O801	O80	0.535750	0.941350	0.398090
O811	O81	0.501170	0.029110	0.911530
O821	O82	0.535750	0.124810	0.941350
O831	O83	0.911530	0.558190	0.501170
O841	O84	0.941350	0.398090	0.535750
O851	O85	0.029110	0.501170	0.558190
O861	O86	0.124810	0.535750	0.398090
O871	O87	0.558190	0.911530	0.029110
O881	O88	0.398090	0.941350	0.124810
O891	O89	0.911530	0.029110	0.558190
O901	O90	0.941350	0.124810	0.398090
O911	O91	0.501170	0.558190	0.029110
O921	O92	0.535750	0.398090	0.124810
O931	O93	0.558190	0.501170	0.911530
O941	O94	0.398090	0.535750	0.941350
O951	O95	0.029110	0.911530	0.501170
O961	O96	0.124810	0.941350	0.535750
O971	O97	0.637490	0.999550	0.000450
O981	O98	0.999550	0.637490	0.362510
O991	O99	0.000450	0.362510	0.637490
O1001	O100	0.362510	0.000450	0.999550
O1011	O101	0.637490	0.000450	0.362510
O1021	O102	0.999550	0.362510	0.000450
O1031	O103	0.000450	0.637490	0.999550
O1041	O104	0.362510	0.999550	0.637490
O1051	O105	0.637490	0.362510	0.999550
O1061	O106	0.999550	0.000450	0.637490
O1071	O107	0.000450	0.999550	0.362510
O1081	O108	0.362510	0.637490	0.000450
O1091	O109	0.500450	0.862510	0.499550
O1101	O110	0.862510	0.500450	0.137490
O1111	O111	0.137490	0.499550	0.862510
O1121	O112	0.499550	0.137490	0.500450
O1131	O113	0.499550	0.862510	0.137490
O1141	O114	0.137490	0.500450	0.499550
O1151	O115	0.862510	0.499550	0.500450
O1161	O116	0.500450	0.137490	0.862510
O1171	O117	0.137490	0.862510	0.500450
O1181	O118	0.499550	0.500450	0.862510
O1191	O119	0.500450	0.499550	0.137490
O1201	O120	0.862510	0.137490	0.499550
