data_BUFNOG_charged_PM
_symmetry_space_group_name_H-M	'P1'
_cell_length_a	34.249400
_cell_length_b	34.249400
_cell_length_c	34.249400
_cell_angle_alpha	60.000000
_cell_angle_beta	60.000000
_cell_angle_gamma	60.000000
_symmetry_Int_Tables_number 1

loop_
_symmetry_equiv_pos_as_xyz
'x,y,z'

loop_
_atom_site_label
_atom_site_type_symbol
_atom_site_fract_x
_atom_site_fract_y
_atom_site_fract_z
Cd11	Cd1	0.573950	0.976980	0.023020
Cd21	Cd2	0.976980	0.573950	0.426050
Cd31	Cd3	0.023020	0.426050	0.573950
Cd41	Cd4	0.426050	0.023020	0.976980
Cd51	Cd5	0.573950	0.023020	0.426050
Cd61	Cd6	0.976980	0.426050	0.023020
Cd71	Cd7	0.023020	0.573950	0.976980
Cd81	Cd8	0.426050	0.976980	0.573950
Cd91	Cd9	0.573950	0.426050	0.976980
Cd101	Cd10	0.976980	0.023020	0.573950
Cd111	Cd11	0.023020	0.976980	0.426050
Cd121	Cd12	0.426050	0.573950	0.023020
Cd131	Cd13	0.523020	0.926050	0.476980
Cd141	Cd14	0.926050	0.523020	0.073950
Cd151	Cd15	0.073950	0.476980	0.926050
Cd161	Cd16	0.476980	0.073950	0.523020
Cd171	Cd17	0.476980	0.926050	0.073950
Cd181	Cd18	0.073950	0.523020	0.476980
Cd191	Cd19	0.926050	0.476980	0.523020
Cd201	Cd20	0.523020	0.073950	0.926050
Cd211	Cd21	0.073950	0.926050	0.523020
Cd221	Cd22	0.476980	0.523020	0.926050
Cd231	Cd23	0.523020	0.476980	0.073950
Cd241	Cd24	0.926050	0.073950	0.476980
H11	H1	0.427500	0.959900	0.165700
H21	H2	0.493300	0.939900	0.268700
H31	H3	0.539100	0.946300	0.188900
H41	H4	0.341700	0.000300	0.200700
H51	H5	0.298000	0.994800	0.249800
H61	H6	0.311400	0.040600	0.270400
H71	H7	0.310400	0.069400	0.216800
H81	H8	0.360300	0.040900	0.226500
H91	H9	0.334500	0.899500	0.273300
H101	H10	0.375500	0.907100	0.222500
H111	H11	0.433900	0.857300	0.260100
H121	H12	0.400300	0.829700	0.273300
H131	H13	0.392600	0.849600	0.311000
H141	H14	0.959900	0.427500	0.446900
H151	H15	0.939900	0.493300	0.298100
H161	H16	0.946300	0.539100	0.325700
H171	H17	0.000300	0.341700	0.457300
H181	H18	0.994800	0.298000	0.457400
H191	H19	0.040600	0.311400	0.377600
H201	H20	0.069400	0.310400	0.403400
H211	H21	0.040900	0.360300	0.372300
H221	H22	0.899500	0.334500	0.492700
H231	H23	0.907100	0.375500	0.494900
H241	H24	0.857300	0.433900	0.448700
H251	H25	0.829700	0.400300	0.496700
H261	H26	0.849600	0.392600	0.446800
H271	H27	0.165700	0.446900	0.427500
H281	H28	0.268700	0.298100	0.493300
H291	H29	0.188900	0.325700	0.539100
H301	H30	0.200700	0.457300	0.341700
H311	H31	0.249800	0.457400	0.298000
H321	H32	0.270400	0.377600	0.311400
H331	H33	0.216800	0.403400	0.310400
H341	H34	0.226500	0.372300	0.360300
H351	H35	0.273300	0.492700	0.334500
H361	H36	0.222500	0.494900	0.375500
H371	H37	0.260100	0.448700	0.433900
H381	H38	0.273300	0.496700	0.400300
H391	H39	0.311000	0.446800	0.392600
H401	H40	0.446900	0.165700	0.959900
H411	H41	0.298100	0.268700	0.939900
H421	H42	0.325700	0.188900	0.946300
H431	H43	0.457300	0.200700	0.000300
H441	H44	0.457400	0.249800	0.994800
H451	H45	0.377600	0.270400	0.040600
H461	H46	0.403400	0.216800	0.069400
H471	H47	0.372300	0.226500	0.040900
H481	H48	0.492700	0.273300	0.899500
H491	H49	0.494900	0.222500	0.907100
H501	H50	0.448700	0.260100	0.857300
H511	H51	0.496700	0.273300	0.829700
H521	H52	0.446800	0.311000	0.849600
H531	H53	0.427500	0.165700	0.446900
H541	H54	0.493300	0.268700	0.298100
H551	H55	0.539100	0.188900	0.325700
H561	H56	0.341700	0.200700	0.457300
H571	H57	0.298000	0.249800	0.457400
H581	H58	0.311400	0.270400	0.377600
H591	H59	0.310400	0.216800	0.403400
H601	H60	0.360300	0.226500	0.372300
H611	H61	0.334500	0.273300	0.492700
H621	H62	0.375500	0.222500	0.494900
H631	H63	0.433900	0.260100	0.448700
H641	H64	0.400300	0.273300	0.496700
H651	H65	0.392600	0.311000	0.446800
H661	H66	0.959900	0.446900	0.165700
H671	H67	0.939900	0.298100	0.268700
H681	H68	0.946300	0.325700	0.188900
H691	H69	0.000300	0.457300	0.200700
H701	H70	0.994800	0.457400	0.249800
H711	H71	0.040600	0.377600	0.270400
H721	H72	0.069400	0.403400	0.216800
H731	H73	0.040900	0.372300	0.226500
H741	H74	0.899500	0.492700	0.273300
H751	H75	0.907100	0.494900	0.222500
H761	H76	0.857300	0.448700	0.260100
H771	H77	0.829700	0.496700	0.273300
H781	H78	0.849600	0.446800	0.311000
H791	H79	0.165700	0.427500	0.959900
H801	H80	0.268700	0.493300	0.939900
H811	H81	0.188900	0.539100	0.946300
H821	H82	0.200700	0.341700	0.000300
H831	H83	0.249800	0.298000	0.994800
H841	H84	0.270400	0.311400	0.040600
H851	H85	0.216800	0.310400	0.069400
H861	H86	0.226500	0.360300	0.040900
H871	H87	0.273300	0.334500	0.899500
H881	H88	0.222500	0.375500	0.907100
H891	H89	0.260100	0.433900	0.857300
H901	H90	0.273300	0.400300	0.829700
H911	H91	0.311000	0.392600	0.849600
H921	H92	0.446900	0.959900	0.427500
H931	H93	0.298100	0.939900	0.493300
H941	H94	0.325700	0.946300	0.539100
H951	H95	0.457300	0.000300	0.341700
H961	H96	0.457400	0.994800	0.298000
H971	H97	0.377600	0.040600	0.311400
H981	H98	0.403400	0.069400	0.310400
H991	H99	0.372300	0.040900	0.360300
H1001	H100	0.492700	0.899500	0.334500
H1011	H101	0.494900	0.907100	0.375500
H1021	H102	0.448700	0.857300	0.433900
H1031	H103	0.496700	0.829700	0.400300
H1041	H104	0.446800	0.849600	0.392600
H1051	H105	0.427500	0.446900	0.959900
H1061	H106	0.493300	0.298100	0.939900
H1071	H107	0.539100	0.325700	0.946300
H1081	H108	0.341700	0.457300	0.000300
H1091	H109	0.298000	0.457400	0.994800
H1101	H110	0.311400	0.377600	0.040600
H1111	H111	0.310400	0.403400	0.069400
H1121	H112	0.360300	0.372300	0.040900
H1131	H113	0.334500	0.492700	0.899500
H1141	H114	0.375500	0.494900	0.907100
H1151	H115	0.433900	0.448700	0.857300
H1161	H116	0.400300	0.496700	0.829700
H1171	H117	0.392600	0.446800	0.849600
H1181	H118	0.959900	0.165700	0.427500
H1191	H119	0.939900	0.268700	0.493300
H1201	H120	0.946300	0.188900	0.539100
H1211	H121	0.000300	0.200700	0.341700
H1221	H122	0.994800	0.249800	0.298000
H1231	H123	0.040600	0.270400	0.311400
H1241	H124	0.069400	0.216800	0.310400
H1251	H125	0.040900	0.226500	0.360300
H1261	H126	0.899500	0.273300	0.334500
H1271	H127	0.907100	0.222500	0.375500
H1281	H128	0.857300	0.260100	0.433900
H1291	H129	0.829700	0.273300	0.400300
H1301	H130	0.849600	0.311000	0.392600
H1311	H131	0.165700	0.959900	0.446900
H1321	H132	0.268700	0.939900	0.298100
H1331	H133	0.188900	0.946300	0.325700
H1341	H134	0.200700	0.000300	0.457300
H1351	H135	0.249800	0.994800	0.457400
H1361	H136	0.270400	0.040600	0.377600
H1371	H137	0.216800	0.069400	0.403400
H1381	H138	0.226500	0.040900	0.372300
H1391	H139	0.273300	0.899500	0.492700
H1401	H140	0.222500	0.907100	0.494900
H1411	H141	0.260100	0.857300	0.448700
H1421	H142	0.273300	0.829700	0.496700
H1431	H143	0.311000	0.849600	0.446800
H1441	H144	0.446900	0.427500	0.165700
H1451	H145	0.298100	0.493300	0.268700
H1461	H146	0.325700	0.539100	0.188900
H1471	H147	0.457300	0.341700	0.200700
H1481	H148	0.457400	0.298000	0.249800
H1491	H149	0.377600	0.311400	0.270400
H1501	H150	0.403400	0.310400	0.216800
H1511	H151	0.372300	0.360300	0.226500
H1521	H152	0.492700	0.334500	0.273300
H1531	H153	0.494900	0.375500	0.222500
H1541	H154	0.448700	0.433900	0.260100
H1551	H155	0.496700	0.400300	0.273300
H1561	H156	0.446800	0.392600	0.311000
H1571	H157	0.540100	0.072500	0.334300
H1581	H158	0.560100	0.006700	0.231300
H1591	H159	0.553700	0.960900	0.311100
H1601	H160	0.499700	0.158300	0.299300
H1611	H161	0.505200	0.202000	0.250200
H1621	H162	0.459400	0.188600	0.229600
H1631	H163	0.430600	0.189600	0.283200
H1641	H164	0.459100	0.139700	0.273500
H1651	H165	0.600500	0.165500	0.226700
H1661	H166	0.592900	0.124500	0.277500
H1671	H167	0.642700	0.066100	0.239900
H1681	H168	0.670300	0.099700	0.226700
H1691	H169	0.650400	0.107400	0.189000
H1701	H170	0.072500	0.540100	0.053100
H1711	H171	0.006700	0.560100	0.201900
H1721	H172	0.960900	0.553700	0.174300
H1731	H173	0.158300	0.499700	0.042700
H1741	H174	0.202000	0.505200	0.042600
H1751	H175	0.188600	0.459400	0.122400
H1761	H176	0.189600	0.430600	0.096600
H1771	H177	0.139700	0.459100	0.127700
H1781	H178	0.165500	0.600500	0.007300
H1791	H179	0.124500	0.592900	0.005100
H1801	H180	0.066100	0.642700	0.051300
H1811	H181	0.099700	0.670300	0.003300
H1821	H182	0.107400	0.650400	0.053200
H1831	H183	0.053100	0.334300	0.072500
H1841	H184	0.201900	0.231300	0.006700
H1851	H185	0.174300	0.311100	0.960900
H1861	H186	0.042700	0.299300	0.158300
H1871	H187	0.042600	0.250200	0.202000
H1881	H188	0.122400	0.229600	0.188600
H1891	H189	0.096600	0.283200	0.189600
H1901	H190	0.127700	0.273500	0.139700
H1911	H191	0.007300	0.226700	0.165500
H1921	H192	0.005100	0.277500	0.124500
H1931	H193	0.051300	0.239900	0.066100
H1941	H194	0.003300	0.226700	0.099700
H1951	H195	0.053200	0.189000	0.107400
H1961	H196	0.334300	0.053100	0.540100
H1971	H197	0.231300	0.201900	0.560100
H1981	H198	0.311100	0.174300	0.553700
H1991	H199	0.299300	0.042700	0.499700
H2001	H200	0.250200	0.042600	0.505200
H2011	H201	0.229600	0.122400	0.459400
H2021	H202	0.283200	0.096600	0.430600
H2031	H203	0.273500	0.127700	0.459100
H2041	H204	0.226700	0.007300	0.600500
H2051	H205	0.277500	0.005100	0.592900
H2061	H206	0.239900	0.051300	0.642700
H2071	H207	0.226700	0.003300	0.670300
H2081	H208	0.189000	0.053200	0.650400
H2091	H209	0.334300	0.072500	0.053100
H2101	H210	0.231300	0.006700	0.201900
H2111	H211	0.311100	0.960900	0.174300
H2121	H212	0.299300	0.158300	0.042700
H2131	H213	0.250200	0.202000	0.042600
H2141	H214	0.229600	0.188600	0.122400
H2151	H215	0.283200	0.189600	0.096600
H2161	H216	0.273500	0.139700	0.127700
H2171	H217	0.226700	0.165500	0.007300
H2181	H218	0.277500	0.124500	0.005100
H2191	H219	0.239900	0.066100	0.051300
H2201	H220	0.226700	0.099700	0.003300
H2211	H221	0.189000	0.107400	0.053200
H2221	H222	0.053100	0.540100	0.334300
H2231	H223	0.201900	0.560100	0.231300
H2241	H224	0.174300	0.553700	0.311100
H2251	H225	0.042700	0.499700	0.299300
H2261	H226	0.042600	0.505200	0.250200
H2271	H227	0.122400	0.459400	0.229600
H2281	H228	0.096600	0.430600	0.283200
H2291	H229	0.127700	0.459100	0.273500
H2301	H230	0.007300	0.600500	0.226700
H2311	H231	0.005100	0.592900	0.277500
H2321	H232	0.051300	0.642700	0.239900
H2331	H233	0.003300	0.670300	0.226700
H2341	H234	0.053200	0.650400	0.189000
H2351	H235	0.072500	0.334300	0.540100
H2361	H236	0.006700	0.231300	0.560100
H2371	H237	0.960900	0.311100	0.553700
H2381	H238	0.158300	0.299300	0.499700
H2391	H239	0.202000	0.250200	0.505200
H2401	H240	0.188600	0.229600	0.459400
H2411	H241	0.189600	0.283200	0.430600
H2421	H242	0.139700	0.273500	0.459100
H2431	H243	0.165500	0.226700	0.600500
H2441	H244	0.124500	0.277500	0.592900
H2451	H245	0.066100	0.239900	0.642700
H2461	H246	0.099700	0.226700	0.670300
H2471	H247	0.107400	0.189000	0.650400
H2481	H248	0.540100	0.053100	0.072500
H2491	H249	0.560100	0.201900	0.006700
H2501	H250	0.553700	0.174300	0.960900
H2511	H251	0.499700	0.042700	0.158300
H2521	H252	0.505200	0.042600	0.202000
H2531	H253	0.459400	0.122400	0.188600
H2541	H254	0.430600	0.096600	0.189600
H2551	H255	0.459100	0.127700	0.139700
H2561	H256	0.600500	0.007300	0.165500
H2571	H257	0.592900	0.005100	0.124500
H2581	H258	0.642700	0.051300	0.066100
H2591	H259	0.670300	0.003300	0.099700
H2601	H260	0.650400	0.053200	0.107400
H2611	H261	0.053100	0.072500	0.540100
H2621	H262	0.201900	0.006700	0.560100
H2631	H263	0.174300	0.960900	0.553700
H2641	H264	0.042700	0.158300	0.499700
H2651	H265	0.042600	0.202000	0.505200
H2661	H266	0.122400	0.188600	0.459400
H2671	H267	0.096600	0.189600	0.430600
H2681	H268	0.127700	0.139700	0.459100
H2691	H269	0.007300	0.165500	0.600500
H2701	H270	0.005100	0.124500	0.592900
H2711	H271	0.051300	0.066100	0.642700
H2721	H272	0.003300	0.099700	0.670300
H2731	H273	0.053200	0.107400	0.650400
H2741	H274	0.334300	0.540100	0.072500
H2751	H275	0.231300	0.560100	0.006700
H2761	H276	0.311100	0.553700	0.960900
H2771	H277	0.299300	0.499700	0.158300
H2781	H278	0.250200	0.505200	0.202000
H2791	H279	0.229600	0.459400	0.188600
H2801	H280	0.283200	0.430600	0.189600
H2811	H281	0.273500	0.459100	0.139700
H2821	H282	0.226700	0.600500	0.165500
H2831	H283	0.277500	0.592900	0.124500
H2841	H284	0.239900	0.642700	0.066100
H2851	H285	0.226700	0.670300	0.099700
H2861	H286	0.189000	0.650400	0.107400
H2871	H287	0.540100	0.334300	0.053100
H2881	H288	0.560100	0.231300	0.201900
H2891	H289	0.553700	0.311100	0.174300
H2901	H290	0.499700	0.299300	0.042700
H2911	H291	0.505200	0.250200	0.042600
H2921	H292	0.459400	0.229600	0.122400
H2931	H293	0.430600	0.283200	0.096600
H2941	H294	0.459100	0.273500	0.127700
H2951	H295	0.600500	0.226700	0.007300
H2961	H296	0.592900	0.277500	0.005100
H2971	H297	0.642700	0.239900	0.051300
H2981	H298	0.670300	0.226700	0.003300
H2991	H299	0.650400	0.189000	0.053200
H3001	H300	0.072500	0.053100	0.334300
H3011	H301	0.006700	0.201900	0.231300
H3021	H302	0.960900	0.174300	0.311100
H3031	H303	0.158300	0.042700	0.299300
H3041	H304	0.202000	0.042600	0.250200
H3051	H305	0.188600	0.122400	0.229600
H3061	H306	0.189600	0.096600	0.283200
H3071	H307	0.139700	0.127700	0.273500
H3081	H308	0.165500	0.007300	0.226700
H3091	H309	0.124500	0.005100	0.277500
H3101	H310	0.066100	0.051300	0.239900
H3111	H311	0.099700	0.003300	0.226700
H3121	H312	0.107400	0.053200	0.189000
H3131	H313	0.572500	0.040100	0.834300
H3141	H314	0.506700	0.060100	0.731300
H3151	H315	0.460900	0.053700	0.811100
H3161	H316	0.658300	0.999700	0.799300
H3171	H317	0.702000	0.005200	0.750200
H3181	H318	0.688600	0.959400	0.729600
H3191	H319	0.689600	0.930600	0.783200
H3201	H320	0.639700	0.959100	0.773500
H3211	H321	0.665500	0.100500	0.726700
H3221	H322	0.624500	0.092900	0.777500
H3231	H323	0.566100	0.142700	0.739900
H3241	H324	0.599700	0.170300	0.726700
H3251	H325	0.607400	0.150400	0.689000
H3261	H326	0.040100	0.572500	0.553100
H3271	H327	0.060100	0.506700	0.701900
H3281	H328	0.053700	0.460900	0.674300
H3291	H329	0.999700	0.658300	0.542700
H3301	H330	0.005200	0.702000	0.542600
H3311	H331	0.959400	0.688600	0.622400
H3321	H332	0.930600	0.689600	0.596600
H3331	H333	0.959100	0.639700	0.627700
H3341	H334	0.100500	0.665500	0.507300
H3351	H335	0.092900	0.624500	0.505100
H3361	H336	0.142700	0.566100	0.551300
H3371	H337	0.170300	0.599700	0.503300
H3381	H338	0.150400	0.607400	0.553200
H3391	H339	0.834300	0.553100	0.572500
H3401	H340	0.731300	0.701900	0.506700
H3411	H341	0.811100	0.674300	0.460900
H3421	H342	0.799300	0.542700	0.658300
H3431	H343	0.750200	0.542600	0.702000
H3441	H344	0.729600	0.622400	0.688600
H3451	H345	0.783200	0.596600	0.689600
H3461	H346	0.773500	0.627700	0.639700
H3471	H347	0.726700	0.507300	0.665500
H3481	H348	0.777500	0.505100	0.624500
H3491	H349	0.739900	0.551300	0.566100
H3501	H350	0.726700	0.503300	0.599700
H3511	H351	0.689000	0.553200	0.607400
H3521	H352	0.553100	0.834300	0.040100
H3531	H353	0.701900	0.731300	0.060100
H3541	H354	0.674300	0.811100	0.053700
H3551	H355	0.542700	0.799300	0.999700
H3561	H356	0.542600	0.750200	0.005200
H3571	H357	0.622400	0.729600	0.959400
H3581	H358	0.596600	0.783200	0.930600
H3591	H359	0.627700	0.773500	0.959100
H3601	H360	0.507300	0.726700	0.100500
H3611	H361	0.505100	0.777500	0.092900
H3621	H362	0.551300	0.739900	0.142700
H3631	H363	0.503300	0.726700	0.170300
H3641	H364	0.553200	0.689000	0.150400
H3651	H365	0.572500	0.834300	0.553100
H3661	H366	0.506700	0.731300	0.701900
H3671	H367	0.460900	0.811100	0.674300
H3681	H368	0.658300	0.799300	0.542700
H3691	H369	0.702000	0.750200	0.542600
H3701	H370	0.688600	0.729600	0.622400
H3711	H371	0.689600	0.783200	0.596600
H3721	H372	0.639700	0.773500	0.627700
H3731	H373	0.665500	0.726700	0.507300
H3741	H374	0.624500	0.777500	0.505100
H3751	H375	0.566100	0.739900	0.551300
H3761	H376	0.599700	0.726700	0.503300
H3771	H377	0.607400	0.689000	0.553200
H3781	H378	0.040100	0.553100	0.834300
H3791	H379	0.060100	0.701900	0.731300
H3801	H380	0.053700	0.674300	0.811100
H3811	H381	0.999700	0.542700	0.799300
H3821	H382	0.005200	0.542600	0.750200
H3831	H383	0.959400	0.622400	0.729600
H3841	H384	0.930600	0.596600	0.783200
H3851	H385	0.959100	0.627700	0.773500
H3861	H386	0.100500	0.507300	0.726700
H3871	H387	0.092900	0.505100	0.777500
H3881	H388	0.142700	0.551300	0.739900
H3891	H389	0.170300	0.503300	0.726700
H3901	H390	0.150400	0.553200	0.689000
H3911	H391	0.834300	0.572500	0.040100
H3921	H392	0.731300	0.506700	0.060100
H3931	H393	0.811100	0.460900	0.053700
H3941	H394	0.799300	0.658300	0.999700
H3951	H395	0.750200	0.702000	0.005200
H3961	H396	0.729600	0.688600	0.959400
H3971	H397	0.783200	0.689600	0.930600
H3981	H398	0.773500	0.639700	0.959100
H3991	H399	0.726700	0.665500	0.100500
H4001	H400	0.777500	0.624500	0.092900
H4011	H401	0.739900	0.566100	0.142700
H4021	H402	0.726700	0.599700	0.170300
H4031	H403	0.689000	0.607400	0.150400
H4041	H404	0.553100	0.040100	0.572500
H4051	H405	0.701900	0.060100	0.506700
H4061	H406	0.674300	0.053700	0.460900
H4071	H407	0.542700	0.999700	0.658300
H4081	H408	0.542600	0.005200	0.702000
H4091	H409	0.622400	0.959400	0.688600
H4101	H410	0.596600	0.930600	0.689600
H4111	H411	0.627700	0.959100	0.639700
H4121	H412	0.507300	0.100500	0.665500
H4131	H413	0.505100	0.092900	0.624500
H4141	H414	0.551300	0.142700	0.566100
H4151	H415	0.503300	0.170300	0.599700
H4161	H416	0.553200	0.150400	0.607400
H4171	H417	0.572500	0.553100	0.040100
H4181	H418	0.506700	0.701900	0.060100
H4191	H419	0.460900	0.674300	0.053700
H4201	H420	0.658300	0.542700	0.999700
H4211	H421	0.702000	0.542600	0.005200
H4221	H422	0.688600	0.622400	0.959400
H4231	H423	0.689600	0.596600	0.930600
H4241	H424	0.639700	0.627700	0.959100
H4251	H425	0.665500	0.507300	0.100500
H4261	H426	0.624500	0.505100	0.092900
H4271	H427	0.566100	0.551300	0.142700
H4281	H428	0.599700	0.503300	0.170300
H4291	H429	0.607400	0.553200	0.150400
H4301	H430	0.040100	0.834300	0.572500
H4311	H431	0.060100	0.731300	0.506700
H4321	H432	0.053700	0.811100	0.460900
H4331	H433	0.999700	0.799300	0.658300
H4341	H434	0.005200	0.750200	0.702000
H4351	H435	0.959400	0.729600	0.688600
H4361	H436	0.930600	0.783200	0.689600
H4371	H437	0.959100	0.773500	0.639700
H4381	H438	0.100500	0.726700	0.665500
H4391	H439	0.092900	0.777500	0.624500
H4401	H440	0.142700	0.739900	0.566100
H4411	H441	0.170300	0.726700	0.599700
H4421	H442	0.150400	0.689000	0.607400
H4431	H443	0.834300	0.040100	0.553100
H4441	H444	0.731300	0.060100	0.701900
H4451	H445	0.811100	0.053700	0.674300
H4461	H446	0.799300	0.999700	0.542700
H4471	H447	0.750200	0.005200	0.542600
H4481	H448	0.729600	0.959400	0.622400
H4491	H449	0.783200	0.930600	0.596600
H4501	H450	0.773500	0.959100	0.627700
H4511	H451	0.726700	0.100500	0.507300
H4521	H452	0.777500	0.092900	0.505100
H4531	H453	0.739900	0.142700	0.551300
H4541	H454	0.726700	0.170300	0.503300
H4551	H455	0.689000	0.150400	0.553200
H4561	H456	0.553100	0.572500	0.834300
H4571	H457	0.701900	0.506700	0.731300
H4581	H458	0.674300	0.460900	0.811100
H4591	H459	0.542700	0.658300	0.799300
H4601	H460	0.542600	0.702000	0.750200
H4611	H461	0.622400	0.688600	0.729600
H4621	H462	0.596600	0.689600	0.783200
H4631	H463	0.627700	0.639700	0.773500
H4641	H464	0.507300	0.665500	0.726700
H4651	H465	0.505100	0.624500	0.777500
H4661	H466	0.551300	0.566100	0.739900
H4671	H467	0.503300	0.599700	0.726700
H4681	H468	0.553200	0.607400	0.689000
H4691	H469	0.459900	0.927500	0.665700
H4701	H470	0.439900	0.993300	0.768700
H4711	H471	0.446300	0.039100	0.688900
H4721	H472	0.500300	0.841700	0.700700
H4731	H473	0.494800	0.798000	0.749800
H4741	H474	0.540600	0.811400	0.770400
H4751	H475	0.569400	0.810400	0.716800
H4761	H476	0.540900	0.860300	0.726500
H4771	H477	0.399500	0.834500	0.773300
H4781	H478	0.407100	0.875500	0.722500
H4791	H479	0.357300	0.933900	0.760100
H4801	H480	0.329700	0.900300	0.773300
H4811	H481	0.349600	0.892600	0.811000
H4821	H482	0.927500	0.459900	0.946900
H4831	H483	0.993300	0.439900	0.798100
H4841	H484	0.039100	0.446300	0.825700
H4851	H485	0.841700	0.500300	0.957300
H4861	H486	0.798000	0.494800	0.957400
H4871	H487	0.811400	0.540600	0.877600
H4881	H488	0.810400	0.569400	0.903400
H4891	H489	0.860300	0.540900	0.872300
H4901	H490	0.834500	0.399500	0.992700
H4911	H491	0.875500	0.407100	0.994900
H4921	H492	0.933900	0.357300	0.948700
H4931	H493	0.900300	0.329700	0.996700
H4941	H494	0.892600	0.349600	0.946800
H4951	H495	0.946900	0.665700	0.927500
H4961	H496	0.798100	0.768700	0.993300
H4971	H497	0.825700	0.688900	0.039100
H4981	H498	0.957300	0.700700	0.841700
H4991	H499	0.957400	0.749800	0.798000
H5001	H500	0.877600	0.770400	0.811400
H5011	H501	0.903400	0.716800	0.810400
H5021	H502	0.872300	0.726500	0.860300
H5031	H503	0.992700	0.773300	0.834500
H5041	H504	0.994900	0.722500	0.875500
H5051	H505	0.948700	0.760100	0.933900
H5061	H506	0.996700	0.773300	0.900300
H5071	H507	0.946800	0.811000	0.892600
H5081	H508	0.665700	0.946900	0.459900
H5091	H509	0.768700	0.798100	0.439900
H5101	H510	0.688900	0.825700	0.446300
H5111	H511	0.700700	0.957300	0.500300
H5121	H512	0.749800	0.957400	0.494800
H5131	H513	0.770400	0.877600	0.540600
H5141	H514	0.716800	0.903400	0.569400
H5151	H515	0.726500	0.872300	0.540900
H5161	H516	0.773300	0.992700	0.399500
H5171	H517	0.722500	0.994900	0.407100
H5181	H518	0.760100	0.948700	0.357300
H5191	H519	0.773300	0.996700	0.329700
H5201	H520	0.811000	0.946800	0.349600
H5211	H521	0.665700	0.927500	0.946900
H5221	H522	0.768700	0.993300	0.798100
H5231	H523	0.688900	0.039100	0.825700
H5241	H524	0.700700	0.841700	0.957300
H5251	H525	0.749800	0.798000	0.957400
H5261	H526	0.770400	0.811400	0.877600
H5271	H527	0.716800	0.810400	0.903400
H5281	H528	0.726500	0.860300	0.872300
H5291	H529	0.773300	0.834500	0.992700
H5301	H530	0.722500	0.875500	0.994900
H5311	H531	0.760100	0.933900	0.948700
H5321	H532	0.773300	0.900300	0.996700
H5331	H533	0.811000	0.892600	0.946800
H5341	H534	0.946900	0.459900	0.665700
H5351	H535	0.798100	0.439900	0.768700
H5361	H536	0.825700	0.446300	0.688900
H5371	H537	0.957300	0.500300	0.700700
H5381	H538	0.957400	0.494800	0.749800
H5391	H539	0.877600	0.540600	0.770400
H5401	H540	0.903400	0.569400	0.716800
H5411	H541	0.872300	0.540900	0.726500
H5421	H542	0.992700	0.399500	0.773300
H5431	H543	0.994900	0.407100	0.722500
H5441	H544	0.948700	0.357300	0.760100
H5451	H545	0.996700	0.329700	0.773300
H5461	H546	0.946800	0.349600	0.811000
H5471	H547	0.927500	0.665700	0.459900
H5481	H548	0.993300	0.768700	0.439900
H5491	H549	0.039100	0.688900	0.446300
H5501	H550	0.841700	0.700700	0.500300
H5511	H551	0.798000	0.749800	0.494800
H5521	H552	0.811400	0.770400	0.540600
H5531	H553	0.810400	0.716800	0.569400
H5541	H554	0.860300	0.726500	0.540900
H5551	H555	0.834500	0.773300	0.399500
H5561	H556	0.875500	0.722500	0.407100
H5571	H557	0.933900	0.760100	0.357300
H5581	H558	0.900300	0.773300	0.329700
H5591	H559	0.892600	0.811000	0.349600
H5601	H560	0.459900	0.946900	0.927500
H5611	H561	0.439900	0.798100	0.993300
H5621	H562	0.446300	0.825700	0.039100
H5631	H563	0.500300	0.957300	0.841700
H5641	H564	0.494800	0.957400	0.798000
H5651	H565	0.540600	0.877600	0.811400
H5661	H566	0.569400	0.903400	0.810400
H5671	H567	0.540900	0.872300	0.860300
H5681	H568	0.399500	0.992700	0.834500
H5691	H569	0.407100	0.994900	0.875500
H5701	H570	0.357300	0.948700	0.933900
H5711	H571	0.329700	0.996700	0.900300
H5721	H572	0.349600	0.946800	0.892600
H5731	H573	0.946900	0.927500	0.459900
H5741	H574	0.798100	0.993300	0.439900
H5751	H575	0.825700	0.039100	0.446300
H5761	H576	0.957300	0.841700	0.500300
H5771	H577	0.957400	0.798000	0.494800
H5781	H578	0.877600	0.811400	0.540600
H5791	H579	0.903400	0.810400	0.569400
H5801	H580	0.872300	0.860300	0.540900
H5811	H581	0.992700	0.834500	0.399500
H5821	H582	0.994900	0.875500	0.407100
H5831	H583	0.948700	0.933900	0.357300
H5841	H584	0.996700	0.900300	0.329700
H5851	H585	0.946800	0.892600	0.349600
H5861	H586	0.665700	0.459900	0.927500
H5871	H587	0.768700	0.439900	0.993300
H5881	H588	0.688900	0.446300	0.039100
H5891	H589	0.700700	0.500300	0.841700
H5901	H590	0.749800	0.494800	0.798000
H5911	H591	0.770400	0.540600	0.811400
H5921	H592	0.716800	0.569400	0.810400
H5931	H593	0.726500	0.540900	0.860300
H5941	H594	0.773300	0.399500	0.834500
H5951	H595	0.722500	0.407100	0.875500
H5961	H596	0.760100	0.357300	0.933900
H5971	H597	0.773300	0.329700	0.900300
H5981	H598	0.811000	0.349600	0.892600
H5991	H599	0.459900	0.665700	0.946900
H6001	H600	0.439900	0.768700	0.798100
H6011	H601	0.446300	0.688900	0.825700
H6021	H602	0.500300	0.700700	0.957300
H6031	H603	0.494800	0.749800	0.957400
H6041	H604	0.540600	0.770400	0.877600
H6051	H605	0.569400	0.716800	0.903400
H6061	H606	0.540900	0.726500	0.872300
H6071	H607	0.399500	0.773300	0.992700
H6081	H608	0.407100	0.722500	0.994900
H6091	H609	0.357300	0.760100	0.948700
H6101	H610	0.329700	0.773300	0.996700
H6111	H611	0.349600	0.811000	0.946800
H6121	H612	0.927500	0.946900	0.665700
H6131	H613	0.993300	0.798100	0.768700
H6141	H614	0.039100	0.825700	0.688900
H6151	H615	0.841700	0.957300	0.700700
H6161	H616	0.798000	0.957400	0.749800
H6171	H617	0.811400	0.877600	0.770400
H6181	H618	0.810400	0.903400	0.716800
H6191	H619	0.860300	0.872300	0.726500
H6201	H620	0.834500	0.992700	0.773300
H6211	H621	0.875500	0.994900	0.722500
H6221	H622	0.933900	0.948700	0.760100
H6231	H623	0.900300	0.996700	0.773300
H6241	H624	0.892600	0.946800	0.811000
C11	C1	0.516160	0.963160	0.117300
C21	C2	0.487380	0.955260	0.169260
C31	C3	0.440910	0.955930	0.186390
C41	C4	0.414290	0.950770	0.234190
C51	C5	0.432560	0.946100	0.265240
C61	C6	0.479750	0.944110	0.247950
C71	C7	0.506760	0.948260	0.200400
C81	C8	0.364020	0.949020	0.259100
C91	C9	0.354490	0.944250	0.309670
C101	C10	0.394400	0.943880	0.312620
C111	C11	0.330640	0.996660	0.234800
C121	C12	0.327920	0.040760	0.237380
C131	C13	0.366840	0.902320	0.256460
C141	C14	0.401400	0.855680	0.277040
C151	C15	0.963160	0.516160	0.403380
C161	C16	0.955260	0.487380	0.388100
C171	C17	0.955930	0.440910	0.416770
C181	C18	0.950770	0.414290	0.400750
C191	C19	0.946100	0.432560	0.356100
C201	C20	0.944110	0.479750	0.328190
C211	C21	0.948260	0.506760	0.344580
C221	C22	0.949020	0.364020	0.427860
C231	C23	0.944250	0.354490	0.391590
C241	C24	0.943880	0.394400	0.349100
C251	C25	0.996660	0.330640	0.437900
C261	C26	0.040760	0.327920	0.393940
C271	C27	0.902320	0.366840	0.474380
C281	C28	0.855680	0.401400	0.465880
C291	C29	0.117300	0.403380	0.516160
C301	C30	0.169260	0.388100	0.487380
C311	C31	0.186390	0.416770	0.440910
C321	C32	0.234190	0.400750	0.414290
C331	C33	0.265240	0.356100	0.432560
C341	C34	0.247950	0.328190	0.479750
C351	C35	0.200400	0.344580	0.506760
C361	C36	0.259100	0.427860	0.364020
C371	C37	0.309670	0.391590	0.354490
C381	C38	0.312620	0.349100	0.394400
C391	C39	0.234800	0.437900	0.330640
C401	C40	0.237380	0.393940	0.327920
C411	C41	0.256460	0.474380	0.366840
C421	C42	0.277040	0.465880	0.401400
C431	C43	0.403380	0.117300	0.963160
C441	C44	0.388100	0.169260	0.955260
C451	C45	0.416770	0.186390	0.955930
C461	C46	0.400750	0.234190	0.950770
C471	C47	0.356100	0.265240	0.946100
C481	C48	0.328190	0.247950	0.944110
C491	C49	0.344580	0.200400	0.948260
C501	C50	0.427860	0.259100	0.949020
C511	C51	0.391590	0.309670	0.944250
C521	C52	0.349100	0.312620	0.943880
C531	C53	0.437900	0.234800	0.996660
C541	C54	0.393940	0.237380	0.040760
C551	C55	0.474380	0.256460	0.902320
C561	C56	0.465880	0.277040	0.855680
C571	C57	0.516160	0.117300	0.403380
C581	C58	0.487380	0.169260	0.388100
C591	C59	0.440910	0.186390	0.416770
C601	C60	0.414290	0.234190	0.400750
C611	C61	0.432560	0.265240	0.356100
C621	C62	0.479750	0.247950	0.328190
C631	C63	0.506760	0.200400	0.344580
C641	C64	0.364020	0.259100	0.427860
C651	C65	0.354490	0.309670	0.391590
C661	C66	0.394400	0.312620	0.349100
C671	C67	0.330640	0.234800	0.437900
C681	C68	0.327920	0.237380	0.393940
C691	C69	0.366840	0.256460	0.474380
C701	C70	0.401400	0.277040	0.465880
C711	C71	0.963160	0.403380	0.117300
C721	C72	0.955260	0.388100	0.169260
C731	C73	0.955930	0.416770	0.186390
C741	C74	0.950770	0.400750	0.234190
C751	C75	0.946100	0.356100	0.265240
C761	C76	0.944110	0.328190	0.247950
C771	C77	0.948260	0.344580	0.200400
C781	C78	0.949020	0.427860	0.259100
C791	C79	0.944250	0.391590	0.309670
C801	C80	0.943880	0.349100	0.312620
C811	C81	0.996660	0.437900	0.234800
C821	C82	0.040760	0.393940	0.237380
C831	C83	0.902320	0.474380	0.256460
C841	C84	0.855680	0.465880	0.277040
C851	C85	0.117300	0.516160	0.963160
C861	C86	0.169260	0.487380	0.955260
C871	C87	0.186390	0.440910	0.955930
C881	C88	0.234190	0.414290	0.950770
C891	C89	0.265240	0.432560	0.946100
C901	C90	0.247950	0.479750	0.944110
C911	C91	0.200400	0.506760	0.948260
C921	C92	0.259100	0.364020	0.949020
C931	C93	0.309670	0.354490	0.944250
C941	C94	0.312620	0.394400	0.943880
C951	C95	0.234800	0.330640	0.996660
C961	C96	0.237380	0.327920	0.040760
C971	C97	0.256460	0.366840	0.902320
C981	C98	0.277040	0.401400	0.855680
C991	C99	0.403380	0.963160	0.516160
C1001	C100	0.388100	0.955260	0.487380
C1011	C101	0.416770	0.955930	0.440910
C1021	C102	0.400750	0.950770	0.414290
C1031	C103	0.356100	0.946100	0.432560
C1041	C104	0.328190	0.944110	0.479750
C1051	C105	0.344580	0.948260	0.506760
C1061	C106	0.427860	0.949020	0.364020
C1071	C107	0.391590	0.944250	0.354490
C1081	C108	0.349100	0.943880	0.394400
C1091	C109	0.437900	0.996660	0.330640
C1101	C110	0.393940	0.040760	0.327920
C1111	C111	0.474380	0.902320	0.366840
C1121	C112	0.465880	0.855680	0.401400
C1131	C113	0.516160	0.403380	0.963160
C1141	C114	0.487380	0.388100	0.955260
C1151	C115	0.440910	0.416770	0.955930
C1161	C116	0.414290	0.400750	0.950770
C1171	C117	0.432560	0.356100	0.946100
C1181	C118	0.479750	0.328190	0.944110
C1191	C119	0.506760	0.344580	0.948260
C1201	C120	0.364020	0.427860	0.949020
C1211	C121	0.354490	0.391590	0.944250
C1221	C122	0.394400	0.349100	0.943880
C1231	C123	0.330640	0.437900	0.996660
C1241	C124	0.327920	0.393940	0.040760
C1251	C125	0.366840	0.474380	0.902320
C1261	C126	0.401400	0.465880	0.855680
C1271	C127	0.963160	0.117300	0.516160
C1281	C128	0.955260	0.169260	0.487380
C1291	C129	0.955930	0.186390	0.440910
C1301	C130	0.950770	0.234190	0.414290
C1311	C131	0.946100	0.265240	0.432560
C1321	C132	0.944110	0.247950	0.479750
C1331	C133	0.948260	0.200400	0.506760
C1341	C134	0.949020	0.259100	0.364020
C1351	C135	0.944250	0.309670	0.354490
C1361	C136	0.943880	0.312620	0.394400
C1371	C137	0.996660	0.234800	0.330640
C1381	C138	0.040760	0.237380	0.327920
C1391	C139	0.902320	0.256460	0.366840
C1401	C140	0.855680	0.277040	0.401400
C1411	C141	0.117300	0.963160	0.403380
C1421	C142	0.169260	0.955260	0.388100
C1431	C143	0.186390	0.955930	0.416770
C1441	C144	0.234190	0.950770	0.400750
C1451	C145	0.265240	0.946100	0.356100
C1461	C146	0.247950	0.944110	0.328190
C1471	C147	0.200400	0.948260	0.344580
C1481	C148	0.259100	0.949020	0.427860
C1491	C149	0.309670	0.944250	0.391590
C1501	C150	0.312620	0.943880	0.349100
C1511	C151	0.234800	0.996660	0.437900
C1521	C152	0.237380	0.040760	0.393940
C1531	C153	0.256460	0.902320	0.474380
C1541	C154	0.277040	0.855680	0.465880
C1551	C155	0.403380	0.516160	0.117300
C1561	C156	0.388100	0.487380	0.169260
C1571	C157	0.416770	0.440910	0.186390
C1581	C158	0.400750	0.414290	0.234190
C1591	C159	0.356100	0.432560	0.265240
C1601	C160	0.328190	0.479750	0.247950
C1611	C161	0.344580	0.506760	0.200400
C1621	C162	0.427860	0.364020	0.259100
C1631	C163	0.391590	0.354490	0.309670
C1641	C164	0.349100	0.394400	0.312620
C1651	C165	0.437900	0.330640	0.234800
C1661	C166	0.393940	0.327920	0.237380
C1671	C167	0.474380	0.366840	0.256460
C1681	C168	0.465880	0.401400	0.277040
C1691	C169	0.536840	0.983840	0.382700
C1701	C170	0.544740	0.012620	0.330740
C1711	C171	0.544070	0.059090	0.313610
C1721	C172	0.549230	0.085710	0.265810
C1731	C173	0.553900	0.067440	0.234760
C1741	C174	0.555890	0.020250	0.252050
C1751	C175	0.551740	0.993240	0.299600
C1761	C176	0.550980	0.135980	0.240900
C1771	C177	0.555750	0.145510	0.190330
C1781	C178	0.556120	0.105600	0.187380
C1791	C179	0.503340	0.169360	0.265200
C1801	C180	0.459240	0.172080	0.262620
C1811	C181	0.597680	0.133160	0.243540
C1821	C182	0.644320	0.098600	0.222960
C1831	C183	0.983840	0.536840	0.096620
C1841	C184	0.012620	0.544740	0.111900
C1851	C185	0.059090	0.544070	0.083230
C1861	C186	0.085710	0.549230	0.099250
C1871	C187	0.067440	0.553900	0.143900
C1881	C188	0.020250	0.555890	0.171810
C1891	C189	0.993240	0.551740	0.155420
C1901	C190	0.135980	0.550980	0.072140
C1911	C191	0.145510	0.555750	0.108410
C1921	C192	0.105600	0.556120	0.150900
C1931	C193	0.169360	0.503340	0.062100
C1941	C194	0.172080	0.459240	0.106060
C1951	C195	0.133160	0.597680	0.025620
C1961	C196	0.098600	0.644320	0.034120
C1971	C197	0.096620	0.382700	0.983840
C1981	C198	0.111900	0.330740	0.012620
C1991	C199	0.083230	0.313610	0.059090
C2001	C200	0.099250	0.265810	0.085710
C2011	C201	0.143900	0.234760	0.067440
C2021	C202	0.171810	0.252050	0.020250
C2031	C203	0.155420	0.299600	0.993240
C2041	C204	0.072140	0.240900	0.135980
C2051	C205	0.108410	0.190330	0.145510
C2061	C206	0.150900	0.187380	0.105600
C2071	C207	0.062100	0.265200	0.169360
C2081	C208	0.106060	0.262620	0.172080
C2091	C209	0.025620	0.243540	0.133160
C2101	C210	0.034120	0.222960	0.098600
C2111	C211	0.382700	0.096620	0.536840
C2121	C212	0.330740	0.111900	0.544740
C2131	C213	0.313610	0.083230	0.544070
C2141	C214	0.265810	0.099250	0.549230
C2151	C215	0.234760	0.143900	0.553900
C2161	C216	0.252050	0.171810	0.555890
C2171	C217	0.299600	0.155420	0.551740
C2181	C218	0.240900	0.072140	0.550980
C2191	C219	0.190330	0.108410	0.555750
C2201	C220	0.187380	0.150900	0.556120
C2211	C221	0.265200	0.062100	0.503340
C2221	C222	0.262620	0.106060	0.459240
C2231	C223	0.243540	0.025620	0.597680
C2241	C224	0.222960	0.034120	0.644320
C2251	C225	0.382700	0.983840	0.096620
C2261	C226	0.330740	0.012620	0.111900
C2271	C227	0.313610	0.059090	0.083230
C2281	C228	0.265810	0.085710	0.099250
C2291	C229	0.234760	0.067440	0.143900
C2301	C230	0.252050	0.020250	0.171810
C2311	C231	0.299600	0.993240	0.155420
C2321	C232	0.240900	0.135980	0.072140
C2331	C233	0.190330	0.145510	0.108410
C2341	C234	0.187380	0.105600	0.150900
C2351	C235	0.265200	0.169360	0.062100
C2361	C236	0.262620	0.172080	0.106060
C2371	C237	0.243540	0.133160	0.025620
C2381	C238	0.222960	0.098600	0.034120
C2391	C239	0.096620	0.536840	0.382700
C2401	C240	0.111900	0.544740	0.330740
C2411	C241	0.083230	0.544070	0.313610
C2421	C242	0.099250	0.549230	0.265810
C2431	C243	0.143900	0.553900	0.234760
C2441	C244	0.171810	0.555890	0.252050
C2451	C245	0.155420	0.551740	0.299600
C2461	C246	0.072140	0.550980	0.240900
C2471	C247	0.108410	0.555750	0.190330
C2481	C248	0.150900	0.556120	0.187380
C2491	C249	0.062100	0.503340	0.265200
C2501	C250	0.106060	0.459240	0.262620
C2511	C251	0.025620	0.597680	0.243540
C2521	C252	0.034120	0.644320	0.222960
C2531	C253	0.983840	0.382700	0.536840
C2541	C254	0.012620	0.330740	0.544740
C2551	C255	0.059090	0.313610	0.544070
C2561	C256	0.085710	0.265810	0.549230
C2571	C257	0.067440	0.234760	0.553900
C2581	C258	0.020250	0.252050	0.555890
C2591	C259	0.993240	0.299600	0.551740
C2601	C260	0.135980	0.240900	0.550980
C2611	C261	0.145510	0.190330	0.555750
C2621	C262	0.105600	0.187380	0.556120
C2631	C263	0.169360	0.265200	0.503340
C2641	C264	0.172080	0.262620	0.459240
C2651	C265	0.133160	0.243540	0.597680
C2661	C266	0.098600	0.222960	0.644320
C2671	C267	0.536840	0.096620	0.983840
C2681	C268	0.544740	0.111900	0.012620
C2691	C269	0.544070	0.083230	0.059090
C2701	C270	0.549230	0.099250	0.085710
C2711	C271	0.553900	0.143900	0.067440
C2721	C272	0.555890	0.171810	0.020250
C2731	C273	0.551740	0.155420	0.993240
C2741	C274	0.550980	0.072140	0.135980
C2751	C275	0.555750	0.108410	0.145510
C2761	C276	0.556120	0.150900	0.105600
C2771	C277	0.503340	0.062100	0.169360
C2781	C278	0.459240	0.106060	0.172080
C2791	C279	0.597680	0.025620	0.133160
C2801	C280	0.644320	0.034120	0.098600
C2811	C281	0.096620	0.983840	0.536840
C2821	C282	0.111900	0.012620	0.544740
C2831	C283	0.083230	0.059090	0.544070
C2841	C284	0.099250	0.085710	0.549230
C2851	C285	0.143900	0.067440	0.553900
C2861	C286	0.171810	0.020250	0.555890
C2871	C287	0.155420	0.993240	0.551740
C2881	C288	0.072140	0.135980	0.550980
C2891	C289	0.108410	0.145510	0.555750
C2901	C290	0.150900	0.105600	0.556120
C2911	C291	0.062100	0.169360	0.503340
C2921	C292	0.106060	0.172080	0.459240
C2931	C293	0.025620	0.133160	0.597680
C2941	C294	0.034120	0.098600	0.644320
C2951	C295	0.382700	0.536840	0.983840
C2961	C296	0.330740	0.544740	0.012620
C2971	C297	0.313610	0.544070	0.059090
C2981	C298	0.265810	0.549230	0.085710
C2991	C299	0.234760	0.553900	0.067440
C3001	C300	0.252050	0.555890	0.020250
C3011	C301	0.299600	0.551740	0.993240
C3021	C302	0.240900	0.550980	0.135980
C3031	C303	0.190330	0.555750	0.145510
C3041	C304	0.187380	0.556120	0.105600
C3051	C305	0.265200	0.503340	0.169360
C3061	C306	0.262620	0.459240	0.172080
C3071	C307	0.243540	0.597680	0.133160
C3081	C308	0.222960	0.644320	0.098600
C3091	C309	0.536840	0.382700	0.096620
C3101	C310	0.544740	0.330740	0.111900
C3111	C311	0.544070	0.313610	0.083230
C3121	C312	0.549230	0.265810	0.099250
C3131	C313	0.553900	0.234760	0.143900
C3141	C314	0.555890	0.252050	0.171810
C3151	C315	0.551740	0.299600	0.155420
C3161	C316	0.550980	0.240900	0.072140
C3171	C317	0.555750	0.190330	0.108410
C3181	C318	0.556120	0.187380	0.150900
C3191	C319	0.503340	0.265200	0.062100
C3201	C320	0.459240	0.262620	0.106060
C3211	C321	0.597680	0.243540	0.025620
C3221	C322	0.644320	0.222960	0.034120
C3231	C323	0.983840	0.096620	0.382700
C3241	C324	0.012620	0.111900	0.330740
C3251	C325	0.059090	0.083230	0.313610
C3261	C326	0.085710	0.099250	0.265810
C3271	C327	0.067440	0.143900	0.234760
C3281	C328	0.020250	0.171810	0.252050
C3291	C329	0.993240	0.155420	0.299600
C3301	C330	0.135980	0.072140	0.240900
C3311	C331	0.145510	0.108410	0.190330
C3321	C332	0.105600	0.150900	0.187380
C3331	C333	0.169360	0.062100	0.265200
C3341	C334	0.172080	0.106060	0.262620
C3351	C335	0.133160	0.025620	0.243540
C3361	C336	0.098600	0.034120	0.222960
C3371	C337	0.483840	0.036840	0.882700
C3381	C338	0.512620	0.044740	0.830740
C3391	C339	0.559090	0.044070	0.813610
C3401	C340	0.585710	0.049230	0.765810
C3411	C341	0.567440	0.053900	0.734760
C3421	C342	0.520250	0.055890	0.752050
C3431	C343	0.493240	0.051740	0.799600
C3441	C344	0.635980	0.050980	0.740900
C3451	C345	0.645510	0.055750	0.690330
C3461	C346	0.605600	0.056120	0.687380
C3471	C347	0.669360	0.003340	0.765200
C3481	C348	0.672080	0.959240	0.762620
C3491	C349	0.633160	0.097680	0.743540
C3501	C350	0.598600	0.144320	0.722960
C3511	C351	0.036840	0.483840	0.596620
C3521	C352	0.044740	0.512620	0.611900
C3531	C353	0.044070	0.559090	0.583230
C3541	C354	0.049230	0.585710	0.599250
C3551	C355	0.053900	0.567440	0.643900
C3561	C356	0.055890	0.520250	0.671810
C3571	C357	0.051740	0.493240	0.655420
C3581	C358	0.050980	0.635980	0.572140
C3591	C359	0.055750	0.645510	0.608410
C3601	C360	0.056120	0.605600	0.650900
C3611	C361	0.003340	0.669360	0.562100
C3621	C362	0.959240	0.672080	0.606060
C3631	C363	0.097680	0.633160	0.525620
C3641	C364	0.144320	0.598600	0.534120
C3651	C365	0.882700	0.596620	0.483840
C3661	C366	0.830740	0.611900	0.512620
C3671	C367	0.813610	0.583230	0.559090
C3681	C368	0.765810	0.599250	0.585710
C3691	C369	0.734760	0.643900	0.567440
C3701	C370	0.752050	0.671810	0.520250
C3711	C371	0.799600	0.655420	0.493240
C3721	C372	0.740900	0.572140	0.635980
C3731	C373	0.690330	0.608410	0.645510
C3741	C374	0.687380	0.650900	0.605600
C3751	C375	0.765200	0.562100	0.669360
C3761	C376	0.762620	0.606060	0.672080
C3771	C377	0.743540	0.525620	0.633160
C3781	C378	0.722960	0.534120	0.598600
C3791	C379	0.596620	0.882700	0.036840
C3801	C380	0.611900	0.830740	0.044740
C3811	C381	0.583230	0.813610	0.044070
C3821	C382	0.599250	0.765810	0.049230
C3831	C383	0.643900	0.734760	0.053900
C3841	C384	0.671810	0.752050	0.055890
C3851	C385	0.655420	0.799600	0.051740
C3861	C386	0.572140	0.740900	0.050980
C3871	C387	0.608410	0.690330	0.055750
C3881	C388	0.650900	0.687380	0.056120
C3891	C389	0.562100	0.765200	0.003340
C3901	C390	0.606060	0.762620	0.959240
C3911	C391	0.525620	0.743540	0.097680
C3921	C392	0.534120	0.722960	0.144320
C3931	C393	0.483840	0.882700	0.596620
C3941	C394	0.512620	0.830740	0.611900
C3951	C395	0.559090	0.813610	0.583230
C3961	C396	0.585710	0.765810	0.599250
C3971	C397	0.567440	0.734760	0.643900
C3981	C398	0.520250	0.752050	0.671810
C3991	C399	0.493240	0.799600	0.655420
C4001	C400	0.635980	0.740900	0.572140
C4011	C401	0.645510	0.690330	0.608410
C4021	C402	0.605600	0.687380	0.650900
C4031	C403	0.669360	0.765200	0.562100
C4041	C404	0.672080	0.762620	0.606060
C4051	C405	0.633160	0.743540	0.525620
C4061	C406	0.598600	0.722960	0.534120
C4071	C407	0.036840	0.596620	0.882700
C4081	C408	0.044740	0.611900	0.830740
C4091	C409	0.044070	0.583230	0.813610
C4101	C410	0.049230	0.599250	0.765810
C4111	C411	0.053900	0.643900	0.734760
C4121	C412	0.055890	0.671810	0.752050
C4131	C413	0.051740	0.655420	0.799600
C4141	C414	0.050980	0.572140	0.740900
C4151	C415	0.055750	0.608410	0.690330
C4161	C416	0.056120	0.650900	0.687380
C4171	C417	0.003340	0.562100	0.765200
C4181	C418	0.959240	0.606060	0.762620
C4191	C419	0.097680	0.525620	0.743540
C4201	C420	0.144320	0.534120	0.722960
C4211	C421	0.882700	0.483840	0.036840
C4221	C422	0.830740	0.512620	0.044740
C4231	C423	0.813610	0.559090	0.044070
C4241	C424	0.765810	0.585710	0.049230
C4251	C425	0.734760	0.567440	0.053900
C4261	C426	0.752050	0.520250	0.055890
C4271	C427	0.799600	0.493240	0.051740
C4281	C428	0.740900	0.635980	0.050980
C4291	C429	0.690330	0.645510	0.055750
C4301	C430	0.687380	0.605600	0.056120
C4311	C431	0.765200	0.669360	0.003340
C4321	C432	0.762620	0.672080	0.959240
C4331	C433	0.743540	0.633160	0.097680
C4341	C434	0.722960	0.598600	0.144320
C4351	C435	0.596620	0.036840	0.483840
C4361	C436	0.611900	0.044740	0.512620
C4371	C437	0.583230	0.044070	0.559090
C4381	C438	0.599250	0.049230	0.585710
C4391	C439	0.643900	0.053900	0.567440
C4401	C440	0.671810	0.055890	0.520250
C4411	C441	0.655420	0.051740	0.493240
C4421	C442	0.572140	0.050980	0.635980
C4431	C443	0.608410	0.055750	0.645510
C4441	C444	0.650900	0.056120	0.605600
C4451	C445	0.562100	0.003340	0.669360
C4461	C446	0.606060	0.959240	0.672080
C4471	C447	0.525620	0.097680	0.633160
C4481	C448	0.534120	0.144320	0.598600
C4491	C449	0.483840	0.596620	0.036840
C4501	C450	0.512620	0.611900	0.044740
C4511	C451	0.559090	0.583230	0.044070
C4521	C452	0.585710	0.599250	0.049230
C4531	C453	0.567440	0.643900	0.053900
C4541	C454	0.520250	0.671810	0.055890
C4551	C455	0.493240	0.655420	0.051740
C4561	C456	0.635980	0.572140	0.050980
C4571	C457	0.645510	0.608410	0.055750
C4581	C458	0.605600	0.650900	0.056120
C4591	C459	0.669360	0.562100	0.003340
C4601	C460	0.672080	0.606060	0.959240
C4611	C461	0.633160	0.525620	0.097680
C4621	C462	0.598600	0.534120	0.144320
C4631	C463	0.036840	0.882700	0.483840
C4641	C464	0.044740	0.830740	0.512620
C4651	C465	0.044070	0.813610	0.559090
C4661	C466	0.049230	0.765810	0.585710
C4671	C467	0.053900	0.734760	0.567440
C4681	C468	0.055890	0.752050	0.520250
C4691	C469	0.051740	0.799600	0.493240
C4701	C470	0.050980	0.740900	0.635980
C4711	C471	0.055750	0.690330	0.645510
C4721	C472	0.056120	0.687380	0.605600
C4731	C473	0.003340	0.765200	0.669360
C4741	C474	0.959240	0.762620	0.672080
C4751	C475	0.097680	0.743540	0.633160
C4761	C476	0.144320	0.722960	0.598600
C4771	C477	0.882700	0.036840	0.596620
C4781	C478	0.830740	0.044740	0.611900
C4791	C479	0.813610	0.044070	0.583230
C4801	C480	0.765810	0.049230	0.599250
C4811	C481	0.734760	0.053900	0.643900
C4821	C482	0.752050	0.055890	0.671810
C4831	C483	0.799600	0.051740	0.655420
C4841	C484	0.740900	0.050980	0.572140
C4851	C485	0.690330	0.055750	0.608410
C4861	C486	0.687380	0.056120	0.650900
C4871	C487	0.765200	0.003340	0.562100
C4881	C488	0.762620	0.959240	0.606060
C4891	C489	0.743540	0.097680	0.525620
C4901	C490	0.722960	0.144320	0.534120
C4911	C491	0.596620	0.483840	0.882700
C4921	C492	0.611900	0.512620	0.830740
C4931	C493	0.583230	0.559090	0.813610
C4941	C494	0.599250	0.585710	0.765810
C4951	C495	0.643900	0.567440	0.734760
C4961	C496	0.671810	0.520250	0.752050
C4971	C497	0.655420	0.493240	0.799600
C4981	C498	0.572140	0.635980	0.740900
C4991	C499	0.608410	0.645510	0.690330
C5001	C500	0.650900	0.605600	0.687380
C5011	C501	0.562100	0.669360	0.765200
C5021	C502	0.606060	0.672080	0.762620
C5031	C503	0.525620	0.633160	0.743540
C5041	C504	0.534120	0.598600	0.722960
C5051	C505	0.463160	0.016160	0.617300
C5061	C506	0.455260	0.987380	0.669260
C5071	C507	0.455930	0.940910	0.686390
C5081	C508	0.450770	0.914290	0.734190
C5091	C509	0.446100	0.932560	0.765240
C5101	C510	0.444110	0.979750	0.747950
C5111	C511	0.448260	0.006760	0.700400
C5121	C512	0.449020	0.864020	0.759100
C5131	C513	0.444250	0.854490	0.809670
C5141	C514	0.443880	0.894400	0.812620
C5151	C515	0.496660	0.830640	0.734800
C5161	C516	0.540760	0.827920	0.737380
C5171	C517	0.402320	0.866840	0.756460
C5181	C518	0.355680	0.901400	0.777040
C5191	C519	0.016160	0.463160	0.903380
C5201	C520	0.987380	0.455260	0.888100
C5211	C521	0.940910	0.455930	0.916770
C5221	C522	0.914290	0.450770	0.900750
C5231	C523	0.932560	0.446100	0.856100
C5241	C524	0.979750	0.444110	0.828190
C5251	C525	0.006760	0.448260	0.844580
C5261	C526	0.864020	0.449020	0.927860
C5271	C527	0.854490	0.444250	0.891590
C5281	C528	0.894400	0.443880	0.849100
C5291	C529	0.830640	0.496660	0.937900
C5301	C530	0.827920	0.540760	0.893940
C5311	C531	0.866840	0.402320	0.974380
C5321	C532	0.901400	0.355680	0.965880
C5331	C533	0.903380	0.617300	0.016160
C5341	C534	0.888100	0.669260	0.987380
C5351	C535	0.916770	0.686390	0.940910
C5361	C536	0.900750	0.734190	0.914290
C5371	C537	0.856100	0.765240	0.932560
C5381	C538	0.828190	0.747950	0.979750
C5391	C539	0.844580	0.700400	0.006760
C5401	C540	0.927860	0.759100	0.864020
C5411	C541	0.891590	0.809670	0.854490
C5421	C542	0.849100	0.812620	0.894400
C5431	C543	0.937900	0.734800	0.830640
C5441	C544	0.893940	0.737380	0.827920
C5451	C545	0.974380	0.756460	0.866840
C5461	C546	0.965880	0.777040	0.901400
C5471	C547	0.617300	0.903380	0.463160
C5481	C548	0.669260	0.888100	0.455260
C5491	C549	0.686390	0.916770	0.455930
C5501	C550	0.734190	0.900750	0.450770
C5511	C551	0.765240	0.856100	0.446100
C5521	C552	0.747950	0.828190	0.444110
C5531	C553	0.700400	0.844580	0.448260
C5541	C554	0.759100	0.927860	0.449020
C5551	C555	0.809670	0.891590	0.444250
C5561	C556	0.812620	0.849100	0.443880
C5571	C557	0.734800	0.937900	0.496660
C5581	C558	0.737380	0.893940	0.540760
C5591	C559	0.756460	0.974380	0.402320
C5601	C560	0.777040	0.965880	0.355680
C5611	C561	0.617300	0.016160	0.903380
C5621	C562	0.669260	0.987380	0.888100
C5631	C563	0.686390	0.940910	0.916770
C5641	C564	0.734190	0.914290	0.900750
C5651	C565	0.765240	0.932560	0.856100
C5661	C566	0.747950	0.979750	0.828190
C5671	C567	0.700400	0.006760	0.844580
C5681	C568	0.759100	0.864020	0.927860
C5691	C569	0.809670	0.854490	0.891590
C5701	C570	0.812620	0.894400	0.849100
C5711	C571	0.734800	0.830640	0.937900
C5721	C572	0.737380	0.827920	0.893940
C5731	C573	0.756460	0.866840	0.974380
C5741	C574	0.777040	0.901400	0.965880
C5751	C575	0.903380	0.463160	0.617300
C5761	C576	0.888100	0.455260	0.669260
C5771	C577	0.916770	0.455930	0.686390
C5781	C578	0.900750	0.450770	0.734190
C5791	C579	0.856100	0.446100	0.765240
C5801	C580	0.828190	0.444110	0.747950
C5811	C581	0.844580	0.448260	0.700400
C5821	C582	0.927860	0.449020	0.759100
C5831	C583	0.891590	0.444250	0.809670
C5841	C584	0.849100	0.443880	0.812620
C5851	C585	0.937900	0.496660	0.734800
C5861	C586	0.893940	0.540760	0.737380
C5871	C587	0.974380	0.402320	0.756460
C5881	C588	0.965880	0.355680	0.777040
C5891	C589	0.016160	0.617300	0.463160
C5901	C590	0.987380	0.669260	0.455260
C5911	C591	0.940910	0.686390	0.455930
C5921	C592	0.914290	0.734190	0.450770
C5931	C593	0.932560	0.765240	0.446100
C5941	C594	0.979750	0.747950	0.444110
C5951	C595	0.006760	0.700400	0.448260
C5961	C596	0.864020	0.759100	0.449020
C5971	C597	0.854490	0.809670	0.444250
C5981	C598	0.894400	0.812620	0.443880
C5991	C599	0.830640	0.734800	0.496660
C6001	C600	0.827920	0.737380	0.540760
C6011	C601	0.866840	0.756460	0.402320
C6021	C602	0.901400	0.777040	0.355680
C6031	C603	0.463160	0.903380	0.016160
C6041	C604	0.455260	0.888100	0.987380
C6051	C605	0.455930	0.916770	0.940910
C6061	C606	0.450770	0.900750	0.914290
C6071	C607	0.446100	0.856100	0.932560
C6081	C608	0.444110	0.828190	0.979750
C6091	C609	0.448260	0.844580	0.006760
C6101	C610	0.449020	0.927860	0.864020
C6111	C611	0.444250	0.891590	0.854490
C6121	C612	0.443880	0.849100	0.894400
C6131	C613	0.496660	0.937900	0.830640
C6141	C614	0.540760	0.893940	0.827920
C6151	C615	0.402320	0.974380	0.866840
C6161	C616	0.355680	0.965880	0.901400
C6171	C617	0.903380	0.016160	0.463160
C6181	C618	0.888100	0.987380	0.455260
C6191	C619	0.916770	0.940910	0.455930
C6201	C620	0.900750	0.914290	0.450770
C6211	C621	0.856100	0.932560	0.446100
C6221	C622	0.828190	0.979750	0.444110
C6231	C623	0.844580	0.006760	0.448260
C6241	C624	0.927860	0.864020	0.449020
C6251	C625	0.891590	0.854490	0.444250
C6261	C626	0.849100	0.894400	0.443880
C6271	C627	0.937900	0.830640	0.496660
C6281	C628	0.893940	0.827920	0.540760
C6291	C629	0.974380	0.866840	0.402320
C6301	C630	0.965880	0.901400	0.355680
C6311	C631	0.617300	0.463160	0.016160
C6321	C632	0.669260	0.455260	0.987380
C6331	C633	0.686390	0.455930	0.940910
C6341	C634	0.734190	0.450770	0.914290
C6351	C635	0.765240	0.446100	0.932560
C6361	C636	0.747950	0.444110	0.979750
C6371	C637	0.700400	0.448260	0.006760
C6381	C638	0.759100	0.449020	0.864020
C6391	C639	0.809670	0.444250	0.854490
C6401	C640	0.812620	0.443880	0.894400
C6411	C641	0.734800	0.496660	0.830640
C6421	C642	0.737380	0.540760	0.827920
C6431	C643	0.756460	0.402320	0.866840
C6441	C644	0.777040	0.355680	0.901400
C6451	C645	0.463160	0.617300	0.903380
C6461	C646	0.455260	0.669260	0.888100
C6471	C647	0.455930	0.686390	0.916770
C6481	C648	0.450770	0.734190	0.900750
C6491	C649	0.446100	0.765240	0.856100
C6501	C650	0.444110	0.747950	0.828190
C6511	C651	0.448260	0.700400	0.844580
C6521	C652	0.449020	0.759100	0.927860
C6531	C653	0.444250	0.809670	0.891590
C6541	C654	0.443880	0.812620	0.849100
C6551	C655	0.496660	0.734800	0.937900
C6561	C656	0.540760	0.737380	0.893940
C6571	C657	0.402320	0.756460	0.974380
C6581	C658	0.355680	0.777040	0.965880
C6591	C659	0.016160	0.903380	0.617300
C6601	C660	0.987380	0.888100	0.669260
C6611	C661	0.940910	0.916770	0.686390
C6621	C662	0.914290	0.900750	0.734190
C6631	C663	0.932560	0.856100	0.765240
C6641	C664	0.979750	0.828190	0.747950
C6651	C665	0.006760	0.844580	0.700400
C6661	C666	0.864020	0.927860	0.759100
C6671	C667	0.854490	0.891590	0.809670
C6681	C668	0.894400	0.849100	0.812620
C6691	C669	0.830640	0.937900	0.734800
C6701	C670	0.827920	0.893940	0.737380
C6711	C671	0.866840	0.974380	0.756460
C6721	C672	0.901400	0.965880	0.777040
O11	O1	0.557170	0.965070	0.102070
O21	O2	0.498250	0.969710	0.088870
O31	O3	0.965070	0.557170	0.375690
O41	O4	0.969710	0.498250	0.443170
O51	O5	0.102070	0.375690	0.557170
O61	O6	0.088870	0.443170	0.498250
O71	O7	0.375690	0.102070	0.965070
O81	O8	0.443170	0.088870	0.969710
O91	O9	0.557170	0.102070	0.375690
O101	O10	0.498250	0.088870	0.443170
O111	O11	0.965070	0.375690	0.102070
O121	O12	0.969710	0.443170	0.088870
O131	O13	0.102070	0.557170	0.965070
O141	O14	0.088870	0.498250	0.969710
O151	O15	0.375690	0.965070	0.557170
O161	O16	0.443170	0.969710	0.498250
O171	O17	0.557170	0.375690	0.965070
O181	O18	0.498250	0.443170	0.969710
O191	O19	0.965070	0.102070	0.557170
O201	O20	0.969710	0.088870	0.498250
O211	O21	0.102070	0.965070	0.375690
O221	O22	0.088870	0.969710	0.443170
O231	O23	0.375690	0.557170	0.102070
O241	O24	0.443170	0.498250	0.088870
O251	O25	0.534930	0.942830	0.397930
O261	O26	0.530290	0.001750	0.411130
O271	O27	0.942830	0.534930	0.124310
O281	O28	0.001750	0.530290	0.056830
O291	O29	0.124310	0.397930	0.942830
O301	O30	0.056830	0.411130	0.001750
O311	O31	0.397930	0.124310	0.534930
O321	O32	0.411130	0.056830	0.530290
O331	O33	0.397930	0.942830	0.124310
O341	O34	0.411130	0.001750	0.056830
O351	O35	0.124310	0.534930	0.397930
O361	O36	0.056830	0.530290	0.411130
O371	O37	0.942830	0.397930	0.534930
O381	O38	0.001750	0.411130	0.530290
O391	O39	0.534930	0.124310	0.942830
O401	O40	0.530290	0.056830	0.001750
O411	O41	0.124310	0.942830	0.534930
O421	O42	0.056830	0.001750	0.530290
O431	O43	0.397930	0.534930	0.942830
O441	O44	0.411130	0.530290	0.001750
O451	O45	0.534930	0.397930	0.124310
O461	O46	0.530290	0.411130	0.056830
O471	O47	0.942830	0.124310	0.397930
O481	O48	0.001750	0.056830	0.411130
O491	O49	0.442830	0.034930	0.897930
O501	O50	0.501750	0.030290	0.911130
O511	O51	0.034930	0.442830	0.624310
O521	O52	0.030290	0.501750	0.556830
O531	O53	0.897930	0.624310	0.442830
O541	O54	0.911130	0.556830	0.501750
O551	O55	0.624310	0.897930	0.034930
O561	O56	0.556830	0.911130	0.030290
O571	O57	0.442830	0.897930	0.624310
O581	O58	0.501750	0.911130	0.556830
O591	O59	0.034930	0.624310	0.897930
O601	O60	0.030290	0.556830	0.911130
O611	O61	0.897930	0.442830	0.034930
O621	O62	0.911130	0.501750	0.030290
O631	O63	0.624310	0.034930	0.442830
O641	O64	0.556830	0.030290	0.501750
O651	O65	0.442830	0.624310	0.034930
O661	O66	0.501750	0.556830	0.030290
O671	O67	0.034930	0.897930	0.442830
O681	O68	0.030290	0.911130	0.501750
O691	O69	0.897930	0.034930	0.624310
O701	O70	0.911130	0.030290	0.556830
O711	O71	0.624310	0.442830	0.897930
O721	O72	0.556830	0.501750	0.911130
O731	O73	0.465070	0.057170	0.602070
O741	O74	0.469710	0.998250	0.588870
O751	O75	0.057170	0.465070	0.875690
O761	O76	0.998250	0.469710	0.943170
O771	O77	0.875690	0.602070	0.057170
O781	O78	0.943170	0.588870	0.998250
O791	O79	0.602070	0.875690	0.465070
O801	O80	0.588870	0.943170	0.469710
O811	O81	0.602070	0.057170	0.875690
O821	O82	0.588870	0.998250	0.943170
O831	O83	0.875690	0.465070	0.602070
O841	O84	0.943170	0.469710	0.588870
O851	O85	0.057170	0.602070	0.465070
O861	O86	0.998250	0.588870	0.469710
O871	O87	0.465070	0.875690	0.057170
O881	O88	0.469710	0.943170	0.998250
O891	O89	0.875690	0.057170	0.465070
O901	O90	0.943170	0.998250	0.469710
O911	O91	0.602070	0.465070	0.057170
O921	O92	0.588870	0.469710	0.998250
O931	O93	0.465070	0.602070	0.875690
O941	O94	0.469710	0.588870	0.943170
O951	O95	0.057170	0.875690	0.602070
O961	O96	0.998250	0.943170	0.588870
O971	O97	0.639150	0.995690	0.004310
O981	O98	0.995690	0.639150	0.360850
O991	O99	0.004310	0.360850	0.639150
O1001	O100	0.360850	0.004310	0.995690
O1011	O101	0.639150	0.004310	0.360850
O1021	O102	0.995690	0.360850	0.004310
O1031	O103	0.004310	0.639150	0.995690
O1041	O104	0.360850	0.995690	0.639150
O1051	O105	0.639150	0.360850	0.995690
O1061	O106	0.995690	0.004310	0.639150
O1071	O107	0.004310	0.995690	0.360850
O1081	O108	0.360850	0.639150	0.004310
O1091	O109	0.504310	0.860850	0.495690
O1101	O110	0.860850	0.504310	0.139150
O1111	O111	0.139150	0.495690	0.860850
O1121	O112	0.495690	0.139150	0.504310
O1131	O113	0.495690	0.860850	0.139150
O1141	O114	0.139150	0.504310	0.495690
O1151	O115	0.860850	0.495690	0.504310
O1161	O116	0.504310	0.139150	0.860850
O1171	O117	0.139150	0.860850	0.504310
O1181	O118	0.495690	0.504310	0.860850
O1191	O119	0.504310	0.495690	0.139150
O1201	O120	0.860850	0.139150	0.495690
