data_BUGSAY_freeONLY_PM
_symmetry_space_group_name_H-M	'P1'
_cell_length_a	5.528600
_cell_length_b	13.314000
_cell_length_c	20.599000
_cell_angle_alpha	90.000000
_cell_angle_beta	95.244000
_cell_angle_gamma	90.000000
_symmetry_Int_Tables_number 1

loop_
_symmetry_equiv_pos_as_xyz
'x,y,z'

loop_
_atom_site_label
_atom_site_type_symbol
_atom_site_fract_x
_atom_site_fract_y
_atom_site_fract_z
Dy11	Dy1	0.872350	0.632670	0.527820
Dy21	Dy2	0.127650	0.132670	0.972180
Dy31	Dy3	0.127650	0.367330	0.472180
Dy41	Dy4	0.872350	0.867330	0.027820
P11	P1	0.589900	0.520900	0.413950
P21	P2	0.410100	0.020900	0.086050
P31	P3	0.410100	0.479100	0.586050
P41	P4	0.589900	0.979100	0.913950
H11	H1	0.834900	0.580400	0.336600
H21	H2	0.740800	0.472700	0.317100
H31	H3	0.622500	0.728700	0.298300
H41	H4	0.414400	0.698900	0.341800
H51	H5	0.124900	0.701100	0.248800
H61	H6	0.253300	0.806300	0.254900
H71	H7	0.515300	0.758700	0.175300
H81	H8	0.451700	0.599700	0.121900
H91	H9	0.248200	0.573400	0.167700
H101	H10	0.625500	0.497500	0.209800
H111	H11	0.748400	0.604100	0.215000
H121	H12	0.186200	0.723000	0.447100
H131	H13	0.127500	0.631900	0.417700
H141	H14	0.720500	0.819100	0.565400
H151	H15	0.652900	0.815300	0.499400
H161	H16	0.165100	0.080400	0.163400
H171	H17	0.259200	0.972700	0.182900
H181	H18	0.377500	0.228700	0.201700
H191	H19	0.585600	0.198900	0.158200
H201	H20	0.875100	0.201100	0.251200
H211	H21	0.746700	0.306300	0.245100
H221	H22	0.484700	0.258700	0.324700
H231	H23	0.548300	0.099700	0.378100
H241	H24	0.751800	0.073400	0.332300
H251	H25	0.374500	0.997500	0.290200
H261	H26	0.251600	0.104100	0.285000
H271	H27	0.813800	0.223000	0.052900
H281	H28	0.872500	0.131900	0.082300
H291	H29	0.279500	0.319100	0.934600
H301	H30	0.347100	0.315300	0.000600
H311	H31	0.165100	0.419600	0.663400
H321	H32	0.259200	0.527300	0.682900
H331	H33	0.377500	0.271300	0.701700
H341	H34	0.585600	0.301100	0.658200
H351	H35	0.875100	0.298900	0.751200
H361	H36	0.746700	0.193700	0.745100
H371	H37	0.484700	0.241300	0.824700
H381	H38	0.548300	0.400300	0.878100
H391	H39	0.751800	0.426600	0.832300
H401	H40	0.374500	0.502500	0.790200
H411	H41	0.251600	0.395900	0.785000
H421	H42	0.813800	0.277000	0.552900
H431	H43	0.872500	0.368100	0.582300
H441	H44	0.279500	0.180900	0.434600
H451	H45	0.347100	0.184700	0.500600
H461	H46	0.834900	0.919600	0.836600
H471	H47	0.740800	0.027300	0.817100
H481	H48	0.622500	0.771300	0.798300
H491	H49	0.414400	0.801100	0.841800
H501	H50	0.124900	0.798900	0.748800
H511	H51	0.253300	0.693700	0.754900
H521	H52	0.515300	0.741300	0.675300
H531	H53	0.451700	0.900300	0.621900
H541	H54	0.248200	0.926600	0.667700
H551	H55	0.625500	0.002500	0.709800
H561	H56	0.748400	0.895900	0.715000
H571	H57	0.186200	0.777000	0.947100
H581	H58	0.127500	0.868100	0.917700
H591	H59	0.720500	0.680900	0.065400
H601	H60	0.652900	0.684700	0.999400
C11	C1	0.692200	0.537700	0.332800
C21	C2	0.471000	0.692200	0.298800
C31	C3	0.278000	0.735600	0.246400
C41	C4	0.361000	0.723000	0.177900
C51	C5	0.400000	0.609400	0.165100
C61	C6	0.597000	0.568200	0.217500
C71	C7	0.170400	0.764200	0.125100
C81	C8	0.307800	0.037700	0.167200
C91	C9	0.529000	0.192200	0.201200
C101	C10	0.722000	0.235600	0.253600
C111	C11	0.639000	0.223000	0.322100
C121	C12	0.600000	0.109400	0.334900
C131	C13	0.403000	0.068200	0.282500
C141	C14	0.829600	0.264200	0.374900
C151	C15	0.307800	0.462300	0.667200
C161	C16	0.529000	0.307800	0.701200
C171	C17	0.722000	0.264400	0.753600
C181	C18	0.639000	0.277000	0.822100
C191	C19	0.600000	0.390600	0.834900
C201	C20	0.403000	0.431800	0.782500
C211	C21	0.829600	0.235800	0.874900
C221	C22	0.692200	0.962300	0.832800
C231	C23	0.471000	0.807800	0.798800
C241	C24	0.278000	0.764400	0.746400
C251	C25	0.361000	0.777000	0.677900
C261	C26	0.400000	0.890600	0.665100
C271	C27	0.597000	0.931800	0.717500
C281	C28	0.170400	0.735800	0.625100
N11	N1	0.509500	0.582200	0.283400
N21	N2	0.490500	0.082200	0.216600
N31	N3	0.490500	0.417800	0.716600
N41	N4	0.509500	0.917800	0.783400
O11	O1	0.540800	0.623000	0.444400
O21	O2	0.822400	0.481400	0.454300
O31	O3	0.376000	0.450200	0.409100
O41	O4	0.002000	0.819200	0.140900
O51	O5	0.197800	0.748800	0.067400
O61	O6	0.070000	0.683000	0.435000
O71	O7	0.650000	0.784000	0.535000
O81	O8	0.459200	0.123000	0.055600
O91	O9	0.177600	0.981400	0.045700
O101	O10	0.624000	0.950200	0.090900
O111	O11	0.998000	0.319200	0.359100
O121	O12	0.802200	0.248800	0.432600
O131	O13	0.930000	0.183000	0.065000
O141	O14	0.350000	0.284000	0.965000
O151	O15	0.459200	0.377000	0.555600
O161	O16	0.177600	0.518600	0.545700
O171	O17	0.624000	0.549800	0.590900
O181	O18	0.998000	0.180800	0.859100
O191	O19	0.802200	0.251200	0.932600
O201	O20	0.930000	0.317000	0.565000
O211	O21	0.350000	0.216000	0.465000
O221	O22	0.540800	0.877000	0.944400
O231	O23	0.822400	0.018600	0.954300
O241	O24	0.376000	0.049800	0.909100
O251	O25	0.002000	0.680800	0.640900
O261	O26	0.197800	0.751200	0.567400
O271	O27	0.070000	0.817000	0.935000
O281	O28	0.650000	0.716000	0.035000
