data_BUKMUQ01_freeONLY_PM
_symmetry_space_group_name_H-M	'P1'
_cell_length_a	10.828500
_cell_length_b	11.193300
_cell_length_c	14.799000
_cell_angle_alpha	90.000000
_cell_angle_beta	90.000000
_cell_angle_gamma	90.000000
_symmetry_Int_Tables_number 1

loop_
_symmetry_equiv_pos_as_xyz
'x,y,z'

loop_
_atom_site_label
_atom_site_type_symbol
_atom_site_fract_x
_atom_site_fract_y
_atom_site_fract_z
Zn11	Zn1	0.342790	0.815770	0.158400
O11	O1	0.260050	0.247180	0.562380
O21	O2	0.106020	0.370470	0.524900
O31	O3	0.403040	0.703870	0.247900
O41	O4	0.210250	0.698360	0.298720
N11	N1	0.497010	0.396890	0.379970
C11	C1	0.464360	0.499090	0.338160
H11	H1	0.522000	0.536300	0.298800
C21	C2	0.416040	0.346010	0.437040
H21	H2	0.438600	0.273900	0.466700
C31	C3	0.301050	0.394900	0.454140
C41	C4	0.267200	0.499500	0.409800
H31	H3	0.188500	0.534500	0.420100
C51	C5	0.350200	0.551790	0.350450
C61	C6	0.212000	0.335600	0.518740
C71	C7	0.315800	0.660900	0.296020
O51	O5	0.262660	0.957970	0.210710
C81	C8	0.153700	0.970560	0.239730
C91	C9	0.048900	0.900300	0.202320
H41	H4	0.078600	0.849300	0.153100
H51	H5	0.985600	0.954900	0.179200
H61	H6	0.013300	0.850300	0.250100
N21	N2	0.131870	0.049880	0.303600
C101	C10	0.006000	0.074000	0.336000
H71	H7	0.956900	0.108600	0.286900
H81	H8	0.009300	0.130400	0.386600
H91	H9	0.967800	0.999200	0.356100
C111	C11	0.227600	0.129200	0.335700
H101	H10	0.230100	0.127000	0.401900
H111	H11	0.210000	0.210900	0.315600
H121	H12	0.307500	0.103600	0.311500
Zn21	Zn2	0.157210	0.184230	0.658400
O61	O6	0.239950	0.752820	0.062380
O71	O7	0.393980	0.629530	0.024900
O81	O8	0.096960	0.296130	0.747900
O91	O9	0.289750	0.301640	0.798720
N31	N3	0.002990	0.603110	0.879970
C121	C12	0.035640	0.500910	0.838160
H131	H13	0.978000	0.463700	0.798800
C131	C13	0.083960	0.653990	0.937040
H141	H14	0.061400	0.726100	0.966700
C141	C14	0.198950	0.605100	0.954140
C151	C15	0.232800	0.500500	0.909800
H151	H15	0.311500	0.465500	0.920100
C161	C16	0.149800	0.448210	0.850450
C171	C17	0.288000	0.664400	0.018740
C181	C18	0.184200	0.339100	0.796020
O101	O10	0.237340	0.042030	0.710710
C191	C19	0.346300	0.029440	0.739730
C201	C20	0.451100	0.099700	0.702320
H161	H16	0.421400	0.150700	0.653100
H171	H17	0.514400	0.045100	0.679200
H181	H18	0.486700	0.149700	0.750100
N41	N4	0.368130	0.950120	0.803600
C211	C21	0.494000	0.926000	0.836000
H191	H19	0.543100	0.891400	0.786900
H201	H20	0.490700	0.869600	0.886600
H211	H21	0.532200	0.000800	0.856100
C221	C22	0.272400	0.870800	0.835700
H221	H22	0.269900	0.873000	0.901900
H231	H23	0.290000	0.789100	0.815600
H241	H24	0.192500	0.896400	0.811500
Zn31	Zn3	0.657210	0.315770	0.341600
O111	O11	0.739950	0.747180	0.937620
O121	O12	0.893980	0.870470	0.975100
O131	O13	0.596960	0.203870	0.252100
O141	O14	0.789750	0.198360	0.201280
N51	N5	0.502990	0.896890	0.120030
C231	C23	0.535640	0.999090	0.161840
H251	H25	0.478000	0.036300	0.201200
C241	C24	0.583960	0.846010	0.062960
H261	H26	0.561400	0.773900	0.033300
C251	C25	0.698950	0.894900	0.045860
C261	C26	0.732800	0.999500	0.090200
H271	H27	0.811500	0.034500	0.079900
C271	C27	0.649800	0.051790	0.149550
C281	C28	0.788000	0.835600	0.981260
C291	C29	0.684200	0.160900	0.203980
O151	O15	0.737340	0.457970	0.289290
C301	C30	0.846300	0.470560	0.260270
C311	C31	0.951100	0.400300	0.297680
H281	H28	0.921400	0.349300	0.346900
H291	H29	0.014400	0.454900	0.320800
H301	H30	0.986700	0.350300	0.249900
N61	N6	0.868130	0.549880	0.196400
C321	C32	0.994000	0.574000	0.164000
H311	H31	0.043100	0.608600	0.213100
H321	H32	0.990700	0.630400	0.113400
H331	H33	0.032200	0.499200	0.143900
C331	C33	0.772400	0.629200	0.164300
H341	H34	0.769900	0.627000	0.098100
H351	H35	0.790000	0.710900	0.184400
H361	H36	0.692500	0.603600	0.188500
Zn41	Zn4	0.842790	0.684230	0.841600
O161	O16	0.760050	0.252820	0.437620
O171	O17	0.606020	0.129530	0.475100
O181	O18	0.903040	0.796130	0.752100
O191	O19	0.710250	0.801640	0.701280
N71	N7	0.997010	0.103110	0.620030
C341	C34	0.964360	0.000910	0.661840
H371	H37	0.022000	0.963700	0.701200
C351	C35	0.916040	0.153990	0.562960
H381	H38	0.938600	0.226100	0.533300
C361	C36	0.801050	0.105100	0.545860
C371	C37	0.767200	0.000500	0.590200
H391	H39	0.688500	0.965500	0.579900
C381	C38	0.850200	0.948210	0.649550
C391	C39	0.712000	0.164400	0.481260
C401	C40	0.815800	0.839100	0.703980
O201	O20	0.762660	0.542030	0.789290
C411	C41	0.653700	0.529440	0.760270
C421	C42	0.548900	0.599700	0.797680
H401	H40	0.578600	0.650700	0.846900
H411	H41	0.485600	0.545100	0.820800
H421	H42	0.513300	0.649700	0.749900
N81	N8	0.631870	0.450120	0.696400
C431	C43	0.506000	0.426000	0.664000
H431	H43	0.456900	0.391400	0.713100
H441	H44	0.509300	0.369600	0.613400
H451	H45	0.467800	0.500800	0.643900
C441	C44	0.727600	0.370800	0.664300
H461	H46	0.730100	0.373000	0.598100
H471	H47	0.710000	0.289100	0.684400
H481	H48	0.807500	0.396400	0.688500
