data_BUPFEY_freeONLY_PM
_symmetry_space_group_name_H-M	'P1'
_cell_length_a	36.628900
_cell_length_b	36.628900
_cell_length_c	36.628900
_cell_angle_alpha	90.000000
_cell_angle_beta	90.000000
_cell_angle_gamma	90.000000
_symmetry_Int_Tables_number 1

loop_
_symmetry_equiv_pos_as_xyz
'x,y,z'

loop_
_atom_site_label
_atom_site_type_symbol
_atom_site_fract_x
_atom_site_fract_y
_atom_site_fract_z
Cu11	Cu1	0.890820	0.670570	0.584860
Cu21	Cu2	0.953170	0.731580	0.554550
S11	S1	0.968560	0.711260	0.457320
S21	S2	0.830970	0.683080	0.601150
N11	N1	0.930460	0.696390	0.519970
N21	N2	0.902850	0.672200	0.531560
N31	N3	0.915100	0.662130	0.473850
H11	H1	0.914000	0.653100	0.452200
N41	N4	0.868740	0.625350	0.502420
H21	H2	0.855600	0.620900	0.521400
H31	H3	0.865400	0.613100	0.482700
N51	N5	0.804080	0.618430	0.574410
N61	N6	0.780400	0.607390	0.546610
N71	N7	0.784260	0.666600	0.545870
H41	H4	0.780700	0.689000	0.539800
N81	N8	0.745140	0.638830	0.502210
H51	H5	0.735600	0.619200	0.493600
H61	H6	0.739400	0.659700	0.493100
C11	C1	0.937120	0.689580	0.485720
C21	C2	0.895140	0.652070	0.503720
C31	C3	0.806050	0.654400	0.573100
C41	C4	0.769160	0.636910	0.530090
Cu31	Cu3	0.890820	0.170570	0.084860
Cu41	Cu4	0.953170	0.231580	0.054550
S31	S3	0.968560	0.211260	0.957320
S41	S4	0.830970	0.183080	0.101150
N91	N9	0.930460	0.196390	0.019970
N101	N10	0.902850	0.172200	0.031560
N111	N11	0.915100	0.162130	0.973850
H71	H7	0.914000	0.153100	0.952200
N121	N12	0.868740	0.125350	0.002420
H81	H8	0.855600	0.120900	0.021400
H91	H9	0.865400	0.113100	0.982700
N131	N13	0.804080	0.118430	0.074410
N141	N14	0.780400	0.107390	0.046610
N151	N15	0.784260	0.166600	0.045870
H101	H10	0.780700	0.189000	0.039800
N161	N16	0.745140	0.138830	0.002210
H111	H11	0.735600	0.119200	0.993600
H121	H12	0.739400	0.159700	0.993100
C51	C5	0.937120	0.189580	0.985720
C61	C6	0.895140	0.152070	0.003720
C71	C7	0.806050	0.154400	0.073100
C81	C8	0.769160	0.136910	0.030090
Cu51	Cu5	0.390820	0.670570	0.084860
Cu61	Cu6	0.453170	0.731580	0.054550
S51	S5	0.468560	0.711260	0.957320
S61	S6	0.330970	0.683080	0.101150
N171	N17	0.430460	0.696390	0.019970
N181	N18	0.402850	0.672200	0.031560
N191	N19	0.415100	0.662130	0.973850
H131	H13	0.414000	0.653100	0.952200
N201	N20	0.368740	0.625350	0.002420
H141	H14	0.355600	0.620900	0.021400
H151	H15	0.365400	0.613100	0.982700
N211	N21	0.304080	0.618430	0.074410
N221	N22	0.280400	0.607390	0.046610
N231	N23	0.284260	0.666600	0.045870
H161	H16	0.280700	0.689000	0.039800
N241	N24	0.245140	0.638830	0.002210
H171	H17	0.235600	0.619200	0.993600
H181	H18	0.239400	0.659700	0.993100
C91	C9	0.437120	0.689580	0.985720
C101	C10	0.395140	0.652070	0.003720
C111	C11	0.306050	0.654400	0.073100
C121	C12	0.269160	0.636910	0.030090
Cu71	Cu7	0.390820	0.170570	0.584860
Cu81	Cu8	0.453170	0.231580	0.554550
S71	S7	0.468560	0.211260	0.457320
S81	S8	0.330970	0.183080	0.601150
N251	N25	0.430460	0.196390	0.519970
N261	N26	0.402850	0.172200	0.531560
N271	N27	0.415100	0.162130	0.473850
H191	H19	0.414000	0.153100	0.452200
N281	N28	0.368740	0.125350	0.502420
H201	H20	0.355600	0.120900	0.521400
H211	H21	0.365400	0.113100	0.482700
N291	N29	0.304080	0.118430	0.574410
N301	N30	0.280400	0.107390	0.546610
N311	N31	0.284260	0.166600	0.545870
H221	H22	0.280700	0.189000	0.539800
N321	N32	0.245140	0.138830	0.502210
H231	H23	0.235600	0.119200	0.493600
H241	H24	0.239400	0.159700	0.493100
C131	C13	0.437120	0.189580	0.485720
C141	C14	0.395140	0.152070	0.503720
C151	C15	0.306050	0.154400	0.573100
C161	C16	0.269160	0.136910	0.530090
Cu91	Cu9	0.109180	0.329430	0.584860
Cu101	Cu10	0.046830	0.268420	0.554550
S91	S9	0.031440	0.288740	0.457320
S101	S10	0.169030	0.316920	0.601150
N331	N33	0.069540	0.303610	0.519970
N341	N34	0.097150	0.327800	0.531560
N351	N35	0.084900	0.337870	0.473850
H251	H25	0.086000	0.346900	0.452200
N361	N36	0.131260	0.374650	0.502420
H261	H26	0.144400	0.379100	0.521400
H271	H27	0.134600	0.386900	0.482700
N371	N37	0.195920	0.381570	0.574410
N381	N38	0.219600	0.392610	0.546610
N391	N39	0.215740	0.333400	0.545870
H281	H28	0.219300	0.311000	0.539800
N401	N40	0.254860	0.361170	0.502210
H291	H29	0.264400	0.380800	0.493600
H301	H30	0.260600	0.340300	0.493100
C171	C17	0.062880	0.310420	0.485720
C181	C18	0.104860	0.347930	0.503720
C191	C19	0.193950	0.345600	0.573100
C201	C20	0.230840	0.363090	0.530090
Cu111	Cu11	0.109180	0.829430	0.084860
Cu121	Cu12	0.046830	0.768420	0.054550
S111	S11	0.031440	0.788740	0.957320
S121	S12	0.169030	0.816920	0.101150
N411	N41	0.069540	0.803610	0.019970
N421	N42	0.097150	0.827800	0.031560
N431	N43	0.084900	0.837870	0.973850
H311	H31	0.086000	0.846900	0.952200
N441	N44	0.131260	0.874650	0.002420
H321	H32	0.144400	0.879100	0.021400
H331	H33	0.134600	0.886900	0.982700
N451	N45	0.195920	0.881570	0.074410
N461	N46	0.219600	0.892610	0.046610
N471	N47	0.215740	0.833400	0.045870
H341	H34	0.219300	0.811000	0.039800
N481	N48	0.254860	0.861170	0.002210
H351	H35	0.264400	0.880800	0.993600
H361	H36	0.260600	0.840300	0.993100
C211	C21	0.062880	0.810420	0.985720
C221	C22	0.104860	0.847930	0.003720
C231	C23	0.193950	0.845600	0.073100
C241	C24	0.230840	0.863090	0.030090
Cu131	Cu13	0.609180	0.329430	0.084860
Cu141	Cu14	0.546830	0.268420	0.054550
S131	S13	0.531440	0.288740	0.957320
S141	S14	0.669030	0.316920	0.101150
N491	N49	0.569540	0.303610	0.019970
N501	N50	0.597150	0.327800	0.031560
N511	N51	0.584900	0.337870	0.973850
H371	H37	0.586000	0.346900	0.952200
N521	N52	0.631260	0.374650	0.002420
H381	H38	0.644400	0.379100	0.021400
H391	H39	0.634600	0.386900	0.982700
N531	N53	0.695920	0.381570	0.074410
N541	N54	0.719600	0.392610	0.046610
N551	N55	0.715740	0.333400	0.045870
H401	H40	0.719300	0.311000	0.039800
N561	N56	0.754860	0.361170	0.002210
H411	H41	0.764400	0.380800	0.993600
H421	H42	0.760600	0.340300	0.993100
C251	C25	0.562880	0.310420	0.985720
C261	C26	0.604860	0.347930	0.003720
C271	C27	0.693950	0.345600	0.073100
C281	C28	0.730840	0.363090	0.030090
Cu151	Cu15	0.609180	0.829430	0.584860
Cu161	Cu16	0.546830	0.768420	0.554550
S151	S15	0.531440	0.788740	0.457320
S161	S16	0.669030	0.816920	0.601150
N571	N57	0.569540	0.803610	0.519970
N581	N58	0.597150	0.827800	0.531560
N591	N59	0.584900	0.837870	0.473850
H431	H43	0.586000	0.846900	0.452200
N601	N60	0.631260	0.874650	0.502420
H441	H44	0.644400	0.879100	0.521400
H451	H45	0.634600	0.886900	0.482700
N611	N61	0.695920	0.881570	0.574410
N621	N62	0.719600	0.892610	0.546610
N631	N63	0.715740	0.833400	0.545870
H461	H46	0.719300	0.811000	0.539800
N641	N64	0.754860	0.861170	0.502210
H471	H47	0.764400	0.880800	0.493600
H481	H48	0.760600	0.840300	0.493100
C291	C29	0.562880	0.810420	0.485720
C301	C30	0.604860	0.847930	0.503720
C311	C31	0.693950	0.845600	0.573100
C321	C32	0.730840	0.863090	0.530090
Cu171	Cu17	0.109180	0.670570	0.415140
Cu181	Cu18	0.046830	0.731580	0.445450
S171	S17	0.031440	0.711260	0.542680
S181	S18	0.169030	0.683080	0.398850
N651	N65	0.069540	0.696390	0.480030
N661	N66	0.097150	0.672200	0.468440
N671	N67	0.084900	0.662130	0.526150
H491	H49	0.086000	0.653100	0.547800
N681	N68	0.131260	0.625350	0.497580
H501	H50	0.144400	0.620900	0.478600
H511	H51	0.134600	0.613100	0.517300
N691	N69	0.195920	0.618430	0.425590
N701	N70	0.219600	0.607390	0.453390
N711	N71	0.215740	0.666600	0.454130
H521	H52	0.219300	0.689000	0.460200
N721	N72	0.254860	0.638830	0.497790
H531	H53	0.264400	0.619200	0.506400
H541	H54	0.260600	0.659700	0.506900
C331	C33	0.062880	0.689580	0.514280
C341	C34	0.104860	0.652070	0.496280
C351	C35	0.193950	0.654400	0.426900
C361	C36	0.230840	0.636910	0.469910
Cu191	Cu19	0.109180	0.170570	0.915140
Cu201	Cu20	0.046830	0.231580	0.945450
S191	S19	0.031440	0.211260	0.042680
S201	S20	0.169030	0.183080	0.898850
N731	N73	0.069540	0.196390	0.980030
N741	N74	0.097150	0.172200	0.968440
N751	N75	0.084900	0.162130	0.026150
H551	H55	0.086000	0.153100	0.047800
N761	N76	0.131260	0.125350	0.997580
H561	H56	0.144400	0.120900	0.978600
H571	H57	0.134600	0.113100	0.017300
N771	N77	0.195920	0.118430	0.925590
N781	N78	0.219600	0.107390	0.953390
N791	N79	0.215740	0.166600	0.954130
H581	H58	0.219300	0.189000	0.960200
N801	N80	0.254860	0.138830	0.997790
H591	H59	0.264400	0.119200	0.006400
H601	H60	0.260600	0.159700	0.006900
C371	C37	0.062880	0.189580	0.014280
C381	C38	0.104860	0.152070	0.996280
C391	C39	0.193950	0.154400	0.926900
C401	C40	0.230840	0.136910	0.969910
Cu211	Cu21	0.609180	0.670570	0.915140
Cu221	Cu22	0.546830	0.731580	0.945450
S211	S21	0.531440	0.711260	0.042680
S221	S22	0.669030	0.683080	0.898850
N811	N81	0.569540	0.696390	0.980030
N821	N82	0.597150	0.672200	0.968440
N831	N83	0.584900	0.662130	0.026150
H611	H61	0.586000	0.653100	0.047800
N841	N84	0.631260	0.625350	0.997580
H621	H62	0.644400	0.620900	0.978600
H631	H63	0.634600	0.613100	0.017300
N851	N85	0.695920	0.618430	0.925590
N861	N86	0.719600	0.607390	0.953390
N871	N87	0.715740	0.666600	0.954130
H641	H64	0.719300	0.689000	0.960200
N881	N88	0.754860	0.638830	0.997790
H651	H65	0.764400	0.619200	0.006400
H661	H66	0.760600	0.659700	0.006900
C411	C41	0.562880	0.689580	0.014280
C421	C42	0.604860	0.652070	0.996280
C431	C43	0.693950	0.654400	0.926900
C441	C44	0.730840	0.636910	0.969910
Cu231	Cu23	0.609180	0.170570	0.415140
Cu241	Cu24	0.546830	0.231580	0.445450
S231	S23	0.531440	0.211260	0.542680
S241	S24	0.669030	0.183080	0.398850
N891	N89	0.569540	0.196390	0.480030
N901	N90	0.597150	0.172200	0.468440
N911	N91	0.584900	0.162130	0.526150
H671	H67	0.586000	0.153100	0.547800
N921	N92	0.631260	0.125350	0.497580
H681	H68	0.644400	0.120900	0.478600
H691	H69	0.634600	0.113100	0.517300
N931	N93	0.695920	0.118430	0.425590
N941	N94	0.719600	0.107390	0.453390
N951	N95	0.715740	0.166600	0.454130
H701	H70	0.719300	0.189000	0.460200
N961	N96	0.754860	0.138830	0.497790
H711	H71	0.764400	0.119200	0.506400
H721	H72	0.760600	0.159700	0.506900
C451	C45	0.562880	0.189580	0.514280
C461	C46	0.604860	0.152070	0.496280
C471	C47	0.693950	0.154400	0.426900
C481	C48	0.730840	0.136910	0.469910
Cu251	Cu25	0.890820	0.329430	0.415140
Cu261	Cu26	0.953170	0.268420	0.445450
S251	S25	0.968560	0.288740	0.542680
S261	S26	0.830970	0.316920	0.398850
N971	N97	0.930460	0.303610	0.480030
N981	N98	0.902850	0.327800	0.468440
N991	N99	0.915100	0.337870	0.526150
H731	H73	0.914000	0.346900	0.547800
N1001	N100	0.868740	0.374650	0.497580
H741	H74	0.855600	0.379100	0.478600
H751	H75	0.865400	0.386900	0.517300
N1011	N101	0.804080	0.381570	0.425590
N1021	N102	0.780400	0.392610	0.453390
N1031	N103	0.784260	0.333400	0.454130
H761	H76	0.780700	0.311000	0.460200
N1041	N104	0.745140	0.361170	0.497790
H771	H77	0.735600	0.380800	0.506400
H781	H78	0.739400	0.340300	0.506900
C491	C49	0.937120	0.310420	0.514280
C501	C50	0.895140	0.347930	0.496280
C511	C51	0.806050	0.345600	0.426900
C521	C52	0.769160	0.363090	0.469910
Cu271	Cu27	0.890820	0.829430	0.915140
Cu281	Cu28	0.953170	0.768420	0.945450
S271	S27	0.968560	0.788740	0.042680
S281	S28	0.830970	0.816920	0.898850
N1051	N105	0.930460	0.803610	0.980030
N1061	N106	0.902850	0.827800	0.968440
N1071	N107	0.915100	0.837870	0.026150
H791	H79	0.914000	0.846900	0.047800
N1081	N108	0.868740	0.874650	0.997580
H801	H80	0.855600	0.879100	0.978600
H811	H81	0.865400	0.886900	0.017300
N1091	N109	0.804080	0.881570	0.925590
N1101	N110	0.780400	0.892610	0.953390
N1111	N111	0.784260	0.833400	0.954130
H821	H82	0.780700	0.811000	0.960200
N1121	N112	0.745140	0.861170	0.997790
H831	H83	0.735600	0.880800	0.006400
H841	H84	0.739400	0.840300	0.006900
C531	C53	0.937120	0.810420	0.014280
C541	C54	0.895140	0.847930	0.996280
C551	C55	0.806050	0.845600	0.926900
C561	C56	0.769160	0.863090	0.969910
Cu291	Cu29	0.390820	0.329430	0.915140
Cu301	Cu30	0.453170	0.268420	0.945450
S291	S29	0.468560	0.288740	0.042680
S301	S30	0.330970	0.316920	0.898850
N1131	N113	0.430460	0.303610	0.980030
N1141	N114	0.402850	0.327800	0.968440
N1151	N115	0.415100	0.337870	0.026150
H851	H85	0.414000	0.346900	0.047800
N1161	N116	0.368740	0.374650	0.997580
H861	H86	0.355600	0.379100	0.978600
H871	H87	0.365400	0.386900	0.017300
N1171	N117	0.304080	0.381570	0.925590
N1181	N118	0.280400	0.392610	0.953390
N1191	N119	0.284260	0.333400	0.954130
H881	H88	0.280700	0.311000	0.960200
N1201	N120	0.245140	0.361170	0.997790
H891	H89	0.235600	0.380800	0.006400
H901	H90	0.239400	0.340300	0.006900
C571	C57	0.437120	0.310420	0.014280
C581	C58	0.395140	0.347930	0.996280
C591	C59	0.306050	0.345600	0.926900
C601	C60	0.269160	0.363090	0.969910
Cu311	Cu31	0.390820	0.829430	0.415140
Cu321	Cu32	0.453170	0.768420	0.445450
S311	S31	0.468560	0.788740	0.542680
S321	S32	0.330970	0.816920	0.398850
N1211	N121	0.430460	0.803610	0.480030
N1221	N122	0.402850	0.827800	0.468440
N1231	N123	0.415100	0.837870	0.526150
H911	H91	0.414000	0.846900	0.547800
N1241	N124	0.368740	0.874650	0.497580
H921	H92	0.355600	0.879100	0.478600
H931	H93	0.365400	0.886900	0.517300
N1251	N125	0.304080	0.881570	0.425590
N1261	N126	0.280400	0.892610	0.453390
N1271	N127	0.284260	0.833400	0.454130
H941	H94	0.280700	0.811000	0.460200
N1281	N128	0.245140	0.861170	0.497790
H951	H95	0.235600	0.880800	0.506400
H961	H96	0.239400	0.840300	0.506900
C611	C61	0.437120	0.810420	0.514280
C621	C62	0.395140	0.847930	0.496280
C631	C63	0.306050	0.845600	0.426900
C641	C64	0.269160	0.863090	0.469910
Cu331	Cu33	0.584860	0.890820	0.670570
Cu341	Cu34	0.554550	0.953170	0.731580
S331	S33	0.457320	0.968560	0.711260
S341	S34	0.601150	0.830970	0.683080
N1291	N129	0.519970	0.930460	0.696390
N1301	N130	0.531560	0.902850	0.672200
N1311	N131	0.473850	0.915100	0.662130
H971	H97	0.452200	0.914000	0.653100
N1321	N132	0.502420	0.868740	0.625350
H981	H98	0.521400	0.855600	0.620900
H991	H99	0.482700	0.865400	0.613100
N1331	N133	0.574410	0.804080	0.618430
N1341	N134	0.546610	0.780400	0.607390
N1351	N135	0.545870	0.784260	0.666600
H1001	H100	0.539800	0.780700	0.689000
N1361	N136	0.502210	0.745140	0.638830
H1011	H101	0.493600	0.735600	0.619200
H1021	H102	0.493100	0.739400	0.659700
C651	C65	0.485720	0.937120	0.689580
C661	C66	0.503720	0.895140	0.652070
C671	C67	0.573100	0.806050	0.654400
C681	C68	0.530090	0.769160	0.636910
Cu351	Cu35	0.584860	0.390820	0.170570
Cu361	Cu36	0.554550	0.453170	0.231580
S351	S35	0.457320	0.468560	0.211260
S361	S36	0.601150	0.330970	0.183080
N1371	N137	0.519970	0.430460	0.196390
N1381	N138	0.531560	0.402850	0.172200
N1391	N139	0.473850	0.415100	0.162130
H1031	H103	0.452200	0.414000	0.153100
N1401	N140	0.502420	0.368740	0.125350
H1041	H104	0.521400	0.355600	0.120900
H1051	H105	0.482700	0.365400	0.113100
N1411	N141	0.574410	0.304080	0.118430
N1421	N142	0.546610	0.280400	0.107390
N1431	N143	0.545870	0.284260	0.166600
H1061	H106	0.539800	0.280700	0.189000
N1441	N144	0.502210	0.245140	0.138830
H1071	H107	0.493600	0.235600	0.119200
H1081	H108	0.493100	0.239400	0.159700
C691	C69	0.485720	0.437120	0.189580
C701	C70	0.503720	0.395140	0.152070
C711	C71	0.573100	0.306050	0.154400
C721	C72	0.530090	0.269160	0.136910
Cu371	Cu37	0.084860	0.890820	0.170570
Cu381	Cu38	0.054550	0.953170	0.231580
S371	S37	0.957320	0.968560	0.211260
S381	S38	0.101150	0.830970	0.183080
N1451	N145	0.019970	0.930460	0.196390
N1461	N146	0.031560	0.902850	0.172200
N1471	N147	0.973850	0.915100	0.162130
H1091	H109	0.952200	0.914000	0.153100
N1481	N148	0.002420	0.868740	0.125350
H1101	H110	0.021400	0.855600	0.120900
H1111	H111	0.982700	0.865400	0.113100
N1491	N149	0.074410	0.804080	0.118430
N1501	N150	0.046610	0.780400	0.107390
N1511	N151	0.045870	0.784260	0.166600
H1121	H112	0.039800	0.780700	0.189000
N1521	N152	0.002210	0.745140	0.138830
H1131	H113	0.993600	0.735600	0.119200
H1141	H114	0.993100	0.739400	0.159700
C731	C73	0.985720	0.937120	0.189580
C741	C74	0.003720	0.895140	0.152070
C751	C75	0.073100	0.806050	0.154400
C761	C76	0.030090	0.769160	0.136910
Cu391	Cu39	0.084860	0.390820	0.670570
Cu401	Cu40	0.054550	0.453170	0.731580
S391	S39	0.957320	0.468560	0.711260
S401	S40	0.101150	0.330970	0.683080
N1531	N153	0.019970	0.430460	0.696390
N1541	N154	0.031560	0.402850	0.672200
N1551	N155	0.973850	0.415100	0.662130
H1151	H115	0.952200	0.414000	0.653100
N1561	N156	0.002420	0.368740	0.625350
H1161	H116	0.021400	0.355600	0.620900
H1171	H117	0.982700	0.365400	0.613100
N1571	N157	0.074410	0.304080	0.618430
N1581	N158	0.046610	0.280400	0.607390
N1591	N159	0.045870	0.284260	0.666600
H1181	H118	0.039800	0.280700	0.689000
N1601	N160	0.002210	0.245140	0.638830
H1191	H119	0.993600	0.235600	0.619200
H1201	H120	0.993100	0.239400	0.659700
C771	C77	0.985720	0.437120	0.689580
C781	C78	0.003720	0.395140	0.652070
C791	C79	0.073100	0.306050	0.654400
C801	C80	0.030090	0.269160	0.636910
Cu411	Cu41	0.584860	0.109180	0.329430
Cu421	Cu42	0.554550	0.046830	0.268420
S411	S41	0.457320	0.031440	0.288740
S421	S42	0.601150	0.169030	0.316920
N1611	N161	0.519970	0.069540	0.303610
N1621	N162	0.531560	0.097150	0.327800
N1631	N163	0.473850	0.084900	0.337870
H1211	H121	0.452200	0.086000	0.346900
N1641	N164	0.502420	0.131260	0.374650
H1221	H122	0.521400	0.144400	0.379100
H1231	H123	0.482700	0.134600	0.386900
N1651	N165	0.574410	0.195920	0.381570
N1661	N166	0.546610	0.219600	0.392610
N1671	N167	0.545870	0.215740	0.333400
H1241	H124	0.539800	0.219300	0.311000
N1681	N168	0.502210	0.254860	0.361170
H1251	H125	0.493600	0.264400	0.380800
H1261	H126	0.493100	0.260600	0.340300
C811	C81	0.485720	0.062880	0.310420
C821	C82	0.503720	0.104860	0.347930
C831	C83	0.573100	0.193950	0.345600
C841	C84	0.530090	0.230840	0.363090
Cu431	Cu43	0.584860	0.609180	0.829430
Cu441	Cu44	0.554550	0.546830	0.768420
S431	S43	0.457320	0.531440	0.788740
S441	S44	0.601150	0.669030	0.816920
N1691	N169	0.519970	0.569540	0.803610
N1701	N170	0.531560	0.597150	0.827800
N1711	N171	0.473850	0.584900	0.837870
H1271	H127	0.452200	0.586000	0.846900
N1721	N172	0.502420	0.631260	0.874650
H1281	H128	0.521400	0.644400	0.879100
H1291	H129	0.482700	0.634600	0.886900
N1731	N173	0.574410	0.695920	0.881570
N1741	N174	0.546610	0.719600	0.892610
N1751	N175	0.545870	0.715740	0.833400
H1301	H130	0.539800	0.719300	0.811000
N1761	N176	0.502210	0.754860	0.861170
H1311	H131	0.493600	0.764400	0.880800
H1321	H132	0.493100	0.760600	0.840300
C851	C85	0.485720	0.562880	0.810420
C861	C86	0.503720	0.604860	0.847930
C871	C87	0.573100	0.693950	0.845600
C881	C88	0.530090	0.730840	0.863090
Cu451	Cu45	0.084860	0.109180	0.829430
Cu461	Cu46	0.054550	0.046830	0.768420
S451	S45	0.957320	0.031440	0.788740
S461	S46	0.101150	0.169030	0.816920
N1771	N177	0.019970	0.069540	0.803610
N1781	N178	0.031560	0.097150	0.827800
N1791	N179	0.973850	0.084900	0.837870
H1331	H133	0.952200	0.086000	0.846900
N1801	N180	0.002420	0.131260	0.874650
H1341	H134	0.021400	0.144400	0.879100
H1351	H135	0.982700	0.134600	0.886900
N1811	N181	0.074410	0.195920	0.881570
N1821	N182	0.046610	0.219600	0.892610
N1831	N183	0.045870	0.215740	0.833400
H1361	H136	0.039800	0.219300	0.811000
N1841	N184	0.002210	0.254860	0.861170
H1371	H137	0.993600	0.264400	0.880800
H1381	H138	0.993100	0.260600	0.840300
C891	C89	0.985720	0.062880	0.810420
C901	C90	0.003720	0.104860	0.847930
C911	C91	0.073100	0.193950	0.845600
C921	C92	0.030090	0.230840	0.863090
Cu471	Cu47	0.084860	0.609180	0.329430
Cu481	Cu48	0.054550	0.546830	0.268420
S471	S47	0.957320	0.531440	0.288740
S481	S48	0.101150	0.669030	0.316920
N1851	N185	0.019970	0.569540	0.303610
N1861	N186	0.031560	0.597150	0.327800
N1871	N187	0.973850	0.584900	0.337870
H1391	H139	0.952200	0.586000	0.346900
N1881	N188	0.002420	0.631260	0.374650
H1401	H140	0.021400	0.644400	0.379100
H1411	H141	0.982700	0.634600	0.386900
N1891	N189	0.074410	0.695920	0.381570
N1901	N190	0.046610	0.719600	0.392610
N1911	N191	0.045870	0.715740	0.333400
H1421	H142	0.039800	0.719300	0.311000
N1921	N192	0.002210	0.754860	0.361170
H1431	H143	0.993600	0.764400	0.380800
H1441	H144	0.993100	0.760600	0.340300
C931	C93	0.985720	0.562880	0.310420
C941	C94	0.003720	0.604860	0.347930
C951	C95	0.073100	0.693950	0.345600
C961	C96	0.030090	0.730840	0.363090
Cu491	Cu49	0.415140	0.109180	0.670570
Cu501	Cu50	0.445450	0.046830	0.731580
S491	S49	0.542680	0.031440	0.711260
S501	S50	0.398850	0.169030	0.683080
N1931	N193	0.480030	0.069540	0.696390
N1941	N194	0.468440	0.097150	0.672200
N1951	N195	0.526150	0.084900	0.662130
H1451	H145	0.547800	0.086000	0.653100
N1961	N196	0.497580	0.131260	0.625350
H1461	H146	0.478600	0.144400	0.620900
H1471	H147	0.517300	0.134600	0.613100
N1971	N197	0.425590	0.195920	0.618430
N1981	N198	0.453390	0.219600	0.607390
N1991	N199	0.454130	0.215740	0.666600
H1481	H148	0.460200	0.219300	0.689000
N2001	N200	0.497790	0.254860	0.638830
H1491	H149	0.506400	0.264400	0.619200
H1501	H150	0.506900	0.260600	0.659700
C971	C97	0.514280	0.062880	0.689580
C981	C98	0.496280	0.104860	0.652070
C991	C99	0.426900	0.193950	0.654400
C1001	C100	0.469910	0.230840	0.636910
Cu511	Cu51	0.415140	0.609180	0.170570
Cu521	Cu52	0.445450	0.546830	0.231580
S511	S51	0.542680	0.531440	0.211260
S521	S52	0.398850	0.669030	0.183080
N2011	N201	0.480030	0.569540	0.196390
N2021	N202	0.468440	0.597150	0.172200
N2031	N203	0.526150	0.584900	0.162130
H1511	H151	0.547800	0.586000	0.153100
N2041	N204	0.497580	0.631260	0.125350
H1521	H152	0.478600	0.644400	0.120900
H1531	H153	0.517300	0.634600	0.113100
N2051	N205	0.425590	0.695920	0.118430
N2061	N206	0.453390	0.719600	0.107390
N2071	N207	0.454130	0.715740	0.166600
H1541	H154	0.460200	0.719300	0.189000
N2081	N208	0.497790	0.754860	0.138830
H1551	H155	0.506400	0.764400	0.119200
H1561	H156	0.506900	0.760600	0.159700
C1011	C101	0.514280	0.562880	0.189580
C1021	C102	0.496280	0.604860	0.152070
C1031	C103	0.426900	0.693950	0.154400
C1041	C104	0.469910	0.730840	0.136910
Cu531	Cu53	0.915140	0.109180	0.170570
Cu541	Cu54	0.945450	0.046830	0.231580
S531	S53	0.042680	0.031440	0.211260
S541	S54	0.898850	0.169030	0.183080
N2091	N209	0.980030	0.069540	0.196390
N2101	N210	0.968440	0.097150	0.172200
N2111	N211	0.026150	0.084900	0.162130
H1571	H157	0.047800	0.086000	0.153100
N2121	N212	0.997580	0.131260	0.125350
H1581	H158	0.978600	0.144400	0.120900
H1591	H159	0.017300	0.134600	0.113100
N2131	N213	0.925590	0.195920	0.118430
N2141	N214	0.953390	0.219600	0.107390
N2151	N215	0.954130	0.215740	0.166600
H1601	H160	0.960200	0.219300	0.189000
N2161	N216	0.997790	0.254860	0.138830
H1611	H161	0.006400	0.264400	0.119200
H1621	H162	0.006900	0.260600	0.159700
C1051	C105	0.014280	0.062880	0.189580
C1061	C106	0.996280	0.104860	0.152070
C1071	C107	0.926900	0.193950	0.154400
C1081	C108	0.969910	0.230840	0.136910
Cu551	Cu55	0.915140	0.609180	0.670570
Cu561	Cu56	0.945450	0.546830	0.731580
S551	S55	0.042680	0.531440	0.711260
S561	S56	0.898850	0.669030	0.683080
N2171	N217	0.980030	0.569540	0.696390
N2181	N218	0.968440	0.597150	0.672200
N2191	N219	0.026150	0.584900	0.662130
H1631	H163	0.047800	0.586000	0.653100
N2201	N220	0.997580	0.631260	0.625350
H1641	H164	0.978600	0.644400	0.620900
H1651	H165	0.017300	0.634600	0.613100
N2211	N221	0.925590	0.695920	0.618430
N2221	N222	0.953390	0.719600	0.607390
N2231	N223	0.954130	0.715740	0.666600
H1661	H166	0.960200	0.719300	0.689000
N2241	N224	0.997790	0.754860	0.638830
H1671	H167	0.006400	0.764400	0.619200
H1681	H168	0.006900	0.760600	0.659700
C1091	C109	0.014280	0.562880	0.689580
C1101	C110	0.996280	0.604860	0.652070
C1111	C111	0.926900	0.693950	0.654400
C1121	C112	0.969910	0.730840	0.636910
Cu571	Cu57	0.415140	0.890820	0.329430
Cu581	Cu58	0.445450	0.953170	0.268420
S571	S57	0.542680	0.968560	0.288740
S581	S58	0.398850	0.830970	0.316920
N2251	N225	0.480030	0.930460	0.303610
N2261	N226	0.468440	0.902850	0.327800
N2271	N227	0.526150	0.915100	0.337870
H1691	H169	0.547800	0.914000	0.346900
N2281	N228	0.497580	0.868740	0.374650
H1701	H170	0.478600	0.855600	0.379100
H1711	H171	0.517300	0.865400	0.386900
N2291	N229	0.425590	0.804080	0.381570
N2301	N230	0.453390	0.780400	0.392610
N2311	N231	0.454130	0.784260	0.333400
H1721	H172	0.460200	0.780700	0.311000
N2321	N232	0.497790	0.745140	0.361170
H1731	H173	0.506400	0.735600	0.380800
H1741	H174	0.506900	0.739400	0.340300
C1131	C113	0.514280	0.937120	0.310420
C1141	C114	0.496280	0.895140	0.347930
C1151	C115	0.426900	0.806050	0.345600
C1161	C116	0.469910	0.769160	0.363090
Cu591	Cu59	0.415140	0.390820	0.829430
Cu601	Cu60	0.445450	0.453170	0.768420
S591	S59	0.542680	0.468560	0.788740
S601	S60	0.398850	0.330970	0.816920
N2331	N233	0.480030	0.430460	0.803610
N2341	N234	0.468440	0.402850	0.827800
N2351	N235	0.526150	0.415100	0.837870
H1751	H175	0.547800	0.414000	0.846900
N2361	N236	0.497580	0.368740	0.874650
H1761	H176	0.478600	0.355600	0.879100
H1771	H177	0.517300	0.365400	0.886900
N2371	N237	0.425590	0.304080	0.881570
N2381	N238	0.453390	0.280400	0.892610
N2391	N239	0.454130	0.284260	0.833400
H1781	H178	0.460200	0.280700	0.811000
N2401	N240	0.497790	0.245140	0.861170
H1791	H179	0.506400	0.235600	0.880800
H1801	H180	0.506900	0.239400	0.840300
C1171	C117	0.514280	0.437120	0.810420
C1181	C118	0.496280	0.395140	0.847930
C1191	C119	0.426900	0.306050	0.845600
C1201	C120	0.469910	0.269160	0.863090
Cu611	Cu61	0.915140	0.890820	0.829430
Cu621	Cu62	0.945450	0.953170	0.768420
S611	S61	0.042680	0.968560	0.788740
S621	S62	0.898850	0.830970	0.816920
N2411	N241	0.980030	0.930460	0.803610
N2421	N242	0.968440	0.902850	0.827800
N2431	N243	0.026150	0.915100	0.837870
H1811	H181	0.047800	0.914000	0.846900
N2441	N244	0.997580	0.868740	0.874650
H1821	H182	0.978600	0.855600	0.879100
H1831	H183	0.017300	0.865400	0.886900
N2451	N245	0.925590	0.804080	0.881570
N2461	N246	0.953390	0.780400	0.892610
N2471	N247	0.954130	0.784260	0.833400
H1841	H184	0.960200	0.780700	0.811000
N2481	N248	0.997790	0.745140	0.861170
H1851	H185	0.006400	0.735600	0.880800
H1861	H186	0.006900	0.739400	0.840300
C1211	C121	0.014280	0.937120	0.810420
C1221	C122	0.996280	0.895140	0.847930
C1231	C123	0.926900	0.806050	0.845600
C1241	C124	0.969910	0.769160	0.863090
Cu631	Cu63	0.915140	0.390820	0.329430
Cu641	Cu64	0.945450	0.453170	0.268420
S631	S63	0.042680	0.468560	0.288740
S641	S64	0.898850	0.330970	0.316920
N2491	N249	0.980030	0.430460	0.303610
N2501	N250	0.968440	0.402850	0.327800
N2511	N251	0.026150	0.415100	0.337870
H1871	H187	0.047800	0.414000	0.346900
N2521	N252	0.997580	0.368740	0.374650
H1881	H188	0.978600	0.355600	0.379100
H1891	H189	0.017300	0.365400	0.386900
N2531	N253	0.925590	0.304080	0.381570
N2541	N254	0.953390	0.280400	0.392610
N2551	N255	0.954130	0.284260	0.333400
H1901	H190	0.960200	0.280700	0.311000
N2561	N256	0.997790	0.245140	0.361170
H1911	H191	0.006400	0.235600	0.380800
H1921	H192	0.006900	0.239400	0.340300
C1251	C125	0.014280	0.437120	0.310420
C1261	C126	0.996280	0.395140	0.347930
C1271	C127	0.926900	0.306050	0.345600
C1281	C128	0.969910	0.269160	0.363090
Cu651	Cu65	0.670570	0.584860	0.890820
Cu661	Cu66	0.731580	0.554550	0.953170
S651	S65	0.711260	0.457320	0.968560
S661	S66	0.683080	0.601150	0.830970
N2571	N257	0.696390	0.519970	0.930460
N2581	N258	0.672200	0.531560	0.902850
N2591	N259	0.662130	0.473850	0.915100
H1931	H193	0.653100	0.452200	0.914000
N2601	N260	0.625350	0.502420	0.868740
H1941	H194	0.620900	0.521400	0.855600
H1951	H195	0.613100	0.482700	0.865400
N2611	N261	0.618430	0.574410	0.804080
N2621	N262	0.607390	0.546610	0.780400
N2631	N263	0.666600	0.545870	0.784260
H1961	H196	0.689000	0.539800	0.780700
N2641	N264	0.638830	0.502210	0.745140
H1971	H197	0.619200	0.493600	0.735600
H1981	H198	0.659700	0.493100	0.739400
C1291	C129	0.689580	0.485720	0.937120
C1301	C130	0.652070	0.503720	0.895140
C1311	C131	0.654400	0.573100	0.806050
C1321	C132	0.636910	0.530090	0.769160
Cu671	Cu67	0.670570	0.084860	0.390820
Cu681	Cu68	0.731580	0.054550	0.453170
S671	S67	0.711260	0.957320	0.468560
S681	S68	0.683080	0.101150	0.330970
N2651	N265	0.696390	0.019970	0.430460
N2661	N266	0.672200	0.031560	0.402850
N2671	N267	0.662130	0.973850	0.415100
H1991	H199	0.653100	0.952200	0.414000
N2681	N268	0.625350	0.002420	0.368740
H2001	H200	0.620900	0.021400	0.355600
H2011	H201	0.613100	0.982700	0.365400
N2691	N269	0.618430	0.074410	0.304080
N2701	N270	0.607390	0.046610	0.280400
N2711	N271	0.666600	0.045870	0.284260
H2021	H202	0.689000	0.039800	0.280700
N2721	N272	0.638830	0.002210	0.245140
H2031	H203	0.619200	0.993600	0.235600
H2041	H204	0.659700	0.993100	0.239400
C1331	C133	0.689580	0.985720	0.437120
C1341	C134	0.652070	0.003720	0.395140
C1351	C135	0.654400	0.073100	0.306050
C1361	C136	0.636910	0.030090	0.269160
Cu691	Cu69	0.170570	0.584860	0.390820
Cu701	Cu70	0.231580	0.554550	0.453170
S691	S69	0.211260	0.457320	0.468560
S701	S70	0.183080	0.601150	0.330970
N2731	N273	0.196390	0.519970	0.430460
N2741	N274	0.172200	0.531560	0.402850
N2751	N275	0.162130	0.473850	0.415100
H2051	H205	0.153100	0.452200	0.414000
N2761	N276	0.125350	0.502420	0.368740
H2061	H206	0.120900	0.521400	0.355600
H2071	H207	0.113100	0.482700	0.365400
N2771	N277	0.118430	0.574410	0.304080
N2781	N278	0.107390	0.546610	0.280400
N2791	N279	0.166600	0.545870	0.284260
H2081	H208	0.189000	0.539800	0.280700
N2801	N280	0.138830	0.502210	0.245140
H2091	H209	0.119200	0.493600	0.235600
H2101	H210	0.159700	0.493100	0.239400
C1371	C137	0.189580	0.485720	0.437120
C1381	C138	0.152070	0.503720	0.395140
C1391	C139	0.154400	0.573100	0.306050
C1401	C140	0.136910	0.530090	0.269160
Cu711	Cu71	0.170570	0.084860	0.890820
Cu721	Cu72	0.231580	0.054550	0.953170
S711	S71	0.211260	0.957320	0.968560
S721	S72	0.183080	0.101150	0.830970
N2811	N281	0.196390	0.019970	0.930460
N2821	N282	0.172200	0.031560	0.902850
N2831	N283	0.162130	0.973850	0.915100
H2111	H211	0.153100	0.952200	0.914000
N2841	N284	0.125350	0.002420	0.868740
H2121	H212	0.120900	0.021400	0.855600
H2131	H213	0.113100	0.982700	0.865400
N2851	N285	0.118430	0.074410	0.804080
N2861	N286	0.107390	0.046610	0.780400
N2871	N287	0.166600	0.045870	0.784260
H2141	H214	0.189000	0.039800	0.780700
N2881	N288	0.138830	0.002210	0.745140
H2151	H215	0.119200	0.993600	0.735600
H2161	H216	0.159700	0.993100	0.739400
C1411	C141	0.189580	0.985720	0.937120
C1421	C142	0.152070	0.003720	0.895140
C1431	C143	0.154400	0.073100	0.806050
C1441	C144	0.136910	0.030090	0.769160
Cu731	Cu73	0.329430	0.584860	0.109180
Cu741	Cu74	0.268420	0.554550	0.046830
S731	S73	0.288740	0.457320	0.031440
S741	S74	0.316920	0.601150	0.169030
N2891	N289	0.303610	0.519970	0.069540
N2901	N290	0.327800	0.531560	0.097150
N2911	N291	0.337870	0.473850	0.084900
H2171	H217	0.346900	0.452200	0.086000
N2921	N292	0.374650	0.502420	0.131260
H2181	H218	0.379100	0.521400	0.144400
H2191	H219	0.386900	0.482700	0.134600
N2931	N293	0.381570	0.574410	0.195920
N2941	N294	0.392610	0.546610	0.219600
N2951	N295	0.333400	0.545870	0.215740
H2201	H220	0.311000	0.539800	0.219300
N2961	N296	0.361170	0.502210	0.254860
H2211	H221	0.380800	0.493600	0.264400
H2221	H222	0.340300	0.493100	0.260600
C1451	C145	0.310420	0.485720	0.062880
C1461	C146	0.347930	0.503720	0.104860
C1471	C147	0.345600	0.573100	0.193950
C1481	C148	0.363090	0.530090	0.230840
Cu751	Cu75	0.329430	0.084860	0.609180
Cu761	Cu76	0.268420	0.054550	0.546830
S751	S75	0.288740	0.957320	0.531440
S761	S76	0.316920	0.101150	0.669030
N2971	N297	0.303610	0.019970	0.569540
N2981	N298	0.327800	0.031560	0.597150
N2991	N299	0.337870	0.973850	0.584900
H2231	H223	0.346900	0.952200	0.586000
N3001	N300	0.374650	0.002420	0.631260
H2241	H224	0.379100	0.021400	0.644400
H2251	H225	0.386900	0.982700	0.634600
N3011	N301	0.381570	0.074410	0.695920
N3021	N302	0.392610	0.046610	0.719600
N3031	N303	0.333400	0.045870	0.715740
H2261	H226	0.311000	0.039800	0.719300
N3041	N304	0.361170	0.002210	0.754860
H2271	H227	0.380800	0.993600	0.764400
H2281	H228	0.340300	0.993100	0.760600
C1491	C149	0.310420	0.985720	0.562880
C1501	C150	0.347930	0.003720	0.604860
C1511	C151	0.345600	0.073100	0.693950
C1521	C152	0.363090	0.030090	0.730840
Cu771	Cu77	0.829430	0.584860	0.609180
Cu781	Cu78	0.768420	0.554550	0.546830
S771	S77	0.788740	0.457320	0.531440
S781	S78	0.816920	0.601150	0.669030
N3051	N305	0.803610	0.519970	0.569540
N3061	N306	0.827800	0.531560	0.597150
N3071	N307	0.837870	0.473850	0.584900
H2291	H229	0.846900	0.452200	0.586000
N3081	N308	0.874650	0.502420	0.631260
H2301	H230	0.879100	0.521400	0.644400
H2311	H231	0.886900	0.482700	0.634600
N3091	N309	0.881570	0.574410	0.695920
N3101	N310	0.892610	0.546610	0.719600
N3111	N311	0.833400	0.545870	0.715740
H2321	H232	0.811000	0.539800	0.719300
N3121	N312	0.861170	0.502210	0.754860
H2331	H233	0.880800	0.493600	0.764400
H2341	H234	0.840300	0.493100	0.760600
C1531	C153	0.810420	0.485720	0.562880
C1541	C154	0.847930	0.503720	0.604860
C1551	C155	0.845600	0.573100	0.693950
C1561	C156	0.863090	0.530090	0.730840
Cu791	Cu79	0.829430	0.084860	0.109180
Cu801	Cu80	0.768420	0.054550	0.046830
S791	S79	0.788740	0.957320	0.031440
S801	S80	0.816920	0.101150	0.169030
N3131	N313	0.803610	0.019970	0.069540
N3141	N314	0.827800	0.031560	0.097150
N3151	N315	0.837870	0.973850	0.084900
H2351	H235	0.846900	0.952200	0.086000
N3161	N316	0.874650	0.002420	0.131260
H2361	H236	0.879100	0.021400	0.144400
H2371	H237	0.886900	0.982700	0.134600
N3171	N317	0.881570	0.074410	0.195920
N3181	N318	0.892610	0.046610	0.219600
N3191	N319	0.833400	0.045870	0.215740
H2381	H238	0.811000	0.039800	0.219300
N3201	N320	0.861170	0.002210	0.254860
H2391	H239	0.880800	0.993600	0.264400
H2401	H240	0.840300	0.993100	0.260600
C1571	C157	0.810420	0.985720	0.062880
C1581	C158	0.847930	0.003720	0.104860
C1591	C159	0.845600	0.073100	0.193950
C1601	C160	0.863090	0.030090	0.230840
Cu811	Cu81	0.670570	0.415140	0.109180
Cu821	Cu82	0.731580	0.445450	0.046830
S811	S81	0.711260	0.542680	0.031440
S821	S82	0.683080	0.398850	0.169030
N3211	N321	0.696390	0.480030	0.069540
N3221	N322	0.672200	0.468440	0.097150
N3231	N323	0.662130	0.526150	0.084900
H2411	H241	0.653100	0.547800	0.086000
N3241	N324	0.625350	0.497580	0.131260
H2421	H242	0.620900	0.478600	0.144400
H2431	H243	0.613100	0.517300	0.134600
N3251	N325	0.618430	0.425590	0.195920
N3261	N326	0.607390	0.453390	0.219600
N3271	N327	0.666600	0.454130	0.215740
H2441	H244	0.689000	0.460200	0.219300
N3281	N328	0.638830	0.497790	0.254860
H2451	H245	0.619200	0.506400	0.264400
H2461	H246	0.659700	0.506900	0.260600
C1611	C161	0.689580	0.514280	0.062880
C1621	C162	0.652070	0.496280	0.104860
C1631	C163	0.654400	0.426900	0.193950
C1641	C164	0.636910	0.469910	0.230840
Cu831	Cu83	0.670570	0.915140	0.609180
Cu841	Cu84	0.731580	0.945450	0.546830
S831	S83	0.711260	0.042680	0.531440
S841	S84	0.683080	0.898850	0.669030
N3291	N329	0.696390	0.980030	0.569540
N3301	N330	0.672200	0.968440	0.597150
N3311	N331	0.662130	0.026150	0.584900
H2471	H247	0.653100	0.047800	0.586000
N3321	N332	0.625350	0.997580	0.631260
H2481	H248	0.620900	0.978600	0.644400
H2491	H249	0.613100	0.017300	0.634600
N3331	N333	0.618430	0.925590	0.695920
N3341	N334	0.607390	0.953390	0.719600
N3351	N335	0.666600	0.954130	0.715740
H2501	H250	0.689000	0.960200	0.719300
N3361	N336	0.638830	0.997790	0.754860
H2511	H251	0.619200	0.006400	0.764400
H2521	H252	0.659700	0.006900	0.760600
C1651	C165	0.689580	0.014280	0.562880
C1661	C166	0.652070	0.996280	0.604860
C1671	C167	0.654400	0.926900	0.693950
C1681	C168	0.636910	0.969910	0.730840
Cu851	Cu85	0.170570	0.415140	0.609180
Cu861	Cu86	0.231580	0.445450	0.546830
S851	S85	0.211260	0.542680	0.531440
S861	S86	0.183080	0.398850	0.669030
N3371	N337	0.196390	0.480030	0.569540
N3381	N338	0.172200	0.468440	0.597150
N3391	N339	0.162130	0.526150	0.584900
H2531	H253	0.153100	0.547800	0.586000
N3401	N340	0.125350	0.497580	0.631260
H2541	H254	0.120900	0.478600	0.644400
H2551	H255	0.113100	0.517300	0.634600
N3411	N341	0.118430	0.425590	0.695920
N3421	N342	0.107390	0.453390	0.719600
N3431	N343	0.166600	0.454130	0.715740
H2561	H256	0.189000	0.460200	0.719300
N3441	N344	0.138830	0.497790	0.754860
H2571	H257	0.119200	0.506400	0.764400
H2581	H258	0.159700	0.506900	0.760600
C1691	C169	0.189580	0.514280	0.562880
C1701	C170	0.152070	0.496280	0.604860
C1711	C171	0.154400	0.426900	0.693950
C1721	C172	0.136910	0.469910	0.730840
Cu871	Cu87	0.170570	0.915140	0.109180
Cu881	Cu88	0.231580	0.945450	0.046830
S871	S87	0.211260	0.042680	0.031440
S881	S88	0.183080	0.898850	0.169030
N3451	N345	0.196390	0.980030	0.069540
N3461	N346	0.172200	0.968440	0.097150
N3471	N347	0.162130	0.026150	0.084900
H2591	H259	0.153100	0.047800	0.086000
N3481	N348	0.125350	0.997580	0.131260
H2601	H260	0.120900	0.978600	0.144400
H2611	H261	0.113100	0.017300	0.134600
N3491	N349	0.118430	0.925590	0.195920
N3501	N350	0.107390	0.953390	0.219600
N3511	N351	0.166600	0.954130	0.215740
H2621	H262	0.189000	0.960200	0.219300
N3521	N352	0.138830	0.997790	0.254860
H2631	H263	0.119200	0.006400	0.264400
H2641	H264	0.159700	0.006900	0.260600
C1731	C173	0.189580	0.014280	0.062880
C1741	C174	0.152070	0.996280	0.104860
C1751	C175	0.154400	0.926900	0.193950
C1761	C176	0.136910	0.969910	0.230840
Cu891	Cu89	0.329430	0.415140	0.890820
Cu901	Cu90	0.268420	0.445450	0.953170
S891	S89	0.288740	0.542680	0.968560
S901	S90	0.316920	0.398850	0.830970
N3531	N353	0.303610	0.480030	0.930460
N3541	N354	0.327800	0.468440	0.902850
N3551	N355	0.337870	0.526150	0.915100
H2651	H265	0.346900	0.547800	0.914000
N3561	N356	0.374650	0.497580	0.868740
H2661	H266	0.379100	0.478600	0.855600
H2671	H267	0.386900	0.517300	0.865400
N3571	N357	0.381570	0.425590	0.804080
N3581	N358	0.392610	0.453390	0.780400
N3591	N359	0.333400	0.454130	0.784260
H2681	H268	0.311000	0.460200	0.780700
N3601	N360	0.361170	0.497790	0.745140
H2691	H269	0.380800	0.506400	0.735600
H2701	H270	0.340300	0.506900	0.739400
C1771	C177	0.310420	0.514280	0.937120
C1781	C178	0.347930	0.496280	0.895140
C1791	C179	0.345600	0.426900	0.806050
C1801	C180	0.363090	0.469910	0.769160
Cu911	Cu91	0.329430	0.915140	0.390820
Cu921	Cu92	0.268420	0.945450	0.453170
S911	S91	0.288740	0.042680	0.468560
S921	S92	0.316920	0.898850	0.330970
N3611	N361	0.303610	0.980030	0.430460
N3621	N362	0.327800	0.968440	0.402850
N3631	N363	0.337870	0.026150	0.415100
H2711	H271	0.346900	0.047800	0.414000
N3641	N364	0.374650	0.997580	0.368740
H2721	H272	0.379100	0.978600	0.355600
H2731	H273	0.386900	0.017300	0.365400
N3651	N365	0.381570	0.925590	0.304080
N3661	N366	0.392610	0.953390	0.280400
N3671	N367	0.333400	0.954130	0.284260
H2741	H274	0.311000	0.960200	0.280700
N3681	N368	0.361170	0.997790	0.245140
H2751	H275	0.380800	0.006400	0.235600
H2761	H276	0.340300	0.006900	0.239400
C1811	C181	0.310420	0.014280	0.437120
C1821	C182	0.347930	0.996280	0.395140
C1831	C183	0.345600	0.926900	0.306050
C1841	C184	0.363090	0.969910	0.269160
Cu931	Cu93	0.829430	0.415140	0.390820
Cu941	Cu94	0.768420	0.445450	0.453170
S931	S93	0.788740	0.542680	0.468560
S941	S94	0.816920	0.398850	0.330970
N3691	N369	0.803610	0.480030	0.430460
N3701	N370	0.827800	0.468440	0.402850
N3711	N371	0.837870	0.526150	0.415100
H2771	H277	0.846900	0.547800	0.414000
N3721	N372	0.874650	0.497580	0.368740
H2781	H278	0.879100	0.478600	0.355600
H2791	H279	0.886900	0.517300	0.365400
N3731	N373	0.881570	0.425590	0.304080
N3741	N374	0.892610	0.453390	0.280400
N3751	N375	0.833400	0.454130	0.284260
H2801	H280	0.811000	0.460200	0.280700
N3761	N376	0.861170	0.497790	0.245140
H2811	H281	0.880800	0.506400	0.235600
H2821	H282	0.840300	0.506900	0.239400
C1851	C185	0.810420	0.514280	0.437120
C1861	C186	0.847930	0.496280	0.395140
C1871	C187	0.845600	0.426900	0.306050
C1881	C188	0.863090	0.469910	0.269160
Cu951	Cu95	0.829430	0.915140	0.890820
Cu961	Cu96	0.768420	0.945450	0.953170
S951	S95	0.788740	0.042680	0.968560
S961	S96	0.816920	0.898850	0.830970
N3771	N377	0.803610	0.980030	0.930460
N3781	N378	0.827800	0.968440	0.902850
N3791	N379	0.837870	0.026150	0.915100
H2831	H283	0.846900	0.047800	0.914000
N3801	N380	0.874650	0.997580	0.868740
H2841	H284	0.879100	0.978600	0.855600
H2851	H285	0.886900	0.017300	0.865400
N3811	N381	0.881570	0.925590	0.804080
N3821	N382	0.892610	0.953390	0.780400
N3831	N383	0.833400	0.954130	0.784260
H2861	H286	0.811000	0.960200	0.780700
N3841	N384	0.861170	0.997790	0.745140
H2871	H287	0.880800	0.006400	0.735600
H2881	H288	0.840300	0.006900	0.739400
C1891	C189	0.810420	0.014280	0.937120
C1901	C190	0.847930	0.996280	0.895140
C1911	C191	0.845600	0.926900	0.806050
C1921	C192	0.863090	0.969910	0.769160
Cu971	Cu97	0.170570	0.390820	0.084860
Cu981	Cu98	0.231580	0.453170	0.054550
S971	S97	0.211260	0.468560	0.957320
S981	S98	0.183080	0.330970	0.101150
N3851	N385	0.196390	0.430460	0.019970
N3861	N386	0.172200	0.402850	0.031560
N3871	N387	0.162130	0.415100	0.973850
H2891	H289	0.153100	0.414000	0.952200
N3881	N388	0.125350	0.368740	0.002420
H2901	H290	0.120900	0.355600	0.021400
H2911	H291	0.113100	0.365400	0.982700
N3891	N389	0.118430	0.304080	0.074410
N3901	N390	0.107390	0.280400	0.046610
N3911	N391	0.166600	0.284260	0.045870
H2921	H292	0.189000	0.280700	0.039800
N3921	N392	0.138830	0.245140	0.002210
H2931	H293	0.119200	0.235600	0.993600
H2941	H294	0.159700	0.239400	0.993100
C1931	C193	0.189580	0.437120	0.985720
C1941	C194	0.152070	0.395140	0.003720
C1951	C195	0.154400	0.306050	0.073100
C1961	C196	0.136910	0.269160	0.030090
Cu991	Cu99	0.170570	0.890820	0.584860
Cu1001	Cu100	0.231580	0.953170	0.554550
S991	S99	0.211260	0.968560	0.457320
S1001	S100	0.183080	0.830970	0.601150
N3931	N393	0.196390	0.930460	0.519970
N3941	N394	0.172200	0.902850	0.531560
N3951	N395	0.162130	0.915100	0.473850
H2951	H295	0.153100	0.914000	0.452200
N3961	N396	0.125350	0.868740	0.502420
H2961	H296	0.120900	0.855600	0.521400
H2971	H297	0.113100	0.865400	0.482700
N3971	N397	0.118430	0.804080	0.574410
N3981	N398	0.107390	0.780400	0.546610
N3991	N399	0.166600	0.784260	0.545870
H2981	H298	0.189000	0.780700	0.539800
N4001	N400	0.138830	0.745140	0.502210
H2991	H299	0.119200	0.735600	0.493600
H3001	H300	0.159700	0.739400	0.493100
C1971	C197	0.189580	0.937120	0.485720
C1981	C198	0.152070	0.895140	0.503720
C1991	C199	0.154400	0.806050	0.573100
C2001	C200	0.136910	0.769160	0.530090
Cu1011	Cu101	0.670570	0.390820	0.584860
Cu1021	Cu102	0.731580	0.453170	0.554550
S1011	S101	0.711260	0.468560	0.457320
S1021	S102	0.683080	0.330970	0.601150
N4011	N401	0.696390	0.430460	0.519970
N4021	N402	0.672200	0.402850	0.531560
N4031	N403	0.662130	0.415100	0.473850
H3011	H301	0.653100	0.414000	0.452200
N4041	N404	0.625350	0.368740	0.502420
H3021	H302	0.620900	0.355600	0.521400
H3031	H303	0.613100	0.365400	0.482700
N4051	N405	0.618430	0.304080	0.574410
N4061	N406	0.607390	0.280400	0.546610
N4071	N407	0.666600	0.284260	0.545870
H3041	H304	0.689000	0.280700	0.539800
N4081	N408	0.638830	0.245140	0.502210
H3051	H305	0.619200	0.235600	0.493600
H3061	H306	0.659700	0.239400	0.493100
C2011	C201	0.689580	0.437120	0.485720
C2021	C202	0.652070	0.395140	0.503720
C2031	C203	0.654400	0.306050	0.573100
C2041	C204	0.636910	0.269160	0.530090
Cu1031	Cu103	0.670570	0.890820	0.084860
Cu1041	Cu104	0.731580	0.953170	0.054550
S1031	S103	0.711260	0.968560	0.957320
S1041	S104	0.683080	0.830970	0.101150
N4091	N409	0.696390	0.930460	0.019970
N4101	N410	0.672200	0.902850	0.031560
N4111	N411	0.662130	0.915100	0.973850
H3071	H307	0.653100	0.914000	0.952200
N4121	N412	0.625350	0.868740	0.002420
H3081	H308	0.620900	0.855600	0.021400
H3091	H309	0.613100	0.865400	0.982700
N4131	N413	0.618430	0.804080	0.074410
N4141	N414	0.607390	0.780400	0.046610
N4151	N415	0.666600	0.784260	0.045870
H3101	H310	0.689000	0.780700	0.039800
N4161	N416	0.638830	0.745140	0.002210
H3111	H311	0.619200	0.735600	0.993600
H3121	H312	0.659700	0.739400	0.993100
C2051	C205	0.689580	0.937120	0.985720
C2061	C206	0.652070	0.895140	0.003720
C2071	C207	0.654400	0.806050	0.073100
C2081	C208	0.636910	0.769160	0.030090
Cu1051	Cu105	0.829430	0.609180	0.084860
Cu1061	Cu106	0.768420	0.546830	0.054550
S1051	S105	0.788740	0.531440	0.957320
S1061	S106	0.816920	0.669030	0.101150
N4171	N417	0.803610	0.569540	0.019970
N4181	N418	0.827800	0.597150	0.031560
N4191	N419	0.837870	0.584900	0.973850
H3131	H313	0.846900	0.586000	0.952200
N4201	N420	0.874650	0.631260	0.002420
H3141	H314	0.879100	0.644400	0.021400
H3151	H315	0.886900	0.634600	0.982700
N4211	N421	0.881570	0.695920	0.074410
N4221	N422	0.892610	0.719600	0.046610
N4231	N423	0.833400	0.715740	0.045870
H3161	H316	0.811000	0.719300	0.039800
N4241	N424	0.861170	0.754860	0.002210
H3171	H317	0.880800	0.764400	0.993600
H3181	H318	0.840300	0.760600	0.993100
C2091	C209	0.810420	0.562880	0.985720
C2101	C210	0.847930	0.604860	0.003720
C2111	C211	0.845600	0.693950	0.073100
C2121	C212	0.863090	0.730840	0.030090
Cu1071	Cu107	0.829430	0.109180	0.584860
Cu1081	Cu108	0.768420	0.046830	0.554550
S1071	S107	0.788740	0.031440	0.457320
S1081	S108	0.816920	0.169030	0.601150
N4251	N425	0.803610	0.069540	0.519970
N4261	N426	0.827800	0.097150	0.531560
N4271	N427	0.837870	0.084900	0.473850
H3191	H319	0.846900	0.086000	0.452200
N4281	N428	0.874650	0.131260	0.502420
H3201	H320	0.879100	0.144400	0.521400
H3211	H321	0.886900	0.134600	0.482700
N4291	N429	0.881570	0.195920	0.574410
N4301	N430	0.892610	0.219600	0.546610
N4311	N431	0.833400	0.215740	0.545870
H3221	H322	0.811000	0.219300	0.539800
N4321	N432	0.861170	0.254860	0.502210
H3231	H323	0.880800	0.264400	0.493600
H3241	H324	0.840300	0.260600	0.493100
C2131	C213	0.810420	0.062880	0.485720
C2141	C214	0.847930	0.104860	0.503720
C2151	C215	0.845600	0.193950	0.573100
C2161	C216	0.863090	0.230840	0.530090
Cu1091	Cu109	0.329430	0.609180	0.584860
Cu1101	Cu110	0.268420	0.546830	0.554550
S1091	S109	0.288740	0.531440	0.457320
S1101	S110	0.316920	0.669030	0.601150
N4331	N433	0.303610	0.569540	0.519970
N4341	N434	0.327800	0.597150	0.531560
N4351	N435	0.337870	0.584900	0.473850
H3251	H325	0.346900	0.586000	0.452200
N4361	N436	0.374650	0.631260	0.502420
H3261	H326	0.379100	0.644400	0.521400
H3271	H327	0.386900	0.634600	0.482700
N4371	N437	0.381570	0.695920	0.574410
N4381	N438	0.392610	0.719600	0.546610
N4391	N439	0.333400	0.715740	0.545870
H3281	H328	0.311000	0.719300	0.539800
N4401	N440	0.361170	0.754860	0.502210
H3291	H329	0.380800	0.764400	0.493600
H3301	H330	0.340300	0.760600	0.493100
C2171	C217	0.310420	0.562880	0.485720
C2181	C218	0.347930	0.604860	0.503720
C2191	C219	0.345600	0.693950	0.573100
C2201	C220	0.363090	0.730840	0.530090
Cu1111	Cu111	0.329430	0.109180	0.084860
Cu1121	Cu112	0.268420	0.046830	0.054550
S1111	S111	0.288740	0.031440	0.957320
S1121	S112	0.316920	0.169030	0.101150
N4411	N441	0.303610	0.069540	0.019970
N4421	N442	0.327800	0.097150	0.031560
N4431	N443	0.337870	0.084900	0.973850
H3311	H331	0.346900	0.086000	0.952200
N4441	N444	0.374650	0.131260	0.002420
H3321	H332	0.379100	0.144400	0.021400
H3331	H333	0.386900	0.134600	0.982700
N4451	N445	0.381570	0.195920	0.074410
N4461	N446	0.392610	0.219600	0.046610
N4471	N447	0.333400	0.215740	0.045870
H3341	H334	0.311000	0.219300	0.039800
N4481	N448	0.361170	0.254860	0.002210
H3351	H335	0.380800	0.264400	0.993600
H3361	H336	0.340300	0.260600	0.993100
C2211	C221	0.310420	0.062880	0.985720
C2221	C222	0.347930	0.104860	0.003720
C2231	C223	0.345600	0.193950	0.073100
C2241	C224	0.363090	0.230840	0.030090
Cu1131	Cu113	0.170570	0.609180	0.915140
Cu1141	Cu114	0.231580	0.546830	0.945450
S1131	S113	0.211260	0.531440	0.042680
S1141	S114	0.183080	0.669030	0.898850
N4491	N449	0.196390	0.569540	0.980030
N4501	N450	0.172200	0.597150	0.968440
N4511	N451	0.162130	0.584900	0.026150
H3371	H337	0.153100	0.586000	0.047800
N4521	N452	0.125350	0.631260	0.997580
H3381	H338	0.120900	0.644400	0.978600
H3391	H339	0.113100	0.634600	0.017300
N4531	N453	0.118430	0.695920	0.925590
N4541	N454	0.107390	0.719600	0.953390
N4551	N455	0.166600	0.715740	0.954130
H3401	H340	0.189000	0.719300	0.960200
N4561	N456	0.138830	0.754860	0.997790
H3411	H341	0.119200	0.764400	0.006400
H3421	H342	0.159700	0.760600	0.006900
C2251	C225	0.189580	0.562880	0.014280
C2261	C226	0.152070	0.604860	0.996280
C2271	C227	0.154400	0.693950	0.926900
C2281	C228	0.136910	0.730840	0.969910
Cu1151	Cu115	0.170570	0.109180	0.415140
Cu1161	Cu116	0.231580	0.046830	0.445450
S1151	S115	0.211260	0.031440	0.542680
S1161	S116	0.183080	0.169030	0.398850
N4571	N457	0.196390	0.069540	0.480030
N4581	N458	0.172200	0.097150	0.468440
N4591	N459	0.162130	0.084900	0.526150
H3431	H343	0.153100	0.086000	0.547800
N4601	N460	0.125350	0.131260	0.497580
H3441	H344	0.120900	0.144400	0.478600
H3451	H345	0.113100	0.134600	0.517300
N4611	N461	0.118430	0.195920	0.425590
N4621	N462	0.107390	0.219600	0.453390
N4631	N463	0.166600	0.215740	0.454130
H3461	H346	0.189000	0.219300	0.460200
N4641	N464	0.138830	0.254860	0.497790
H3471	H347	0.119200	0.264400	0.506400
H3481	H348	0.159700	0.260600	0.506900
C2291	C229	0.189580	0.062880	0.514280
C2301	C230	0.152070	0.104860	0.496280
C2311	C231	0.154400	0.193950	0.426900
C2321	C232	0.136910	0.230840	0.469910
Cu1171	Cu117	0.670570	0.609180	0.415140
Cu1181	Cu118	0.731580	0.546830	0.445450
S1171	S117	0.711260	0.531440	0.542680
S1181	S118	0.683080	0.669030	0.398850
N4651	N465	0.696390	0.569540	0.480030
N4661	N466	0.672200	0.597150	0.468440
N4671	N467	0.662130	0.584900	0.526150
H3491	H349	0.653100	0.586000	0.547800
N4681	N468	0.625350	0.631260	0.497580
H3501	H350	0.620900	0.644400	0.478600
H3511	H351	0.613100	0.634600	0.517300
N4691	N469	0.618430	0.695920	0.425590
N4701	N470	0.607390	0.719600	0.453390
N4711	N471	0.666600	0.715740	0.454130
H3521	H352	0.689000	0.719300	0.460200
N4721	N472	0.638830	0.754860	0.497790
H3531	H353	0.619200	0.764400	0.506400
H3541	H354	0.659700	0.760600	0.506900
C2331	C233	0.689580	0.562880	0.514280
C2341	C234	0.652070	0.604860	0.496280
C2351	C235	0.654400	0.693950	0.426900
C2361	C236	0.636910	0.730840	0.469910
Cu1191	Cu119	0.670570	0.109180	0.915140
Cu1201	Cu120	0.731580	0.046830	0.945450
S1191	S119	0.711260	0.031440	0.042680
S1201	S120	0.683080	0.169030	0.898850
N4731	N473	0.696390	0.069540	0.980030
N4741	N474	0.672200	0.097150	0.968440
N4751	N475	0.662130	0.084900	0.026150
H3551	H355	0.653100	0.086000	0.047800
N4761	N476	0.625350	0.131260	0.997580
H3561	H356	0.620900	0.144400	0.978600
H3571	H357	0.613100	0.134600	0.017300
N4771	N477	0.618430	0.195920	0.925590
N4781	N478	0.607390	0.219600	0.953390
N4791	N479	0.666600	0.215740	0.954130
H3581	H358	0.689000	0.219300	0.960200
N4801	N480	0.638830	0.254860	0.997790
H3591	H359	0.619200	0.264400	0.006400
H3601	H360	0.659700	0.260600	0.006900
C2371	C237	0.689580	0.062880	0.014280
C2381	C238	0.652070	0.104860	0.996280
C2391	C239	0.654400	0.193950	0.926900
C2401	C240	0.636910	0.230840	0.969910
Cu1211	Cu121	0.829430	0.390820	0.915140
Cu1221	Cu122	0.768420	0.453170	0.945450
S1211	S121	0.788740	0.468560	0.042680
S1221	S122	0.816920	0.330970	0.898850
N4811	N481	0.803610	0.430460	0.980030
N4821	N482	0.827800	0.402850	0.968440
N4831	N483	0.837870	0.415100	0.026150
H3611	H361	0.846900	0.414000	0.047800
N4841	N484	0.874650	0.368740	0.997580
H3621	H362	0.879100	0.355600	0.978600
H3631	H363	0.886900	0.365400	0.017300
N4851	N485	0.881570	0.304080	0.925590
N4861	N486	0.892610	0.280400	0.953390
N4871	N487	0.833400	0.284260	0.954130
H3641	H364	0.811000	0.280700	0.960200
N4881	N488	0.861170	0.245140	0.997790
H3651	H365	0.880800	0.235600	0.006400
H3661	H366	0.840300	0.239400	0.006900
C2411	C241	0.810420	0.437120	0.014280
C2421	C242	0.847930	0.395140	0.996280
C2431	C243	0.845600	0.306050	0.926900
C2441	C244	0.863090	0.269160	0.969910
Cu1231	Cu123	0.829430	0.890820	0.415140
Cu1241	Cu124	0.768420	0.953170	0.445450
S1231	S123	0.788740	0.968560	0.542680
S1241	S124	0.816920	0.830970	0.398850
N4891	N489	0.803610	0.930460	0.480030
N4901	N490	0.827800	0.902850	0.468440
N4911	N491	0.837870	0.915100	0.526150
H3671	H367	0.846900	0.914000	0.547800
N4921	N492	0.874650	0.868740	0.497580
H3681	H368	0.879100	0.855600	0.478600
H3691	H369	0.886900	0.865400	0.517300
N4931	N493	0.881570	0.804080	0.425590
N4941	N494	0.892610	0.780400	0.453390
N4951	N495	0.833400	0.784260	0.454130
H3701	H370	0.811000	0.780700	0.460200
N4961	N496	0.861170	0.745140	0.497790
H3711	H371	0.880800	0.735600	0.506400
H3721	H372	0.840300	0.739400	0.506900
C2451	C245	0.810420	0.937120	0.514280
C2461	C246	0.847930	0.895140	0.496280
C2471	C247	0.845600	0.806050	0.426900
C2481	C248	0.863090	0.769160	0.469910
Cu1251	Cu125	0.329430	0.390820	0.415140
Cu1261	Cu126	0.268420	0.453170	0.445450
S1251	S125	0.288740	0.468560	0.542680
S1261	S126	0.316920	0.330970	0.398850
N4971	N497	0.303610	0.430460	0.480030
N4981	N498	0.327800	0.402850	0.468440
N4991	N499	0.337870	0.415100	0.526150
H3731	H373	0.346900	0.414000	0.547800
N5001	N500	0.374650	0.368740	0.497580
H3741	H374	0.379100	0.355600	0.478600
H3751	H375	0.386900	0.365400	0.517300
N5011	N501	0.381570	0.304080	0.425590
N5021	N502	0.392610	0.280400	0.453390
N5031	N503	0.333400	0.284260	0.454130
H3761	H376	0.311000	0.280700	0.460200
N5041	N504	0.361170	0.245140	0.497790
H3771	H377	0.380800	0.235600	0.506400
H3781	H378	0.340300	0.239400	0.506900
C2491	C249	0.310420	0.437120	0.514280
C2501	C250	0.347930	0.395140	0.496280
C2511	C251	0.345600	0.306050	0.426900
C2521	C252	0.363090	0.269160	0.469910
Cu1271	Cu127	0.329430	0.890820	0.915140
Cu1281	Cu128	0.268420	0.953170	0.945450
S1271	S127	0.288740	0.968560	0.042680
S1281	S128	0.316920	0.830970	0.898850
N5051	N505	0.303610	0.930460	0.980030
N5061	N506	0.327800	0.902850	0.968440
N5071	N507	0.337870	0.915100	0.026150
H3791	H379	0.346900	0.914000	0.047800
N5081	N508	0.374650	0.868740	0.997580
H3801	H380	0.379100	0.855600	0.978600
H3811	H381	0.386900	0.865400	0.017300
N5091	N509	0.381570	0.804080	0.925590
N5101	N510	0.392610	0.780400	0.953390
N5111	N511	0.333400	0.784260	0.954130
H3821	H382	0.311000	0.780700	0.960200
N5121	N512	0.361170	0.745140	0.997790
H3831	H383	0.380800	0.735600	0.006400
H3841	H384	0.340300	0.739400	0.006900
C2531	C253	0.310420	0.937120	0.014280
C2541	C254	0.347930	0.895140	0.996280
C2551	C255	0.345600	0.806050	0.926900
C2561	C256	0.363090	0.769160	0.969910
Cu1291	Cu129	0.390820	0.084860	0.170570
Cu1301	Cu130	0.453170	0.054550	0.231580
S1291	S129	0.468560	0.957320	0.211260
S1301	S130	0.330970	0.101150	0.183080
N5131	N513	0.430460	0.019970	0.196390
N5141	N514	0.402850	0.031560	0.172200
N5151	N515	0.415100	0.973850	0.162130
H3851	H385	0.414000	0.952200	0.153100
N5161	N516	0.368740	0.002420	0.125350
H3861	H386	0.355600	0.021400	0.120900
H3871	H387	0.365400	0.982700	0.113100
N5171	N517	0.304080	0.074410	0.118430
N5181	N518	0.280400	0.046610	0.107390
N5191	N519	0.284260	0.045870	0.166600
H3881	H388	0.280700	0.039800	0.189000
N5201	N520	0.245140	0.002210	0.138830
H3891	H389	0.235600	0.993600	0.119200
H3901	H390	0.239400	0.993100	0.159700
C2571	C257	0.437120	0.985720	0.189580
C2581	C258	0.395140	0.003720	0.152070
C2591	C259	0.306050	0.073100	0.154400
C2601	C260	0.269160	0.030090	0.136910
Cu1311	Cu131	0.390820	0.584860	0.670570
Cu1321	Cu132	0.453170	0.554550	0.731580
S1311	S131	0.468560	0.457320	0.711260
S1321	S132	0.330970	0.601150	0.683080
N5211	N521	0.430460	0.519970	0.696390
N5221	N522	0.402850	0.531560	0.672200
N5231	N523	0.415100	0.473850	0.662130
H3911	H391	0.414000	0.452200	0.653100
N5241	N524	0.368740	0.502420	0.625350
H3921	H392	0.355600	0.521400	0.620900
H3931	H393	0.365400	0.482700	0.613100
N5251	N525	0.304080	0.574410	0.618430
N5261	N526	0.280400	0.546610	0.607390
N5271	N527	0.284260	0.545870	0.666600
H3941	H394	0.280700	0.539800	0.689000
N5281	N528	0.245140	0.502210	0.638830
H3951	H395	0.235600	0.493600	0.619200
H3961	H396	0.239400	0.493100	0.659700
C2611	C261	0.437120	0.485720	0.689580
C2621	C262	0.395140	0.503720	0.652070
C2631	C263	0.306050	0.573100	0.654400
C2641	C264	0.269160	0.530090	0.636910
Cu1331	Cu133	0.890820	0.084860	0.670570
Cu1341	Cu134	0.953170	0.054550	0.731580
S1331	S133	0.968560	0.957320	0.711260
S1341	S134	0.830970	0.101150	0.683080
N5291	N529	0.930460	0.019970	0.696390
N5301	N530	0.902850	0.031560	0.672200
N5311	N531	0.915100	0.973850	0.662130
H3971	H397	0.914000	0.952200	0.653100
N5321	N532	0.868740	0.002420	0.625350
H3981	H398	0.855600	0.021400	0.620900
H3991	H399	0.865400	0.982700	0.613100
N5331	N533	0.804080	0.074410	0.618430
N5341	N534	0.780400	0.046610	0.607390
N5351	N535	0.784260	0.045870	0.666600
H4001	H400	0.780700	0.039800	0.689000
N5361	N536	0.745140	0.002210	0.638830
H4011	H401	0.735600	0.993600	0.619200
H4021	H402	0.739400	0.993100	0.659700
C2651	C265	0.937120	0.985720	0.689580
C2661	C266	0.895140	0.003720	0.652070
C2671	C267	0.806050	0.073100	0.654400
C2681	C268	0.769160	0.030090	0.636910
Cu1351	Cu135	0.890820	0.584860	0.170570
Cu1361	Cu136	0.953170	0.554550	0.231580
S1351	S135	0.968560	0.457320	0.211260
S1361	S136	0.830970	0.601150	0.183080
N5371	N537	0.930460	0.519970	0.196390
N5381	N538	0.902850	0.531560	0.172200
N5391	N539	0.915100	0.473850	0.162130
H4031	H403	0.914000	0.452200	0.153100
N5401	N540	0.868740	0.502420	0.125350
H4041	H404	0.855600	0.521400	0.120900
H4051	H405	0.865400	0.482700	0.113100
N5411	N541	0.804080	0.574410	0.118430
N5421	N542	0.780400	0.546610	0.107390
N5431	N543	0.784260	0.545870	0.166600
H4061	H406	0.780700	0.539800	0.189000
N5441	N544	0.745140	0.502210	0.138830
H4071	H407	0.735600	0.493600	0.119200
H4081	H408	0.739400	0.493100	0.159700
C2691	C269	0.937120	0.485720	0.189580
C2701	C270	0.895140	0.503720	0.152070
C2711	C271	0.806050	0.573100	0.154400
C2721	C272	0.769160	0.530090	0.136910
Cu1371	Cu137	0.609180	0.084860	0.829430
Cu1381	Cu138	0.546830	0.054550	0.768420
S1371	S137	0.531440	0.957320	0.788740
S1381	S138	0.669030	0.101150	0.816920
N5451	N545	0.569540	0.019970	0.803610
N5461	N546	0.597150	0.031560	0.827800
N5471	N547	0.584900	0.973850	0.837870
H4091	H409	0.586000	0.952200	0.846900
N5481	N548	0.631260	0.002420	0.874650
H4101	H410	0.644400	0.021400	0.879100
H4111	H411	0.634600	0.982700	0.886900
N5491	N549	0.695920	0.074410	0.881570
N5501	N550	0.719600	0.046610	0.892610
N5511	N551	0.715740	0.045870	0.833400
H4121	H412	0.719300	0.039800	0.811000
N5521	N552	0.754860	0.002210	0.861170
H4131	H413	0.764400	0.993600	0.880800
H4141	H414	0.760600	0.993100	0.840300
C2731	C273	0.562880	0.985720	0.810420
C2741	C274	0.604860	0.003720	0.847930
C2751	C275	0.693950	0.073100	0.845600
C2761	C276	0.730840	0.030090	0.863090
Cu1391	Cu139	0.609180	0.584860	0.329430
Cu1401	Cu140	0.546830	0.554550	0.268420
S1391	S139	0.531440	0.457320	0.288740
S1401	S140	0.669030	0.601150	0.316920
N5531	N553	0.569540	0.519970	0.303610
N5541	N554	0.597150	0.531560	0.327800
N5551	N555	0.584900	0.473850	0.337870
H4151	H415	0.586000	0.452200	0.346900
N5561	N556	0.631260	0.502420	0.374650
H4161	H416	0.644400	0.521400	0.379100
H4171	H417	0.634600	0.482700	0.386900
N5571	N557	0.695920	0.574410	0.381570
N5581	N558	0.719600	0.546610	0.392610
N5591	N559	0.715740	0.545870	0.333400
H4181	H418	0.719300	0.539800	0.311000
N5601	N560	0.754860	0.502210	0.361170
H4191	H419	0.764400	0.493600	0.380800
H4201	H420	0.760600	0.493100	0.340300
C2771	C277	0.562880	0.485720	0.310420
C2781	C278	0.604860	0.503720	0.347930
C2791	C279	0.693950	0.573100	0.345600
C2801	C280	0.730840	0.530090	0.363090
Cu1411	Cu141	0.109180	0.084860	0.329430
Cu1421	Cu142	0.046830	0.054550	0.268420
S1411	S141	0.031440	0.957320	0.288740
S1421	S142	0.169030	0.101150	0.316920
N5611	N561	0.069540	0.019970	0.303610
N5621	N562	0.097150	0.031560	0.327800
N5631	N563	0.084900	0.973850	0.337870
H4211	H421	0.086000	0.952200	0.346900
N5641	N564	0.131260	0.002420	0.374650
H4221	H422	0.144400	0.021400	0.379100
H4231	H423	0.134600	0.982700	0.386900
N5651	N565	0.195920	0.074410	0.381570
N5661	N566	0.219600	0.046610	0.392610
N5671	N567	0.215740	0.045870	0.333400
H4241	H424	0.219300	0.039800	0.311000
N5681	N568	0.254860	0.002210	0.361170
H4251	H425	0.264400	0.993600	0.380800
H4261	H426	0.260600	0.993100	0.340300
C2811	C281	0.062880	0.985720	0.310420
C2821	C282	0.104860	0.003720	0.347930
C2831	C283	0.193950	0.073100	0.345600
C2841	C284	0.230840	0.030090	0.363090
Cu1431	Cu143	0.109180	0.584860	0.829430
Cu1441	Cu144	0.046830	0.554550	0.768420
S1431	S143	0.031440	0.457320	0.788740
S1441	S144	0.169030	0.601150	0.816920
N5691	N569	0.069540	0.519970	0.803610
N5701	N570	0.097150	0.531560	0.827800
N5711	N571	0.084900	0.473850	0.837870
H4271	H427	0.086000	0.452200	0.846900
N5721	N572	0.131260	0.502420	0.874650
H4281	H428	0.144400	0.521400	0.879100
H4291	H429	0.134600	0.482700	0.886900
N5731	N573	0.195920	0.574410	0.881570
N5741	N574	0.219600	0.546610	0.892610
N5751	N575	0.215740	0.545870	0.833400
H4301	H430	0.219300	0.539800	0.811000
N5761	N576	0.254860	0.502210	0.861170
H4311	H431	0.264400	0.493600	0.880800
H4321	H432	0.260600	0.493100	0.840300
C2851	C285	0.062880	0.485720	0.810420
C2861	C286	0.104860	0.503720	0.847930
C2871	C287	0.193950	0.573100	0.845600
C2881	C288	0.230840	0.530090	0.863090
Cu1451	Cu145	0.609180	0.915140	0.170570
Cu1461	Cu146	0.546830	0.945450	0.231580
S1451	S145	0.531440	0.042680	0.211260
S1461	S146	0.669030	0.898850	0.183080
N5771	N577	0.569540	0.980030	0.196390
N5781	N578	0.597150	0.968440	0.172200
N5791	N579	0.584900	0.026150	0.162130
H4331	H433	0.586000	0.047800	0.153100
N5801	N580	0.631260	0.997580	0.125350
H4341	H434	0.644400	0.978600	0.120900
H4351	H435	0.634600	0.017300	0.113100
N5811	N581	0.695920	0.925590	0.118430
N5821	N582	0.719600	0.953390	0.107390
N5831	N583	0.715740	0.954130	0.166600
H4361	H436	0.719300	0.960200	0.189000
N5841	N584	0.754860	0.997790	0.138830
H4371	H437	0.764400	0.006400	0.119200
H4381	H438	0.760600	0.006900	0.159700
C2891	C289	0.562880	0.014280	0.189580
C2901	C290	0.604860	0.996280	0.152070
C2911	C291	0.693950	0.926900	0.154400
C2921	C292	0.730840	0.969910	0.136910
Cu1471	Cu147	0.609180	0.415140	0.670570
Cu1481	Cu148	0.546830	0.445450	0.731580
S1471	S147	0.531440	0.542680	0.711260
S1481	S148	0.669030	0.398850	0.683080
N5851	N585	0.569540	0.480030	0.696390
N5861	N586	0.597150	0.468440	0.672200
N5871	N587	0.584900	0.526150	0.662130
H4391	H439	0.586000	0.547800	0.653100
N5881	N588	0.631260	0.497580	0.625350
H4401	H440	0.644400	0.478600	0.620900
H4411	H441	0.634600	0.517300	0.613100
N5891	N589	0.695920	0.425590	0.618430
N5901	N590	0.719600	0.453390	0.607390
N5911	N591	0.715740	0.454130	0.666600
H4421	H442	0.719300	0.460200	0.689000
N5921	N592	0.754860	0.497790	0.638830
H4431	H443	0.764400	0.506400	0.619200
H4441	H444	0.760600	0.506900	0.659700
C2931	C293	0.562880	0.514280	0.689580
C2941	C294	0.604860	0.496280	0.652070
C2951	C295	0.693950	0.426900	0.654400
C2961	C296	0.730840	0.469910	0.636910
Cu1491	Cu149	0.109180	0.915140	0.670570
Cu1501	Cu150	0.046830	0.945450	0.731580
S1491	S149	0.031440	0.042680	0.711260
S1501	S150	0.169030	0.898850	0.683080
N5931	N593	0.069540	0.980030	0.696390
N5941	N594	0.097150	0.968440	0.672200
N5951	N595	0.084900	0.026150	0.662130
H4451	H445	0.086000	0.047800	0.653100
N5961	N596	0.131260	0.997580	0.625350
H4461	H446	0.144400	0.978600	0.620900
H4471	H447	0.134600	0.017300	0.613100
N5971	N597	0.195920	0.925590	0.618430
N5981	N598	0.219600	0.953390	0.607390
N5991	N599	0.215740	0.954130	0.666600
H4481	H448	0.219300	0.960200	0.689000
N6001	N600	0.254860	0.997790	0.638830
H4491	H449	0.264400	0.006400	0.619200
H4501	H450	0.260600	0.006900	0.659700
C2971	C297	0.062880	0.014280	0.689580
C2981	C298	0.104860	0.996280	0.652070
C2991	C299	0.193950	0.926900	0.654400
C3001	C300	0.230840	0.969910	0.636910
Cu1511	Cu151	0.109180	0.415140	0.170570
Cu1521	Cu152	0.046830	0.445450	0.231580
S1511	S151	0.031440	0.542680	0.211260
S1521	S152	0.169030	0.398850	0.183080
N6011	N601	0.069540	0.480030	0.196390
N6021	N602	0.097150	0.468440	0.172200
N6031	N603	0.084900	0.526150	0.162130
H4511	H451	0.086000	0.547800	0.153100
N6041	N604	0.131260	0.497580	0.125350
H4521	H452	0.144400	0.478600	0.120900
H4531	H453	0.134600	0.517300	0.113100
N6051	N605	0.195920	0.425590	0.118430
N6061	N606	0.219600	0.453390	0.107390
N6071	N607	0.215740	0.454130	0.166600
H4541	H454	0.219300	0.460200	0.189000
N6081	N608	0.254860	0.497790	0.138830
H4551	H455	0.264400	0.506400	0.119200
H4561	H456	0.260600	0.506900	0.159700
C3011	C301	0.062880	0.514280	0.189580
C3021	C302	0.104860	0.496280	0.152070
C3031	C303	0.193950	0.426900	0.154400
C3041	C304	0.230840	0.469910	0.136910
Cu1531	Cu153	0.390820	0.915140	0.829430
Cu1541	Cu154	0.453170	0.945450	0.768420
S1531	S153	0.468560	0.042680	0.788740
S1541	S154	0.330970	0.898850	0.816920
N6091	N609	0.430460	0.980030	0.803610
N6101	N610	0.402850	0.968440	0.827800
N6111	N611	0.415100	0.026150	0.837870
H4571	H457	0.414000	0.047800	0.846900
N6121	N612	0.368740	0.997580	0.874650
H4581	H458	0.355600	0.978600	0.879100
H4591	H459	0.365400	0.017300	0.886900
N6131	N613	0.304080	0.925590	0.881570
N6141	N614	0.280400	0.953390	0.892610
N6151	N615	0.284260	0.954130	0.833400
H4601	H460	0.280700	0.960200	0.811000
N6161	N616	0.245140	0.997790	0.861170
H4611	H461	0.235600	0.006400	0.880800
H4621	H462	0.239400	0.006900	0.840300
C3051	C305	0.437120	0.014280	0.810420
C3061	C306	0.395140	0.996280	0.847930
C3071	C307	0.306050	0.926900	0.845600
C3081	C308	0.269160	0.969910	0.863090
Cu1551	Cu155	0.390820	0.415140	0.329430
Cu1561	Cu156	0.453170	0.445450	0.268420
S1551	S155	0.468560	0.542680	0.288740
S1561	S156	0.330970	0.398850	0.316920
N6171	N617	0.430460	0.480030	0.303610
N6181	N618	0.402850	0.468440	0.327800
N6191	N619	0.415100	0.526150	0.337870
H4631	H463	0.414000	0.547800	0.346900
N6201	N620	0.368740	0.497580	0.374650
H4641	H464	0.355600	0.478600	0.379100
H4651	H465	0.365400	0.517300	0.386900
N6211	N621	0.304080	0.425590	0.381570
N6221	N622	0.280400	0.453390	0.392610
N6231	N623	0.284260	0.454130	0.333400
H4661	H466	0.280700	0.460200	0.311000
N6241	N624	0.245140	0.497790	0.361170
H4671	H467	0.235600	0.506400	0.380800
H4681	H468	0.239400	0.506900	0.340300
C3091	C309	0.437120	0.514280	0.310420
C3101	C310	0.395140	0.496280	0.347930
C3111	C311	0.306050	0.426900	0.345600
C3121	C312	0.269160	0.469910	0.363090
Cu1571	Cu157	0.890820	0.915140	0.329430
Cu1581	Cu158	0.953170	0.945450	0.268420
S1571	S157	0.968560	0.042680	0.288740
S1581	S158	0.830970	0.898850	0.316920
N6251	N625	0.930460	0.980030	0.303610
N6261	N626	0.902850	0.968440	0.327800
N6271	N627	0.915100	0.026150	0.337870
H4691	H469	0.914000	0.047800	0.346900
N6281	N628	0.868740	0.997580	0.374650
H4701	H470	0.855600	0.978600	0.379100
H4711	H471	0.865400	0.017300	0.386900
N6291	N629	0.804080	0.925590	0.381570
N6301	N630	0.780400	0.953390	0.392610
N6311	N631	0.784260	0.954130	0.333400
H4721	H472	0.780700	0.960200	0.311000
N6321	N632	0.745140	0.997790	0.361170
H4731	H473	0.735600	0.006400	0.380800
H4741	H474	0.739400	0.006900	0.340300
C3131	C313	0.937120	0.014280	0.310420
C3141	C314	0.895140	0.996280	0.347930
C3151	C315	0.806050	0.926900	0.345600
C3161	C316	0.769160	0.969910	0.363090
Cu1591	Cu159	0.890820	0.415140	0.829430
Cu1601	Cu160	0.953170	0.445450	0.768420
S1591	S159	0.968560	0.542680	0.788740
S1601	S160	0.830970	0.398850	0.816920
N6331	N633	0.930460	0.480030	0.803610
N6341	N634	0.902850	0.468440	0.827800
N6351	N635	0.915100	0.526150	0.837870
H4751	H475	0.914000	0.547800	0.846900
N6361	N636	0.868740	0.497580	0.874650
H4761	H476	0.855600	0.478600	0.879100
H4771	H477	0.865400	0.517300	0.886900
N6371	N637	0.804080	0.425590	0.881570
N6381	N638	0.780400	0.453390	0.892610
N6391	N639	0.784260	0.454130	0.833400
H4781	H478	0.780700	0.460200	0.811000
N6401	N640	0.745140	0.497790	0.861170
H4791	H479	0.735600	0.506400	0.880800
H4801	H480	0.739400	0.506900	0.840300
C3171	C317	0.937120	0.514280	0.810420
C3181	C318	0.895140	0.496280	0.847930
C3191	C319	0.806050	0.426900	0.845600
C3201	C320	0.769160	0.469910	0.863090
Cu1611	Cu161	0.084860	0.170570	0.390820
Cu1621	Cu162	0.054550	0.231580	0.453170
S1611	S161	0.957320	0.211260	0.468560
S1621	S162	0.101150	0.183080	0.330970
N6411	N641	0.019970	0.196390	0.430460
N6421	N642	0.031560	0.172200	0.402850
N6431	N643	0.973850	0.162130	0.415100
H4811	H481	0.952200	0.153100	0.414000
N6441	N644	0.002420	0.125350	0.368740
H4821	H482	0.021400	0.120900	0.355600
H4831	H483	0.982700	0.113100	0.365400
N6451	N645	0.074410	0.118430	0.304080
N6461	N646	0.046610	0.107390	0.280400
N6471	N647	0.045870	0.166600	0.284260
H4841	H484	0.039800	0.189000	0.280700
N6481	N648	0.002210	0.138830	0.245140
H4851	H485	0.993600	0.119200	0.235600
H4861	H486	0.993100	0.159700	0.239400
C3211	C321	0.985720	0.189580	0.437120
C3221	C322	0.003720	0.152070	0.395140
C3231	C323	0.073100	0.154400	0.306050
C3241	C324	0.030090	0.136910	0.269160
Cu1631	Cu163	0.084860	0.670570	0.890820
Cu1641	Cu164	0.054550	0.731580	0.953170
S1631	S163	0.957320	0.711260	0.968560
S1641	S164	0.101150	0.683080	0.830970
N6491	N649	0.019970	0.696390	0.930460
N6501	N650	0.031560	0.672200	0.902850
N6511	N651	0.973850	0.662130	0.915100
H4871	H487	0.952200	0.653100	0.914000
N6521	N652	0.002420	0.625350	0.868740
H4881	H488	0.021400	0.620900	0.855600
H4891	H489	0.982700	0.613100	0.865400
N6531	N653	0.074410	0.618430	0.804080
N6541	N654	0.046610	0.607390	0.780400
N6551	N655	0.045870	0.666600	0.784260
H4901	H490	0.039800	0.689000	0.780700
N6561	N656	0.002210	0.638830	0.745140
H4911	H491	0.993600	0.619200	0.735600
H4921	H492	0.993100	0.659700	0.739400
C3251	C325	0.985720	0.689580	0.937120
C3261	C326	0.003720	0.652070	0.895140
C3271	C327	0.073100	0.654400	0.806050
C3281	C328	0.030090	0.636910	0.769160
Cu1651	Cu165	0.584860	0.170570	0.890820
Cu1661	Cu166	0.554550	0.231580	0.953170
S1651	S165	0.457320	0.211260	0.968560
S1661	S166	0.601150	0.183080	0.830970
N6571	N657	0.519970	0.196390	0.930460
N6581	N658	0.531560	0.172200	0.902850
N6591	N659	0.473850	0.162130	0.915100
H4931	H493	0.452200	0.153100	0.914000
N6601	N660	0.502420	0.125350	0.868740
H4941	H494	0.521400	0.120900	0.855600
H4951	H495	0.482700	0.113100	0.865400
N6611	N661	0.574410	0.118430	0.804080
N6621	N662	0.546610	0.107390	0.780400
N6631	N663	0.545870	0.166600	0.784260
H4961	H496	0.539800	0.189000	0.780700
N6641	N664	0.502210	0.138830	0.745140
H4971	H497	0.493600	0.119200	0.735600
H4981	H498	0.493100	0.159700	0.739400
C3291	C329	0.485720	0.189580	0.937120
C3301	C330	0.503720	0.152070	0.895140
C3311	C331	0.573100	0.154400	0.806050
C3321	C332	0.530090	0.136910	0.769160
Cu1671	Cu167	0.584860	0.670570	0.390820
Cu1681	Cu168	0.554550	0.731580	0.453170
S1671	S167	0.457320	0.711260	0.468560
S1681	S168	0.601150	0.683080	0.330970
N6651	N665	0.519970	0.696390	0.430460
N6661	N666	0.531560	0.672200	0.402850
N6671	N667	0.473850	0.662130	0.415100
H4991	H499	0.452200	0.653100	0.414000
N6681	N668	0.502420	0.625350	0.368740
H5001	H500	0.521400	0.620900	0.355600
H5011	H501	0.482700	0.613100	0.365400
N6691	N669	0.574410	0.618430	0.304080
N6701	N670	0.546610	0.607390	0.280400
N6711	N671	0.545870	0.666600	0.284260
H5021	H502	0.539800	0.689000	0.280700
N6721	N672	0.502210	0.638830	0.245140
H5031	H503	0.493600	0.619200	0.235600
H5041	H504	0.493100	0.659700	0.239400
C3331	C333	0.485720	0.689580	0.437120
C3341	C334	0.503720	0.652070	0.395140
C3351	C335	0.573100	0.654400	0.306050
C3361	C336	0.530090	0.636910	0.269160
Cu1691	Cu169	0.084860	0.829430	0.609180
Cu1701	Cu170	0.054550	0.768420	0.546830
S1691	S169	0.957320	0.788740	0.531440
S1701	S170	0.101150	0.816920	0.669030
N6731	N673	0.019970	0.803610	0.569540
N6741	N674	0.031560	0.827800	0.597150
N6751	N675	0.973850	0.837870	0.584900
H5051	H505	0.952200	0.846900	0.586000
N6761	N676	0.002420	0.874650	0.631260
H5061	H506	0.021400	0.879100	0.644400
H5071	H507	0.982700	0.886900	0.634600
N6771	N677	0.074410	0.881570	0.695920
N6781	N678	0.046610	0.892610	0.719600
N6791	N679	0.045870	0.833400	0.715740
H5081	H508	0.039800	0.811000	0.719300
N6801	N680	0.002210	0.861170	0.754860
H5091	H509	0.993600	0.880800	0.764400
H5101	H510	0.993100	0.840300	0.760600
C3371	C337	0.985720	0.810420	0.562880
C3381	C338	0.003720	0.847930	0.604860
C3391	C339	0.073100	0.845600	0.693950
C3401	C340	0.030090	0.863090	0.730840
Cu1711	Cu171	0.084860	0.329430	0.109180
Cu1721	Cu172	0.054550	0.268420	0.046830
S1711	S171	0.957320	0.288740	0.031440
S1721	S172	0.101150	0.316920	0.169030
N6811	N681	0.019970	0.303610	0.069540
N6821	N682	0.031560	0.327800	0.097150
N6831	N683	0.973850	0.337870	0.084900
H5111	H511	0.952200	0.346900	0.086000
N6841	N684	0.002420	0.374650	0.131260
H5121	H512	0.021400	0.379100	0.144400
H5131	H513	0.982700	0.386900	0.134600
N6851	N685	0.074410	0.381570	0.195920
N6861	N686	0.046610	0.392610	0.219600
N6871	N687	0.045870	0.333400	0.215740
H5141	H514	0.039800	0.311000	0.219300
N6881	N688	0.002210	0.361170	0.254860
H5151	H515	0.993600	0.380800	0.264400
H5161	H516	0.993100	0.340300	0.260600
C3411	C341	0.985720	0.310420	0.062880
C3421	C342	0.003720	0.347930	0.104860
C3431	C343	0.073100	0.345600	0.193950
C3441	C344	0.030090	0.363090	0.230840
Cu1731	Cu173	0.584860	0.829430	0.109180
Cu1741	Cu174	0.554550	0.768420	0.046830
S1731	S173	0.457320	0.788740	0.031440
S1741	S174	0.601150	0.816920	0.169030
N6891	N689	0.519970	0.803610	0.069540
N6901	N690	0.531560	0.827800	0.097150
N6911	N691	0.473850	0.837870	0.084900
H5171	H517	0.452200	0.846900	0.086000
N6921	N692	0.502420	0.874650	0.131260
H5181	H518	0.521400	0.879100	0.144400
H5191	H519	0.482700	0.886900	0.134600
N6931	N693	0.574410	0.881570	0.195920
N6941	N694	0.546610	0.892610	0.219600
N6951	N695	0.545870	0.833400	0.215740
H5201	H520	0.539800	0.811000	0.219300
N6961	N696	0.502210	0.861170	0.254860
H5211	H521	0.493600	0.880800	0.264400
H5221	H522	0.493100	0.840300	0.260600
C3451	C345	0.485720	0.810420	0.062880
C3461	C346	0.503720	0.847930	0.104860
C3471	C347	0.573100	0.845600	0.193950
C3481	C348	0.530090	0.863090	0.230840
Cu1751	Cu175	0.584860	0.329430	0.609180
Cu1761	Cu176	0.554550	0.268420	0.546830
S1751	S175	0.457320	0.288740	0.531440
S1761	S176	0.601150	0.316920	0.669030
N6971	N697	0.519970	0.303610	0.569540
N6981	N698	0.531560	0.327800	0.597150
N6991	N699	0.473850	0.337870	0.584900
H5231	H523	0.452200	0.346900	0.586000
N7001	N700	0.502420	0.374650	0.631260
H5241	H524	0.521400	0.379100	0.644400
H5251	H525	0.482700	0.386900	0.634600
N7011	N701	0.574410	0.381570	0.695920
N7021	N702	0.546610	0.392610	0.719600
N7031	N703	0.545870	0.333400	0.715740
H5261	H526	0.539800	0.311000	0.719300
N7041	N704	0.502210	0.361170	0.754860
H5271	H527	0.493600	0.380800	0.764400
H5281	H528	0.493100	0.340300	0.760600
C3491	C349	0.485720	0.310420	0.562880
C3501	C350	0.503720	0.347930	0.604860
C3511	C351	0.573100	0.345600	0.693950
C3521	C352	0.530090	0.363090	0.730840
Cu1771	Cu177	0.915140	0.170570	0.609180
Cu1781	Cu178	0.945450	0.231580	0.546830
S1771	S177	0.042680	0.211260	0.531440
S1781	S178	0.898850	0.183080	0.669030
N7051	N705	0.980030	0.196390	0.569540
N7061	N706	0.968440	0.172200	0.597150
N7071	N707	0.026150	0.162130	0.584900
H5291	H529	0.047800	0.153100	0.586000
N7081	N708	0.997580	0.125350	0.631260
H5301	H530	0.978600	0.120900	0.644400
H5311	H531	0.017300	0.113100	0.634600
N7091	N709	0.925590	0.118430	0.695920
N7101	N710	0.953390	0.107390	0.719600
N7111	N711	0.954130	0.166600	0.715740
H5321	H532	0.960200	0.189000	0.719300
N7121	N712	0.997790	0.138830	0.754860
H5331	H533	0.006400	0.119200	0.764400
H5341	H534	0.006900	0.159700	0.760600
C3531	C353	0.014280	0.189580	0.562880
C3541	C354	0.996280	0.152070	0.604860
C3551	C355	0.926900	0.154400	0.693950
C3561	C356	0.969910	0.136910	0.730840
Cu1791	Cu179	0.915140	0.670570	0.109180
Cu1801	Cu180	0.945450	0.731580	0.046830
S1791	S179	0.042680	0.711260	0.031440
S1801	S180	0.898850	0.683080	0.169030
N7131	N713	0.980030	0.696390	0.069540
N7141	N714	0.968440	0.672200	0.097150
N7151	N715	0.026150	0.662130	0.084900
H5351	H535	0.047800	0.653100	0.086000
N7161	N716	0.997580	0.625350	0.131260
H5361	H536	0.978600	0.620900	0.144400
H5371	H537	0.017300	0.613100	0.134600
N7171	N717	0.925590	0.618430	0.195920
N7181	N718	0.953390	0.607390	0.219600
N7191	N719	0.954130	0.666600	0.215740
H5381	H538	0.960200	0.689000	0.219300
N7201	N720	0.997790	0.638830	0.254860
H5391	H539	0.006400	0.619200	0.264400
H5401	H540	0.006900	0.659700	0.260600
C3571	C357	0.014280	0.689580	0.062880
C3581	C358	0.996280	0.652070	0.104860
C3591	C359	0.926900	0.654400	0.193950
C3601	C360	0.969910	0.636910	0.230840
Cu1811	Cu181	0.415140	0.170570	0.109180
Cu1821	Cu182	0.445450	0.231580	0.046830
S1811	S181	0.542680	0.211260	0.031440
S1821	S182	0.398850	0.183080	0.169030
N7211	N721	0.480030	0.196390	0.069540
N7221	N722	0.468440	0.172200	0.097150
N7231	N723	0.526150	0.162130	0.084900
H5411	H541	0.547800	0.153100	0.086000
N7241	N724	0.497580	0.125350	0.131260
H5421	H542	0.478600	0.120900	0.144400
H5431	H543	0.517300	0.113100	0.134600
N7251	N725	0.425590	0.118430	0.195920
N7261	N726	0.453390	0.107390	0.219600
N7271	N727	0.454130	0.166600	0.215740
H5441	H544	0.460200	0.189000	0.219300
N7281	N728	0.497790	0.138830	0.254860
H5451	H545	0.506400	0.119200	0.264400
H5461	H546	0.506900	0.159700	0.260600
C3611	C361	0.514280	0.189580	0.062880
C3621	C362	0.496280	0.152070	0.104860
C3631	C363	0.426900	0.154400	0.193950
C3641	C364	0.469910	0.136910	0.230840
Cu1831	Cu183	0.415140	0.670570	0.609180
Cu1841	Cu184	0.445450	0.731580	0.546830
S1831	S183	0.542680	0.711260	0.531440
S1841	S184	0.398850	0.683080	0.669030
N7291	N729	0.480030	0.696390	0.569540
N7301	N730	0.468440	0.672200	0.597150
N7311	N731	0.526150	0.662130	0.584900
H5471	H547	0.547800	0.653100	0.586000
N7321	N732	0.497580	0.625350	0.631260
H5481	H548	0.478600	0.620900	0.644400
H5491	H549	0.517300	0.613100	0.634600
N7331	N733	0.425590	0.618430	0.695920
N7341	N734	0.453390	0.607390	0.719600
N7351	N735	0.454130	0.666600	0.715740
H5501	H550	0.460200	0.689000	0.719300
N7361	N736	0.497790	0.638830	0.754860
H5511	H551	0.506400	0.619200	0.764400
H5521	H552	0.506900	0.659700	0.760600
C3651	C365	0.514280	0.689580	0.562880
C3661	C366	0.496280	0.652070	0.604860
C3671	C367	0.426900	0.654400	0.693950
C3681	C368	0.469910	0.636910	0.730840
Cu1851	Cu185	0.915140	0.829430	0.390820
Cu1861	Cu186	0.945450	0.768420	0.453170
S1851	S185	0.042680	0.788740	0.468560
S1861	S186	0.898850	0.816920	0.330970
N7371	N737	0.980030	0.803610	0.430460
N7381	N738	0.968440	0.827800	0.402850
N7391	N739	0.026150	0.837870	0.415100
H5531	H553	0.047800	0.846900	0.414000
N7401	N740	0.997580	0.874650	0.368740
H5541	H554	0.978600	0.879100	0.355600
H5551	H555	0.017300	0.886900	0.365400
N7411	N741	0.925590	0.881570	0.304080
N7421	N742	0.953390	0.892610	0.280400
N7431	N743	0.954130	0.833400	0.284260
H5561	H556	0.960200	0.811000	0.280700
N7441	N744	0.997790	0.861170	0.245140
H5571	H557	0.006400	0.880800	0.235600
H5581	H558	0.006900	0.840300	0.239400
C3691	C369	0.014280	0.810420	0.437120
C3701	C370	0.996280	0.847930	0.395140
C3711	C371	0.926900	0.845600	0.306050
C3721	C372	0.969910	0.863090	0.269160
Cu1871	Cu187	0.915140	0.329430	0.890820
Cu1881	Cu188	0.945450	0.268420	0.953170
S1871	S187	0.042680	0.288740	0.968560
S1881	S188	0.898850	0.316920	0.830970
N7451	N745	0.980030	0.303610	0.930460
N7461	N746	0.968440	0.327800	0.902850
N7471	N747	0.026150	0.337870	0.915100
H5591	H559	0.047800	0.346900	0.914000
N7481	N748	0.997580	0.374650	0.868740
H5601	H560	0.978600	0.379100	0.855600
H5611	H561	0.017300	0.386900	0.865400
N7491	N749	0.925590	0.381570	0.804080
N7501	N750	0.953390	0.392610	0.780400
N7511	N751	0.954130	0.333400	0.784260
H5621	H562	0.960200	0.311000	0.780700
N7521	N752	0.997790	0.361170	0.745140
H5631	H563	0.006400	0.380800	0.735600
H5641	H564	0.006900	0.340300	0.739400
C3731	C373	0.014280	0.310420	0.937120
C3741	C374	0.996280	0.347930	0.895140
C3751	C375	0.926900	0.345600	0.806050
C3761	C376	0.969910	0.363090	0.769160
Cu1891	Cu189	0.415140	0.829430	0.890820
Cu1901	Cu190	0.445450	0.768420	0.953170
S1891	S189	0.542680	0.788740	0.968560
S1901	S190	0.398850	0.816920	0.830970
N7531	N753	0.480030	0.803610	0.930460
N7541	N754	0.468440	0.827800	0.902850
N7551	N755	0.526150	0.837870	0.915100
H5651	H565	0.547800	0.846900	0.914000
N7561	N756	0.497580	0.874650	0.868740
H5661	H566	0.478600	0.879100	0.855600
H5671	H567	0.517300	0.886900	0.865400
N7571	N757	0.425590	0.881570	0.804080
N7581	N758	0.453390	0.892610	0.780400
N7591	N759	0.454130	0.833400	0.784260
H5681	H568	0.460200	0.811000	0.780700
N7601	N760	0.497790	0.861170	0.745140
H5691	H569	0.506400	0.880800	0.735600
H5701	H570	0.506900	0.840300	0.739400
C3771	C377	0.514280	0.810420	0.937120
C3781	C378	0.496280	0.847930	0.895140
C3791	C379	0.426900	0.845600	0.806050
C3801	C380	0.469910	0.863090	0.769160
Cu1911	Cu191	0.415140	0.329430	0.390820
Cu1921	Cu192	0.445450	0.268420	0.453170
S1911	S191	0.542680	0.288740	0.468560
S1921	S192	0.398850	0.316920	0.330970
N7611	N761	0.480030	0.303610	0.430460
N7621	N762	0.468440	0.327800	0.402850
N7631	N763	0.526150	0.337870	0.415100
H5711	H571	0.547800	0.346900	0.414000
N7641	N764	0.497580	0.374650	0.368740
H5721	H572	0.478600	0.379100	0.355600
H5731	H573	0.517300	0.386900	0.365400
N7651	N765	0.425590	0.381570	0.304080
N7661	N766	0.453390	0.392610	0.280400
N7671	N767	0.454130	0.333400	0.284260
H5741	H574	0.460200	0.311000	0.280700
N7681	N768	0.497790	0.361170	0.245140
H5751	H575	0.506400	0.380800	0.235600
H5761	H576	0.506900	0.340300	0.239400
C3811	C381	0.514280	0.310420	0.437120
C3821	C382	0.496280	0.347930	0.395140
C3831	C383	0.426900	0.345600	0.306050
C3841	C384	0.469910	0.363090	0.269160
Cu1931	Cu193	0.854190	0.645810	0.645810
I11	I1	0.903510	0.596490	0.596490
Cu1941	Cu194	0.854190	0.145810	0.145810
I21	I2	0.903510	0.096490	0.096490
Cu1951	Cu195	0.145810	0.354190	0.645810
I31	I3	0.096490	0.403510	0.596490
Cu1961	Cu196	0.145810	0.854190	0.145810
I41	I4	0.096490	0.903510	0.096490
Cu1971	Cu197	0.145810	0.645810	0.354190
I51	I5	0.096490	0.596490	0.403510
Cu1981	Cu198	0.145810	0.145810	0.854190
I61	I6	0.096490	0.096490	0.903510
Cu1991	Cu199	0.854190	0.354190	0.354190
I71	I7	0.903510	0.403510	0.403510
Cu2001	Cu200	0.854190	0.854190	0.854190
I81	I8	0.903510	0.903510	0.903510
Cu2011	Cu201	0.645810	0.854190	0.645810
I91	I9	0.596490	0.903510	0.596490
Cu2021	Cu202	0.645810	0.145810	0.354190
I101	I10	0.596490	0.096490	0.403510
Cu2031	Cu203	0.354190	0.145810	0.645810
I111	I11	0.403510	0.096490	0.596490
Cu2041	Cu204	0.354190	0.854190	0.354190
I121	I12	0.403510	0.903510	0.403510
Cu2051	Cu205	0.645810	0.645810	0.854190
I131	I13	0.596490	0.596490	0.903510
Cu2061	Cu206	0.354190	0.645810	0.145810
I141	I14	0.403510	0.596490	0.096490
Cu2071	Cu207	0.645810	0.354190	0.145810
I151	I15	0.596490	0.403510	0.096490
Cu2081	Cu208	0.354190	0.354190	0.854190
I161	I16	0.403510	0.403510	0.903510
Cu2091	Cu209	0.145810	0.354190	0.145810
I171	I17	0.096490	0.403510	0.096490
Cu2101	Cu210	0.854190	0.645810	0.145810
I181	I18	0.903510	0.596490	0.096490
Cu2111	Cu211	0.145810	0.645810	0.854190
I191	I19	0.096490	0.596490	0.903510
Cu2121	Cu212	0.854190	0.354190	0.854190
I201	I20	0.903510	0.403510	0.903510
Cu2131	Cu213	0.354190	0.145810	0.145810
I211	I21	0.403510	0.096490	0.096490
Cu2141	Cu214	0.354190	0.645810	0.645810
I221	I22	0.403510	0.596490	0.596490
Cu2151	Cu215	0.645810	0.145810	0.854190
I231	I23	0.596490	0.096490	0.903510
Cu2161	Cu216	0.645810	0.645810	0.354190
I241	I24	0.596490	0.596490	0.403510
Cu2171	Cu217	0.645810	0.854190	0.145810
I251	I25	0.596490	0.903510	0.096490
Cu2181	Cu218	0.645810	0.354190	0.645810
I261	I26	0.596490	0.403510	0.596490
Cu2191	Cu219	0.354190	0.854190	0.854190
I271	I27	0.403510	0.903510	0.903510
Cu2201	Cu220	0.354190	0.354190	0.354190
I281	I28	0.403510	0.403510	0.403510
Cu2211	Cu221	0.145810	0.145810	0.354190
I291	I29	0.096490	0.096490	0.403510
Cu2221	Cu222	0.145810	0.854190	0.645810
I301	I30	0.096490	0.903510	0.596490
Cu2231	Cu223	0.854190	0.145810	0.645810
I311	I31	0.903510	0.096490	0.596490
Cu2241	Cu224	0.854190	0.854190	0.354190
I321	I32	0.903510	0.903510	0.403510
Cu2251	Cu225	0.000000	0.750000	0.500000
Cu2261	Cu226	0.000000	0.250000	0.000000
Cu2271	Cu227	0.500000	0.750000	0.000000
Cu2281	Cu228	0.500000	0.250000	0.500000
Cu2291	Cu229	0.000000	0.250000	0.500000
Cu2301	Cu230	0.000000	0.750000	0.000000
Cu2311	Cu231	0.500000	0.250000	0.000000
Cu2321	Cu232	0.500000	0.750000	0.500000
Cu2331	Cu233	0.500000	0.000000	0.750000
Cu2341	Cu234	0.500000	0.500000	0.250000
Cu2351	Cu235	0.000000	0.000000	0.250000
Cu2361	Cu236	0.000000	0.500000	0.750000
Cu2371	Cu237	0.500000	0.000000	0.250000
Cu2381	Cu238	0.500000	0.500000	0.750000
Cu2391	Cu239	0.000000	0.000000	0.750000
Cu2401	Cu240	0.000000	0.500000	0.250000
Cu2411	Cu241	0.750000	0.500000	0.000000
Cu2421	Cu242	0.750000	0.000000	0.500000
Cu2431	Cu243	0.250000	0.500000	0.500000
Cu2441	Cu244	0.250000	0.000000	0.000000
Cu2451	Cu245	0.250000	0.500000	0.000000
Cu2461	Cu246	0.250000	0.000000	0.500000
Cu2471	Cu247	0.750000	0.500000	0.500000
Cu2481	Cu248	0.750000	0.000000	0.000000
