data_BUPFAU_freeONLY_PM
_symmetry_space_group_name_H-M	'P1'
_cell_length_a	36.399700
_cell_length_b	36.399700
_cell_length_c	36.399700
_cell_angle_alpha	90.000000
_cell_angle_beta	90.000000
_cell_angle_gamma	90.000000
_symmetry_Int_Tables_number 1

loop_
_symmetry_equiv_pos_as_xyz
'x,y,z'

loop_
_atom_site_label
_atom_site_type_symbol
_atom_site_fract_x
_atom_site_fract_y
_atom_site_fract_z
Cu11	Cu1	0.890120	0.670530	0.585820
Cu21	Cu2	0.953160	0.731580	0.554670
S11	S1	0.968230	0.711010	0.457330
S21	S2	0.830260	0.684370	0.601730
N11	N1	0.930230	0.695520	0.520540
N21	N2	0.902990	0.671020	0.532380
N31	N3	0.914910	0.660550	0.474890
H11	H1	0.914100	0.650900	0.453400
N41	N4	0.869090	0.623370	0.503660
H21	H2	0.856400	0.618600	0.523000
H31	H3	0.865500	0.611000	0.483900
N51	N5	0.804330	0.619070	0.574660
N61	N6	0.780590	0.607250	0.546380
N71	N7	0.784030	0.666990	0.545590
H41	H4	0.780400	0.689500	0.539500
N81	N8	0.745830	0.638460	0.500810
H51	H5	0.736900	0.618400	0.492000
H61	H6	0.739800	0.659200	0.491300
C11	C1	0.936600	0.689090	0.485870
C21	C2	0.894970	0.650520	0.504390
C31	C3	0.805550	0.654970	0.573040
C41	C4	0.769200	0.637370	0.529400
Cu31	Cu3	0.890120	0.170530	0.085820
Cu41	Cu4	0.953160	0.231580	0.054670
S31	S3	0.968230	0.211010	0.957330
S41	S4	0.830260	0.184370	0.101730
N91	N9	0.930230	0.195520	0.020540
N101	N10	0.902990	0.171020	0.032380
N111	N11	0.914910	0.160550	0.974890
H71	H7	0.914100	0.150900	0.953400
N121	N12	0.869090	0.123370	0.003660
H81	H8	0.856400	0.118600	0.023000
H91	H9	0.865500	0.111000	0.983900
N131	N13	0.804330	0.119070	0.074660
N141	N14	0.780590	0.107250	0.046380
N151	N15	0.784030	0.166990	0.045590
H101	H10	0.780400	0.189500	0.039500
N161	N16	0.745830	0.138460	0.000810
H111	H11	0.736900	0.118400	0.992000
H121	H12	0.739800	0.159200	0.991300
C51	C5	0.936600	0.189090	0.985870
C61	C6	0.894970	0.150520	0.004390
C71	C7	0.805550	0.154970	0.073040
C81	C8	0.769200	0.137370	0.029400
Cu51	Cu5	0.390120	0.670530	0.085820
Cu61	Cu6	0.453160	0.731580	0.054670
S51	S5	0.468230	0.711010	0.957330
S61	S6	0.330260	0.684370	0.101730
N171	N17	0.430230	0.695520	0.020540
N181	N18	0.402990	0.671020	0.032380
N191	N19	0.414910	0.660550	0.974890
H131	H13	0.414100	0.650900	0.953400
N201	N20	0.369090	0.623370	0.003660
H141	H14	0.356400	0.618600	0.023000
H151	H15	0.365500	0.611000	0.983900
N211	N21	0.304330	0.619070	0.074660
N221	N22	0.280590	0.607250	0.046380
N231	N23	0.284030	0.666990	0.045590
H161	H16	0.280400	0.689500	0.039500
N241	N24	0.245830	0.638460	0.000810
H171	H17	0.236900	0.618400	0.992000
H181	H18	0.239800	0.659200	0.991300
C91	C9	0.436600	0.689090	0.985870
C101	C10	0.394970	0.650520	0.004390
C111	C11	0.305550	0.654970	0.073040
C121	C12	0.269200	0.637370	0.029400
Cu71	Cu7	0.390120	0.170530	0.585820
Cu81	Cu8	0.453160	0.231580	0.554670
S71	S7	0.468230	0.211010	0.457330
S81	S8	0.330260	0.184370	0.601730
N251	N25	0.430230	0.195520	0.520540
N261	N26	0.402990	0.171020	0.532380
N271	N27	0.414910	0.160550	0.474890
H191	H19	0.414100	0.150900	0.453400
N281	N28	0.369090	0.123370	0.503660
H201	H20	0.356400	0.118600	0.523000
H211	H21	0.365500	0.111000	0.483900
N291	N29	0.304330	0.119070	0.574660
N301	N30	0.280590	0.107250	0.546380
N311	N31	0.284030	0.166990	0.545590
H221	H22	0.280400	0.189500	0.539500
N321	N32	0.245830	0.138460	0.500810
H231	H23	0.236900	0.118400	0.492000
H241	H24	0.239800	0.159200	0.491300
C131	C13	0.436600	0.189090	0.485870
C141	C14	0.394970	0.150520	0.504390
C151	C15	0.305550	0.154970	0.573040
C161	C16	0.269200	0.137370	0.529400
Cu91	Cu9	0.109880	0.329470	0.585820
Cu101	Cu10	0.046840	0.268420	0.554670
S91	S9	0.031770	0.288990	0.457330
S101	S10	0.169740	0.315630	0.601730
N331	N33	0.069770	0.304480	0.520540
N341	N34	0.097010	0.328980	0.532380
N351	N35	0.085090	0.339450	0.474890
H251	H25	0.085900	0.349100	0.453400
N361	N36	0.130910	0.376630	0.503660
H261	H26	0.143600	0.381400	0.523000
H271	H27	0.134500	0.389000	0.483900
N371	N37	0.195670	0.380930	0.574660
N381	N38	0.219410	0.392750	0.546380
N391	N39	0.215970	0.333010	0.545590
H281	H28	0.219600	0.310500	0.539500
N401	N40	0.254170	0.361540	0.500810
H291	H29	0.263100	0.381600	0.492000
H301	H30	0.260200	0.340800	0.491300
C171	C17	0.063400	0.310910	0.485870
C181	C18	0.105030	0.349480	0.504390
C191	C19	0.194450	0.345030	0.573040
C201	C20	0.230800	0.362630	0.529400
Cu111	Cu11	0.109880	0.829470	0.085820
Cu121	Cu12	0.046840	0.768420	0.054670
S111	S11	0.031770	0.788990	0.957330
S121	S12	0.169740	0.815630	0.101730
N411	N41	0.069770	0.804480	0.020540
N421	N42	0.097010	0.828980	0.032380
N431	N43	0.085090	0.839450	0.974890
H311	H31	0.085900	0.849100	0.953400
N441	N44	0.130910	0.876630	0.003660
H321	H32	0.143600	0.881400	0.023000
H331	H33	0.134500	0.889000	0.983900
N451	N45	0.195670	0.880930	0.074660
N461	N46	0.219410	0.892750	0.046380
N471	N47	0.215970	0.833010	0.045590
H341	H34	0.219600	0.810500	0.039500
N481	N48	0.254170	0.861540	0.000810
H351	H35	0.263100	0.881600	0.992000
H361	H36	0.260200	0.840800	0.991300
C211	C21	0.063400	0.810910	0.985870
C221	C22	0.105030	0.849480	0.004390
C231	C23	0.194450	0.845030	0.073040
C241	C24	0.230800	0.862630	0.029400
Cu131	Cu13	0.609880	0.329470	0.085820
Cu141	Cu14	0.546840	0.268420	0.054670
S131	S13	0.531770	0.288990	0.957330
S141	S14	0.669740	0.315630	0.101730
N491	N49	0.569770	0.304480	0.020540
N501	N50	0.597010	0.328980	0.032380
N511	N51	0.585090	0.339450	0.974890
H371	H37	0.585900	0.349100	0.953400
N521	N52	0.630910	0.376630	0.003660
H381	H38	0.643600	0.381400	0.023000
H391	H39	0.634500	0.389000	0.983900
N531	N53	0.695670	0.380930	0.074660
N541	N54	0.719410	0.392750	0.046380
N551	N55	0.715970	0.333010	0.045590
H401	H40	0.719600	0.310500	0.039500
N561	N56	0.754170	0.361540	0.000810
H411	H41	0.763100	0.381600	0.992000
H421	H42	0.760200	0.340800	0.991300
C251	C25	0.563400	0.310910	0.985870
C261	C26	0.605030	0.349480	0.004390
C271	C27	0.694450	0.345030	0.073040
C281	C28	0.730800	0.362630	0.029400
Cu151	Cu15	0.609880	0.829470	0.585820
Cu161	Cu16	0.546840	0.768420	0.554670
S151	S15	0.531770	0.788990	0.457330
S161	S16	0.669740	0.815630	0.601730
N571	N57	0.569770	0.804480	0.520540
N581	N58	0.597010	0.828980	0.532380
N591	N59	0.585090	0.839450	0.474890
H431	H43	0.585900	0.849100	0.453400
N601	N60	0.630910	0.876630	0.503660
H441	H44	0.643600	0.881400	0.523000
H451	H45	0.634500	0.889000	0.483900
N611	N61	0.695670	0.880930	0.574660
N621	N62	0.719410	0.892750	0.546380
N631	N63	0.715970	0.833010	0.545590
H461	H46	0.719600	0.810500	0.539500
N641	N64	0.754170	0.861540	0.500810
H471	H47	0.763100	0.881600	0.492000
H481	H48	0.760200	0.840800	0.491300
C291	C29	0.563400	0.810910	0.485870
C301	C30	0.605030	0.849480	0.504390
C311	C31	0.694450	0.845030	0.573040
C321	C32	0.730800	0.862630	0.529400
Cu171	Cu17	0.109880	0.670530	0.414180
Cu181	Cu18	0.046840	0.731580	0.445330
S171	S17	0.031770	0.711010	0.542670
S181	S18	0.169740	0.684370	0.398270
N651	N65	0.069770	0.695520	0.479460
N661	N66	0.097010	0.671020	0.467620
N671	N67	0.085090	0.660550	0.525110
H491	H49	0.085900	0.650900	0.546600
N681	N68	0.130910	0.623370	0.496340
H501	H50	0.143600	0.618600	0.477000
H511	H51	0.134500	0.611000	0.516100
N691	N69	0.195670	0.619070	0.425340
N701	N70	0.219410	0.607250	0.453620
N711	N71	0.215970	0.666990	0.454410
H521	H52	0.219600	0.689500	0.460500
N721	N72	0.254170	0.638460	0.499190
H531	H53	0.263100	0.618400	0.508000
H541	H54	0.260200	0.659200	0.508700
C331	C33	0.063400	0.689090	0.514130
C341	C34	0.105030	0.650520	0.495610
C351	C35	0.194450	0.654970	0.426960
C361	C36	0.230800	0.637370	0.470600
Cu191	Cu19	0.109880	0.170530	0.914180
Cu201	Cu20	0.046840	0.231580	0.945330
S191	S19	0.031770	0.211010	0.042670
S201	S20	0.169740	0.184370	0.898270
N731	N73	0.069770	0.195520	0.979460
N741	N74	0.097010	0.171020	0.967620
N751	N75	0.085090	0.160550	0.025110
H551	H55	0.085900	0.150900	0.046600
N761	N76	0.130910	0.123370	0.996340
H561	H56	0.143600	0.118600	0.977000
H571	H57	0.134500	0.111000	0.016100
N771	N77	0.195670	0.119070	0.925340
N781	N78	0.219410	0.107250	0.953620
N791	N79	0.215970	0.166990	0.954410
H581	H58	0.219600	0.189500	0.960500
N801	N80	0.254170	0.138460	0.999190
H591	H59	0.263100	0.118400	0.008000
H601	H60	0.260200	0.159200	0.008700
C371	C37	0.063400	0.189090	0.014130
C381	C38	0.105030	0.150520	0.995610
C391	C39	0.194450	0.154970	0.926960
C401	C40	0.230800	0.137370	0.970600
Cu211	Cu21	0.609880	0.670530	0.914180
Cu221	Cu22	0.546840	0.731580	0.945330
S211	S21	0.531770	0.711010	0.042670
S221	S22	0.669740	0.684370	0.898270
N811	N81	0.569770	0.695520	0.979460
N821	N82	0.597010	0.671020	0.967620
N831	N83	0.585090	0.660550	0.025110
H611	H61	0.585900	0.650900	0.046600
N841	N84	0.630910	0.623370	0.996340
H621	H62	0.643600	0.618600	0.977000
H631	H63	0.634500	0.611000	0.016100
N851	N85	0.695670	0.619070	0.925340
N861	N86	0.719410	0.607250	0.953620
N871	N87	0.715970	0.666990	0.954410
H641	H64	0.719600	0.689500	0.960500
N881	N88	0.754170	0.638460	0.999190
H651	H65	0.763100	0.618400	0.008000
H661	H66	0.760200	0.659200	0.008700
C411	C41	0.563400	0.689090	0.014130
C421	C42	0.605030	0.650520	0.995610
C431	C43	0.694450	0.654970	0.926960
C441	C44	0.730800	0.637370	0.970600
Cu231	Cu23	0.609880	0.170530	0.414180
Cu241	Cu24	0.546840	0.231580	0.445330
S231	S23	0.531770	0.211010	0.542670
S241	S24	0.669740	0.184370	0.398270
N891	N89	0.569770	0.195520	0.479460
N901	N90	0.597010	0.171020	0.467620
N911	N91	0.585090	0.160550	0.525110
H671	H67	0.585900	0.150900	0.546600
N921	N92	0.630910	0.123370	0.496340
H681	H68	0.643600	0.118600	0.477000
H691	H69	0.634500	0.111000	0.516100
N931	N93	0.695670	0.119070	0.425340
N941	N94	0.719410	0.107250	0.453620
N951	N95	0.715970	0.166990	0.454410
H701	H70	0.719600	0.189500	0.460500
N961	N96	0.754170	0.138460	0.499190
H711	H71	0.763100	0.118400	0.508000
H721	H72	0.760200	0.159200	0.508700
C451	C45	0.563400	0.189090	0.514130
C461	C46	0.605030	0.150520	0.495610
C471	C47	0.694450	0.154970	0.426960
C481	C48	0.730800	0.137370	0.470600
Cu251	Cu25	0.890120	0.329470	0.414180
Cu261	Cu26	0.953160	0.268420	0.445330
S251	S25	0.968230	0.288990	0.542670
S261	S26	0.830260	0.315630	0.398270
N971	N97	0.930230	0.304480	0.479460
N981	N98	0.902990	0.328980	0.467620
N991	N99	0.914910	0.339450	0.525110
H731	H73	0.914100	0.349100	0.546600
N1001	N100	0.869090	0.376630	0.496340
H741	H74	0.856400	0.381400	0.477000
H751	H75	0.865500	0.389000	0.516100
N1011	N101	0.804330	0.380930	0.425340
N1021	N102	0.780590	0.392750	0.453620
N1031	N103	0.784030	0.333010	0.454410
H761	H76	0.780400	0.310500	0.460500
N1041	N104	0.745830	0.361540	0.499190
H771	H77	0.736900	0.381600	0.508000
H781	H78	0.739800	0.340800	0.508700
C491	C49	0.936600	0.310910	0.514130
C501	C50	0.894970	0.349480	0.495610
C511	C51	0.805550	0.345030	0.426960
C521	C52	0.769200	0.362630	0.470600
Cu271	Cu27	0.890120	0.829470	0.914180
Cu281	Cu28	0.953160	0.768420	0.945330
S271	S27	0.968230	0.788990	0.042670
S281	S28	0.830260	0.815630	0.898270
N1051	N105	0.930230	0.804480	0.979460
N1061	N106	0.902990	0.828980	0.967620
N1071	N107	0.914910	0.839450	0.025110
H791	H79	0.914100	0.849100	0.046600
N1081	N108	0.869090	0.876630	0.996340
H801	H80	0.856400	0.881400	0.977000
H811	H81	0.865500	0.889000	0.016100
N1091	N109	0.804330	0.880930	0.925340
N1101	N110	0.780590	0.892750	0.953620
N1111	N111	0.784030	0.833010	0.954410
H821	H82	0.780400	0.810500	0.960500
N1121	N112	0.745830	0.861540	0.999190
H831	H83	0.736900	0.881600	0.008000
H841	H84	0.739800	0.840800	0.008700
C531	C53	0.936600	0.810910	0.014130
C541	C54	0.894970	0.849480	0.995610
C551	C55	0.805550	0.845030	0.926960
C561	C56	0.769200	0.862630	0.970600
Cu291	Cu29	0.390120	0.329470	0.914180
Cu301	Cu30	0.453160	0.268420	0.945330
S291	S29	0.468230	0.288990	0.042670
S301	S30	0.330260	0.315630	0.898270
N1131	N113	0.430230	0.304480	0.979460
N1141	N114	0.402990	0.328980	0.967620
N1151	N115	0.414910	0.339450	0.025110
H851	H85	0.414100	0.349100	0.046600
N1161	N116	0.369090	0.376630	0.996340
H861	H86	0.356400	0.381400	0.977000
H871	H87	0.365500	0.389000	0.016100
N1171	N117	0.304330	0.380930	0.925340
N1181	N118	0.280590	0.392750	0.953620
N1191	N119	0.284030	0.333010	0.954410
H881	H88	0.280400	0.310500	0.960500
N1201	N120	0.245830	0.361540	0.999190
H891	H89	0.236900	0.381600	0.008000
H901	H90	0.239800	0.340800	0.008700
C571	C57	0.436600	0.310910	0.014130
C581	C58	0.394970	0.349480	0.995610
C591	C59	0.305550	0.345030	0.926960
C601	C60	0.269200	0.362630	0.970600
Cu311	Cu31	0.390120	0.829470	0.414180
Cu321	Cu32	0.453160	0.768420	0.445330
S311	S31	0.468230	0.788990	0.542670
S321	S32	0.330260	0.815630	0.398270
N1211	N121	0.430230	0.804480	0.479460
N1221	N122	0.402990	0.828980	0.467620
N1231	N123	0.414910	0.839450	0.525110
H911	H91	0.414100	0.849100	0.546600
N1241	N124	0.369090	0.876630	0.496340
H921	H92	0.356400	0.881400	0.477000
H931	H93	0.365500	0.889000	0.516100
N1251	N125	0.304330	0.880930	0.425340
N1261	N126	0.280590	0.892750	0.453620
N1271	N127	0.284030	0.833010	0.454410
H941	H94	0.280400	0.810500	0.460500
N1281	N128	0.245830	0.861540	0.499190
H951	H95	0.236900	0.881600	0.508000
H961	H96	0.239800	0.840800	0.508700
C611	C61	0.436600	0.810910	0.514130
C621	C62	0.394970	0.849480	0.495610
C631	C63	0.305550	0.845030	0.426960
C641	C64	0.269200	0.862630	0.470600
Cu331	Cu33	0.585820	0.890120	0.670530
Cu341	Cu34	0.554670	0.953160	0.731580
S331	S33	0.457330	0.968230	0.711010
S341	S34	0.601730	0.830260	0.684370
N1291	N129	0.520540	0.930230	0.695520
N1301	N130	0.532380	0.902990	0.671020
N1311	N131	0.474890	0.914910	0.660550
H971	H97	0.453400	0.914100	0.650900
N1321	N132	0.503660	0.869090	0.623370
H981	H98	0.523000	0.856400	0.618600
H991	H99	0.483900	0.865500	0.611000
N1331	N133	0.574660	0.804330	0.619070
N1341	N134	0.546380	0.780590	0.607250
N1351	N135	0.545590	0.784030	0.666990
H1001	H100	0.539500	0.780400	0.689500
N1361	N136	0.500810	0.745830	0.638460
H1011	H101	0.492000	0.736900	0.618400
H1021	H102	0.491300	0.739800	0.659200
C651	C65	0.485870	0.936600	0.689090
C661	C66	0.504390	0.894970	0.650520
C671	C67	0.573040	0.805550	0.654970
C681	C68	0.529400	0.769200	0.637370
Cu351	Cu35	0.585820	0.390120	0.170530
Cu361	Cu36	0.554670	0.453160	0.231580
S351	S35	0.457330	0.468230	0.211010
S361	S36	0.601730	0.330260	0.184370
N1371	N137	0.520540	0.430230	0.195520
N1381	N138	0.532380	0.402990	0.171020
N1391	N139	0.474890	0.414910	0.160550
H1031	H103	0.453400	0.414100	0.150900
N1401	N140	0.503660	0.369090	0.123370
H1041	H104	0.523000	0.356400	0.118600
H1051	H105	0.483900	0.365500	0.111000
N1411	N141	0.574660	0.304330	0.119070
N1421	N142	0.546380	0.280590	0.107250
N1431	N143	0.545590	0.284030	0.166990
H1061	H106	0.539500	0.280400	0.189500
N1441	N144	0.500810	0.245830	0.138460
H1071	H107	0.492000	0.236900	0.118400
H1081	H108	0.491300	0.239800	0.159200
C691	C69	0.485870	0.436600	0.189090
C701	C70	0.504390	0.394970	0.150520
C711	C71	0.573040	0.305550	0.154970
C721	C72	0.529400	0.269200	0.137370
Cu371	Cu37	0.085820	0.890120	0.170530
Cu381	Cu38	0.054670	0.953160	0.231580
S371	S37	0.957330	0.968230	0.211010
S381	S38	0.101730	0.830260	0.184370
N1451	N145	0.020540	0.930230	0.195520
N1461	N146	0.032380	0.902990	0.171020
N1471	N147	0.974890	0.914910	0.160550
H1091	H109	0.953400	0.914100	0.150900
N1481	N148	0.003660	0.869090	0.123370
H1101	H110	0.023000	0.856400	0.118600
H1111	H111	0.983900	0.865500	0.111000
N1491	N149	0.074660	0.804330	0.119070
N1501	N150	0.046380	0.780590	0.107250
N1511	N151	0.045590	0.784030	0.166990
H1121	H112	0.039500	0.780400	0.189500
N1521	N152	0.000810	0.745830	0.138460
H1131	H113	0.992000	0.736900	0.118400
H1141	H114	0.991300	0.739800	0.159200
C731	C73	0.985870	0.936600	0.189090
C741	C74	0.004390	0.894970	0.150520
C751	C75	0.073040	0.805550	0.154970
C761	C76	0.029400	0.769200	0.137370
Cu391	Cu39	0.085820	0.390120	0.670530
Cu401	Cu40	0.054670	0.453160	0.731580
S391	S39	0.957330	0.468230	0.711010
S401	S40	0.101730	0.330260	0.684370
N1531	N153	0.020540	0.430230	0.695520
N1541	N154	0.032380	0.402990	0.671020
N1551	N155	0.974890	0.414910	0.660550
H1151	H115	0.953400	0.414100	0.650900
N1561	N156	0.003660	0.369090	0.623370
H1161	H116	0.023000	0.356400	0.618600
H1171	H117	0.983900	0.365500	0.611000
N1571	N157	0.074660	0.304330	0.619070
N1581	N158	0.046380	0.280590	0.607250
N1591	N159	0.045590	0.284030	0.666990
H1181	H118	0.039500	0.280400	0.689500
N1601	N160	0.000810	0.245830	0.638460
H1191	H119	0.992000	0.236900	0.618400
H1201	H120	0.991300	0.239800	0.659200
C771	C77	0.985870	0.436600	0.689090
C781	C78	0.004390	0.394970	0.650520
C791	C79	0.073040	0.305550	0.654970
C801	C80	0.029400	0.269200	0.637370
Cu411	Cu41	0.585820	0.109880	0.329470
Cu421	Cu42	0.554670	0.046840	0.268420
S411	S41	0.457330	0.031770	0.288990
S421	S42	0.601730	0.169740	0.315630
N1611	N161	0.520540	0.069770	0.304480
N1621	N162	0.532380	0.097010	0.328980
N1631	N163	0.474890	0.085090	0.339450
H1211	H121	0.453400	0.085900	0.349100
N1641	N164	0.503660	0.130910	0.376630
H1221	H122	0.523000	0.143600	0.381400
H1231	H123	0.483900	0.134500	0.389000
N1651	N165	0.574660	0.195670	0.380930
N1661	N166	0.546380	0.219410	0.392750
N1671	N167	0.545590	0.215970	0.333010
H1241	H124	0.539500	0.219600	0.310500
N1681	N168	0.500810	0.254170	0.361540
H1251	H125	0.492000	0.263100	0.381600
H1261	H126	0.491300	0.260200	0.340800
C811	C81	0.485870	0.063400	0.310910
C821	C82	0.504390	0.105030	0.349480
C831	C83	0.573040	0.194450	0.345030
C841	C84	0.529400	0.230800	0.362630
Cu431	Cu43	0.585820	0.609880	0.829470
Cu441	Cu44	0.554670	0.546840	0.768420
S431	S43	0.457330	0.531770	0.788990
S441	S44	0.601730	0.669740	0.815630
N1691	N169	0.520540	0.569770	0.804480
N1701	N170	0.532380	0.597010	0.828980
N1711	N171	0.474890	0.585090	0.839450
H1271	H127	0.453400	0.585900	0.849100
N1721	N172	0.503660	0.630910	0.876630
H1281	H128	0.523000	0.643600	0.881400
H1291	H129	0.483900	0.634500	0.889000
N1731	N173	0.574660	0.695670	0.880930
N1741	N174	0.546380	0.719410	0.892750
N1751	N175	0.545590	0.715970	0.833010
H1301	H130	0.539500	0.719600	0.810500
N1761	N176	0.500810	0.754170	0.861540
H1311	H131	0.492000	0.763100	0.881600
H1321	H132	0.491300	0.760200	0.840800
C851	C85	0.485870	0.563400	0.810910
C861	C86	0.504390	0.605030	0.849480
C871	C87	0.573040	0.694450	0.845030
C881	C88	0.529400	0.730800	0.862630
Cu451	Cu45	0.085820	0.109880	0.829470
Cu461	Cu46	0.054670	0.046840	0.768420
S451	S45	0.957330	0.031770	0.788990
S461	S46	0.101730	0.169740	0.815630
N1771	N177	0.020540	0.069770	0.804480
N1781	N178	0.032380	0.097010	0.828980
N1791	N179	0.974890	0.085090	0.839450
H1331	H133	0.953400	0.085900	0.849100
N1801	N180	0.003660	0.130910	0.876630
H1341	H134	0.023000	0.143600	0.881400
H1351	H135	0.983900	0.134500	0.889000
N1811	N181	0.074660	0.195670	0.880930
N1821	N182	0.046380	0.219410	0.892750
N1831	N183	0.045590	0.215970	0.833010
H1361	H136	0.039500	0.219600	0.810500
N1841	N184	0.000810	0.254170	0.861540
H1371	H137	0.992000	0.263100	0.881600
H1381	H138	0.991300	0.260200	0.840800
C891	C89	0.985870	0.063400	0.810910
C901	C90	0.004390	0.105030	0.849480
C911	C91	0.073040	0.194450	0.845030
C921	C92	0.029400	0.230800	0.862630
Cu471	Cu47	0.085820	0.609880	0.329470
Cu481	Cu48	0.054670	0.546840	0.268420
S471	S47	0.957330	0.531770	0.288990
S481	S48	0.101730	0.669740	0.315630
N1851	N185	0.020540	0.569770	0.304480
N1861	N186	0.032380	0.597010	0.328980
N1871	N187	0.974890	0.585090	0.339450
H1391	H139	0.953400	0.585900	0.349100
N1881	N188	0.003660	0.630910	0.376630
H1401	H140	0.023000	0.643600	0.381400
H1411	H141	0.983900	0.634500	0.389000
N1891	N189	0.074660	0.695670	0.380930
N1901	N190	0.046380	0.719410	0.392750
N1911	N191	0.045590	0.715970	0.333010
H1421	H142	0.039500	0.719600	0.310500
N1921	N192	0.000810	0.754170	0.361540
H1431	H143	0.992000	0.763100	0.381600
H1441	H144	0.991300	0.760200	0.340800
C931	C93	0.985870	0.563400	0.310910
C941	C94	0.004390	0.605030	0.349480
C951	C95	0.073040	0.694450	0.345030
C961	C96	0.029400	0.730800	0.362630
Cu491	Cu49	0.414180	0.109880	0.670530
Cu501	Cu50	0.445330	0.046840	0.731580
S491	S49	0.542670	0.031770	0.711010
S501	S50	0.398270	0.169740	0.684370
N1931	N193	0.479460	0.069770	0.695520
N1941	N194	0.467620	0.097010	0.671020
N1951	N195	0.525110	0.085090	0.660550
H1451	H145	0.546600	0.085900	0.650900
N1961	N196	0.496340	0.130910	0.623370
H1461	H146	0.477000	0.143600	0.618600
H1471	H147	0.516100	0.134500	0.611000
N1971	N197	0.425340	0.195670	0.619070
N1981	N198	0.453620	0.219410	0.607250
N1991	N199	0.454410	0.215970	0.666990
H1481	H148	0.460500	0.219600	0.689500
N2001	N200	0.499190	0.254170	0.638460
H1491	H149	0.508000	0.263100	0.618400
H1501	H150	0.508700	0.260200	0.659200
C971	C97	0.514130	0.063400	0.689090
C981	C98	0.495610	0.105030	0.650520
C991	C99	0.426960	0.194450	0.654970
C1001	C100	0.470600	0.230800	0.637370
Cu511	Cu51	0.414180	0.609880	0.170530
Cu521	Cu52	0.445330	0.546840	0.231580
S511	S51	0.542670	0.531770	0.211010
S521	S52	0.398270	0.669740	0.184370
N2011	N201	0.479460	0.569770	0.195520
N2021	N202	0.467620	0.597010	0.171020
N2031	N203	0.525110	0.585090	0.160550
H1511	H151	0.546600	0.585900	0.150900
N2041	N204	0.496340	0.630910	0.123370
H1521	H152	0.477000	0.643600	0.118600
H1531	H153	0.516100	0.634500	0.111000
N2051	N205	0.425340	0.695670	0.119070
N2061	N206	0.453620	0.719410	0.107250
N2071	N207	0.454410	0.715970	0.166990
H1541	H154	0.460500	0.719600	0.189500
N2081	N208	0.499190	0.754170	0.138460
H1551	H155	0.508000	0.763100	0.118400
H1561	H156	0.508700	0.760200	0.159200
C1011	C101	0.514130	0.563400	0.189090
C1021	C102	0.495610	0.605030	0.150520
C1031	C103	0.426960	0.694450	0.154970
C1041	C104	0.470600	0.730800	0.137370
Cu531	Cu53	0.914180	0.109880	0.170530
Cu541	Cu54	0.945330	0.046840	0.231580
S531	S53	0.042670	0.031770	0.211010
S541	S54	0.898270	0.169740	0.184370
N2091	N209	0.979460	0.069770	0.195520
N2101	N210	0.967620	0.097010	0.171020
N2111	N211	0.025110	0.085090	0.160550
H1571	H157	0.046600	0.085900	0.150900
N2121	N212	0.996340	0.130910	0.123370
H1581	H158	0.977000	0.143600	0.118600
H1591	H159	0.016100	0.134500	0.111000
N2131	N213	0.925340	0.195670	0.119070
N2141	N214	0.953620	0.219410	0.107250
N2151	N215	0.954410	0.215970	0.166990
H1601	H160	0.960500	0.219600	0.189500
N2161	N216	0.999190	0.254170	0.138460
H1611	H161	0.008000	0.263100	0.118400
H1621	H162	0.008700	0.260200	0.159200
C1051	C105	0.014130	0.063400	0.189090
C1061	C106	0.995610	0.105030	0.150520
C1071	C107	0.926960	0.194450	0.154970
C1081	C108	0.970600	0.230800	0.137370
Cu551	Cu55	0.914180	0.609880	0.670530
Cu561	Cu56	0.945330	0.546840	0.731580
S551	S55	0.042670	0.531770	0.711010
S561	S56	0.898270	0.669740	0.684370
N2171	N217	0.979460	0.569770	0.695520
N2181	N218	0.967620	0.597010	0.671020
N2191	N219	0.025110	0.585090	0.660550
H1631	H163	0.046600	0.585900	0.650900
N2201	N220	0.996340	0.630910	0.623370
H1641	H164	0.977000	0.643600	0.618600
H1651	H165	0.016100	0.634500	0.611000
N2211	N221	0.925340	0.695670	0.619070
N2221	N222	0.953620	0.719410	0.607250
N2231	N223	0.954410	0.715970	0.666990
H1661	H166	0.960500	0.719600	0.689500
N2241	N224	0.999190	0.754170	0.638460
H1671	H167	0.008000	0.763100	0.618400
H1681	H168	0.008700	0.760200	0.659200
C1091	C109	0.014130	0.563400	0.689090
C1101	C110	0.995610	0.605030	0.650520
C1111	C111	0.926960	0.694450	0.654970
C1121	C112	0.970600	0.730800	0.637370
Cu571	Cu57	0.414180	0.890120	0.329470
Cu581	Cu58	0.445330	0.953160	0.268420
S571	S57	0.542670	0.968230	0.288990
S581	S58	0.398270	0.830260	0.315630
N2251	N225	0.479460	0.930230	0.304480
N2261	N226	0.467620	0.902990	0.328980
N2271	N227	0.525110	0.914910	0.339450
H1691	H169	0.546600	0.914100	0.349100
N2281	N228	0.496340	0.869090	0.376630
H1701	H170	0.477000	0.856400	0.381400
H1711	H171	0.516100	0.865500	0.389000
N2291	N229	0.425340	0.804330	0.380930
N2301	N230	0.453620	0.780590	0.392750
N2311	N231	0.454410	0.784030	0.333010
H1721	H172	0.460500	0.780400	0.310500
N2321	N232	0.499190	0.745830	0.361540
H1731	H173	0.508000	0.736900	0.381600
H1741	H174	0.508700	0.739800	0.340800
C1131	C113	0.514130	0.936600	0.310910
C1141	C114	0.495610	0.894970	0.349480
C1151	C115	0.426960	0.805550	0.345030
C1161	C116	0.470600	0.769200	0.362630
Cu591	Cu59	0.414180	0.390120	0.829470
Cu601	Cu60	0.445330	0.453160	0.768420
S591	S59	0.542670	0.468230	0.788990
S601	S60	0.398270	0.330260	0.815630
N2331	N233	0.479460	0.430230	0.804480
N2341	N234	0.467620	0.402990	0.828980
N2351	N235	0.525110	0.414910	0.839450
H1751	H175	0.546600	0.414100	0.849100
N2361	N236	0.496340	0.369090	0.876630
H1761	H176	0.477000	0.356400	0.881400
H1771	H177	0.516100	0.365500	0.889000
N2371	N237	0.425340	0.304330	0.880930
N2381	N238	0.453620	0.280590	0.892750
N2391	N239	0.454410	0.284030	0.833010
H1781	H178	0.460500	0.280400	0.810500
N2401	N240	0.499190	0.245830	0.861540
H1791	H179	0.508000	0.236900	0.881600
H1801	H180	0.508700	0.239800	0.840800
C1171	C117	0.514130	0.436600	0.810910
C1181	C118	0.495610	0.394970	0.849480
C1191	C119	0.426960	0.305550	0.845030
C1201	C120	0.470600	0.269200	0.862630
Cu611	Cu61	0.914180	0.890120	0.829470
Cu621	Cu62	0.945330	0.953160	0.768420
S611	S61	0.042670	0.968230	0.788990
S621	S62	0.898270	0.830260	0.815630
N2411	N241	0.979460	0.930230	0.804480
N2421	N242	0.967620	0.902990	0.828980
N2431	N243	0.025110	0.914910	0.839450
H1811	H181	0.046600	0.914100	0.849100
N2441	N244	0.996340	0.869090	0.876630
H1821	H182	0.977000	0.856400	0.881400
H1831	H183	0.016100	0.865500	0.889000
N2451	N245	0.925340	0.804330	0.880930
N2461	N246	0.953620	0.780590	0.892750
N2471	N247	0.954410	0.784030	0.833010
H1841	H184	0.960500	0.780400	0.810500
N2481	N248	0.999190	0.745830	0.861540
H1851	H185	0.008000	0.736900	0.881600
H1861	H186	0.008700	0.739800	0.840800
C1211	C121	0.014130	0.936600	0.810910
C1221	C122	0.995610	0.894970	0.849480
C1231	C123	0.926960	0.805550	0.845030
C1241	C124	0.970600	0.769200	0.862630
Cu631	Cu63	0.914180	0.390120	0.329470
Cu641	Cu64	0.945330	0.453160	0.268420
S631	S63	0.042670	0.468230	0.288990
S641	S64	0.898270	0.330260	0.315630
N2491	N249	0.979460	0.430230	0.304480
N2501	N250	0.967620	0.402990	0.328980
N2511	N251	0.025110	0.414910	0.339450
H1871	H187	0.046600	0.414100	0.349100
N2521	N252	0.996340	0.369090	0.376630
H1881	H188	0.977000	0.356400	0.381400
H1891	H189	0.016100	0.365500	0.389000
N2531	N253	0.925340	0.304330	0.380930
N2541	N254	0.953620	0.280590	0.392750
N2551	N255	0.954410	0.284030	0.333010
H1901	H190	0.960500	0.280400	0.310500
N2561	N256	0.999190	0.245830	0.361540
H1911	H191	0.008000	0.236900	0.381600
H1921	H192	0.008700	0.239800	0.340800
C1251	C125	0.014130	0.436600	0.310910
C1261	C126	0.995610	0.394970	0.349480
C1271	C127	0.926960	0.305550	0.345030
C1281	C128	0.970600	0.269200	0.362630
Cu651	Cu65	0.670530	0.585820	0.890120
Cu661	Cu66	0.731580	0.554670	0.953160
S651	S65	0.711010	0.457330	0.968230
S661	S66	0.684370	0.601730	0.830260
N2571	N257	0.695520	0.520540	0.930230
N2581	N258	0.671020	0.532380	0.902990
N2591	N259	0.660550	0.474890	0.914910
H1931	H193	0.650900	0.453400	0.914100
N2601	N260	0.623370	0.503660	0.869090
H1941	H194	0.618600	0.523000	0.856400
H1951	H195	0.611000	0.483900	0.865500
N2611	N261	0.619070	0.574660	0.804330
N2621	N262	0.607250	0.546380	0.780590
N2631	N263	0.666990	0.545590	0.784030
H1961	H196	0.689500	0.539500	0.780400
N2641	N264	0.638460	0.500810	0.745830
H1971	H197	0.618400	0.492000	0.736900
H1981	H198	0.659200	0.491300	0.739800
C1291	C129	0.689090	0.485870	0.936600
C1301	C130	0.650520	0.504390	0.894970
C1311	C131	0.654970	0.573040	0.805550
C1321	C132	0.637370	0.529400	0.769200
Cu671	Cu67	0.670530	0.085820	0.390120
Cu681	Cu68	0.731580	0.054670	0.453160
S671	S67	0.711010	0.957330	0.468230
S681	S68	0.684370	0.101730	0.330260
N2651	N265	0.695520	0.020540	0.430230
N2661	N266	0.671020	0.032380	0.402990
N2671	N267	0.660550	0.974890	0.414910
H1991	H199	0.650900	0.953400	0.414100
N2681	N268	0.623370	0.003660	0.369090
H2001	H200	0.618600	0.023000	0.356400
H2011	H201	0.611000	0.983900	0.365500
N2691	N269	0.619070	0.074660	0.304330
N2701	N270	0.607250	0.046380	0.280590
N2711	N271	0.666990	0.045590	0.284030
H2021	H202	0.689500	0.039500	0.280400
N2721	N272	0.638460	0.000810	0.245830
H2031	H203	0.618400	0.992000	0.236900
H2041	H204	0.659200	0.991300	0.239800
C1331	C133	0.689090	0.985870	0.436600
C1341	C134	0.650520	0.004390	0.394970
C1351	C135	0.654970	0.073040	0.305550
C1361	C136	0.637370	0.029400	0.269200
Cu691	Cu69	0.170530	0.585820	0.390120
Cu701	Cu70	0.231580	0.554670	0.453160
S691	S69	0.211010	0.457330	0.468230
S701	S70	0.184370	0.601730	0.330260
N2731	N273	0.195520	0.520540	0.430230
N2741	N274	0.171020	0.532380	0.402990
N2751	N275	0.160550	0.474890	0.414910
H2051	H205	0.150900	0.453400	0.414100
N2761	N276	0.123370	0.503660	0.369090
H2061	H206	0.118600	0.523000	0.356400
H2071	H207	0.111000	0.483900	0.365500
N2771	N277	0.119070	0.574660	0.304330
N2781	N278	0.107250	0.546380	0.280590
N2791	N279	0.166990	0.545590	0.284030
H2081	H208	0.189500	0.539500	0.280400
N2801	N280	0.138460	0.500810	0.245830
H2091	H209	0.118400	0.492000	0.236900
H2101	H210	0.159200	0.491300	0.239800
C1371	C137	0.189090	0.485870	0.436600
C1381	C138	0.150520	0.504390	0.394970
C1391	C139	0.154970	0.573040	0.305550
C1401	C140	0.137370	0.529400	0.269200
Cu711	Cu71	0.170530	0.085820	0.890120
Cu721	Cu72	0.231580	0.054670	0.953160
S711	S71	0.211010	0.957330	0.968230
S721	S72	0.184370	0.101730	0.830260
N2811	N281	0.195520	0.020540	0.930230
N2821	N282	0.171020	0.032380	0.902990
N2831	N283	0.160550	0.974890	0.914910
H2111	H211	0.150900	0.953400	0.914100
N2841	N284	0.123370	0.003660	0.869090
H2121	H212	0.118600	0.023000	0.856400
H2131	H213	0.111000	0.983900	0.865500
N2851	N285	0.119070	0.074660	0.804330
N2861	N286	0.107250	0.046380	0.780590
N2871	N287	0.166990	0.045590	0.784030
H2141	H214	0.189500	0.039500	0.780400
N2881	N288	0.138460	0.000810	0.745830
H2151	H215	0.118400	0.992000	0.736900
H2161	H216	0.159200	0.991300	0.739800
C1411	C141	0.189090	0.985870	0.936600
C1421	C142	0.150520	0.004390	0.894970
C1431	C143	0.154970	0.073040	0.805550
C1441	C144	0.137370	0.029400	0.769200
Cu731	Cu73	0.329470	0.585820	0.109880
Cu741	Cu74	0.268420	0.554670	0.046840
S731	S73	0.288990	0.457330	0.031770
S741	S74	0.315630	0.601730	0.169740
N2891	N289	0.304480	0.520540	0.069770
N2901	N290	0.328980	0.532380	0.097010
N2911	N291	0.339450	0.474890	0.085090
H2171	H217	0.349100	0.453400	0.085900
N2921	N292	0.376630	0.503660	0.130910
H2181	H218	0.381400	0.523000	0.143600
H2191	H219	0.389000	0.483900	0.134500
N2931	N293	0.380930	0.574660	0.195670
N2941	N294	0.392750	0.546380	0.219410
N2951	N295	0.333010	0.545590	0.215970
H2201	H220	0.310500	0.539500	0.219600
N2961	N296	0.361540	0.500810	0.254170
H2211	H221	0.381600	0.492000	0.263100
H2221	H222	0.340800	0.491300	0.260200
C1451	C145	0.310910	0.485870	0.063400
C1461	C146	0.349480	0.504390	0.105030
C1471	C147	0.345030	0.573040	0.194450
C1481	C148	0.362630	0.529400	0.230800
Cu751	Cu75	0.329470	0.085820	0.609880
Cu761	Cu76	0.268420	0.054670	0.546840
S751	S75	0.288990	0.957330	0.531770
S761	S76	0.315630	0.101730	0.669740
N2971	N297	0.304480	0.020540	0.569770
N2981	N298	0.328980	0.032380	0.597010
N2991	N299	0.339450	0.974890	0.585090
H2231	H223	0.349100	0.953400	0.585900
N3001	N300	0.376630	0.003660	0.630910
H2241	H224	0.381400	0.023000	0.643600
H2251	H225	0.389000	0.983900	0.634500
N3011	N301	0.380930	0.074660	0.695670
N3021	N302	0.392750	0.046380	0.719410
N3031	N303	0.333010	0.045590	0.715970
H2261	H226	0.310500	0.039500	0.719600
N3041	N304	0.361540	0.000810	0.754170
H2271	H227	0.381600	0.992000	0.763100
H2281	H228	0.340800	0.991300	0.760200
C1491	C149	0.310910	0.985870	0.563400
C1501	C150	0.349480	0.004390	0.605030
C1511	C151	0.345030	0.073040	0.694450
C1521	C152	0.362630	0.029400	0.730800
Cu771	Cu77	0.829470	0.585820	0.609880
Cu781	Cu78	0.768420	0.554670	0.546840
S771	S77	0.788990	0.457330	0.531770
S781	S78	0.815630	0.601730	0.669740
N3051	N305	0.804480	0.520540	0.569770
N3061	N306	0.828980	0.532380	0.597010
N3071	N307	0.839450	0.474890	0.585090
H2291	H229	0.849100	0.453400	0.585900
N3081	N308	0.876630	0.503660	0.630910
H2301	H230	0.881400	0.523000	0.643600
H2311	H231	0.889000	0.483900	0.634500
N3091	N309	0.880930	0.574660	0.695670
N3101	N310	0.892750	0.546380	0.719410
N3111	N311	0.833010	0.545590	0.715970
H2321	H232	0.810500	0.539500	0.719600
N3121	N312	0.861540	0.500810	0.754170
H2331	H233	0.881600	0.492000	0.763100
H2341	H234	0.840800	0.491300	0.760200
C1531	C153	0.810910	0.485870	0.563400
C1541	C154	0.849480	0.504390	0.605030
C1551	C155	0.845030	0.573040	0.694450
C1561	C156	0.862630	0.529400	0.730800
Cu791	Cu79	0.829470	0.085820	0.109880
Cu801	Cu80	0.768420	0.054670	0.046840
S791	S79	0.788990	0.957330	0.031770
S801	S80	0.815630	0.101730	0.169740
N3131	N313	0.804480	0.020540	0.069770
N3141	N314	0.828980	0.032380	0.097010
N3151	N315	0.839450	0.974890	0.085090
H2351	H235	0.849100	0.953400	0.085900
N3161	N316	0.876630	0.003660	0.130910
H2361	H236	0.881400	0.023000	0.143600
H2371	H237	0.889000	0.983900	0.134500
N3171	N317	0.880930	0.074660	0.195670
N3181	N318	0.892750	0.046380	0.219410
N3191	N319	0.833010	0.045590	0.215970
H2381	H238	0.810500	0.039500	0.219600
N3201	N320	0.861540	0.000810	0.254170
H2391	H239	0.881600	0.992000	0.263100
H2401	H240	0.840800	0.991300	0.260200
C1571	C157	0.810910	0.985870	0.063400
C1581	C158	0.849480	0.004390	0.105030
C1591	C159	0.845030	0.073040	0.194450
C1601	C160	0.862630	0.029400	0.230800
Cu811	Cu81	0.670530	0.414180	0.109880
Cu821	Cu82	0.731580	0.445330	0.046840
S811	S81	0.711010	0.542670	0.031770
S821	S82	0.684370	0.398270	0.169740
N3211	N321	0.695520	0.479460	0.069770
N3221	N322	0.671020	0.467620	0.097010
N3231	N323	0.660550	0.525110	0.085090
H2411	H241	0.650900	0.546600	0.085900
N3241	N324	0.623370	0.496340	0.130910
H2421	H242	0.618600	0.477000	0.143600
H2431	H243	0.611000	0.516100	0.134500
N3251	N325	0.619070	0.425340	0.195670
N3261	N326	0.607250	0.453620	0.219410
N3271	N327	0.666990	0.454410	0.215970
H2441	H244	0.689500	0.460500	0.219600
N3281	N328	0.638460	0.499190	0.254170
H2451	H245	0.618400	0.508000	0.263100
H2461	H246	0.659200	0.508700	0.260200
C1611	C161	0.689090	0.514130	0.063400
C1621	C162	0.650520	0.495610	0.105030
C1631	C163	0.654970	0.426960	0.194450
C1641	C164	0.637370	0.470600	0.230800
Cu831	Cu83	0.670530	0.914180	0.609880
Cu841	Cu84	0.731580	0.945330	0.546840
S831	S83	0.711010	0.042670	0.531770
S841	S84	0.684370	0.898270	0.669740
N3291	N329	0.695520	0.979460	0.569770
N3301	N330	0.671020	0.967620	0.597010
N3311	N331	0.660550	0.025110	0.585090
H2471	H247	0.650900	0.046600	0.585900
N3321	N332	0.623370	0.996340	0.630910
H2481	H248	0.618600	0.977000	0.643600
H2491	H249	0.611000	0.016100	0.634500
N3331	N333	0.619070	0.925340	0.695670
N3341	N334	0.607250	0.953620	0.719410
N3351	N335	0.666990	0.954410	0.715970
H2501	H250	0.689500	0.960500	0.719600
N3361	N336	0.638460	0.999190	0.754170
H2511	H251	0.618400	0.008000	0.763100
H2521	H252	0.659200	0.008700	0.760200
C1651	C165	0.689090	0.014130	0.563400
C1661	C166	0.650520	0.995610	0.605030
C1671	C167	0.654970	0.926960	0.694450
C1681	C168	0.637370	0.970600	0.730800
Cu851	Cu85	0.170530	0.414180	0.609880
Cu861	Cu86	0.231580	0.445330	0.546840
S851	S85	0.211010	0.542670	0.531770
S861	S86	0.184370	0.398270	0.669740
N3371	N337	0.195520	0.479460	0.569770
N3381	N338	0.171020	0.467620	0.597010
N3391	N339	0.160550	0.525110	0.585090
H2531	H253	0.150900	0.546600	0.585900
N3401	N340	0.123370	0.496340	0.630910
H2541	H254	0.118600	0.477000	0.643600
H2551	H255	0.111000	0.516100	0.634500
N3411	N341	0.119070	0.425340	0.695670
N3421	N342	0.107250	0.453620	0.719410
N3431	N343	0.166990	0.454410	0.715970
H2561	H256	0.189500	0.460500	0.719600
N3441	N344	0.138460	0.499190	0.754170
H2571	H257	0.118400	0.508000	0.763100
H2581	H258	0.159200	0.508700	0.760200
C1691	C169	0.189090	0.514130	0.563400
C1701	C170	0.150520	0.495610	0.605030
C1711	C171	0.154970	0.426960	0.694450
C1721	C172	0.137370	0.470600	0.730800
Cu871	Cu87	0.170530	0.914180	0.109880
Cu881	Cu88	0.231580	0.945330	0.046840
S871	S87	0.211010	0.042670	0.031770
S881	S88	0.184370	0.898270	0.169740
N3451	N345	0.195520	0.979460	0.069770
N3461	N346	0.171020	0.967620	0.097010
N3471	N347	0.160550	0.025110	0.085090
H2591	H259	0.150900	0.046600	0.085900
N3481	N348	0.123370	0.996340	0.130910
H2601	H260	0.118600	0.977000	0.143600
H2611	H261	0.111000	0.016100	0.134500
N3491	N349	0.119070	0.925340	0.195670
N3501	N350	0.107250	0.953620	0.219410
N3511	N351	0.166990	0.954410	0.215970
H2621	H262	0.189500	0.960500	0.219600
N3521	N352	0.138460	0.999190	0.254170
H2631	H263	0.118400	0.008000	0.263100
H2641	H264	0.159200	0.008700	0.260200
C1731	C173	0.189090	0.014130	0.063400
C1741	C174	0.150520	0.995610	0.105030
C1751	C175	0.154970	0.926960	0.194450
C1761	C176	0.137370	0.970600	0.230800
Cu891	Cu89	0.329470	0.414180	0.890120
Cu901	Cu90	0.268420	0.445330	0.953160
S891	S89	0.288990	0.542670	0.968230
S901	S90	0.315630	0.398270	0.830260
N3531	N353	0.304480	0.479460	0.930230
N3541	N354	0.328980	0.467620	0.902990
N3551	N355	0.339450	0.525110	0.914910
H2651	H265	0.349100	0.546600	0.914100
N3561	N356	0.376630	0.496340	0.869090
H2661	H266	0.381400	0.477000	0.856400
H2671	H267	0.389000	0.516100	0.865500
N3571	N357	0.380930	0.425340	0.804330
N3581	N358	0.392750	0.453620	0.780590
N3591	N359	0.333010	0.454410	0.784030
H2681	H268	0.310500	0.460500	0.780400
N3601	N360	0.361540	0.499190	0.745830
H2691	H269	0.381600	0.508000	0.736900
H2701	H270	0.340800	0.508700	0.739800
C1771	C177	0.310910	0.514130	0.936600
C1781	C178	0.349480	0.495610	0.894970
C1791	C179	0.345030	0.426960	0.805550
C1801	C180	0.362630	0.470600	0.769200
Cu911	Cu91	0.329470	0.914180	0.390120
Cu921	Cu92	0.268420	0.945330	0.453160
S911	S91	0.288990	0.042670	0.468230
S921	S92	0.315630	0.898270	0.330260
N3611	N361	0.304480	0.979460	0.430230
N3621	N362	0.328980	0.967620	0.402990
N3631	N363	0.339450	0.025110	0.414910
H2711	H271	0.349100	0.046600	0.414100
N3641	N364	0.376630	0.996340	0.369090
H2721	H272	0.381400	0.977000	0.356400
H2731	H273	0.389000	0.016100	0.365500
N3651	N365	0.380930	0.925340	0.304330
N3661	N366	0.392750	0.953620	0.280590
N3671	N367	0.333010	0.954410	0.284030
H2741	H274	0.310500	0.960500	0.280400
N3681	N368	0.361540	0.999190	0.245830
H2751	H275	0.381600	0.008000	0.236900
H2761	H276	0.340800	0.008700	0.239800
C1811	C181	0.310910	0.014130	0.436600
C1821	C182	0.349480	0.995610	0.394970
C1831	C183	0.345030	0.926960	0.305550
C1841	C184	0.362630	0.970600	0.269200
Cu931	Cu93	0.829470	0.414180	0.390120
Cu941	Cu94	0.768420	0.445330	0.453160
S931	S93	0.788990	0.542670	0.468230
S941	S94	0.815630	0.398270	0.330260
N3691	N369	0.804480	0.479460	0.430230
N3701	N370	0.828980	0.467620	0.402990
N3711	N371	0.839450	0.525110	0.414910
H2771	H277	0.849100	0.546600	0.414100
N3721	N372	0.876630	0.496340	0.369090
H2781	H278	0.881400	0.477000	0.356400
H2791	H279	0.889000	0.516100	0.365500
N3731	N373	0.880930	0.425340	0.304330
N3741	N374	0.892750	0.453620	0.280590
N3751	N375	0.833010	0.454410	0.284030
H2801	H280	0.810500	0.460500	0.280400
N3761	N376	0.861540	0.499190	0.245830
H2811	H281	0.881600	0.508000	0.236900
H2821	H282	0.840800	0.508700	0.239800
C1851	C185	0.810910	0.514130	0.436600
C1861	C186	0.849480	0.495610	0.394970
C1871	C187	0.845030	0.426960	0.305550
C1881	C188	0.862630	0.470600	0.269200
Cu951	Cu95	0.829470	0.914180	0.890120
Cu961	Cu96	0.768420	0.945330	0.953160
S951	S95	0.788990	0.042670	0.968230
S961	S96	0.815630	0.898270	0.830260
N3771	N377	0.804480	0.979460	0.930230
N3781	N378	0.828980	0.967620	0.902990
N3791	N379	0.839450	0.025110	0.914910
H2831	H283	0.849100	0.046600	0.914100
N3801	N380	0.876630	0.996340	0.869090
H2841	H284	0.881400	0.977000	0.856400
H2851	H285	0.889000	0.016100	0.865500
N3811	N381	0.880930	0.925340	0.804330
N3821	N382	0.892750	0.953620	0.780590
N3831	N383	0.833010	0.954410	0.784030
H2861	H286	0.810500	0.960500	0.780400
N3841	N384	0.861540	0.999190	0.745830
H2871	H287	0.881600	0.008000	0.736900
H2881	H288	0.840800	0.008700	0.739800
C1891	C189	0.810910	0.014130	0.936600
C1901	C190	0.849480	0.995610	0.894970
C1911	C191	0.845030	0.926960	0.805550
C1921	C192	0.862630	0.970600	0.769200
Cu971	Cu97	0.170530	0.390120	0.085820
Cu981	Cu98	0.231580	0.453160	0.054670
S971	S97	0.211010	0.468230	0.957330
S981	S98	0.184370	0.330260	0.101730
N3851	N385	0.195520	0.430230	0.020540
N3861	N386	0.171020	0.402990	0.032380
N3871	N387	0.160550	0.414910	0.974890
H2891	H289	0.150900	0.414100	0.953400
N3881	N388	0.123370	0.369090	0.003660
H2901	H290	0.118600	0.356400	0.023000
H2911	H291	0.111000	0.365500	0.983900
N3891	N389	0.119070	0.304330	0.074660
N3901	N390	0.107250	0.280590	0.046380
N3911	N391	0.166990	0.284030	0.045590
H2921	H292	0.189500	0.280400	0.039500
N3921	N392	0.138460	0.245830	0.000810
H2931	H293	0.118400	0.236900	0.992000
H2941	H294	0.159200	0.239800	0.991300
C1931	C193	0.189090	0.436600	0.985870
C1941	C194	0.150520	0.394970	0.004390
C1951	C195	0.154970	0.305550	0.073040
C1961	C196	0.137370	0.269200	0.029400
Cu991	Cu99	0.170530	0.890120	0.585820
Cu1001	Cu100	0.231580	0.953160	0.554670
S991	S99	0.211010	0.968230	0.457330
S1001	S100	0.184370	0.830260	0.601730
N3931	N393	0.195520	0.930230	0.520540
N3941	N394	0.171020	0.902990	0.532380
N3951	N395	0.160550	0.914910	0.474890
H2951	H295	0.150900	0.914100	0.453400
N3961	N396	0.123370	0.869090	0.503660
H2961	H296	0.118600	0.856400	0.523000
H2971	H297	0.111000	0.865500	0.483900
N3971	N397	0.119070	0.804330	0.574660
N3981	N398	0.107250	0.780590	0.546380
N3991	N399	0.166990	0.784030	0.545590
H2981	H298	0.189500	0.780400	0.539500
N4001	N400	0.138460	0.745830	0.500810
H2991	H299	0.118400	0.736900	0.492000
H3001	H300	0.159200	0.739800	0.491300
C1971	C197	0.189090	0.936600	0.485870
C1981	C198	0.150520	0.894970	0.504390
C1991	C199	0.154970	0.805550	0.573040
C2001	C200	0.137370	0.769200	0.529400
Cu1011	Cu101	0.670530	0.390120	0.585820
Cu1021	Cu102	0.731580	0.453160	0.554670
S1011	S101	0.711010	0.468230	0.457330
S1021	S102	0.684370	0.330260	0.601730
N4011	N401	0.695520	0.430230	0.520540
N4021	N402	0.671020	0.402990	0.532380
N4031	N403	0.660550	0.414910	0.474890
H3011	H301	0.650900	0.414100	0.453400
N4041	N404	0.623370	0.369090	0.503660
H3021	H302	0.618600	0.356400	0.523000
H3031	H303	0.611000	0.365500	0.483900
N4051	N405	0.619070	0.304330	0.574660
N4061	N406	0.607250	0.280590	0.546380
N4071	N407	0.666990	0.284030	0.545590
H3041	H304	0.689500	0.280400	0.539500
N4081	N408	0.638460	0.245830	0.500810
H3051	H305	0.618400	0.236900	0.492000
H3061	H306	0.659200	0.239800	0.491300
C2011	C201	0.689090	0.436600	0.485870
C2021	C202	0.650520	0.394970	0.504390
C2031	C203	0.654970	0.305550	0.573040
C2041	C204	0.637370	0.269200	0.529400
Cu1031	Cu103	0.670530	0.890120	0.085820
Cu1041	Cu104	0.731580	0.953160	0.054670
S1031	S103	0.711010	0.968230	0.957330
S1041	S104	0.684370	0.830260	0.101730
N4091	N409	0.695520	0.930230	0.020540
N4101	N410	0.671020	0.902990	0.032380
N4111	N411	0.660550	0.914910	0.974890
H3071	H307	0.650900	0.914100	0.953400
N4121	N412	0.623370	0.869090	0.003660
H3081	H308	0.618600	0.856400	0.023000
H3091	H309	0.611000	0.865500	0.983900
N4131	N413	0.619070	0.804330	0.074660
N4141	N414	0.607250	0.780590	0.046380
N4151	N415	0.666990	0.784030	0.045590
H3101	H310	0.689500	0.780400	0.039500
N4161	N416	0.638460	0.745830	0.000810
H3111	H311	0.618400	0.736900	0.992000
H3121	H312	0.659200	0.739800	0.991300
C2051	C205	0.689090	0.936600	0.985870
C2061	C206	0.650520	0.894970	0.004390
C2071	C207	0.654970	0.805550	0.073040
C2081	C208	0.637370	0.769200	0.029400
Cu1051	Cu105	0.829470	0.609880	0.085820
Cu1061	Cu106	0.768420	0.546840	0.054670
S1051	S105	0.788990	0.531770	0.957330
S1061	S106	0.815630	0.669740	0.101730
N4171	N417	0.804480	0.569770	0.020540
N4181	N418	0.828980	0.597010	0.032380
N4191	N419	0.839450	0.585090	0.974890
H3131	H313	0.849100	0.585900	0.953400
N4201	N420	0.876630	0.630910	0.003660
H3141	H314	0.881400	0.643600	0.023000
H3151	H315	0.889000	0.634500	0.983900
N4211	N421	0.880930	0.695670	0.074660
N4221	N422	0.892750	0.719410	0.046380
N4231	N423	0.833010	0.715970	0.045590
H3161	H316	0.810500	0.719600	0.039500
N4241	N424	0.861540	0.754170	0.000810
H3171	H317	0.881600	0.763100	0.992000
H3181	H318	0.840800	0.760200	0.991300
C2091	C209	0.810910	0.563400	0.985870
C2101	C210	0.849480	0.605030	0.004390
C2111	C211	0.845030	0.694450	0.073040
C2121	C212	0.862630	0.730800	0.029400
Cu1071	Cu107	0.829470	0.109880	0.585820
Cu1081	Cu108	0.768420	0.046840	0.554670
S1071	S107	0.788990	0.031770	0.457330
S1081	S108	0.815630	0.169740	0.601730
N4251	N425	0.804480	0.069770	0.520540
N4261	N426	0.828980	0.097010	0.532380
N4271	N427	0.839450	0.085090	0.474890
H3191	H319	0.849100	0.085900	0.453400
N4281	N428	0.876630	0.130910	0.503660
H3201	H320	0.881400	0.143600	0.523000
H3211	H321	0.889000	0.134500	0.483900
N4291	N429	0.880930	0.195670	0.574660
N4301	N430	0.892750	0.219410	0.546380
N4311	N431	0.833010	0.215970	0.545590
H3221	H322	0.810500	0.219600	0.539500
N4321	N432	0.861540	0.254170	0.500810
H3231	H323	0.881600	0.263100	0.492000
H3241	H324	0.840800	0.260200	0.491300
C2131	C213	0.810910	0.063400	0.485870
C2141	C214	0.849480	0.105030	0.504390
C2151	C215	0.845030	0.194450	0.573040
C2161	C216	0.862630	0.230800	0.529400
Cu1091	Cu109	0.329470	0.609880	0.585820
Cu1101	Cu110	0.268420	0.546840	0.554670
S1091	S109	0.288990	0.531770	0.457330
S1101	S110	0.315630	0.669740	0.601730
N4331	N433	0.304480	0.569770	0.520540
N4341	N434	0.328980	0.597010	0.532380
N4351	N435	0.339450	0.585090	0.474890
H3251	H325	0.349100	0.585900	0.453400
N4361	N436	0.376630	0.630910	0.503660
H3261	H326	0.381400	0.643600	0.523000
H3271	H327	0.389000	0.634500	0.483900
N4371	N437	0.380930	0.695670	0.574660
N4381	N438	0.392750	0.719410	0.546380
N4391	N439	0.333010	0.715970	0.545590
H3281	H328	0.310500	0.719600	0.539500
N4401	N440	0.361540	0.754170	0.500810
H3291	H329	0.381600	0.763100	0.492000
H3301	H330	0.340800	0.760200	0.491300
C2171	C217	0.310910	0.563400	0.485870
C2181	C218	0.349480	0.605030	0.504390
C2191	C219	0.345030	0.694450	0.573040
C2201	C220	0.362630	0.730800	0.529400
Cu1111	Cu111	0.329470	0.109880	0.085820
Cu1121	Cu112	0.268420	0.046840	0.054670
S1111	S111	0.288990	0.031770	0.957330
S1121	S112	0.315630	0.169740	0.101730
N4411	N441	0.304480	0.069770	0.020540
N4421	N442	0.328980	0.097010	0.032380
N4431	N443	0.339450	0.085090	0.974890
H3311	H331	0.349100	0.085900	0.953400
N4441	N444	0.376630	0.130910	0.003660
H3321	H332	0.381400	0.143600	0.023000
H3331	H333	0.389000	0.134500	0.983900
N4451	N445	0.380930	0.195670	0.074660
N4461	N446	0.392750	0.219410	0.046380
N4471	N447	0.333010	0.215970	0.045590
H3341	H334	0.310500	0.219600	0.039500
N4481	N448	0.361540	0.254170	0.000810
H3351	H335	0.381600	0.263100	0.992000
H3361	H336	0.340800	0.260200	0.991300
C2211	C221	0.310910	0.063400	0.985870
C2221	C222	0.349480	0.105030	0.004390
C2231	C223	0.345030	0.194450	0.073040
C2241	C224	0.362630	0.230800	0.029400
Cu1131	Cu113	0.170530	0.609880	0.914180
Cu1141	Cu114	0.231580	0.546840	0.945330
S1131	S113	0.211010	0.531770	0.042670
S1141	S114	0.184370	0.669740	0.898270
N4491	N449	0.195520	0.569770	0.979460
N4501	N450	0.171020	0.597010	0.967620
N4511	N451	0.160550	0.585090	0.025110
H3371	H337	0.150900	0.585900	0.046600
N4521	N452	0.123370	0.630910	0.996340
H3381	H338	0.118600	0.643600	0.977000
H3391	H339	0.111000	0.634500	0.016100
N4531	N453	0.119070	0.695670	0.925340
N4541	N454	0.107250	0.719410	0.953620
N4551	N455	0.166990	0.715970	0.954410
H3401	H340	0.189500	0.719600	0.960500
N4561	N456	0.138460	0.754170	0.999190
H3411	H341	0.118400	0.763100	0.008000
H3421	H342	0.159200	0.760200	0.008700
C2251	C225	0.189090	0.563400	0.014130
C2261	C226	0.150520	0.605030	0.995610
C2271	C227	0.154970	0.694450	0.926960
C2281	C228	0.137370	0.730800	0.970600
Cu1151	Cu115	0.170530	0.109880	0.414180
Cu1161	Cu116	0.231580	0.046840	0.445330
S1151	S115	0.211010	0.031770	0.542670
S1161	S116	0.184370	0.169740	0.398270
N4571	N457	0.195520	0.069770	0.479460
N4581	N458	0.171020	0.097010	0.467620
N4591	N459	0.160550	0.085090	0.525110
H3431	H343	0.150900	0.085900	0.546600
N4601	N460	0.123370	0.130910	0.496340
H3441	H344	0.118600	0.143600	0.477000
H3451	H345	0.111000	0.134500	0.516100
N4611	N461	0.119070	0.195670	0.425340
N4621	N462	0.107250	0.219410	0.453620
N4631	N463	0.166990	0.215970	0.454410
H3461	H346	0.189500	0.219600	0.460500
N4641	N464	0.138460	0.254170	0.499190
H3471	H347	0.118400	0.263100	0.508000
H3481	H348	0.159200	0.260200	0.508700
C2291	C229	0.189090	0.063400	0.514130
C2301	C230	0.150520	0.105030	0.495610
C2311	C231	0.154970	0.194450	0.426960
C2321	C232	0.137370	0.230800	0.470600
Cu1171	Cu117	0.670530	0.609880	0.414180
Cu1181	Cu118	0.731580	0.546840	0.445330
S1171	S117	0.711010	0.531770	0.542670
S1181	S118	0.684370	0.669740	0.398270
N4651	N465	0.695520	0.569770	0.479460
N4661	N466	0.671020	0.597010	0.467620
N4671	N467	0.660550	0.585090	0.525110
H3491	H349	0.650900	0.585900	0.546600
N4681	N468	0.623370	0.630910	0.496340
H3501	H350	0.618600	0.643600	0.477000
H3511	H351	0.611000	0.634500	0.516100
N4691	N469	0.619070	0.695670	0.425340
N4701	N470	0.607250	0.719410	0.453620
N4711	N471	0.666990	0.715970	0.454410
H3521	H352	0.689500	0.719600	0.460500
N4721	N472	0.638460	0.754170	0.499190
H3531	H353	0.618400	0.763100	0.508000
H3541	H354	0.659200	0.760200	0.508700
C2331	C233	0.689090	0.563400	0.514130
C2341	C234	0.650520	0.605030	0.495610
C2351	C235	0.654970	0.694450	0.426960
C2361	C236	0.637370	0.730800	0.470600
Cu1191	Cu119	0.670530	0.109880	0.914180
Cu1201	Cu120	0.731580	0.046840	0.945330
S1191	S119	0.711010	0.031770	0.042670
S1201	S120	0.684370	0.169740	0.898270
N4731	N473	0.695520	0.069770	0.979460
N4741	N474	0.671020	0.097010	0.967620
N4751	N475	0.660550	0.085090	0.025110
H3551	H355	0.650900	0.085900	0.046600
N4761	N476	0.623370	0.130910	0.996340
H3561	H356	0.618600	0.143600	0.977000
H3571	H357	0.611000	0.134500	0.016100
N4771	N477	0.619070	0.195670	0.925340
N4781	N478	0.607250	0.219410	0.953620
N4791	N479	0.666990	0.215970	0.954410
H3581	H358	0.689500	0.219600	0.960500
N4801	N480	0.638460	0.254170	0.999190
H3591	H359	0.618400	0.263100	0.008000
H3601	H360	0.659200	0.260200	0.008700
C2371	C237	0.689090	0.063400	0.014130
C2381	C238	0.650520	0.105030	0.995610
C2391	C239	0.654970	0.194450	0.926960
C2401	C240	0.637370	0.230800	0.970600
Cu1211	Cu121	0.829470	0.390120	0.914180
Cu1221	Cu122	0.768420	0.453160	0.945330
S1211	S121	0.788990	0.468230	0.042670
S1221	S122	0.815630	0.330260	0.898270
N4811	N481	0.804480	0.430230	0.979460
N4821	N482	0.828980	0.402990	0.967620
N4831	N483	0.839450	0.414910	0.025110
H3611	H361	0.849100	0.414100	0.046600
N4841	N484	0.876630	0.369090	0.996340
H3621	H362	0.881400	0.356400	0.977000
H3631	H363	0.889000	0.365500	0.016100
N4851	N485	0.880930	0.304330	0.925340
N4861	N486	0.892750	0.280590	0.953620
N4871	N487	0.833010	0.284030	0.954410
H3641	H364	0.810500	0.280400	0.960500
N4881	N488	0.861540	0.245830	0.999190
H3651	H365	0.881600	0.236900	0.008000
H3661	H366	0.840800	0.239800	0.008700
C2411	C241	0.810910	0.436600	0.014130
C2421	C242	0.849480	0.394970	0.995610
C2431	C243	0.845030	0.305550	0.926960
C2441	C244	0.862630	0.269200	0.970600
Cu1231	Cu123	0.829470	0.890120	0.414180
Cu1241	Cu124	0.768420	0.953160	0.445330
S1231	S123	0.788990	0.968230	0.542670
S1241	S124	0.815630	0.830260	0.398270
N4891	N489	0.804480	0.930230	0.479460
N4901	N490	0.828980	0.902990	0.467620
N4911	N491	0.839450	0.914910	0.525110
H3671	H367	0.849100	0.914100	0.546600
N4921	N492	0.876630	0.869090	0.496340
H3681	H368	0.881400	0.856400	0.477000
H3691	H369	0.889000	0.865500	0.516100
N4931	N493	0.880930	0.804330	0.425340
N4941	N494	0.892750	0.780590	0.453620
N4951	N495	0.833010	0.784030	0.454410
H3701	H370	0.810500	0.780400	0.460500
N4961	N496	0.861540	0.745830	0.499190
H3711	H371	0.881600	0.736900	0.508000
H3721	H372	0.840800	0.739800	0.508700
C2451	C245	0.810910	0.936600	0.514130
C2461	C246	0.849480	0.894970	0.495610
C2471	C247	0.845030	0.805550	0.426960
C2481	C248	0.862630	0.769200	0.470600
Cu1251	Cu125	0.329470	0.390120	0.414180
Cu1261	Cu126	0.268420	0.453160	0.445330
S1251	S125	0.288990	0.468230	0.542670
S1261	S126	0.315630	0.330260	0.398270
N4971	N497	0.304480	0.430230	0.479460
N4981	N498	0.328980	0.402990	0.467620
N4991	N499	0.339450	0.414910	0.525110
H3731	H373	0.349100	0.414100	0.546600
N5001	N500	0.376630	0.369090	0.496340
H3741	H374	0.381400	0.356400	0.477000
H3751	H375	0.389000	0.365500	0.516100
N5011	N501	0.380930	0.304330	0.425340
N5021	N502	0.392750	0.280590	0.453620
N5031	N503	0.333010	0.284030	0.454410
H3761	H376	0.310500	0.280400	0.460500
N5041	N504	0.361540	0.245830	0.499190
H3771	H377	0.381600	0.236900	0.508000
H3781	H378	0.340800	0.239800	0.508700
C2491	C249	0.310910	0.436600	0.514130
C2501	C250	0.349480	0.394970	0.495610
C2511	C251	0.345030	0.305550	0.426960
C2521	C252	0.362630	0.269200	0.470600
Cu1271	Cu127	0.329470	0.890120	0.914180
Cu1281	Cu128	0.268420	0.953160	0.945330
S1271	S127	0.288990	0.968230	0.042670
S1281	S128	0.315630	0.830260	0.898270
N5051	N505	0.304480	0.930230	0.979460
N5061	N506	0.328980	0.902990	0.967620
N5071	N507	0.339450	0.914910	0.025110
H3791	H379	0.349100	0.914100	0.046600
N5081	N508	0.376630	0.869090	0.996340
H3801	H380	0.381400	0.856400	0.977000
H3811	H381	0.389000	0.865500	0.016100
N5091	N509	0.380930	0.804330	0.925340
N5101	N510	0.392750	0.780590	0.953620
N5111	N511	0.333010	0.784030	0.954410
H3821	H382	0.310500	0.780400	0.960500
N5121	N512	0.361540	0.745830	0.999190
H3831	H383	0.381600	0.736900	0.008000
H3841	H384	0.340800	0.739800	0.008700
C2531	C253	0.310910	0.936600	0.014130
C2541	C254	0.349480	0.894970	0.995610
C2551	C255	0.345030	0.805550	0.926960
C2561	C256	0.362630	0.769200	0.970600
Cu1291	Cu129	0.390120	0.085820	0.170530
Cu1301	Cu130	0.453160	0.054670	0.231580
S1291	S129	0.468230	0.957330	0.211010
S1301	S130	0.330260	0.101730	0.184370
N5131	N513	0.430230	0.020540	0.195520
N5141	N514	0.402990	0.032380	0.171020
N5151	N515	0.414910	0.974890	0.160550
H3851	H385	0.414100	0.953400	0.150900
N5161	N516	0.369090	0.003660	0.123370
H3861	H386	0.356400	0.023000	0.118600
H3871	H387	0.365500	0.983900	0.111000
N5171	N517	0.304330	0.074660	0.119070
N5181	N518	0.280590	0.046380	0.107250
N5191	N519	0.284030	0.045590	0.166990
H3881	H388	0.280400	0.039500	0.189500
N5201	N520	0.245830	0.000810	0.138460
H3891	H389	0.236900	0.992000	0.118400
H3901	H390	0.239800	0.991300	0.159200
C2571	C257	0.436600	0.985870	0.189090
C2581	C258	0.394970	0.004390	0.150520
C2591	C259	0.305550	0.073040	0.154970
C2601	C260	0.269200	0.029400	0.137370
Cu1311	Cu131	0.390120	0.585820	0.670530
Cu1321	Cu132	0.453160	0.554670	0.731580
S1311	S131	0.468230	0.457330	0.711010
S1321	S132	0.330260	0.601730	0.684370
N5211	N521	0.430230	0.520540	0.695520
N5221	N522	0.402990	0.532380	0.671020
N5231	N523	0.414910	0.474890	0.660550
H3911	H391	0.414100	0.453400	0.650900
N5241	N524	0.369090	0.503660	0.623370
H3921	H392	0.356400	0.523000	0.618600
H3931	H393	0.365500	0.483900	0.611000
N5251	N525	0.304330	0.574660	0.619070
N5261	N526	0.280590	0.546380	0.607250
N5271	N527	0.284030	0.545590	0.666990
H3941	H394	0.280400	0.539500	0.689500
N5281	N528	0.245830	0.500810	0.638460
H3951	H395	0.236900	0.492000	0.618400
H3961	H396	0.239800	0.491300	0.659200
C2611	C261	0.436600	0.485870	0.689090
C2621	C262	0.394970	0.504390	0.650520
C2631	C263	0.305550	0.573040	0.654970
C2641	C264	0.269200	0.529400	0.637370
Cu1331	Cu133	0.890120	0.085820	0.670530
Cu1341	Cu134	0.953160	0.054670	0.731580
S1331	S133	0.968230	0.957330	0.711010
S1341	S134	0.830260	0.101730	0.684370
N5291	N529	0.930230	0.020540	0.695520
N5301	N530	0.902990	0.032380	0.671020
N5311	N531	0.914910	0.974890	0.660550
H3971	H397	0.914100	0.953400	0.650900
N5321	N532	0.869090	0.003660	0.623370
H3981	H398	0.856400	0.023000	0.618600
H3991	H399	0.865500	0.983900	0.611000
N5331	N533	0.804330	0.074660	0.619070
N5341	N534	0.780590	0.046380	0.607250
N5351	N535	0.784030	0.045590	0.666990
H4001	H400	0.780400	0.039500	0.689500
N5361	N536	0.745830	0.000810	0.638460
H4011	H401	0.736900	0.992000	0.618400
H4021	H402	0.739800	0.991300	0.659200
C2651	C265	0.936600	0.985870	0.689090
C2661	C266	0.894970	0.004390	0.650520
C2671	C267	0.805550	0.073040	0.654970
C2681	C268	0.769200	0.029400	0.637370
Cu1351	Cu135	0.890120	0.585820	0.170530
Cu1361	Cu136	0.953160	0.554670	0.231580
S1351	S135	0.968230	0.457330	0.211010
S1361	S136	0.830260	0.601730	0.184370
N5371	N537	0.930230	0.520540	0.195520
N5381	N538	0.902990	0.532380	0.171020
N5391	N539	0.914910	0.474890	0.160550
H4031	H403	0.914100	0.453400	0.150900
N5401	N540	0.869090	0.503660	0.123370
H4041	H404	0.856400	0.523000	0.118600
H4051	H405	0.865500	0.483900	0.111000
N5411	N541	0.804330	0.574660	0.119070
N5421	N542	0.780590	0.546380	0.107250
N5431	N543	0.784030	0.545590	0.166990
H4061	H406	0.780400	0.539500	0.189500
N5441	N544	0.745830	0.500810	0.138460
H4071	H407	0.736900	0.492000	0.118400
H4081	H408	0.739800	0.491300	0.159200
C2691	C269	0.936600	0.485870	0.189090
C2701	C270	0.894970	0.504390	0.150520
C2711	C271	0.805550	0.573040	0.154970
C2721	C272	0.769200	0.529400	0.137370
Cu1371	Cu137	0.609880	0.085820	0.829470
Cu1381	Cu138	0.546840	0.054670	0.768420
S1371	S137	0.531770	0.957330	0.788990
S1381	S138	0.669740	0.101730	0.815630
N5451	N545	0.569770	0.020540	0.804480
N5461	N546	0.597010	0.032380	0.828980
N5471	N547	0.585090	0.974890	0.839450
H4091	H409	0.585900	0.953400	0.849100
N5481	N548	0.630910	0.003660	0.876630
H4101	H410	0.643600	0.023000	0.881400
H4111	H411	0.634500	0.983900	0.889000
N5491	N549	0.695670	0.074660	0.880930
N5501	N550	0.719410	0.046380	0.892750
N5511	N551	0.715970	0.045590	0.833010
H4121	H412	0.719600	0.039500	0.810500
N5521	N552	0.754170	0.000810	0.861540
H4131	H413	0.763100	0.992000	0.881600
H4141	H414	0.760200	0.991300	0.840800
C2731	C273	0.563400	0.985870	0.810910
C2741	C274	0.605030	0.004390	0.849480
C2751	C275	0.694450	0.073040	0.845030
C2761	C276	0.730800	0.029400	0.862630
Cu1391	Cu139	0.609880	0.585820	0.329470
Cu1401	Cu140	0.546840	0.554670	0.268420
S1391	S139	0.531770	0.457330	0.288990
S1401	S140	0.669740	0.601730	0.315630
N5531	N553	0.569770	0.520540	0.304480
N5541	N554	0.597010	0.532380	0.328980
N5551	N555	0.585090	0.474890	0.339450
H4151	H415	0.585900	0.453400	0.349100
N5561	N556	0.630910	0.503660	0.376630
H4161	H416	0.643600	0.523000	0.381400
H4171	H417	0.634500	0.483900	0.389000
N5571	N557	0.695670	0.574660	0.380930
N5581	N558	0.719410	0.546380	0.392750
N5591	N559	0.715970	0.545590	0.333010
H4181	H418	0.719600	0.539500	0.310500
N5601	N560	0.754170	0.500810	0.361540
H4191	H419	0.763100	0.492000	0.381600
H4201	H420	0.760200	0.491300	0.340800
C2771	C277	0.563400	0.485870	0.310910
C2781	C278	0.605030	0.504390	0.349480
C2791	C279	0.694450	0.573040	0.345030
C2801	C280	0.730800	0.529400	0.362630
Cu1411	Cu141	0.109880	0.085820	0.329470
Cu1421	Cu142	0.046840	0.054670	0.268420
S1411	S141	0.031770	0.957330	0.288990
S1421	S142	0.169740	0.101730	0.315630
N5611	N561	0.069770	0.020540	0.304480
N5621	N562	0.097010	0.032380	0.328980
N5631	N563	0.085090	0.974890	0.339450
H4211	H421	0.085900	0.953400	0.349100
N5641	N564	0.130910	0.003660	0.376630
H4221	H422	0.143600	0.023000	0.381400
H4231	H423	0.134500	0.983900	0.389000
N5651	N565	0.195670	0.074660	0.380930
N5661	N566	0.219410	0.046380	0.392750
N5671	N567	0.215970	0.045590	0.333010
H4241	H424	0.219600	0.039500	0.310500
N5681	N568	0.254170	0.000810	0.361540
H4251	H425	0.263100	0.992000	0.381600
H4261	H426	0.260200	0.991300	0.340800
C2811	C281	0.063400	0.985870	0.310910
C2821	C282	0.105030	0.004390	0.349480
C2831	C283	0.194450	0.073040	0.345030
C2841	C284	0.230800	0.029400	0.362630
Cu1431	Cu143	0.109880	0.585820	0.829470
Cu1441	Cu144	0.046840	0.554670	0.768420
S1431	S143	0.031770	0.457330	0.788990
S1441	S144	0.169740	0.601730	0.815630
N5691	N569	0.069770	0.520540	0.804480
N5701	N570	0.097010	0.532380	0.828980
N5711	N571	0.085090	0.474890	0.839450
H4271	H427	0.085900	0.453400	0.849100
N5721	N572	0.130910	0.503660	0.876630
H4281	H428	0.143600	0.523000	0.881400
H4291	H429	0.134500	0.483900	0.889000
N5731	N573	0.195670	0.574660	0.880930
N5741	N574	0.219410	0.546380	0.892750
N5751	N575	0.215970	0.545590	0.833010
H4301	H430	0.219600	0.539500	0.810500
N5761	N576	0.254170	0.500810	0.861540
H4311	H431	0.263100	0.492000	0.881600
H4321	H432	0.260200	0.491300	0.840800
C2851	C285	0.063400	0.485870	0.810910
C2861	C286	0.105030	0.504390	0.849480
C2871	C287	0.194450	0.573040	0.845030
C2881	C288	0.230800	0.529400	0.862630
Cu1451	Cu145	0.609880	0.914180	0.170530
Cu1461	Cu146	0.546840	0.945330	0.231580
S1451	S145	0.531770	0.042670	0.211010
S1461	S146	0.669740	0.898270	0.184370
N5771	N577	0.569770	0.979460	0.195520
N5781	N578	0.597010	0.967620	0.171020
N5791	N579	0.585090	0.025110	0.160550
H4331	H433	0.585900	0.046600	0.150900
N5801	N580	0.630910	0.996340	0.123370
H4341	H434	0.643600	0.977000	0.118600
H4351	H435	0.634500	0.016100	0.111000
N5811	N581	0.695670	0.925340	0.119070
N5821	N582	0.719410	0.953620	0.107250
N5831	N583	0.715970	0.954410	0.166990
H4361	H436	0.719600	0.960500	0.189500
N5841	N584	0.754170	0.999190	0.138460
H4371	H437	0.763100	0.008000	0.118400
H4381	H438	0.760200	0.008700	0.159200
C2891	C289	0.563400	0.014130	0.189090
C2901	C290	0.605030	0.995610	0.150520
C2911	C291	0.694450	0.926960	0.154970
C2921	C292	0.730800	0.970600	0.137370
Cu1471	Cu147	0.609880	0.414180	0.670530
Cu1481	Cu148	0.546840	0.445330	0.731580
S1471	S147	0.531770	0.542670	0.711010
S1481	S148	0.669740	0.398270	0.684370
N5851	N585	0.569770	0.479460	0.695520
N5861	N586	0.597010	0.467620	0.671020
N5871	N587	0.585090	0.525110	0.660550
H4391	H439	0.585900	0.546600	0.650900
N5881	N588	0.630910	0.496340	0.623370
H4401	H440	0.643600	0.477000	0.618600
H4411	H441	0.634500	0.516100	0.611000
N5891	N589	0.695670	0.425340	0.619070
N5901	N590	0.719410	0.453620	0.607250
N5911	N591	0.715970	0.454410	0.666990
H4421	H442	0.719600	0.460500	0.689500
N5921	N592	0.754170	0.499190	0.638460
H4431	H443	0.763100	0.508000	0.618400
H4441	H444	0.760200	0.508700	0.659200
C2931	C293	0.563400	0.514130	0.689090
C2941	C294	0.605030	0.495610	0.650520
C2951	C295	0.694450	0.426960	0.654970
C2961	C296	0.730800	0.470600	0.637370
Cu1491	Cu149	0.109880	0.914180	0.670530
Cu1501	Cu150	0.046840	0.945330	0.731580
S1491	S149	0.031770	0.042670	0.711010
S1501	S150	0.169740	0.898270	0.684370
N5931	N593	0.069770	0.979460	0.695520
N5941	N594	0.097010	0.967620	0.671020
N5951	N595	0.085090	0.025110	0.660550
H4451	H445	0.085900	0.046600	0.650900
N5961	N596	0.130910	0.996340	0.623370
H4461	H446	0.143600	0.977000	0.618600
H4471	H447	0.134500	0.016100	0.611000
N5971	N597	0.195670	0.925340	0.619070
N5981	N598	0.219410	0.953620	0.607250
N5991	N599	0.215970	0.954410	0.666990
H4481	H448	0.219600	0.960500	0.689500
N6001	N600	0.254170	0.999190	0.638460
H4491	H449	0.263100	0.008000	0.618400
H4501	H450	0.260200	0.008700	0.659200
C2971	C297	0.063400	0.014130	0.689090
C2981	C298	0.105030	0.995610	0.650520
C2991	C299	0.194450	0.926960	0.654970
C3001	C300	0.230800	0.970600	0.637370
Cu1511	Cu151	0.109880	0.414180	0.170530
Cu1521	Cu152	0.046840	0.445330	0.231580
S1511	S151	0.031770	0.542670	0.211010
S1521	S152	0.169740	0.398270	0.184370
N6011	N601	0.069770	0.479460	0.195520
N6021	N602	0.097010	0.467620	0.171020
N6031	N603	0.085090	0.525110	0.160550
H4511	H451	0.085900	0.546600	0.150900
N6041	N604	0.130910	0.496340	0.123370
H4521	H452	0.143600	0.477000	0.118600
H4531	H453	0.134500	0.516100	0.111000
N6051	N605	0.195670	0.425340	0.119070
N6061	N606	0.219410	0.453620	0.107250
N6071	N607	0.215970	0.454410	0.166990
H4541	H454	0.219600	0.460500	0.189500
N6081	N608	0.254170	0.499190	0.138460
H4551	H455	0.263100	0.508000	0.118400
H4561	H456	0.260200	0.508700	0.159200
C3011	C301	0.063400	0.514130	0.189090
C3021	C302	0.105030	0.495610	0.150520
C3031	C303	0.194450	0.426960	0.154970
C3041	C304	0.230800	0.470600	0.137370
Cu1531	Cu153	0.390120	0.914180	0.829470
Cu1541	Cu154	0.453160	0.945330	0.768420
S1531	S153	0.468230	0.042670	0.788990
S1541	S154	0.330260	0.898270	0.815630
N6091	N609	0.430230	0.979460	0.804480
N6101	N610	0.402990	0.967620	0.828980
N6111	N611	0.414910	0.025110	0.839450
H4571	H457	0.414100	0.046600	0.849100
N6121	N612	0.369090	0.996340	0.876630
H4581	H458	0.356400	0.977000	0.881400
H4591	H459	0.365500	0.016100	0.889000
N6131	N613	0.304330	0.925340	0.880930
N6141	N614	0.280590	0.953620	0.892750
N6151	N615	0.284030	0.954410	0.833010
H4601	H460	0.280400	0.960500	0.810500
N6161	N616	0.245830	0.999190	0.861540
H4611	H461	0.236900	0.008000	0.881600
H4621	H462	0.239800	0.008700	0.840800
C3051	C305	0.436600	0.014130	0.810910
C3061	C306	0.394970	0.995610	0.849480
C3071	C307	0.305550	0.926960	0.845030
C3081	C308	0.269200	0.970600	0.862630
Cu1551	Cu155	0.390120	0.414180	0.329470
Cu1561	Cu156	0.453160	0.445330	0.268420
S1551	S155	0.468230	0.542670	0.288990
S1561	S156	0.330260	0.398270	0.315630
N6171	N617	0.430230	0.479460	0.304480
N6181	N618	0.402990	0.467620	0.328980
N6191	N619	0.414910	0.525110	0.339450
H4631	H463	0.414100	0.546600	0.349100
N6201	N620	0.369090	0.496340	0.376630
H4641	H464	0.356400	0.477000	0.381400
H4651	H465	0.365500	0.516100	0.389000
N6211	N621	0.304330	0.425340	0.380930
N6221	N622	0.280590	0.453620	0.392750
N6231	N623	0.284030	0.454410	0.333010
H4661	H466	0.280400	0.460500	0.310500
N6241	N624	0.245830	0.499190	0.361540
H4671	H467	0.236900	0.508000	0.381600
H4681	H468	0.239800	0.508700	0.340800
C3091	C309	0.436600	0.514130	0.310910
C3101	C310	0.394970	0.495610	0.349480
C3111	C311	0.305550	0.426960	0.345030
C3121	C312	0.269200	0.470600	0.362630
Cu1571	Cu157	0.890120	0.914180	0.329470
Cu1581	Cu158	0.953160	0.945330	0.268420
S1571	S157	0.968230	0.042670	0.288990
S1581	S158	0.830260	0.898270	0.315630
N6251	N625	0.930230	0.979460	0.304480
N6261	N626	0.902990	0.967620	0.328980
N6271	N627	0.914910	0.025110	0.339450
H4691	H469	0.914100	0.046600	0.349100
N6281	N628	0.869090	0.996340	0.376630
H4701	H470	0.856400	0.977000	0.381400
H4711	H471	0.865500	0.016100	0.389000
N6291	N629	0.804330	0.925340	0.380930
N6301	N630	0.780590	0.953620	0.392750
N6311	N631	0.784030	0.954410	0.333010
H4721	H472	0.780400	0.960500	0.310500
N6321	N632	0.745830	0.999190	0.361540
H4731	H473	0.736900	0.008000	0.381600
H4741	H474	0.739800	0.008700	0.340800
C3131	C313	0.936600	0.014130	0.310910
C3141	C314	0.894970	0.995610	0.349480
C3151	C315	0.805550	0.926960	0.345030
C3161	C316	0.769200	0.970600	0.362630
Cu1591	Cu159	0.890120	0.414180	0.829470
Cu1601	Cu160	0.953160	0.445330	0.768420
S1591	S159	0.968230	0.542670	0.788990
S1601	S160	0.830260	0.398270	0.815630
N6331	N633	0.930230	0.479460	0.804480
N6341	N634	0.902990	0.467620	0.828980
N6351	N635	0.914910	0.525110	0.839450
H4751	H475	0.914100	0.546600	0.849100
N6361	N636	0.869090	0.496340	0.876630
H4761	H476	0.856400	0.477000	0.881400
H4771	H477	0.865500	0.516100	0.889000
N6371	N637	0.804330	0.425340	0.880930
N6381	N638	0.780590	0.453620	0.892750
N6391	N639	0.784030	0.454410	0.833010
H4781	H478	0.780400	0.460500	0.810500
N6401	N640	0.745830	0.499190	0.861540
H4791	H479	0.736900	0.508000	0.881600
H4801	H480	0.739800	0.508700	0.840800
C3171	C317	0.936600	0.514130	0.810910
C3181	C318	0.894970	0.495610	0.849480
C3191	C319	0.805550	0.426960	0.845030
C3201	C320	0.769200	0.470600	0.862630
Cu1611	Cu161	0.085820	0.170530	0.390120
Cu1621	Cu162	0.054670	0.231580	0.453160
S1611	S161	0.957330	0.211010	0.468230
S1621	S162	0.101730	0.184370	0.330260
N6411	N641	0.020540	0.195520	0.430230
N6421	N642	0.032380	0.171020	0.402990
N6431	N643	0.974890	0.160550	0.414910
H4811	H481	0.953400	0.150900	0.414100
N6441	N644	0.003660	0.123370	0.369090
H4821	H482	0.023000	0.118600	0.356400
H4831	H483	0.983900	0.111000	0.365500
N6451	N645	0.074660	0.119070	0.304330
N6461	N646	0.046380	0.107250	0.280590
N6471	N647	0.045590	0.166990	0.284030
H4841	H484	0.039500	0.189500	0.280400
N6481	N648	0.000810	0.138460	0.245830
H4851	H485	0.992000	0.118400	0.236900
H4861	H486	0.991300	0.159200	0.239800
C3211	C321	0.985870	0.189090	0.436600
C3221	C322	0.004390	0.150520	0.394970
C3231	C323	0.073040	0.154970	0.305550
C3241	C324	0.029400	0.137370	0.269200
Cu1631	Cu163	0.085820	0.670530	0.890120
Cu1641	Cu164	0.054670	0.731580	0.953160
S1631	S163	0.957330	0.711010	0.968230
S1641	S164	0.101730	0.684370	0.830260
N6491	N649	0.020540	0.695520	0.930230
N6501	N650	0.032380	0.671020	0.902990
N6511	N651	0.974890	0.660550	0.914910
H4871	H487	0.953400	0.650900	0.914100
N6521	N652	0.003660	0.623370	0.869090
H4881	H488	0.023000	0.618600	0.856400
H4891	H489	0.983900	0.611000	0.865500
N6531	N653	0.074660	0.619070	0.804330
N6541	N654	0.046380	0.607250	0.780590
N6551	N655	0.045590	0.666990	0.784030
H4901	H490	0.039500	0.689500	0.780400
N6561	N656	0.000810	0.638460	0.745830
H4911	H491	0.992000	0.618400	0.736900
H4921	H492	0.991300	0.659200	0.739800
C3251	C325	0.985870	0.689090	0.936600
C3261	C326	0.004390	0.650520	0.894970
C3271	C327	0.073040	0.654970	0.805550
C3281	C328	0.029400	0.637370	0.769200
Cu1651	Cu165	0.585820	0.170530	0.890120
Cu1661	Cu166	0.554670	0.231580	0.953160
S1651	S165	0.457330	0.211010	0.968230
S1661	S166	0.601730	0.184370	0.830260
N6571	N657	0.520540	0.195520	0.930230
N6581	N658	0.532380	0.171020	0.902990
N6591	N659	0.474890	0.160550	0.914910
H4931	H493	0.453400	0.150900	0.914100
N6601	N660	0.503660	0.123370	0.869090
H4941	H494	0.523000	0.118600	0.856400
H4951	H495	0.483900	0.111000	0.865500
N6611	N661	0.574660	0.119070	0.804330
N6621	N662	0.546380	0.107250	0.780590
N6631	N663	0.545590	0.166990	0.784030
H4961	H496	0.539500	0.189500	0.780400
N6641	N664	0.500810	0.138460	0.745830
H4971	H497	0.492000	0.118400	0.736900
H4981	H498	0.491300	0.159200	0.739800
C3291	C329	0.485870	0.189090	0.936600
C3301	C330	0.504390	0.150520	0.894970
C3311	C331	0.573040	0.154970	0.805550
C3321	C332	0.529400	0.137370	0.769200
Cu1671	Cu167	0.585820	0.670530	0.390120
Cu1681	Cu168	0.554670	0.731580	0.453160
S1671	S167	0.457330	0.711010	0.468230
S1681	S168	0.601730	0.684370	0.330260
N6651	N665	0.520540	0.695520	0.430230
N6661	N666	0.532380	0.671020	0.402990
N6671	N667	0.474890	0.660550	0.414910
H4991	H499	0.453400	0.650900	0.414100
N6681	N668	0.503660	0.623370	0.369090
H5001	H500	0.523000	0.618600	0.356400
H5011	H501	0.483900	0.611000	0.365500
N6691	N669	0.574660	0.619070	0.304330
N6701	N670	0.546380	0.607250	0.280590
N6711	N671	0.545590	0.666990	0.284030
H5021	H502	0.539500	0.689500	0.280400
N6721	N672	0.500810	0.638460	0.245830
H5031	H503	0.492000	0.618400	0.236900
H5041	H504	0.491300	0.659200	0.239800
C3331	C333	0.485870	0.689090	0.436600
C3341	C334	0.504390	0.650520	0.394970
C3351	C335	0.573040	0.654970	0.305550
C3361	C336	0.529400	0.637370	0.269200
Cu1691	Cu169	0.085820	0.829470	0.609880
Cu1701	Cu170	0.054670	0.768420	0.546840
S1691	S169	0.957330	0.788990	0.531770
S1701	S170	0.101730	0.815630	0.669740
N6731	N673	0.020540	0.804480	0.569770
N6741	N674	0.032380	0.828980	0.597010
N6751	N675	0.974890	0.839450	0.585090
H5051	H505	0.953400	0.849100	0.585900
N6761	N676	0.003660	0.876630	0.630910
H5061	H506	0.023000	0.881400	0.643600
H5071	H507	0.983900	0.889000	0.634500
N6771	N677	0.074660	0.880930	0.695670
N6781	N678	0.046380	0.892750	0.719410
N6791	N679	0.045590	0.833010	0.715970
H5081	H508	0.039500	0.810500	0.719600
N6801	N680	0.000810	0.861540	0.754170
H5091	H509	0.992000	0.881600	0.763100
H5101	H510	0.991300	0.840800	0.760200
C3371	C337	0.985870	0.810910	0.563400
C3381	C338	0.004390	0.849480	0.605030
C3391	C339	0.073040	0.845030	0.694450
C3401	C340	0.029400	0.862630	0.730800
Cu1711	Cu171	0.085820	0.329470	0.109880
Cu1721	Cu172	0.054670	0.268420	0.046840
S1711	S171	0.957330	0.288990	0.031770
S1721	S172	0.101730	0.315630	0.169740
N6811	N681	0.020540	0.304480	0.069770
N6821	N682	0.032380	0.328980	0.097010
N6831	N683	0.974890	0.339450	0.085090
H5111	H511	0.953400	0.349100	0.085900
N6841	N684	0.003660	0.376630	0.130910
H5121	H512	0.023000	0.381400	0.143600
H5131	H513	0.983900	0.389000	0.134500
N6851	N685	0.074660	0.380930	0.195670
N6861	N686	0.046380	0.392750	0.219410
N6871	N687	0.045590	0.333010	0.215970
H5141	H514	0.039500	0.310500	0.219600
N6881	N688	0.000810	0.361540	0.254170
H5151	H515	0.992000	0.381600	0.263100
H5161	H516	0.991300	0.340800	0.260200
C3411	C341	0.985870	0.310910	0.063400
C3421	C342	0.004390	0.349480	0.105030
C3431	C343	0.073040	0.345030	0.194450
C3441	C344	0.029400	0.362630	0.230800
Cu1731	Cu173	0.585820	0.829470	0.109880
Cu1741	Cu174	0.554670	0.768420	0.046840
S1731	S173	0.457330	0.788990	0.031770
S1741	S174	0.601730	0.815630	0.169740
N6891	N689	0.520540	0.804480	0.069770
N6901	N690	0.532380	0.828980	0.097010
N6911	N691	0.474890	0.839450	0.085090
H5171	H517	0.453400	0.849100	0.085900
N6921	N692	0.503660	0.876630	0.130910
H5181	H518	0.523000	0.881400	0.143600
H5191	H519	0.483900	0.889000	0.134500
N6931	N693	0.574660	0.880930	0.195670
N6941	N694	0.546380	0.892750	0.219410
N6951	N695	0.545590	0.833010	0.215970
H5201	H520	0.539500	0.810500	0.219600
N6961	N696	0.500810	0.861540	0.254170
H5211	H521	0.492000	0.881600	0.263100
H5221	H522	0.491300	0.840800	0.260200
C3451	C345	0.485870	0.810910	0.063400
C3461	C346	0.504390	0.849480	0.105030
C3471	C347	0.573040	0.845030	0.194450
C3481	C348	0.529400	0.862630	0.230800
Cu1751	Cu175	0.585820	0.329470	0.609880
Cu1761	Cu176	0.554670	0.268420	0.546840
S1751	S175	0.457330	0.288990	0.531770
S1761	S176	0.601730	0.315630	0.669740
N6971	N697	0.520540	0.304480	0.569770
N6981	N698	0.532380	0.328980	0.597010
N6991	N699	0.474890	0.339450	0.585090
H5231	H523	0.453400	0.349100	0.585900
N7001	N700	0.503660	0.376630	0.630910
H5241	H524	0.523000	0.381400	0.643600
H5251	H525	0.483900	0.389000	0.634500
N7011	N701	0.574660	0.380930	0.695670
N7021	N702	0.546380	0.392750	0.719410
N7031	N703	0.545590	0.333010	0.715970
H5261	H526	0.539500	0.310500	0.719600
N7041	N704	0.500810	0.361540	0.754170
H5271	H527	0.492000	0.381600	0.763100
H5281	H528	0.491300	0.340800	0.760200
C3491	C349	0.485870	0.310910	0.563400
C3501	C350	0.504390	0.349480	0.605030
C3511	C351	0.573040	0.345030	0.694450
C3521	C352	0.529400	0.362630	0.730800
Cu1771	Cu177	0.914180	0.170530	0.609880
Cu1781	Cu178	0.945330	0.231580	0.546840
S1771	S177	0.042670	0.211010	0.531770
S1781	S178	0.898270	0.184370	0.669740
N7051	N705	0.979460	0.195520	0.569770
N7061	N706	0.967620	0.171020	0.597010
N7071	N707	0.025110	0.160550	0.585090
H5291	H529	0.046600	0.150900	0.585900
N7081	N708	0.996340	0.123370	0.630910
H5301	H530	0.977000	0.118600	0.643600
H5311	H531	0.016100	0.111000	0.634500
N7091	N709	0.925340	0.119070	0.695670
N7101	N710	0.953620	0.107250	0.719410
N7111	N711	0.954410	0.166990	0.715970
H5321	H532	0.960500	0.189500	0.719600
N7121	N712	0.999190	0.138460	0.754170
H5331	H533	0.008000	0.118400	0.763100
H5341	H534	0.008700	0.159200	0.760200
C3531	C353	0.014130	0.189090	0.563400
C3541	C354	0.995610	0.150520	0.605030
C3551	C355	0.926960	0.154970	0.694450
C3561	C356	0.970600	0.137370	0.730800
Cu1791	Cu179	0.914180	0.670530	0.109880
Cu1801	Cu180	0.945330	0.731580	0.046840
S1791	S179	0.042670	0.711010	0.031770
S1801	S180	0.898270	0.684370	0.169740
N7131	N713	0.979460	0.695520	0.069770
N7141	N714	0.967620	0.671020	0.097010
N7151	N715	0.025110	0.660550	0.085090
H5351	H535	0.046600	0.650900	0.085900
N7161	N716	0.996340	0.623370	0.130910
H5361	H536	0.977000	0.618600	0.143600
H5371	H537	0.016100	0.611000	0.134500
N7171	N717	0.925340	0.619070	0.195670
N7181	N718	0.953620	0.607250	0.219410
N7191	N719	0.954410	0.666990	0.215970
H5381	H538	0.960500	0.689500	0.219600
N7201	N720	0.999190	0.638460	0.254170
H5391	H539	0.008000	0.618400	0.263100
H5401	H540	0.008700	0.659200	0.260200
C3571	C357	0.014130	0.689090	0.063400
C3581	C358	0.995610	0.650520	0.105030
C3591	C359	0.926960	0.654970	0.194450
C3601	C360	0.970600	0.637370	0.230800
Cu1811	Cu181	0.414180	0.170530	0.109880
Cu1821	Cu182	0.445330	0.231580	0.046840
S1811	S181	0.542670	0.211010	0.031770
S1821	S182	0.398270	0.184370	0.169740
N7211	N721	0.479460	0.195520	0.069770
N7221	N722	0.467620	0.171020	0.097010
N7231	N723	0.525110	0.160550	0.085090
H5411	H541	0.546600	0.150900	0.085900
N7241	N724	0.496340	0.123370	0.130910
H5421	H542	0.477000	0.118600	0.143600
H5431	H543	0.516100	0.111000	0.134500
N7251	N725	0.425340	0.119070	0.195670
N7261	N726	0.453620	0.107250	0.219410
N7271	N727	0.454410	0.166990	0.215970
H5441	H544	0.460500	0.189500	0.219600
N7281	N728	0.499190	0.138460	0.254170
H5451	H545	0.508000	0.118400	0.263100
H5461	H546	0.508700	0.159200	0.260200
C3611	C361	0.514130	0.189090	0.063400
C3621	C362	0.495610	0.150520	0.105030
C3631	C363	0.426960	0.154970	0.194450
C3641	C364	0.470600	0.137370	0.230800
Cu1831	Cu183	0.414180	0.670530	0.609880
Cu1841	Cu184	0.445330	0.731580	0.546840
S1831	S183	0.542670	0.711010	0.531770
S1841	S184	0.398270	0.684370	0.669740
N7291	N729	0.479460	0.695520	0.569770
N7301	N730	0.467620	0.671020	0.597010
N7311	N731	0.525110	0.660550	0.585090
H5471	H547	0.546600	0.650900	0.585900
N7321	N732	0.496340	0.623370	0.630910
H5481	H548	0.477000	0.618600	0.643600
H5491	H549	0.516100	0.611000	0.634500
N7331	N733	0.425340	0.619070	0.695670
N7341	N734	0.453620	0.607250	0.719410
N7351	N735	0.454410	0.666990	0.715970
H5501	H550	0.460500	0.689500	0.719600
N7361	N736	0.499190	0.638460	0.754170
H5511	H551	0.508000	0.618400	0.763100
H5521	H552	0.508700	0.659200	0.760200
C3651	C365	0.514130	0.689090	0.563400
C3661	C366	0.495610	0.650520	0.605030
C3671	C367	0.426960	0.654970	0.694450
C3681	C368	0.470600	0.637370	0.730800
Cu1851	Cu185	0.914180	0.829470	0.390120
Cu1861	Cu186	0.945330	0.768420	0.453160
S1851	S185	0.042670	0.788990	0.468230
S1861	S186	0.898270	0.815630	0.330260
N7371	N737	0.979460	0.804480	0.430230
N7381	N738	0.967620	0.828980	0.402990
N7391	N739	0.025110	0.839450	0.414910
H5531	H553	0.046600	0.849100	0.414100
N7401	N740	0.996340	0.876630	0.369090
H5541	H554	0.977000	0.881400	0.356400
H5551	H555	0.016100	0.889000	0.365500
N7411	N741	0.925340	0.880930	0.304330
N7421	N742	0.953620	0.892750	0.280590
N7431	N743	0.954410	0.833010	0.284030
H5561	H556	0.960500	0.810500	0.280400
N7441	N744	0.999190	0.861540	0.245830
H5571	H557	0.008000	0.881600	0.236900
H5581	H558	0.008700	0.840800	0.239800
C3691	C369	0.014130	0.810910	0.436600
C3701	C370	0.995610	0.849480	0.394970
C3711	C371	0.926960	0.845030	0.305550
C3721	C372	0.970600	0.862630	0.269200
Cu1871	Cu187	0.914180	0.329470	0.890120
Cu1881	Cu188	0.945330	0.268420	0.953160
S1871	S187	0.042670	0.288990	0.968230
S1881	S188	0.898270	0.315630	0.830260
N7451	N745	0.979460	0.304480	0.930230
N7461	N746	0.967620	0.328980	0.902990
N7471	N747	0.025110	0.339450	0.914910
H5591	H559	0.046600	0.349100	0.914100
N7481	N748	0.996340	0.376630	0.869090
H5601	H560	0.977000	0.381400	0.856400
H5611	H561	0.016100	0.389000	0.865500
N7491	N749	0.925340	0.380930	0.804330
N7501	N750	0.953620	0.392750	0.780590
N7511	N751	0.954410	0.333010	0.784030
H5621	H562	0.960500	0.310500	0.780400
N7521	N752	0.999190	0.361540	0.745830
H5631	H563	0.008000	0.381600	0.736900
H5641	H564	0.008700	0.340800	0.739800
C3731	C373	0.014130	0.310910	0.936600
C3741	C374	0.995610	0.349480	0.894970
C3751	C375	0.926960	0.345030	0.805550
C3761	C376	0.970600	0.362630	0.769200
Cu1891	Cu189	0.414180	0.829470	0.890120
Cu1901	Cu190	0.445330	0.768420	0.953160
S1891	S189	0.542670	0.788990	0.968230
S1901	S190	0.398270	0.815630	0.830260
N7531	N753	0.479460	0.804480	0.930230
N7541	N754	0.467620	0.828980	0.902990
N7551	N755	0.525110	0.839450	0.914910
H5651	H565	0.546600	0.849100	0.914100
N7561	N756	0.496340	0.876630	0.869090
H5661	H566	0.477000	0.881400	0.856400
H5671	H567	0.516100	0.889000	0.865500
N7571	N757	0.425340	0.880930	0.804330
N7581	N758	0.453620	0.892750	0.780590
N7591	N759	0.454410	0.833010	0.784030
H5681	H568	0.460500	0.810500	0.780400
N7601	N760	0.499190	0.861540	0.745830
H5691	H569	0.508000	0.881600	0.736900
H5701	H570	0.508700	0.840800	0.739800
C3771	C377	0.514130	0.810910	0.936600
C3781	C378	0.495610	0.849480	0.894970
C3791	C379	0.426960	0.845030	0.805550
C3801	C380	0.470600	0.862630	0.769200
Cu1911	Cu191	0.414180	0.329470	0.390120
Cu1921	Cu192	0.445330	0.268420	0.453160
S1911	S191	0.542670	0.288990	0.468230
S1921	S192	0.398270	0.315630	0.330260
N7611	N761	0.479460	0.304480	0.430230
N7621	N762	0.467620	0.328980	0.402990
N7631	N763	0.525110	0.339450	0.414910
H5711	H571	0.546600	0.349100	0.414100
N7641	N764	0.496340	0.376630	0.369090
H5721	H572	0.477000	0.381400	0.356400
H5731	H573	0.516100	0.389000	0.365500
N7651	N765	0.425340	0.380930	0.304330
N7661	N766	0.453620	0.392750	0.280590
N7671	N767	0.454410	0.333010	0.284030
H5741	H574	0.460500	0.310500	0.280400
N7681	N768	0.499190	0.361540	0.245830
H5751	H575	0.508000	0.381600	0.236900
H5761	H576	0.508700	0.340800	0.239800
C3811	C381	0.514130	0.310910	0.436600
C3821	C382	0.495610	0.349480	0.394970
C3831	C383	0.426960	0.345030	0.305550
C3841	C384	0.470600	0.362630	0.269200
Cu1931	Cu193	0.852070	0.647930	0.647930
Br11	Br1	0.901420	0.598580	0.598580
Cu1941	Cu194	0.852070	0.147930	0.147930
Br21	Br2	0.901420	0.098580	0.098580
Cu1951	Cu195	0.147930	0.352070	0.647930
Br31	Br3	0.098580	0.401420	0.598580
Cu1961	Cu196	0.147930	0.852070	0.147930
Br41	Br4	0.098580	0.901420	0.098580
Cu1971	Cu197	0.147930	0.647930	0.352070
Br51	Br5	0.098580	0.598580	0.401420
Cu1981	Cu198	0.147930	0.147930	0.852070
Br61	Br6	0.098580	0.098580	0.901420
Cu1991	Cu199	0.852070	0.352070	0.352070
Br71	Br7	0.901420	0.401420	0.401420
Cu2001	Cu200	0.852070	0.852070	0.852070
Br81	Br8	0.901420	0.901420	0.901420
Cu2011	Cu201	0.647930	0.852070	0.647930
Br91	Br9	0.598580	0.901420	0.598580
Cu2021	Cu202	0.647930	0.147930	0.352070
Br101	Br10	0.598580	0.098580	0.401420
Cu2031	Cu203	0.352070	0.147930	0.647930
Br111	Br11	0.401420	0.098580	0.598580
Cu2041	Cu204	0.352070	0.852070	0.352070
Br121	Br12	0.401420	0.901420	0.401420
Cu2051	Cu205	0.647930	0.647930	0.852070
Br131	Br13	0.598580	0.598580	0.901420
Cu2061	Cu206	0.352070	0.647930	0.147930
Br141	Br14	0.401420	0.598580	0.098580
Cu2071	Cu207	0.647930	0.352070	0.147930
Br151	Br15	0.598580	0.401420	0.098580
Cu2081	Cu208	0.352070	0.352070	0.852070
Br161	Br16	0.401420	0.401420	0.901420
Cu2091	Cu209	0.147930	0.352070	0.147930
Br171	Br17	0.098580	0.401420	0.098580
Cu2101	Cu210	0.852070	0.647930	0.147930
Br181	Br18	0.901420	0.598580	0.098580
Cu2111	Cu211	0.147930	0.647930	0.852070
Br191	Br19	0.098580	0.598580	0.901420
Cu2121	Cu212	0.852070	0.352070	0.852070
Br201	Br20	0.901420	0.401420	0.901420
Cu2131	Cu213	0.352070	0.147930	0.147930
Br211	Br21	0.401420	0.098580	0.098580
Cu2141	Cu214	0.352070	0.647930	0.647930
Br221	Br22	0.401420	0.598580	0.598580
Cu2151	Cu215	0.647930	0.147930	0.852070
Br231	Br23	0.598580	0.098580	0.901420
Cu2161	Cu216	0.647930	0.647930	0.352070
Br241	Br24	0.598580	0.598580	0.401420
Cu2171	Cu217	0.647930	0.852070	0.147930
Br251	Br25	0.598580	0.901420	0.098580
Cu2181	Cu218	0.647930	0.352070	0.647930
Br261	Br26	0.598580	0.401420	0.598580
Cu2191	Cu219	0.352070	0.852070	0.852070
Br271	Br27	0.401420	0.901420	0.901420
Cu2201	Cu220	0.352070	0.352070	0.352070
Br281	Br28	0.401420	0.401420	0.401420
Cu2211	Cu221	0.147930	0.147930	0.352070
Br291	Br29	0.098580	0.098580	0.401420
Cu2221	Cu222	0.147930	0.852070	0.647930
Br301	Br30	0.098580	0.901420	0.598580
Cu2231	Cu223	0.852070	0.147930	0.647930
Br311	Br31	0.901420	0.098580	0.598580
Cu2241	Cu224	0.852070	0.852070	0.352070
Br321	Br32	0.901420	0.901420	0.401420
Cu2251	Cu225	0.000000	0.750000	0.500000
Cu2261	Cu226	0.000000	0.250000	0.000000
Cu2271	Cu227	0.500000	0.750000	0.000000
Cu2281	Cu228	0.500000	0.250000	0.500000
Cu2291	Cu229	0.000000	0.250000	0.500000
Cu2301	Cu230	0.000000	0.750000	0.000000
Cu2311	Cu231	0.500000	0.250000	0.000000
Cu2321	Cu232	0.500000	0.750000	0.500000
Cu2331	Cu233	0.500000	0.000000	0.750000
Cu2341	Cu234	0.500000	0.500000	0.250000
Cu2351	Cu235	0.000000	0.000000	0.250000
Cu2361	Cu236	0.000000	0.500000	0.750000
Cu2371	Cu237	0.500000	0.000000	0.250000
Cu2381	Cu238	0.500000	0.500000	0.750000
Cu2391	Cu239	0.000000	0.000000	0.750000
Cu2401	Cu240	0.000000	0.500000	0.250000
Cu2411	Cu241	0.750000	0.500000	0.000000
Cu2421	Cu242	0.750000	0.000000	0.500000
Cu2431	Cu243	0.250000	0.500000	0.500000
Cu2441	Cu244	0.250000	0.000000	0.000000
Cu2451	Cu245	0.250000	0.500000	0.000000
Cu2461	Cu246	0.250000	0.000000	0.500000
Cu2471	Cu247	0.750000	0.500000	0.500000
Cu2481	Cu248	0.750000	0.000000	0.000000
