data_BUSQUC_freeONLY_PM
_symmetry_space_group_name_H-M	'P1'
_cell_length_a	11.782000
_cell_length_b	13.005400
_cell_length_c	13.005400
_cell_angle_alpha	97.828300
_cell_angle_beta	105.473000
_cell_angle_gamma	105.473000
_symmetry_Int_Tables_number 1

loop_
_symmetry_equiv_pos_as_xyz
'x,y,z'

loop_
_atom_site_label
_atom_site_type_symbol
_atom_site_fract_x
_atom_site_fract_y
_atom_site_fract_z
Cu11	Cu1	0.125880	0.231210	0.677590
Cu21	Cu2	0.374120	0.322410	0.768790
Cu31	Cu3	0.874120	0.768790	0.322410
Cu41	Cu4	0.625880	0.677590	0.231210
H11	H1	0.121000	0.194100	0.339900
H21	H2	0.474700	0.383500	0.482900
H31	H3	0.496700	0.404700	0.318300
H41	H4	0.029600	0.152700	0.136900
H51	H5	0.047800	0.176200	0.971400
H61	H6	0.405900	0.360200	0.113400
H71	H7	0.918800	0.009600	0.590200
H81	H8	0.892700	0.301000	0.614600
H91	H9	0.706500	0.933300	0.531300
H101	H10	0.680200	0.233300	0.547100
H111	H11	0.540300	0.021100	0.617700
H121	H12	0.507200	0.107900	0.551100
H131	H13	0.379000	0.660100	0.805900
H141	H14	0.025300	0.517100	0.616500
H151	H15	0.003300	0.681700	0.595300
H161	H16	0.470400	0.863100	0.847300
H171	H17	0.452200	0.028600	0.823800
H181	H18	0.094100	0.886600	0.639800
H191	H19	0.581200	0.409800	0.990400
H201	H20	0.607300	0.385400	0.699000
H211	H21	0.793500	0.468700	0.066700
H221	H22	0.819800	0.452900	0.766700
H231	H23	0.959700	0.382300	0.978900
H241	H24	0.992800	0.448900	0.892100
H251	H25	0.879000	0.805900	0.660100
H261	H26	0.525300	0.616500	0.517100
H271	H27	0.503300	0.595300	0.681700
H281	H28	0.970400	0.847300	0.863100
H291	H29	0.952200	0.823800	0.028600
H301	H30	0.594100	0.639800	0.886600
H311	H31	0.081200	0.990400	0.409800
H321	H32	0.107300	0.699000	0.385400
H331	H33	0.293500	0.066700	0.468700
H341	H34	0.319800	0.766700	0.452900
H351	H35	0.459700	0.978900	0.382300
H361	H36	0.492800	0.892100	0.448900
H371	H37	0.621000	0.339900	0.194100
H381	H38	0.974700	0.482900	0.383500
H391	H39	0.996700	0.318300	0.404700
H401	H40	0.529600	0.136900	0.152700
H411	H41	0.547800	0.971400	0.176200
H421	H42	0.905900	0.113400	0.360200
H431	H43	0.418800	0.590200	0.009600
H441	H44	0.392700	0.614600	0.301000
H451	H45	0.206500	0.531300	0.933300
H461	H46	0.180200	0.547100	0.233300
H471	H47	0.040300	0.617700	0.021100
H481	H48	0.007200	0.551100	0.107900
C11	C1	0.278700	0.278670	0.537530
C21	C2	0.293800	0.287900	0.427900
C31	C3	0.195700	0.236300	0.334500
C41	C4	0.407600	0.350000	0.419600
C51	C5	0.206100	0.246300	0.231100
C61	C6	0.421300	0.361700	0.321500
C71	C7	0.321000	0.309000	0.223000
C81	C8	0.104800	0.195400	0.133000
C91	C9	0.116000	0.208200	0.034200
C101	C10	0.330800	0.319300	0.118900
C111	C11	0.231000	0.269900	0.025500
C121	C12	0.241500	0.281300	0.915500
C131	C13	0.869900	0.055400	0.585600
C141	C14	0.854800	0.225700	0.598700
C151	C15	0.742600	0.009000	0.548800
C161	C16	0.726200	0.185400	0.559000
C171	C17	0.668300	0.077600	0.538000
C181	C18	0.539100	0.046460	0.550660
C191	C19	0.221300	0.462470	0.721330
C201	C20	0.206200	0.572100	0.712100
C211	C21	0.304300	0.665500	0.763700
C221	C22	0.092400	0.580400	0.650000
C231	C23	0.293900	0.768900	0.753700
C241	C24	0.078700	0.678500	0.638300
C251	C25	0.179000	0.777000	0.691000
C261	C26	0.395200	0.867000	0.804600
C271	C27	0.384000	0.965800	0.791800
C281	C28	0.169200	0.881100	0.680700
C291	C29	0.269000	0.974500	0.730100
C301	C30	0.258500	0.084500	0.718700
C311	C31	0.630100	0.414400	0.944600
C321	C32	0.645200	0.401300	0.774300
C331	C33	0.757400	0.451200	0.991000
C341	C34	0.773800	0.441000	0.814600
C351	C35	0.831700	0.462000	0.922400
C361	C36	0.960900	0.449340	0.953540
C371	C37	0.721300	0.721330	0.462470
C381	C38	0.706200	0.712100	0.572100
C391	C39	0.804300	0.763700	0.665500
C401	C40	0.592400	0.650000	0.580400
C411	C41	0.793900	0.753700	0.768900
C421	C42	0.578700	0.638300	0.678500
C431	C43	0.679000	0.691000	0.777000
C441	C44	0.895200	0.804600	0.867000
C451	C45	0.884000	0.791800	0.965800
C461	C46	0.669200	0.680700	0.881100
C471	C47	0.769000	0.730100	0.974500
C481	C48	0.758500	0.718700	0.084500
C491	C49	0.130100	0.944600	0.414400
C501	C50	0.145200	0.774300	0.401300
C511	C51	0.257400	0.991000	0.451200
C521	C52	0.273800	0.814600	0.441000
C531	C53	0.331700	0.922400	0.462000
C541	C54	0.460900	0.953540	0.449340
C551	C55	0.778700	0.537530	0.278670
C561	C56	0.793800	0.427900	0.287900
C571	C57	0.695700	0.334500	0.236300
C581	C58	0.907600	0.419600	0.350000
C591	C59	0.706100	0.231100	0.246300
C601	C60	0.921300	0.321500	0.361700
C611	C61	0.821000	0.223000	0.309000
C621	C62	0.604800	0.133000	0.195400
C631	C63	0.616000	0.034200	0.208200
C641	C64	0.830800	0.118900	0.319300
C651	C65	0.731000	0.025500	0.269900
C661	C66	0.741500	0.915500	0.281300
C671	C67	0.369900	0.585600	0.055400
C681	C68	0.354800	0.598700	0.225700
C691	C69	0.242600	0.548800	0.009000
C701	C70	0.226200	0.559000	0.185400
C711	C71	0.168300	0.538000	0.077600
C721	C72	0.039100	0.550660	0.046460
N11	N1	0.925900	0.163450	0.614950
N21	N2	0.574100	0.385050	0.836550
N31	N3	0.074100	0.836550	0.385050
N41	N4	0.425900	0.614950	0.163450
O11	O1	0.170900	0.234650	0.540330
O21	O2	0.376400	0.316990	0.619390
O31	O3	0.142200	0.249230	0.836570
O41	O4	0.350100	0.321450	0.910370
O51	O5	0.329100	0.459670	0.765350
O61	O6	0.123600	0.380610	0.683010
O71	O7	0.357800	0.163430	0.750770
O81	O8	0.149900	0.089630	0.678550
O91	O9	0.829100	0.765350	0.459670
O101	O10	0.623600	0.683010	0.380610
O111	O11	0.857800	0.750770	0.163430
O121	O12	0.649900	0.678550	0.089630
O131	O13	0.670900	0.540330	0.234650
O141	O14	0.876400	0.619390	0.316990
O151	O15	0.642200	0.836570	0.249230
O161	O16	0.850100	0.910370	0.321450
