data_BUWMEN_freeONLY_PM
_symmetry_space_group_name_H-M	'P1'
_cell_length_a	17.755000
_cell_length_b	19.838000
_cell_length_c	13.311000
_cell_angle_alpha	90.000000
_cell_angle_beta	131.834000
_cell_angle_gamma	90.000000
_symmetry_Int_Tables_number 1

loop_
_symmetry_equiv_pos_as_xyz
'x,y,z'

loop_
_atom_site_label
_atom_site_type_symbol
_atom_site_fract_x
_atom_site_fract_y
_atom_site_fract_z
La11	La1	0.891950	0.266960	0.283940
La21	La2	0.608050	0.516950	0.216150
O11	O1	0.724200	0.551700	0.472100
H11	H1	0.732900	0.593000	0.466300
H21	H2	0.755000	0.541200	0.552600
O21	O2	0.584000	0.388800	0.144300
H31	H3	0.557800	0.386100	0.180300
H41	H4	0.610300	0.350000	0.146900
O31	O3	0.732200	0.609600	0.266900
H51	H5	0.723600	0.639000	0.216200
H61	H6	0.787500	0.613000	0.344700
O41	O4	0.417100	0.491800	0.032000
H71	H7	0.372700	0.512000	0.960600
H81	H8	0.395200	0.454100	0.032000
O51	O5	0.965100	0.358600	0.233200
H91	H9	0.969600	0.397300	0.260800
H101	H10	0.943500	0.360100	0.155000
O61	O6	0.751500	0.302100	0.027000
H111	H11	0.766200	0.332100	0.997600
H121	H12	0.713300	0.273300	0.967300
O71	O7	0.938900	0.138800	0.354300
H131	H13	0.894400	0.118700	0.281000
H141	H14	0.962600	0.111500	0.418300
O81	O8	0.884900	0.241500	0.468100
H151	H15	0.925800	0.255600	0.547500
H161	H16	0.864800	0.203100	0.465500
O91	O9	0.438800	0.712500	0.165300
O101	O10	0.527600	0.616200	0.240000
O111	O11	0.556200	0.542500	0.825000
O121	O12	0.600400	0.505350	0.017400
O131	O13	0.788500	0.366600	0.260300
O141	O14	0.772800	0.462400	0.334500
O151	O15	0.083700	0.255100	0.482800
O161	O16	0.231600	0.292100	0.675100
N11	N1	0.514200	0.611200	0.027800
N21	N2	0.985600	0.361100	0.471300
C11	C1	0.479400	0.663800	0.156500
C21	C2	0.469500	0.663000	0.034700
C31	C3	0.416700	0.713000	0.935400
H171	H17	0.383900	0.747500	0.940400
C41	C4	0.414500	0.709600	0.829400
H181	H18	0.380900	0.742500	0.762500
C51	C5	0.462800	0.656900	0.823900
H191	H19	0.463800	0.654400	0.755100
C61	C6	0.509600	0.607800	0.923500
C71	C7	0.559600	0.546800	0.921600
C81	C8	0.823200	0.414000	0.343700
C91	C9	0.934800	0.412900	0.465600
C101	C10	0.981200	0.463100	0.563900
H201	H20	0.943200	0.497600	0.558600
C111	C11	0.084700	0.460600	0.669400
H211	H21	0.117800	0.494000	0.735100
C121	C12	0.139000	0.407000	0.675800
H221	H22	0.208800	0.404300	0.745300
C131	C13	0.086300	0.357900	0.576000
C141	C14	0.137800	0.296800	0.578000
La31	La3	0.391950	0.766960	0.283940
La41	La4	0.108050	0.016950	0.216150
O171	O17	0.224200	0.051700	0.472100
H231	H23	0.232900	0.093000	0.466300
H241	H24	0.255000	0.041200	0.552600
O181	O18	0.084000	0.888800	0.144300
H251	H25	0.057800	0.886100	0.180300
H261	H26	0.110300	0.850000	0.146900
O191	O19	0.232200	0.109600	0.266900
H271	H27	0.223600	0.139000	0.216200
H281	H28	0.287500	0.113000	0.344700
O201	O20	0.917100	0.991800	0.032000
H291	H29	0.872700	0.012000	0.960600
H301	H30	0.895200	0.954100	0.032000
O211	O21	0.465100	0.858600	0.233200
H311	H31	0.469600	0.897300	0.260800
H321	H32	0.443500	0.860100	0.155000
O221	O22	0.251500	0.802100	0.027000
H331	H33	0.266200	0.832100	0.997600
H341	H34	0.213300	0.773300	0.967300
O231	O23	0.438900	0.638800	0.354300
H351	H35	0.394400	0.618700	0.281000
H361	H36	0.462600	0.611500	0.418300
O241	O24	0.384900	0.741500	0.468100
H371	H37	0.425800	0.755600	0.547500
H381	H38	0.364800	0.703100	0.465500
O251	O25	0.938800	0.212500	0.165300
O261	O26	0.027600	0.116200	0.240000
O271	O27	0.056200	0.042500	0.825000
O281	O28	0.100400	0.005350	0.017400
O291	O29	0.288500	0.866600	0.260300
O301	O30	0.272800	0.962400	0.334500
O311	O31	0.583700	0.755100	0.482800
O321	O32	0.731600	0.792100	0.675100
N31	N3	0.014200	0.111200	0.027800
N41	N4	0.485600	0.861100	0.471300
C151	C15	0.979400	0.163800	0.156500
C161	C16	0.969500	0.163000	0.034700
C171	C17	0.916700	0.213000	0.935400
H391	H39	0.883900	0.247500	0.940400
C181	C18	0.914500	0.209600	0.829400
H401	H40	0.880900	0.242500	0.762500
C191	C19	0.962800	0.156900	0.823900
H411	H41	0.963800	0.154400	0.755100
C201	C20	0.009600	0.107800	0.923500
C211	C21	0.059600	0.046800	0.921600
C221	C22	0.323200	0.914000	0.343700
C231	C23	0.434800	0.912900	0.465600
C241	C24	0.481200	0.963100	0.563900
H421	H42	0.443200	0.997600	0.558600
C251	C25	0.584700	0.960600	0.669400
H431	H43	0.617800	0.994000	0.735100
C261	C26	0.639000	0.907000	0.675800
H441	H44	0.708800	0.904300	0.745300
C271	C27	0.586300	0.857900	0.576000
C281	C28	0.637800	0.796800	0.578000
La51	La5	0.891950	0.733040	0.783940
La61	La6	0.608050	0.483050	0.716150
O331	O33	0.724200	0.448300	0.972100
H451	H45	0.732900	0.407000	0.966300
H461	H46	0.755000	0.458800	0.052600
O341	O34	0.584000	0.611200	0.644300
H471	H47	0.557800	0.613900	0.680300
H481	H48	0.610300	0.650000	0.646900
O351	O35	0.732200	0.390400	0.766900
H491	H49	0.723600	0.361000	0.716200
H501	H50	0.787500	0.387000	0.844700
O361	O36	0.417100	0.508200	0.532000
H511	H51	0.372700	0.488000	0.460600
H521	H52	0.395200	0.545900	0.532000
O371	O37	0.965100	0.641400	0.733200
H531	H53	0.969600	0.602700	0.760800
H541	H54	0.943500	0.639900	0.655000
O381	O38	0.751500	0.697900	0.527000
H551	H55	0.766200	0.667900	0.497600
H561	H56	0.713300	0.726700	0.467300
O391	O39	0.938900	0.861200	0.854300
H571	H57	0.894400	0.881300	0.781000
H581	H58	0.962600	0.888500	0.918300
O401	O40	0.884900	0.758500	0.968100
H591	H59	0.925800	0.744400	0.047500
H601	H60	0.864800	0.796900	0.965500
O411	O41	0.438800	0.287500	0.665300
O421	O42	0.527600	0.383800	0.740000
O431	O43	0.556200	0.457500	0.325000
O441	O44	0.600400	0.494650	0.517400
O451	O45	0.788500	0.633400	0.760300
O461	O46	0.772800	0.537600	0.834500
O471	O47	0.083700	0.744900	0.982800
O481	O48	0.231600	0.707900	0.175100
N51	N5	0.514200	0.388800	0.527800
N61	N6	0.985600	0.638900	0.971300
C291	C29	0.479400	0.336200	0.656500
C301	C30	0.469500	0.337000	0.534700
C311	C31	0.416700	0.287000	0.435400
H611	H61	0.383900	0.252500	0.440400
C321	C32	0.414500	0.290400	0.329400
H621	H62	0.380900	0.257500	0.262500
C331	C33	0.462800	0.343100	0.323900
H631	H63	0.463800	0.345600	0.255100
C341	C34	0.509600	0.392200	0.423500
C351	C35	0.559600	0.453200	0.421600
C361	C36	0.823200	0.586000	0.843700
C371	C37	0.934800	0.587100	0.965600
C381	C38	0.981200	0.536900	0.063900
H641	H64	0.943200	0.502400	0.058600
C391	C39	0.084700	0.539400	0.169400
H651	H65	0.117800	0.506000	0.235100
C401	C40	0.139000	0.593000	0.175800
H661	H66	0.208800	0.595700	0.245300
C411	C41	0.086300	0.642100	0.076000
C421	C42	0.137800	0.703200	0.078000
La71	La7	0.391950	0.233040	0.783940
La81	La8	0.108050	0.983050	0.716150
O491	O49	0.224200	0.948300	0.972100
H671	H67	0.232900	0.907000	0.966300
H681	H68	0.255000	0.958800	0.052600
O501	O50	0.084000	0.111200	0.644300
H691	H69	0.057800	0.113900	0.680300
H701	H70	0.110300	0.150000	0.646900
O511	O51	0.232200	0.890400	0.766900
H711	H71	0.223600	0.861000	0.716200
H721	H72	0.287500	0.887000	0.844700
O521	O52	0.917100	0.008200	0.532000
H731	H73	0.872700	0.988000	0.460600
H741	H74	0.895200	0.045900	0.532000
O531	O53	0.465100	0.141400	0.733200
H751	H75	0.469600	0.102700	0.760800
H761	H76	0.443500	0.139900	0.655000
O541	O54	0.251500	0.197900	0.527000
H771	H77	0.266200	0.167900	0.497600
H781	H78	0.213300	0.226700	0.467300
O551	O55	0.438900	0.361200	0.854300
H791	H79	0.394400	0.381300	0.781000
H801	H80	0.462600	0.388500	0.918300
O561	O56	0.384900	0.258500	0.968100
H811	H81	0.425800	0.244400	0.047500
H821	H82	0.364800	0.296900	0.965500
O571	O57	0.938800	0.787500	0.665300
O581	O58	0.027600	0.883800	0.740000
O591	O59	0.056200	0.957500	0.325000
O601	O60	0.100400	0.994650	0.517400
O611	O61	0.288500	0.133400	0.760300
O621	O62	0.272800	0.037600	0.834500
O631	O63	0.583700	0.244900	0.982800
O641	O64	0.731600	0.207900	0.175100
N71	N7	0.014200	0.888800	0.527800
N81	N8	0.485600	0.138900	0.971300
C431	C43	0.979400	0.836200	0.656500
C441	C44	0.969500	0.837000	0.534700
C451	C45	0.916700	0.787000	0.435400
H831	H83	0.883900	0.752500	0.440400
C461	C46	0.914500	0.790400	0.329400
H841	H84	0.880900	0.757500	0.262500
C471	C47	0.962800	0.843100	0.323900
H851	H85	0.963800	0.845600	0.255100
C481	C48	0.009600	0.892200	0.423500
C491	C49	0.059600	0.953200	0.421600
C501	C50	0.323200	0.086000	0.843700
C511	C51	0.434800	0.087100	0.965600
C521	C52	0.481200	0.036900	0.063900
H861	H86	0.443200	0.002400	0.058600
C531	C53	0.584700	0.039400	0.169400
H871	H87	0.617800	0.006000	0.235100
C541	C54	0.639000	0.093000	0.175800
H881	H88	0.708800	0.095700	0.245300
C551	C55	0.586300	0.142100	0.076000
C561	C56	0.637800	0.203200	0.078000
