data_BUWMAJ_freeONLY_PM
_symmetry_space_group_name_H-M	'P1'
_cell_length_a	13.936000
_cell_length_b	13.936000
_cell_length_c	17.469000
_cell_angle_alpha	90.000000
_cell_angle_beta	90.000000
_cell_angle_gamma	90.000000
_symmetry_Int_Tables_number 1

loop_
_symmetry_equiv_pos_as_xyz
'x,y,z'

loop_
_atom_site_label
_atom_site_type_symbol
_atom_site_fract_x
_atom_site_fract_y
_atom_site_fract_z
Nd11	Nd1	0.285470	0.676760	0.749810
N11	N1	0.470600	0.677300	0.750300
O11	O1	0.367300	0.564600	0.841800
O21	O2	0.172600	0.673700	0.645000
O31	O3	0.368300	0.788300	0.658400
O41	O4	0.503600	0.849900	0.605200
O51	O5	0.111800	0.544000	0.907800
O61	O6	0.502500	0.505600	0.896700
O71	O7	0.171400	0.680200	0.853600
O81	O8	0.613400	0.027600	0.599900
O91	O9	0.837100	0.983200	0.492900
O101	O10	0.192900	0.514100	0.757200
O111	O11	0.192800	0.838900	0.741600
O121	O12	0.338200	0.868800	0.508500
O131	O13	0.112200	0.808700	0.591800
C11	C1	0.056000	0.657100	0.548400
C21	C2	0.520300	0.732900	0.701400
O141	O14	0.351400	0.562400	0.650200
O151	O15	0.350300	0.791100	0.849900
C31	C3	0.519400	0.621500	0.798800
C41	C4	0.668900	0.677300	0.750700
H11	H1	0.735600	0.677700	0.751100
C51	C5	0.119000	0.718600	0.599600
C61	C6	0.618200	0.620200	0.801700
H21	H2	0.650200	0.582000	0.837100
C71	C7	0.459500	0.795800	0.650200
C81	C8	0.619100	0.733300	0.699400
H31	H3	0.651700	0.770800	0.663900
C91	C9	0.118200	0.634500	0.899900
C101	C10	0.055800	0.697100	0.951000
C111	C11	0.055500	0.795800	0.948400
H41	H4	0.092100	0.828600	0.912400
C121	C12	0.457800	0.558000	0.850400
C131	C13	0.056400	0.557100	0.551700
H51	H5	0.093600	0.524900	0.587600
O161	O16	0.887100	0.826600	0.600600
Nd21	Nd2	0.785470	0.176760	0.249810
N21	N2	0.970600	0.177300	0.250300
O171	O17	0.867300	0.064600	0.341800
O181	O18	0.672600	0.173700	0.145000
O191	O19	0.868300	0.288300	0.158400
O201	O20	0.003600	0.349900	0.105200
O211	O21	0.611800	0.044000	0.407800
O221	O22	0.002500	0.005600	0.396700
O231	O23	0.671400	0.180200	0.353600
O241	O24	0.113400	0.527600	0.099900
O251	O25	0.337100	0.483200	0.992900
O261	O26	0.692900	0.014100	0.257200
O271	O27	0.692800	0.338900	0.241600
O281	O28	0.838200	0.368800	0.008500
O291	O29	0.612200	0.308700	0.091800
C141	C14	0.556000	0.157100	0.048400
C151	C15	0.020300	0.232900	0.201400
O301	O30	0.851400	0.062400	0.150200
O311	O31	0.850300	0.291100	0.349900
C161	C16	0.019400	0.121500	0.298800
C171	C17	0.168900	0.177300	0.250700
H61	H6	0.235600	0.177700	0.251100
C181	C18	0.619000	0.218600	0.099600
C191	C19	0.118200	0.120200	0.301700
H71	H7	0.150200	0.082000	0.337100
C201	C20	0.959500	0.295800	0.150200
C211	C21	0.119100	0.233300	0.199400
H81	H8	0.151700	0.270800	0.163900
C221	C22	0.618200	0.134500	0.399900
C231	C23	0.555800	0.197100	0.451000
C241	C24	0.555500	0.295800	0.448400
H91	H9	0.592100	0.328600	0.412400
C251	C25	0.957800	0.058000	0.350400
C261	C26	0.556400	0.057100	0.051700
H101	H10	0.593600	0.024900	0.087600
O321	O32	0.387100	0.326600	0.100600
Nd31	Nd3	0.714530	0.676760	0.250190
N31	N3	0.529400	0.677300	0.249700
O331	O33	0.632700	0.564600	0.158200
O341	O34	0.827400	0.673700	0.355000
O351	O35	0.631700	0.788300	0.341600
O361	O36	0.496400	0.849900	0.394800
O371	O37	0.888200	0.544000	0.092200
O381	O38	0.497500	0.505600	0.103300
O391	O39	0.828600	0.680200	0.146400
O401	O40	0.386600	0.027600	0.400100
O411	O41	0.162900	0.983200	0.507100
O421	O42	0.807100	0.514100	0.242800
O431	O43	0.807200	0.838900	0.258400
O441	O44	0.661800	0.868800	0.491500
O451	O45	0.887800	0.808700	0.408200
C271	C27	0.944000	0.657100	0.451600
C281	C28	0.479700	0.732900	0.298600
O461	O46	0.648600	0.562400	0.349800
O471	O47	0.649700	0.791100	0.150100
C291	C29	0.480600	0.621500	0.201200
C301	C30	0.331100	0.677300	0.249300
H111	H11	0.264400	0.677700	0.248900
C311	C31	0.881000	0.718600	0.400400
C321	C32	0.381800	0.620200	0.198300
H121	H12	0.349800	0.582000	0.162900
C331	C33	0.540500	0.795800	0.349800
C341	C34	0.380900	0.733300	0.300600
H131	H13	0.348300	0.770800	0.336100
C351	C35	0.881800	0.634500	0.100100
C361	C36	0.944200	0.697100	0.049000
C371	C37	0.944500	0.795800	0.051600
H141	H14	0.907900	0.828600	0.087600
C381	C38	0.542200	0.558000	0.149600
C391	C39	0.943600	0.557100	0.448300
H151	H15	0.906400	0.524900	0.412400
O481	O48	0.112900	0.826600	0.399400
Nd41	Nd4	0.214530	0.176760	0.750190
N41	N4	0.029400	0.177300	0.749700
O491	O49	0.132700	0.064600	0.658200
O501	O50	0.327400	0.173700	0.855000
O511	O51	0.131700	0.288300	0.841600
O521	O52	0.996400	0.349900	0.894800
O531	O53	0.388200	0.044000	0.592200
O541	O54	0.997500	0.005600	0.603300
O551	O55	0.328600	0.180200	0.646400
O561	O56	0.886600	0.527600	0.900100
O571	O57	0.662900	0.483200	0.007100
O581	O58	0.307100	0.014100	0.742800
O591	O59	0.307200	0.338900	0.758400
O601	O60	0.161800	0.368800	0.991500
O611	O61	0.387800	0.308700	0.908200
C401	C40	0.444000	0.157100	0.951600
C411	C41	0.979700	0.232900	0.798600
O621	O62	0.148600	0.062400	0.849800
O631	O63	0.149700	0.291100	0.650100
C421	C42	0.980600	0.121500	0.701200
C431	C43	0.831100	0.177300	0.749300
H161	H16	0.764400	0.177700	0.748900
C441	C44	0.381000	0.218600	0.900400
C451	C45	0.881800	0.120200	0.698300
H171	H17	0.849800	0.082000	0.662900
C461	C46	0.040500	0.295800	0.849800
C471	C47	0.880900	0.233300	0.800600
H181	H18	0.848300	0.270800	0.836100
C481	C48	0.381800	0.134500	0.600100
C491	C49	0.444200	0.197100	0.549000
C501	C50	0.444500	0.295800	0.551600
H191	H19	0.407900	0.328600	0.587600
C511	C51	0.042200	0.058000	0.649600
C521	C52	0.443600	0.057100	0.948300
H201	H20	0.406400	0.024900	0.912400
O641	O64	0.612900	0.326600	0.899400
Nd51	Nd5	0.500000	0.962310	0.500000
Nd61	Nd6	0.000000	0.462310	0.000000
Nd71	Nd7	0.000000	0.891330	0.500000
N51	N5	0.000000	0.706000	0.500000
C531	C53	0.000000	0.507000	0.500000
H211	H21	0.000000	0.440300	0.500000
Nd81	Nd8	0.500000	0.391330	0.000000
N61	N6	0.500000	0.206000	0.000000
C541	C54	0.500000	0.007000	0.000000
H221	H22	0.500000	0.940300	0.000000
N71	N7	0.000000	0.646300	0.000000
C551	C55	0.000000	0.844500	0.000000
H231	H23	0.000000	0.911300	0.000000
N81	N8	0.500000	0.146300	0.500000
C561	C56	0.500000	0.344500	0.500000
H241	H24	0.500000	0.411300	0.500000
