data_BUWMIR_freeONLY_PM
_symmetry_space_group_name_H-M	'P1'
_cell_length_a	17.629000
_cell_length_b	19.797000
_cell_length_c	13.256600
_cell_angle_alpha	90.000000
_cell_angle_beta	131.700000
_cell_angle_gamma	90.000000
_symmetry_Int_Tables_number 1

loop_
_symmetry_equiv_pos_as_xyz
'x,y,z'

loop_
_atom_site_label
_atom_site_type_symbol
_atom_site_fract_x
_atom_site_fract_y
_atom_site_fract_z
Ce11	Ce1	0.392370	0.017380	0.284680
Ce21	Ce2	0.107520	0.767380	0.215200
O11	O1	0.471840	0.115770	0.259300
O21	O2	0.560700	0.212540	0.332400
O31	O3	0.397900	0.004640	0.480800
O41	O4	0.442700	0.041400	0.674500
O51	O5	0.212910	0.865430	0.241000
O61	O6	0.228500	0.962300	0.167400
O71	O7	0.917120	0.754880	0.018700
O81	O8	0.767890	0.791460	0.825100
N11	N1	0.485300	0.111310	0.471200
N21	N2	0.013900	0.860690	0.028200
C11	C1	0.530600	0.162790	0.464900
C21	C2	0.583100	0.212660	0.563800
H11	H1	0.616400	0.247100	0.559000
C31	C3	0.584800	0.209900	0.669700
H21	H2	0.617900	0.243200	0.736000
C41	C4	0.536200	0.156610	0.675500
H31	H3	0.535500	0.153900	0.744900
C51	C5	0.489100	0.107820	0.575700
C61	C6	0.519900	0.163910	0.341800
C71	C7	0.439300	0.046460	0.577300
C81	C8	0.066100	0.912370	0.035200
C91	C9	0.019400	0.962900	0.936100
H41	H4	0.057400	0.997700	0.941200
C101	C10	0.915500	0.959600	0.830500
H51	H5	0.882300	0.992700	0.763800
C111	C11	0.861100	0.906790	0.824500
H61	H6	0.790900	0.904300	0.755300
C121	C12	0.913700	0.857760	0.923900
C131	C13	0.178500	0.913540	0.157800
C141	C14	0.862400	0.796080	0.922800
O91	O9	0.268300	0.108460	0.235100
H71	H7	0.272300	0.119500	0.298600
H81	H8	0.210000	0.113500	0.160800
O101	O10	0.275200	0.053050	0.029900
H91	H9	0.225400	0.038700	0.017100
H101	H10	0.281200	0.035000	0.979300
O111	O11	0.417300	0.889510	0.354400
H111	H11	0.386200	0.859100	0.356600
H121	H12	0.477300	0.891800	0.426400
O121	O12	0.582500	0.992730	0.466000
H131	H13	0.633000	0.013700	0.531500
H141	H14	0.599000	0.953800	0.463100
O131	O13	0.244600	0.802730	0.470000
H151	H15	0.302200	0.796700	0.497300
H161	H16	0.246800	0.813300	0.532400
O141	O14	0.033700	0.858750	0.265400
H171	H17	0.976300	0.870100	0.195300
H181	H18	0.038700	0.858900	0.331800
O151	O15	0.062400	0.639460	0.145100
H191	H19	0.079700	0.600900	0.142500
H201	H20	0.041700	0.638900	0.186300
O161	O16	0.115400	0.742480	0.032700
H211	H21	0.082300	0.766000	0.957600
H221	H22	0.149100	0.707600	0.052700
Ce31	Ce3	0.892370	0.517380	0.284680
Ce41	Ce4	0.607520	0.267380	0.215200
O171	O17	0.971840	0.615770	0.259300
O181	O18	0.060700	0.712540	0.332400
O191	O19	0.897900	0.504640	0.480800
O201	O20	0.942700	0.541400	0.674500
O211	O21	0.712910	0.365430	0.241000
O221	O22	0.728500	0.462300	0.167400
O231	O23	0.417120	0.254880	0.018700
O241	O24	0.267890	0.291460	0.825100
N31	N3	0.985300	0.611310	0.471200
N41	N4	0.513900	0.360690	0.028200
C151	C15	0.030600	0.662790	0.464900
C161	C16	0.083100	0.712660	0.563800
H231	H23	0.116400	0.747100	0.559000
C171	C17	0.084800	0.709900	0.669700
H241	H24	0.117900	0.743200	0.736000
C181	C18	0.036200	0.656610	0.675500
H251	H25	0.035500	0.653900	0.744900
C191	C19	0.989100	0.607820	0.575700
C201	C20	0.019900	0.663910	0.341800
C211	C21	0.939300	0.546460	0.577300
C221	C22	0.566100	0.412370	0.035200
C231	C23	0.519400	0.462900	0.936100
H261	H26	0.557400	0.497700	0.941200
C241	C24	0.415500	0.459600	0.830500
H271	H27	0.382300	0.492700	0.763800
C251	C25	0.361100	0.406790	0.824500
H281	H28	0.290900	0.404300	0.755300
C261	C26	0.413700	0.357760	0.923900
C271	C27	0.678500	0.413540	0.157800
C281	C28	0.362400	0.296080	0.922800
O251	O25	0.768300	0.608460	0.235100
H291	H29	0.772300	0.619500	0.298600
H301	H30	0.710000	0.613500	0.160800
O261	O26	0.775200	0.553050	0.029900
H311	H31	0.725400	0.538700	0.017100
H321	H32	0.781200	0.535000	0.979300
O271	O27	0.917300	0.389510	0.354400
H331	H33	0.886200	0.359100	0.356600
H341	H34	0.977300	0.391800	0.426400
O281	O28	0.082500	0.492730	0.466000
H351	H35	0.133000	0.513700	0.531500
H361	H36	0.099000	0.453800	0.463100
O291	O29	0.744600	0.302730	0.470000
H371	H37	0.802200	0.296700	0.497300
H381	H38	0.746800	0.313300	0.532400
O301	O30	0.533700	0.358750	0.265400
H391	H39	0.476300	0.370100	0.195300
H401	H40	0.538700	0.358900	0.331800
O311	O31	0.562400	0.139460	0.145100
H411	H41	0.579700	0.100900	0.142500
H421	H42	0.541700	0.138900	0.186300
O321	O32	0.615400	0.242480	0.032700
H431	H43	0.582300	0.266000	0.957600
H441	H44	0.649100	0.207600	0.052700
Ce51	Ce5	0.392370	0.982620	0.784680
Ce61	Ce6	0.107520	0.232620	0.715200
O331	O33	0.471840	0.884230	0.759300
O341	O34	0.560700	0.787460	0.832400
O351	O35	0.397900	0.995360	0.980800
O361	O36	0.442700	0.958600	0.174500
O371	O37	0.212910	0.134570	0.741000
O381	O38	0.228500	0.037700	0.667400
O391	O39	0.917120	0.245120	0.518700
O401	O40	0.767890	0.208540	0.325100
N51	N5	0.485300	0.888690	0.971200
N61	N6	0.013900	0.139310	0.528200
C291	C29	0.530600	0.837210	0.964900
C301	C30	0.583100	0.787340	0.063800
H451	H45	0.616400	0.752900	0.059000
C311	C31	0.584800	0.790100	0.169700
H461	H46	0.617900	0.756800	0.236000
C321	C32	0.536200	0.843390	0.175500
H471	H47	0.535500	0.846100	0.244900
C331	C33	0.489100	0.892180	0.075700
C341	C34	0.519900	0.836090	0.841800
C351	C35	0.439300	0.953540	0.077300
C361	C36	0.066100	0.087630	0.535200
C371	C37	0.019400	0.037100	0.436100
H481	H48	0.057400	0.002300	0.441200
C381	C38	0.915500	0.040400	0.330500
H491	H49	0.882300	0.007300	0.263800
C391	C39	0.861100	0.093210	0.324500
H501	H50	0.790900	0.095700	0.255300
C401	C40	0.913700	0.142240	0.423900
C411	C41	0.178500	0.086460	0.657800
C421	C42	0.862400	0.203920	0.422800
O411	O41	0.268300	0.891540	0.735100
H511	H51	0.272300	0.880500	0.798600
H521	H52	0.210000	0.886500	0.660800
O421	O42	0.275200	0.946950	0.529900
H531	H53	0.225400	0.961300	0.517100
H541	H54	0.281200	0.965000	0.479300
O431	O43	0.417300	0.110490	0.854400
H551	H55	0.386200	0.140900	0.856600
H561	H56	0.477300	0.108200	0.926400
O441	O44	0.582500	0.007270	0.966000
H571	H57	0.633000	0.986300	0.031500
H581	H58	0.599000	0.046200	0.963100
O451	O45	0.244600	0.197270	0.970000
H591	H59	0.302200	0.203300	0.997300
H601	H60	0.246800	0.186700	0.032400
O461	O46	0.033700	0.141250	0.765400
H611	H61	0.976300	0.129900	0.695300
H621	H62	0.038700	0.141100	0.831800
O471	O47	0.062400	0.360540	0.645100
H631	H63	0.079700	0.399100	0.642500
H641	H64	0.041700	0.361100	0.686300
O481	O48	0.115400	0.257520	0.532700
H651	H65	0.082300	0.234000	0.457600
H661	H66	0.149100	0.292400	0.552700
Ce71	Ce7	0.892370	0.482620	0.784680
Ce81	Ce8	0.607520	0.732620	0.715200
O491	O49	0.971840	0.384230	0.759300
O501	O50	0.060700	0.287460	0.832400
O511	O51	0.897900	0.495360	0.980800
O521	O52	0.942700	0.458600	0.174500
O531	O53	0.712910	0.634570	0.741000
O541	O54	0.728500	0.537700	0.667400
O551	O55	0.417120	0.745120	0.518700
O561	O56	0.267890	0.708540	0.325100
N71	N7	0.985300	0.388690	0.971200
N81	N8	0.513900	0.639310	0.528200
C431	C43	0.030600	0.337210	0.964900
C441	C44	0.083100	0.287340	0.063800
H671	H67	0.116400	0.252900	0.059000
C451	C45	0.084800	0.290100	0.169700
H681	H68	0.117900	0.256800	0.236000
C461	C46	0.036200	0.343390	0.175500
H691	H69	0.035500	0.346100	0.244900
C471	C47	0.989100	0.392180	0.075700
C481	C48	0.019900	0.336090	0.841800
C491	C49	0.939300	0.453540	0.077300
C501	C50	0.566100	0.587630	0.535200
C511	C51	0.519400	0.537100	0.436100
H701	H70	0.557400	0.502300	0.441200
C521	C52	0.415500	0.540400	0.330500
H711	H71	0.382300	0.507300	0.263800
C531	C53	0.361100	0.593210	0.324500
H721	H72	0.290900	0.595700	0.255300
C541	C54	0.413700	0.642240	0.423900
C551	C55	0.678500	0.586460	0.657800
C561	C56	0.362400	0.703920	0.422800
O571	O57	0.768300	0.391540	0.735100
H731	H73	0.772300	0.380500	0.798600
H741	H74	0.710000	0.386500	0.660800
O581	O58	0.775200	0.446950	0.529900
H751	H75	0.725400	0.461300	0.517100
H761	H76	0.781200	0.465000	0.479300
O591	O59	0.917300	0.610490	0.854400
H771	H77	0.886200	0.640900	0.856600
H781	H78	0.977300	0.608200	0.926400
O601	O60	0.082500	0.507270	0.966000
H791	H79	0.133000	0.486300	0.031500
H801	H80	0.099000	0.546200	0.963100
O611	O61	0.744600	0.697270	0.970000
H811	H81	0.802200	0.703300	0.997300
H821	H82	0.746800	0.686700	0.032400
O621	O62	0.533700	0.641250	0.765400
H831	H83	0.476300	0.629900	0.695300
H841	H84	0.538700	0.641100	0.831800
O631	O63	0.562400	0.860540	0.645100
H851	H85	0.579700	0.899100	0.642500
H861	H86	0.541700	0.861100	0.686300
O641	O64	0.615400	0.757520	0.532700
H871	H87	0.582300	0.734000	0.457600
H881	H88	0.649100	0.792400	0.552700
