data_c5ce01948f_c5ce01948f2_freeONLY_PM
_symmetry_space_group_name_H-M	'P1'
_cell_length_a	16.547800
_cell_length_b	16.547800
_cell_length_c	12.435300
_cell_angle_alpha	90.000000
_cell_angle_beta	90.000000
_cell_angle_gamma	120.000000
_symmetry_Int_Tables_number 1

loop_
_symmetry_equiv_pos_as_xyz
'x,y,z'

loop_
_atom_site_label
_atom_site_type_symbol
_atom_site_fract_x
_atom_site_fract_y
_atom_site_fract_z
O11	O1	0.188000	0.597100	0.305600
O21	O2	0.241800	0.513200	0.386200
O31	O3	0.069700	0.181700	0.366300
C11	C1	0.083900	0.434600	0.341000
C21	C2	0.083200	0.351800	0.343700
H11	H1	0.139700	0.350700	0.352500
C31	C3	0.178800	0.523900	0.345100
C41	C4	0.333800	0.384700	0.475500
H21	H2	0.328700	0.387600	0.553800
H31	H3	0.302300	0.319300	0.452500
H41	H4	0.304500	0.416700	0.440800
C51	C5	0.437500	0.284300	0.471100
H51	H5	0.406300	0.246100	0.407800
H61	H6	0.391300	0.271300	0.527700
H71	H7	0.484300	0.269400	0.497400
C61	C6	0.482000	0.380900	0.442700
C71	C7	0.434200	0.431100	0.444500
O41	O4	0.402900	0.590900	0.638930
O51	O5	0.486800	0.728600	0.719530
O61	O6	0.818300	0.888000	0.699630
C81	C8	0.565400	0.649300	0.674330
C91	C9	0.648200	0.731400	0.677030
H81	H8	0.649300	0.789000	0.685830
C101	C10	0.476100	0.654900	0.678430
C111	C11	0.615300	0.949100	0.808830
H91	H9	0.612400	0.941100	0.887130
H101	H10	0.680700	0.983000	0.785830
H111	H11	0.583300	0.887800	0.774130
C121	C12	0.715700	0.153200	0.804430
H121	H12	0.753900	0.160200	0.741130
H131	H13	0.728700	0.120000	0.861030
H141	H14	0.730600	0.214900	0.830730
C131	C13	0.619100	0.101100	0.776030
C141	C14	0.568900	0.003100	0.777830
O71	O7	0.409100	0.812000	0.972270
O81	O8	0.271400	0.758200	0.052870
O91	O9	0.112000	0.930300	0.032970
C151	C15	0.350700	0.916100	0.007670
C161	C16	0.268600	0.916800	0.010370
H151	H15	0.211000	0.860300	0.019170
C171	C17	0.345100	0.821200	0.011770
C181	C18	0.050900	0.666200	0.142170
H161	H16	0.058900	0.671300	0.220470
H171	H17	0.017000	0.697700	0.119170
H181	H18	0.112200	0.695500	0.107470
C191	C19	0.846800	0.562500	0.137770
H191	H19	0.839800	0.593700	0.074470
H201	H20	0.880000	0.608700	0.194370
H211	H21	0.785100	0.515700	0.164070
C201	C20	0.898900	0.518000	0.109370
C211	C21	0.996900	0.565800	0.111170
O101	O10	0.812000	0.402900	0.805600
O111	O11	0.758200	0.486800	0.886200
O121	O12	0.930300	0.818300	0.866300
C221	C22	0.916100	0.565400	0.841000
C231	C23	0.916800	0.648200	0.843700
H221	H22	0.860300	0.649300	0.852500
C241	C24	0.821200	0.476100	0.845100
C251	C25	0.666200	0.615300	0.975500
H231	H23	0.671300	0.612400	0.053800
H241	H24	0.697700	0.680700	0.952500
H251	H25	0.695500	0.583300	0.940800
C261	C26	0.562500	0.715700	0.971100
H261	H26	0.593700	0.753900	0.907800
H271	H27	0.608700	0.728700	0.027700
H281	H28	0.515700	0.730600	0.997400
C271	C27	0.518000	0.619100	0.942700
C281	C28	0.565800	0.568900	0.944500
O131	O13	0.597100	0.409100	0.138930
O141	O14	0.513200	0.271400	0.219530
O151	O15	0.181700	0.112000	0.199630
C291	C29	0.434600	0.350700	0.174330
C301	C30	0.351800	0.268600	0.177030
H291	H29	0.350700	0.211000	0.185830
C311	C31	0.523900	0.345100	0.178430
C321	C32	0.384700	0.050900	0.308830
H301	H30	0.387600	0.058900	0.387130
H311	H31	0.319300	0.017000	0.285830
H321	H32	0.416700	0.112200	0.274130
C331	C33	0.284300	0.846800	0.304430
H331	H33	0.246100	0.839800	0.241130
H341	H34	0.271300	0.880000	0.361030
H351	H35	0.269400	0.785100	0.330730
C341	C34	0.380900	0.898900	0.276030
C351	C35	0.431100	0.996900	0.277830
O161	O16	0.590900	0.188000	0.472270
O171	O17	0.728600	0.241800	0.552870
O181	O18	0.888000	0.069700	0.532970
C361	C36	0.649300	0.083900	0.507670
C371	C37	0.731400	0.083200	0.510370
H361	H36	0.789000	0.139700	0.519170
C381	C38	0.654900	0.178800	0.511770
C391	C39	0.949100	0.333800	0.642170
H371	H37	0.941100	0.328700	0.720470
H381	H38	0.983000	0.302300	0.619170
H391	H39	0.887800	0.304500	0.607470
C401	C40	0.153200	0.437500	0.637770
H401	H40	0.160200	0.406300	0.574470
H411	H41	0.120000	0.391300	0.694370
H421	H42	0.214900	0.484300	0.664070
C411	C41	0.101100	0.482000	0.609370
C421	C42	0.003100	0.434200	0.611170
O191	O19	0.597100	0.188000	0.027730
O201	O20	0.513200	0.241800	0.947130
O211	O21	0.181700	0.069700	0.967030
C431	C43	0.434600	0.083900	0.992330
C441	C44	0.351800	0.083200	0.989630
H431	H43	0.350700	0.139700	0.980830
C451	C45	0.523900	0.178800	0.988230
C461	C46	0.384700	0.333800	0.857830
H441	H44	0.387600	0.328700	0.779530
H451	H45	0.319300	0.302300	0.880830
H461	H46	0.416700	0.304500	0.892530
C471	C47	0.284300	0.437500	0.862230
H471	H47	0.246100	0.406300	0.925530
H481	H48	0.271300	0.391300	0.805630
H491	H49	0.269400	0.484300	0.835930
C481	C48	0.380900	0.482000	0.890630
C491	C49	0.431100	0.434200	0.888830
O221	O22	0.590900	0.402900	0.694400
O231	O23	0.728600	0.486800	0.613800
O241	O24	0.888000	0.818300	0.633700
C501	C50	0.649300	0.565400	0.659000
C511	C51	0.731400	0.648200	0.656300
H501	H50	0.789000	0.649300	0.647500
C521	C52	0.654900	0.476100	0.654900
C531	C53	0.949100	0.615300	0.524500
H511	H51	0.941100	0.612400	0.446200
H521	H52	0.983000	0.680700	0.547500
H531	H53	0.887800	0.583300	0.559200
C541	C54	0.153200	0.715700	0.528900
H541	H54	0.160200	0.753900	0.592200
H551	H55	0.120000	0.728700	0.472300
H561	H56	0.214900	0.730600	0.502600
C551	C55	0.101100	0.619100	0.557300
C561	C56	0.003100	0.568900	0.555500
O251	O25	0.812000	0.409100	0.361070
O261	O26	0.758200	0.271400	0.280470
O271	O27	0.930300	0.112000	0.300370
C571	C57	0.916100	0.350700	0.325670
C581	C58	0.916800	0.268600	0.322970
H571	H57	0.860300	0.211000	0.314170
C591	C59	0.821200	0.345100	0.321570
C601	C60	0.666200	0.050900	0.191170
H581	H58	0.671300	0.058900	0.112870
H591	H59	0.697700	0.017000	0.214170
H601	H60	0.695500	0.112200	0.225870
C611	C61	0.562500	0.846800	0.195570
H611	H61	0.593700	0.839800	0.258870
H621	H62	0.608700	0.880000	0.138970
H631	H63	0.515700	0.785100	0.169270
C621	C62	0.518000	0.898900	0.223970
C631	C63	0.565800	0.996900	0.222170
O281	O28	0.402900	0.812000	0.527730
O291	O29	0.486800	0.758200	0.447130
O301	O30	0.818300	0.930300	0.467030
C641	C64	0.565400	0.916100	0.492330
C651	C65	0.648200	0.916800	0.489630
H641	H64	0.649300	0.860300	0.480830
C661	C66	0.476100	0.821200	0.488230
C671	C67	0.615300	0.666200	0.357830
H651	H65	0.612400	0.671300	0.279530
H661	H66	0.680700	0.697700	0.380830
H671	H67	0.583300	0.695500	0.392530
C681	C68	0.715700	0.562500	0.362230
H681	H68	0.753900	0.593700	0.425530
H691	H69	0.728700	0.608700	0.305630
H701	H70	0.730600	0.515700	0.335930
C691	C69	0.619100	0.518000	0.390630
C701	C70	0.568900	0.565800	0.388830
O311	O31	0.409100	0.597100	0.194400
O321	O32	0.271400	0.513200	0.113800
O331	O33	0.112000	0.181700	0.133700
C711	C71	0.350700	0.434600	0.159000
C721	C72	0.268600	0.351800	0.156300
H711	H71	0.211000	0.350700	0.147500
C731	C73	0.345100	0.523900	0.154900
C741	C74	0.050900	0.384700	0.024500
H721	H72	0.058900	0.387600	0.946200
H731	H73	0.017000	0.319300	0.047500
H741	H74	0.112200	0.416700	0.059200
C751	C75	0.846800	0.284300	0.028900
H751	H75	0.839800	0.246100	0.092200
H761	H76	0.880000	0.271300	0.972300
H771	H77	0.785100	0.269400	0.002600
C761	C76	0.898900	0.380900	0.057300
C771	C77	0.996900	0.431100	0.055500
O341	O34	0.188000	0.590900	0.861070
O351	O35	0.241800	0.728600	0.780470
O361	O36	0.069700	0.888000	0.800370
C781	C78	0.083900	0.649300	0.825670
C791	C79	0.083200	0.731400	0.822970
H781	H78	0.139700	0.789000	0.814170
C801	C80	0.178800	0.654900	0.821570
C811	C81	0.333800	0.949100	0.691170
H791	H79	0.328700	0.941100	0.612870
H801	H80	0.302300	0.983000	0.714170
H811	H81	0.304500	0.887800	0.725870
C821	C82	0.437500	0.153200	0.695570
H821	H82	0.406300	0.160200	0.758870
H831	H83	0.391300	0.120000	0.638970
H841	H84	0.484300	0.214900	0.669270
C831	C83	0.482000	0.101100	0.723970
C841	C84	0.434200	0.003100	0.722170
Ag11	Ag1	0.652220	0.347780	0.416670
Ag21	Ag2	0.396490	0.603510	0.416670
N11	N1	0.574000	0.426000	0.416670
N21	N2	0.478400	0.521600	0.416670
Ag31	Ag3	0.652220	0.304440	0.750000
Ag41	Ag4	0.396490	0.792980	0.750000
N31	N3	0.574000	0.148000	0.750000
N41	N4	0.478400	0.956800	0.750000
Ag51	Ag5	0.695560	0.347780	0.083330
Ag61	Ag6	0.207020	0.603510	0.083330
N51	N5	0.852000	0.426000	0.083330
N61	N6	0.043200	0.521600	0.083330
Ag71	Ag7	0.347780	0.652220	0.916670
Ag81	Ag8	0.603510	0.396490	0.916670
N71	N7	0.426000	0.574000	0.916670
N81	N8	0.521600	0.478400	0.916670
Ag91	Ag9	0.347780	0.695560	0.250000
Ag101	Ag10	0.603510	0.207020	0.250000
N91	N9	0.426000	0.852000	0.250000
N101	N10	0.521600	0.043200	0.250000
Ag111	Ag11	0.304440	0.652220	0.583330
Ag121	Ag12	0.792980	0.396490	0.583330
N111	N11	0.148000	0.574000	0.583330
N121	N12	0.956800	0.478400	0.583330
N131	N13	0.000000	0.182100	0.333330
C851	C85	0.000000	0.435000	0.333330
H851	H85	0.000000	0.492400	0.333330
C861	C86	0.000000	0.270400	0.333330
N141	N14	0.817900	0.817900	0.666670
C871	C87	0.565000	0.565000	0.666670
H861	H86	0.507600	0.507600	0.666670
C881	C88	0.729600	0.729600	0.666670
N151	N15	0.182100	0.000000	0.000000
C891	C89	0.435000	0.000000	0.000000
H871	H87	0.492400	0.000000	0.000000
C901	C90	0.270400	0.000000	0.000000
N161	N16	0.000000	0.817900	0.833330
C911	C91	0.000000	0.565000	0.833330
H881	H88	0.000000	0.507600	0.833330
C921	C92	0.000000	0.729600	0.833330
N171	N17	0.182100	0.182100	0.166670
C931	C93	0.435000	0.435000	0.166670
H891	H89	0.492400	0.492400	0.166670
C941	C94	0.270400	0.270400	0.166670
N181	N18	0.817900	0.000000	0.500000
C951	C95	0.565000	0.000000	0.500000
H901	H90	0.507600	0.000000	0.500000
C961	C96	0.729600	0.000000	0.500000
