data_c5ce00969c_c5ce00969c2_freeONLY_PM
_symmetry_space_group_name_H-M	'P1'
_cell_length_a	17.679000
_cell_length_b	27.134000
_cell_length_c	6.911300
_cell_angle_alpha	90.000000
_cell_angle_beta	94.222000
_cell_angle_gamma	90.000000
_symmetry_Int_Tables_number 1

loop_
_symmetry_equiv_pos_as_xyz
'x,y,z'

loop_
_atom_site_label
_atom_site_type_symbol
_atom_site_fract_x
_atom_site_fract_y
_atom_site_fract_z
H11	H1	0.292300	0.028600	0.797700
N11	N1	0.437140	0.083730	0.277900
N21	N2	0.552250	0.193910	0.194700
H21	H2	0.541900	0.224900	0.188200
C11	C1	0.492900	0.162620	0.243300
C21	C2	0.495400	0.111840	0.230900
H31	H3	0.538600	0.096800	0.189000
C31	C3	0.375100	0.105610	0.339900
H41	H4	0.335600	0.085900	0.377000
C41	C4	0.367600	0.155750	0.350600
H51	H5	0.323200	0.169800	0.389500
C51	C5	0.427100	0.185140	0.302800
H61	H6	0.423700	0.219300	0.309900
O11	O1	0.646960	0.138320	0.159400
C61	C6	0.623800	0.180920	0.156800
C71	C7	0.676000	0.223580	0.121100
H71	H7	0.647000	0.251000	0.064100
H81	H8	0.713100	0.213700	0.031800
C81	C8	0.716200	0.239210	0.314500
C91	C9	0.682400	0.272240	0.435600
H91	H9	0.636700	0.287000	0.393500
C101	C10	0.784100	0.216520	0.381300
H101	H10	0.807000	0.193900	0.303200
H111	H11	0.792300	0.528600	0.797700
N31	N3	0.937140	0.583730	0.277900
N41	N4	0.052250	0.693910	0.194700
H121	H12	0.041900	0.724900	0.188200
C111	C11	0.992900	0.662620	0.243300
C121	C12	0.995400	0.611840	0.230900
H131	H13	0.038600	0.596800	0.189000
C131	C13	0.875100	0.605610	0.339900
H141	H14	0.835600	0.585900	0.377000
C141	C14	0.867600	0.655750	0.350600
H151	H15	0.823200	0.669800	0.389500
C151	C15	0.927100	0.685140	0.302800
H161	H16	0.923700	0.719300	0.309900
O21	O2	0.146960	0.638320	0.159400
C161	C16	0.123800	0.680920	0.156800
C171	C17	0.176000	0.723580	0.121100
H171	H17	0.147000	0.751000	0.064100
H181	H18	0.213100	0.713700	0.031800
C181	C18	0.216200	0.739210	0.314500
C191	C19	0.182400	0.772240	0.435600
H191	H19	0.136700	0.787000	0.393500
C201	C20	0.284100	0.716520	0.381300
H201	H20	0.307000	0.693900	0.303200
H211	H21	0.707700	0.028600	0.202300
N51	N5	0.562860	0.083730	0.722100
N61	N6	0.447750	0.193910	0.805300
H221	H22	0.458100	0.224900	0.811800
C211	C21	0.507100	0.162620	0.756700
C221	C22	0.504600	0.111840	0.769100
H231	H23	0.461400	0.096800	0.811000
C231	C23	0.624900	0.105610	0.660100
H241	H24	0.664400	0.085900	0.623000
C241	C24	0.632400	0.155750	0.649400
H251	H25	0.676800	0.169800	0.610500
C251	C25	0.572900	0.185140	0.697200
H261	H26	0.576300	0.219300	0.690100
O31	O3	0.353040	0.138320	0.840600
C261	C26	0.376200	0.180920	0.843200
C271	C27	0.324000	0.223580	0.878900
H271	H27	0.353000	0.251000	0.935900
H281	H28	0.286900	0.213700	0.968200
C281	C28	0.283800	0.239210	0.685500
C291	C29	0.317600	0.272240	0.564400
H291	H29	0.363300	0.287000	0.606500
C301	C30	0.215900	0.216520	0.618700
H301	H30	0.193000	0.193900	0.696800
H311	H31	0.207700	0.528600	0.202300
N71	N7	0.062860	0.583730	0.722100
N81	N8	0.947750	0.693910	0.805300
H321	H32	0.958100	0.724900	0.811800
C311	C31	0.007100	0.662620	0.756700
C321	C32	0.004600	0.611840	0.769100
H331	H33	0.961400	0.596800	0.811000
C331	C33	0.124900	0.605610	0.660100
H341	H34	0.164400	0.585900	0.623000
C341	C34	0.132400	0.655750	0.649400
H351	H35	0.176800	0.669800	0.610500
C351	C35	0.072900	0.685140	0.697200
H361	H36	0.076300	0.719300	0.690100
O41	O4	0.853040	0.638320	0.840600
C361	C36	0.876200	0.680920	0.843200
C371	C37	0.824000	0.723580	0.878900
H371	H37	0.853000	0.751000	0.935900
H381	H38	0.786900	0.713700	0.968200
C381	C38	0.783800	0.739210	0.685500
C391	C39	0.817600	0.772240	0.564400
H391	H39	0.863300	0.787000	0.606500
C401	C40	0.715900	0.716520	0.618700
H401	H40	0.693000	0.693900	0.696800
H411	H41	0.707700	0.971400	0.202300
N91	N9	0.562860	0.916270	0.722100
N101	N10	0.447750	0.806090	0.805300
H421	H42	0.458100	0.775100	0.811800
C411	C41	0.507100	0.837380	0.756700
C421	C42	0.504600	0.888160	0.769100
H431	H43	0.461400	0.903200	0.811000
C431	C43	0.624900	0.894390	0.660100
H441	H44	0.664400	0.914100	0.623000
C441	C44	0.632400	0.844250	0.649400
H451	H45	0.676800	0.830200	0.610500
C451	C45	0.572900	0.814860	0.697200
H461	H46	0.576300	0.780700	0.690100
O51	O5	0.353040	0.861680	0.840600
C461	C46	0.376200	0.819080	0.843200
C471	C47	0.324000	0.776420	0.878900
H471	H47	0.353000	0.749000	0.935900
H481	H48	0.286900	0.786300	0.968200
C481	C48	0.283800	0.760790	0.685500
C491	C49	0.317600	0.727760	0.564400
H491	H49	0.363300	0.713000	0.606500
C501	C50	0.215900	0.783480	0.618700
H501	H50	0.193000	0.806100	0.696800
H511	H51	0.207700	0.471400	0.202300
N111	N11	0.062860	0.416270	0.722100
N121	N12	0.947750	0.306090	0.805300
H521	H52	0.958100	0.275100	0.811800
C511	C51	0.007100	0.337380	0.756700
C521	C52	0.004600	0.388160	0.769100
H531	H53	0.961400	0.403200	0.811000
C531	C53	0.124900	0.394390	0.660100
H541	H54	0.164400	0.414100	0.623000
C541	C54	0.132400	0.344250	0.649400
H551	H55	0.176800	0.330200	0.610500
C551	C55	0.072900	0.314860	0.697200
H561	H56	0.076300	0.280700	0.690100
O61	O6	0.853040	0.361680	0.840600
C561	C56	0.876200	0.319080	0.843200
C571	C57	0.824000	0.276420	0.878900
H571	H57	0.853000	0.249000	0.935900
H581	H58	0.786900	0.286300	0.968200
C581	C58	0.783800	0.260790	0.685500
C591	C59	0.817600	0.227760	0.564400
H591	H59	0.863300	0.213000	0.606500
C601	C60	0.715900	0.283480	0.618700
H601	H60	0.693000	0.306100	0.696800
H611	H61	0.292300	0.971400	0.797700
N131	N13	0.437140	0.916270	0.277900
N141	N14	0.552250	0.806090	0.194700
H621	H62	0.541900	0.775100	0.188200
C611	C61	0.492900	0.837380	0.243300
C621	C62	0.495400	0.888160	0.230900
H631	H63	0.538600	0.903200	0.189000
C631	C63	0.375100	0.894390	0.339900
H641	H64	0.335600	0.914100	0.377000
C641	C64	0.367600	0.844250	0.350600
H651	H65	0.323200	0.830200	0.389500
C651	C65	0.427100	0.814860	0.302800
H661	H66	0.423700	0.780700	0.309900
O71	O7	0.646960	0.861680	0.159400
C661	C66	0.623800	0.819080	0.156800
C671	C67	0.676000	0.776420	0.121100
H671	H67	0.647000	0.749000	0.064100
H681	H68	0.713100	0.786300	0.031800
C681	C68	0.716200	0.760790	0.314500
C691	C69	0.682400	0.727760	0.435600
H691	H69	0.636700	0.713000	0.393500
C701	C70	0.784100	0.783480	0.381300
H701	H70	0.807000	0.806100	0.303200
H711	H71	0.792300	0.471400	0.797700
N151	N15	0.937140	0.416270	0.277900
N161	N16	0.052250	0.306090	0.194700
H721	H72	0.041900	0.275100	0.188200
C711	C71	0.992900	0.337380	0.243300
C721	C72	0.995400	0.388160	0.230900
H731	H73	0.038600	0.403200	0.189000
C731	C73	0.875100	0.394390	0.339900
H741	H74	0.835600	0.414100	0.377000
C741	C74	0.867600	0.344250	0.350600
H751	H75	0.823200	0.330200	0.389500
C751	C75	0.927100	0.314860	0.302800
H761	H76	0.923700	0.280700	0.309900
O81	O8	0.146960	0.361680	0.159400
C761	C76	0.123800	0.319080	0.156800
C771	C77	0.176000	0.276420	0.121100
H771	H77	0.147000	0.249000	0.064100
H781	H78	0.213100	0.286300	0.031800
C781	C78	0.216200	0.260790	0.314500
C791	C79	0.182400	0.227760	0.435600
H791	H79	0.136700	0.213000	0.393500
C801	C80	0.284100	0.283480	0.381300
H801	H80	0.307000	0.306100	0.303200
Cd11	Cd1	0.443100	0.000000	0.243400
O91	O9	0.305100	0.000000	0.210200
O101	O10	0.432700	0.000000	0.900200
O111	O11	0.427900	0.000000	0.586400
C811	C81	0.309400	0.000000	0.732000
H811	H81	0.289400	0.000000	0.599000
C821	C82	0.394300	0.000000	0.740000
Cd21	Cd2	0.943100	0.500000	0.243400
O121	O12	0.805100	0.500000	0.210200
O131	O13	0.932700	0.500000	0.900200
O141	O14	0.927900	0.500000	0.586400
C831	C83	0.809400	0.500000	0.732000
H821	H82	0.789400	0.500000	0.599000
C841	C84	0.894300	0.500000	0.740000
Cd31	Cd3	0.556900	0.000000	0.756600
O151	O15	0.694900	0.000000	0.789800
O161	O16	0.567300	0.000000	0.099800
O171	O17	0.572100	0.000000	0.413600
C851	C85	0.690600	0.000000	0.268000
H831	H83	0.710600	0.000000	0.401000
C861	C86	0.605700	0.000000	0.260000
Cd41	Cd4	0.056900	0.500000	0.756600
O181	O18	0.194900	0.500000	0.789800
O191	O19	0.067300	0.500000	0.099800
O201	O20	0.072100	0.500000	0.413600
C871	C87	0.190600	0.500000	0.268000
H841	H84	0.210600	0.500000	0.401000
C881	C88	0.105700	0.500000	0.260000
