data_c5ce00010f_c5ce00010f2_freeONLY_PM
_symmetry_space_group_name_H-M	'P1'
_cell_length_a	46.640000
_cell_length_b	12.447000
_cell_length_c	31.370000
_cell_angle_alpha	90.000000
_cell_angle_beta	131.263000
_cell_angle_gamma	90.000000
_symmetry_Int_Tables_number 1

loop_
_symmetry_equiv_pos_as_xyz
'x,y,z'

loop_
_atom_site_label
_atom_site_type_symbol
_atom_site_fract_x
_atom_site_fract_y
_atom_site_fract_z
Cd11	Cd1	0.377540	0.626070	0.395460
Cd21	Cd2	0.086890	0.468010	0.070840
Cd31	Cd3	0.139590	0.804890	0.120800
C11	C1	0.058000	0.446700	0.945000
H11	H1	0.034900	0.459100	0.936100
C21	C2	0.125300	0.429000	0.203300
H21	H2	0.146800	0.415800	0.207800
C31	C3	0.346100	0.651500	0.269900
H31	H3	0.329000	0.696400	0.267200
C41	C4	0.161500	0.549500	0.143200
C51	C5	0.438200	0.402400	0.471500
C61	C6	0.058100	0.430000	0.900200
H41	H4	0.035400	0.434700	0.862700
C71	C7	0.128000	0.412600	0.251300
H51	H5	0.150900	0.393400	0.286600
C81	C8	0.340400	0.632000	0.221400
H61	H6	0.320500	0.666000	0.187700
C91	C9	0.203400	0.579400	0.186800
H71	H7	0.206100	0.637300	0.209900
H81	H8	0.211100	0.607400	0.166800
C101	C10	0.474000	0.413800	0.532600
H91	H9	0.466900	0.417800	0.555600
H101	H10	0.486300	0.481000	0.537200
C111	C11	0.092800	0.407200	0.912700
C121	C12	0.095400	0.426200	0.243000
C131	C13	0.364400	0.561200	0.222500
C141	C14	0.231500	0.489600	0.226800
H111	H11	0.223200	0.457400	0.245200
H121	H12	0.231000	0.434300	0.204600
C151	C15	0.504100	0.317900	0.556100
H131	H13	0.525500	0.328600	0.596200
H141	H14	0.492100	0.250100	0.551600
C161	C16	0.126900	0.401500	0.970500
H151	H15	0.150400	0.386900	0.981100
C171	C17	0.062700	0.460700	0.191400
H161	H16	0.040600	0.471200	0.185600
C181	C18	0.395600	0.517900	0.274900
H171	H17	0.413300	0.474800	0.278200
C191	C19	0.272100	0.530000	0.271800
H181	H18	0.280600	0.559400	0.253100
H191	H19	0.272100	0.588100	0.292400
C201	C20	0.518700	0.313700	0.523500
H201	H20	0.496900	0.310800	0.483100
H211	H21	0.532600	0.379300	0.531000
C211	C21	0.123000	0.419500	0.011500
H221	H22	0.144900	0.413100	0.049500
C221	C22	0.062800	0.480200	0.147100
H231	H23	0.040700	0.506500	0.112800
C231	C23	0.399400	0.540300	0.320700
H241	H24	0.419600	0.507900	0.354800
C241	C24	0.300300	0.446500	0.313700
C251	C25	0.543700	0.220500	0.539300
C261	C26	0.092000	0.385000	0.866500
H251	H25	0.069300	0.392800	0.829200
C271	C27	0.093700	0.405800	0.288100
H261	H26	0.073600	0.430600	0.284900
C281	C28	0.357900	0.538100	0.170500
H271	H27	0.337100	0.569100	0.136400
C291	C29	0.146200	0.301700	0.835100
H281	H28	0.169500	0.296000	0.872000
C301	C30	0.144000	0.283000	0.416300
H291	H29	0.164600	0.260100	0.420100
C311	C31	0.394600	0.417600	0.121100
H301	H30	0.416500	0.392300	0.156000
C321	C32	0.173500	0.218800	0.750800
H311	H31	0.195900	0.200200	0.758800
C331	C33	0.113900	0.728500	0.002900
H321	H32	0.094100	0.702100	0.000000
C341	C34	0.416800	0.639700	0.527200
H331	H33	0.438200	0.655600	0.531700
C351	C35	0.175500	0.244500	0.797500
H341	H34	0.198500	0.240800	0.834700
C361	C36	0.113800	0.707200	0.958700
H351	H35	0.093700	0.669200	0.926900
C371	C37	0.421000	0.629100	0.574600
H361	H36	0.444800	0.640600	0.610300
C381	C38	0.143000	0.274300	0.786000
C391	C39	0.143200	0.741900	0.961900
C401	C40	0.389800	0.601000	0.569600
C411	C41	0.109100	0.278900	0.728700
H371	H37	0.086600	0.301300	0.719600
C421	C42	0.172700	0.801000	0.009300
H381	H38	0.193000	0.827000	0.013100
C431	C43	0.355400	0.587100	0.514700
H391	H39	0.333800	0.569200	0.509100
C441	C44	0.108700	0.250400	0.685400
H401	H40	0.085800	0.252000	0.648000
C451	C45	0.170500	0.818800	0.050200
H411	H41	0.190400	0.857400	0.082000
C461	C46	0.352700	0.598600	0.470900
H421	H42	0.329100	0.586200	0.435200
N11	N1	0.090600	0.444600	0.000400
N21	N2	0.092900	0.462800	0.151900
N31	N3	0.375700	0.607800	0.321700
N41	N4	0.121800	0.355300	0.875900
N51	N5	0.122000	0.351200	0.332400
N61	N6	0.379900	0.476800	0.171400
N71	N7	0.115100	0.334900	0.825500
N81	N8	0.117100	0.335300	0.372300
N91	N9	0.369500	0.467300	0.118500
N101	N10	0.141100	0.220300	0.696600
N111	N11	0.141400	0.784900	0.048600
N121	N12	0.382500	0.627800	0.473800
O11	O1	0.136400	0.621500	0.115900
O21	O2	0.421900	0.488600	0.443400
O31	O3	0.326900	0.741800	0.346900
O41	O4	0.153600	0.449800	0.136100
O51	O5	0.424900	0.308900	0.449600
O61	O6	0.046400	0.607300	0.029300
O71	O7	0.335700	0.480300	0.356600
O81	O8	0.579800	0.231900	0.567500
O91	O9	0.207200	0.847500	0.191900
O101	O10	0.529600	0.125100	0.525900
Cd41	Cd4	0.877540	0.126070	0.395460
Cd51	Cd5	0.586890	0.968010	0.070840
Cd61	Cd6	0.639590	0.304890	0.120800
C471	C47	0.558000	0.946700	0.945000
H431	H43	0.534900	0.959100	0.936100
C481	C48	0.625300	0.929000	0.203300
H441	H44	0.646800	0.915800	0.207800
C491	C49	0.846100	0.151500	0.269900
H451	H45	0.829000	0.196400	0.267200
C501	C50	0.661500	0.049500	0.143200
C511	C51	0.938200	0.902400	0.471500
C521	C52	0.558100	0.930000	0.900200
H461	H46	0.535400	0.934700	0.862700
C531	C53	0.628000	0.912600	0.251300
H471	H47	0.650900	0.893400	0.286600
C541	C54	0.840400	0.132000	0.221400
H481	H48	0.820500	0.166000	0.187700
C551	C55	0.703400	0.079400	0.186800
H491	H49	0.706100	0.137300	0.209900
H501	H50	0.711100	0.107400	0.166800
C561	C56	0.974000	0.913800	0.532600
H511	H51	0.966900	0.917800	0.555600
H521	H52	0.986300	0.981000	0.537200
C571	C57	0.592800	0.907200	0.912700
C581	C58	0.595400	0.926200	0.243000
C591	C59	0.864400	0.061200	0.222500
C601	C60	0.731500	0.989600	0.226800
H531	H53	0.723200	0.957400	0.245200
H541	H54	0.731000	0.934300	0.204600
C611	C61	0.004100	0.817900	0.556100
H551	H55	0.025500	0.828600	0.596200
H561	H56	0.992100	0.750100	0.551600
C621	C62	0.626900	0.901500	0.970500
H571	H57	0.650400	0.886900	0.981100
C631	C63	0.562700	0.960700	0.191400
H581	H58	0.540600	0.971200	0.185600
C641	C64	0.895600	0.017900	0.274900
H591	H59	0.913300	0.974800	0.278200
C651	C65	0.772100	0.030000	0.271800
H601	H60	0.780600	0.059400	0.253100
H611	H61	0.772100	0.088100	0.292400
C661	C66	0.018700	0.813700	0.523500
H621	H62	0.996900	0.810800	0.483100
H631	H63	0.032600	0.879300	0.531000
C671	C67	0.623000	0.919500	0.011500
H641	H64	0.644900	0.913100	0.049500
C681	C68	0.562800	0.980200	0.147100
H651	H65	0.540700	0.006500	0.112800
C691	C69	0.899400	0.040300	0.320700
H661	H66	0.919600	0.007900	0.354800
C701	C70	0.800300	0.946500	0.313700
C711	C71	0.043700	0.720500	0.539300
C721	C72	0.592000	0.885000	0.866500
H671	H67	0.569300	0.892800	0.829200
C731	C73	0.593700	0.905800	0.288100
H681	H68	0.573600	0.930600	0.284900
C741	C74	0.857900	0.038100	0.170500
H691	H69	0.837100	0.069100	0.136400
C751	C75	0.646200	0.801700	0.835100
H701	H70	0.669500	0.796000	0.872000
C761	C76	0.644000	0.783000	0.416300
H711	H71	0.664600	0.760100	0.420100
C771	C77	0.894600	0.917600	0.121100
H721	H72	0.916500	0.892300	0.156000
C781	C78	0.673500	0.718800	0.750800
H731	H73	0.695900	0.700200	0.758800
C791	C79	0.613900	0.228500	0.002900
H741	H74	0.594100	0.202100	0.000000
C801	C80	0.916800	0.139700	0.527200
H751	H75	0.938200	0.155600	0.531700
C811	C81	0.675500	0.744500	0.797500
H761	H76	0.698500	0.740800	0.834700
C821	C82	0.613800	0.207200	0.958700
H771	H77	0.593700	0.169200	0.926900
C831	C83	0.921000	0.129100	0.574600
H781	H78	0.944800	0.140600	0.610300
C841	C84	0.643000	0.774300	0.786000
C851	C85	0.643200	0.241900	0.961900
C861	C86	0.889800	0.101000	0.569600
C871	C87	0.609100	0.778900	0.728700
H791	H79	0.586600	0.801300	0.719600
C881	C88	0.672700	0.301000	0.009300
H801	H80	0.693000	0.327000	0.013100
C891	C89	0.855400	0.087100	0.514700
H811	H81	0.833800	0.069200	0.509100
C901	C90	0.608700	0.750400	0.685400
H821	H82	0.585800	0.752000	0.648000
C911	C91	0.670500	0.318800	0.050200
H831	H83	0.690400	0.357400	0.082000
C921	C92	0.852700	0.098600	0.470900
H841	H84	0.829100	0.086200	0.435200
N131	N13	0.590600	0.944600	0.000400
N141	N14	0.592900	0.962800	0.151900
N151	N15	0.875700	0.107800	0.321700
N161	N16	0.621800	0.855300	0.875900
N171	N17	0.622000	0.851200	0.332400
N181	N18	0.879900	0.976800	0.171400
N191	N19	0.615100	0.834900	0.825500
N201	N20	0.617100	0.835300	0.372300
N211	N21	0.869500	0.967300	0.118500
N221	N22	0.641100	0.720300	0.696600
N231	N23	0.641400	0.284900	0.048600
N241	N24	0.882500	0.127800	0.473800
O111	O11	0.636400	0.121500	0.115900
O121	O12	0.921900	0.988600	0.443400
O131	O13	0.826900	0.241800	0.346900
O141	O14	0.653600	0.949800	0.136100
O151	O15	0.924900	0.808900	0.449600
O161	O16	0.546400	0.107300	0.029300
O171	O17	0.835700	0.980300	0.356600
O181	O18	0.079800	0.731900	0.567500
O191	O19	0.707200	0.347500	0.191900
O201	O20	0.029600	0.625100	0.525900
Cd71	Cd7	0.622460	0.626070	0.104540
Cd81	Cd8	0.913110	0.468010	0.429160
Cd91	Cd9	0.860410	0.804890	0.379200
C931	C93	0.942000	0.446700	0.555000
H851	H85	0.965100	0.459100	0.563900
C941	C94	0.874700	0.429000	0.296700
H861	H86	0.853200	0.415800	0.292200
C951	C95	0.653900	0.651500	0.230100
H871	H87	0.671000	0.696400	0.232800
C961	C96	0.838500	0.549500	0.356800
C971	C97	0.561800	0.402400	0.028500
C981	C98	0.941900	0.430000	0.599800
H881	H88	0.964600	0.434700	0.637300
C991	C99	0.872000	0.412600	0.248700
H891	H89	0.849100	0.393400	0.213400
C1001	C100	0.659600	0.632000	0.278600
H901	H90	0.679500	0.666000	0.312300
C1011	C101	0.796600	0.579400	0.313200
H911	H91	0.793900	0.637300	0.290100
H921	H92	0.788900	0.607400	0.333200
C1021	C102	0.526000	0.413800	0.967400
H931	H93	0.533100	0.417800	0.944400
H941	H94	0.513700	0.481000	0.962800
C1031	C103	0.907200	0.407200	0.587300
C1041	C104	0.904600	0.426200	0.257000
C1051	C105	0.635600	0.561200	0.277500
C1061	C106	0.768500	0.489600	0.273200
H951	H95	0.776800	0.457400	0.254800
H961	H96	0.769000	0.434300	0.295400
C1071	C107	0.495900	0.317900	0.943900
H971	H97	0.474500	0.328600	0.903800
H981	H98	0.507900	0.250100	0.948400
C1081	C108	0.873100	0.401500	0.529500
H991	H99	0.849600	0.386900	0.518900
C1091	C109	0.937300	0.460700	0.308600
H1001	H100	0.959400	0.471200	0.314400
C1101	C110	0.604400	0.517900	0.225100
H1011	H101	0.586700	0.474800	0.221800
C1111	C111	0.727900	0.530000	0.228200
H1021	H102	0.719400	0.559400	0.246900
H1031	H103	0.727900	0.588100	0.207600
C1121	C112	0.481300	0.313700	0.976500
H1041	H104	0.503100	0.310800	0.016900
H1051	H105	0.467400	0.379300	0.969000
C1131	C113	0.877000	0.419500	0.488500
H1061	H106	0.855100	0.413100	0.450500
C1141	C114	0.937200	0.480200	0.352900
H1071	H107	0.959300	0.506500	0.387200
C1151	C115	0.600600	0.540300	0.179300
H1081	H108	0.580400	0.507900	0.145200
C1161	C116	0.699700	0.446500	0.186300
C1171	C117	0.456300	0.220500	0.960700
C1181	C118	0.908000	0.385000	0.633500
H1091	H109	0.930700	0.392800	0.670800
C1191	C119	0.906300	0.405800	0.211900
H1101	H110	0.926400	0.430600	0.215100
C1201	C120	0.642100	0.538100	0.329500
H1111	H111	0.662900	0.569100	0.363600
C1211	C121	0.853800	0.301700	0.664900
H1121	H112	0.830500	0.296000	0.628000
C1221	C122	0.856000	0.283000	0.083700
H1131	H113	0.835400	0.260100	0.079900
C1231	C123	0.605400	0.417600	0.378900
H1141	H114	0.583500	0.392300	0.344000
C1241	C124	0.826500	0.218800	0.749200
H1151	H115	0.804100	0.200200	0.741200
C1251	C125	0.886100	0.728500	0.497100
H1161	H116	0.905900	0.702100	0.500000
C1261	C126	0.583200	0.639700	0.972800
H1171	H117	0.561800	0.655600	0.968300
C1271	C127	0.824500	0.244500	0.702500
H1181	H118	0.801500	0.240800	0.665300
C1281	C128	0.886200	0.707200	0.541300
H1191	H119	0.906300	0.669200	0.573100
C1291	C129	0.579000	0.629100	0.925400
H1201	H120	0.555200	0.640600	0.889700
C1301	C130	0.857000	0.274300	0.714000
C1311	C131	0.856800	0.741900	0.538100
C1321	C132	0.610200	0.601000	0.930400
C1331	C133	0.890900	0.278900	0.771300
H1211	H121	0.913400	0.301300	0.780400
C1341	C134	0.827300	0.801000	0.490700
H1221	H122	0.807000	0.827000	0.486900
C1351	C135	0.644600	0.587100	0.985300
H1231	H123	0.666200	0.569200	0.990900
C1361	C136	0.891300	0.250400	0.814600
H1241	H124	0.914200	0.252000	0.852000
C1371	C137	0.829500	0.818800	0.449800
H1251	H125	0.809600	0.857400	0.418000
C1381	C138	0.647300	0.598600	0.029100
H1261	H126	0.670900	0.586200	0.064800
N251	N25	0.909400	0.444600	0.499600
N261	N26	0.907100	0.462800	0.348100
N271	N27	0.624300	0.607800	0.178300
N281	N28	0.878200	0.355300	0.624100
N291	N29	0.878000	0.351200	0.167600
N301	N30	0.620100	0.476800	0.328600
N311	N31	0.884900	0.334900	0.674500
N321	N32	0.882900	0.335300	0.127700
N331	N33	0.630500	0.467300	0.381500
N341	N34	0.858900	0.220300	0.803400
N351	N35	0.858600	0.784900	0.451400
N361	N36	0.617500	0.627800	0.026200
O211	O21	0.863600	0.621500	0.384100
O221	O22	0.578100	0.488600	0.056600
O231	O23	0.673100	0.741800	0.153100
O241	O24	0.846400	0.449800	0.363900
O251	O25	0.575100	0.308900	0.050400
O261	O26	0.953600	0.607300	0.470700
O271	O27	0.664300	0.480300	0.143400
O281	O28	0.420200	0.231900	0.932500
O291	O29	0.792800	0.847500	0.308100
O301	O30	0.470400	0.125100	0.974100
Cd101	Cd10	0.122460	0.126070	0.104540
Cd111	Cd11	0.413110	0.968010	0.429160
Cd121	Cd12	0.360410	0.304890	0.379200
C1391	C139	0.442000	0.946700	0.555000
H1271	H127	0.465100	0.959100	0.563900
C1401	C140	0.374700	0.929000	0.296700
H1281	H128	0.353200	0.915800	0.292200
C1411	C141	0.153900	0.151500	0.230100
H1291	H129	0.171000	0.196400	0.232800
C1421	C142	0.338500	0.049500	0.356800
C1431	C143	0.061800	0.902400	0.028500
C1441	C144	0.441900	0.930000	0.599800
H1301	H130	0.464600	0.934700	0.637300
C1451	C145	0.372000	0.912600	0.248700
H1311	H131	0.349100	0.893400	0.213400
C1461	C146	0.159600	0.132000	0.278600
H1321	H132	0.179500	0.166000	0.312300
C1471	C147	0.296600	0.079400	0.313200
H1331	H133	0.293900	0.137300	0.290100
H1341	H134	0.288900	0.107400	0.333200
C1481	C148	0.026000	0.913800	0.967400
H1351	H135	0.033100	0.917800	0.944400
H1361	H136	0.013700	0.981000	0.962800
C1491	C149	0.407200	0.907200	0.587300
C1501	C150	0.404600	0.926200	0.257000
C1511	C151	0.135600	0.061200	0.277500
C1521	C152	0.268500	0.989600	0.273200
H1371	H137	0.276800	0.957400	0.254800
H1381	H138	0.269000	0.934300	0.295400
C1531	C153	0.995900	0.817900	0.943900
H1391	H139	0.974500	0.828600	0.903800
H1401	H140	0.007900	0.750100	0.948400
C1541	C154	0.373100	0.901500	0.529500
H1411	H141	0.349600	0.886900	0.518900
C1551	C155	0.437300	0.960700	0.308600
H1421	H142	0.459400	0.971200	0.314400
C1561	C156	0.104400	0.017900	0.225100
H1431	H143	0.086700	0.974800	0.221800
C1571	C157	0.227900	0.030000	0.228200
H1441	H144	0.219400	0.059400	0.246900
H1451	H145	0.227900	0.088100	0.207600
C1581	C158	0.981300	0.813700	0.976500
H1461	H146	0.003100	0.810800	0.016900
H1471	H147	0.967400	0.879300	0.969000
C1591	C159	0.377000	0.919500	0.488500
H1481	H148	0.355100	0.913100	0.450500
C1601	C160	0.437200	0.980200	0.352900
H1491	H149	0.459300	0.006500	0.387200
C1611	C161	0.100600	0.040300	0.179300
H1501	H150	0.080400	0.007900	0.145200
C1621	C162	0.199700	0.946500	0.186300
C1631	C163	0.956300	0.720500	0.960700
C1641	C164	0.408000	0.885000	0.633500
H1511	H151	0.430700	0.892800	0.670800
C1651	C165	0.406300	0.905800	0.211900
H1521	H152	0.426400	0.930600	0.215100
C1661	C166	0.142100	0.038100	0.329500
H1531	H153	0.162900	0.069100	0.363600
C1671	C167	0.353800	0.801700	0.664900
H1541	H154	0.330500	0.796000	0.628000
C1681	C168	0.356000	0.783000	0.083700
H1551	H155	0.335400	0.760100	0.079900
C1691	C169	0.105400	0.917600	0.378900
H1561	H156	0.083500	0.892300	0.344000
C1701	C170	0.326500	0.718800	0.749200
H1571	H157	0.304100	0.700200	0.741200
C1711	C171	0.386100	0.228500	0.497100
H1581	H158	0.405900	0.202100	0.500000
C1721	C172	0.083200	0.139700	0.972800
H1591	H159	0.061800	0.155600	0.968300
C1731	C173	0.324500	0.744500	0.702500
H1601	H160	0.301500	0.740800	0.665300
C1741	C174	0.386200	0.207200	0.541300
H1611	H161	0.406300	0.169200	0.573100
C1751	C175	0.079000	0.129100	0.925400
H1621	H162	0.055200	0.140600	0.889700
C1761	C176	0.357000	0.774300	0.714000
C1771	C177	0.356800	0.241900	0.538100
C1781	C178	0.110200	0.101000	0.930400
C1791	C179	0.390900	0.778900	0.771300
H1631	H163	0.413400	0.801300	0.780400
C1801	C180	0.327300	0.301000	0.490700
H1641	H164	0.307000	0.327000	0.486900
C1811	C181	0.144600	0.087100	0.985300
H1651	H165	0.166200	0.069200	0.990900
C1821	C182	0.391300	0.750400	0.814600
H1661	H166	0.414200	0.752000	0.852000
C1831	C183	0.329500	0.318800	0.449800
H1671	H167	0.309600	0.357400	0.418000
C1841	C184	0.147300	0.098600	0.029100
H1681	H168	0.170900	0.086200	0.064800
N371	N37	0.409400	0.944600	0.499600
N381	N38	0.407100	0.962800	0.348100
N391	N39	0.124300	0.107800	0.178300
N401	N40	0.378200	0.855300	0.624100
N411	N41	0.378000	0.851200	0.167600
N421	N42	0.120100	0.976800	0.328600
N431	N43	0.384900	0.834900	0.674500
N441	N44	0.382900	0.835300	0.127700
N451	N45	0.130500	0.967300	0.381500
N461	N46	0.358900	0.720300	0.803400
N471	N47	0.358600	0.284900	0.451400
N481	N48	0.117500	0.127800	0.026200
O311	O31	0.363600	0.121500	0.384100
O321	O32	0.078100	0.988600	0.056600
O331	O33	0.173100	0.241800	0.153100
O341	O34	0.346400	0.949800	0.363900
O351	O35	0.075100	0.808900	0.050400
O361	O36	0.453600	0.107300	0.470700
O371	O37	0.164300	0.980300	0.143400
O381	O38	0.920200	0.731900	0.932500
O391	O39	0.292800	0.347500	0.308100
O401	O40	0.970400	0.625100	0.974100
Cd131	Cd13	0.622460	0.373930	0.604540
Cd141	Cd14	0.913110	0.531990	0.929160
Cd151	Cd15	0.860410	0.195110	0.879200
C1851	C185	0.942000	0.553300	0.055000
H1691	H169	0.965100	0.540900	0.063900
C1861	C186	0.874700	0.571000	0.796700
H1701	H170	0.853200	0.584200	0.792200
C1871	C187	0.653900	0.348500	0.730100
H1711	H171	0.671000	0.303600	0.732800
C1881	C188	0.838500	0.450500	0.856800
C1891	C189	0.561800	0.597600	0.528500
C1901	C190	0.941900	0.570000	0.099800
H1721	H172	0.964600	0.565300	0.137300
C1911	C191	0.872000	0.587400	0.748700
H1731	H173	0.849100	0.606600	0.713400
C1921	C192	0.659600	0.368000	0.778600
H1741	H174	0.679500	0.334000	0.812300
C1931	C193	0.796600	0.420600	0.813200
H1751	H175	0.793900	0.362700	0.790100
H1761	H176	0.788900	0.392600	0.833200
C1941	C194	0.526000	0.586200	0.467400
H1771	H177	0.533100	0.582200	0.444400
H1781	H178	0.513700	0.519000	0.462800
C1951	C195	0.907200	0.592800	0.087300
C1961	C196	0.904600	0.573800	0.757000
C1971	C197	0.635600	0.438800	0.777500
C1981	C198	0.768500	0.510400	0.773200
H1791	H179	0.776800	0.542600	0.754800
H1801	H180	0.769000	0.565700	0.795400
C1991	C199	0.495900	0.682100	0.443900
H1811	H181	0.474500	0.671400	0.403800
H1821	H182	0.507900	0.749900	0.448400
C2001	C200	0.873100	0.598500	0.029500
H1831	H183	0.849600	0.613100	0.018900
C2011	C201	0.937300	0.539300	0.808600
H1841	H184	0.959400	0.528800	0.814400
C2021	C202	0.604400	0.482100	0.725100
H1851	H185	0.586700	0.525200	0.721800
C2031	C203	0.727900	0.470000	0.728200
H1861	H186	0.719400	0.440600	0.746900
H1871	H187	0.727900	0.411900	0.707600
C2041	C204	0.481300	0.686300	0.476500
H1881	H188	0.503100	0.689200	0.516900
H1891	H189	0.467400	0.620700	0.469000
C2051	C205	0.877000	0.580500	0.988500
H1901	H190	0.855100	0.586900	0.950500
C2061	C206	0.937200	0.519800	0.852900
H1911	H191	0.959300	0.493500	0.887200
C2071	C207	0.600600	0.459700	0.679300
H1921	H192	0.580400	0.492100	0.645200
C2081	C208	0.699700	0.553500	0.686300
C2091	C209	0.456300	0.779500	0.460700
C2101	C210	0.908000	0.615000	0.133500
H1931	H193	0.930700	0.607200	0.170800
C2111	C211	0.906300	0.594200	0.711900
H1941	H194	0.926400	0.569400	0.715100
C2121	C212	0.642100	0.461900	0.829500
H1951	H195	0.662900	0.430900	0.863600
C2131	C213	0.853800	0.698300	0.164900
H1961	H196	0.830500	0.704000	0.128000
C2141	C214	0.856000	0.717000	0.583700
H1971	H197	0.835400	0.739900	0.579900
C2151	C215	0.605400	0.582400	0.878900
H1981	H198	0.583500	0.607700	0.844000
C2161	C216	0.826500	0.781200	0.249200
H1991	H199	0.804100	0.799800	0.241200
C2171	C217	0.886100	0.271500	0.997100
H2001	H200	0.905900	0.297900	0.000000
C2181	C218	0.583200	0.360300	0.472800
H2011	H201	0.561800	0.344400	0.468300
C2191	C219	0.824500	0.755500	0.202500
H2021	H202	0.801500	0.759200	0.165300
C2201	C220	0.886200	0.292800	0.041300
H2031	H203	0.906300	0.330800	0.073100
C2211	C221	0.579000	0.370900	0.425400
H2041	H204	0.555200	0.359400	0.389700
C2221	C222	0.857000	0.725700	0.214000
C2231	C223	0.856800	0.258100	0.038100
C2241	C224	0.610200	0.399000	0.430400
C2251	C225	0.890900	0.721100	0.271300
H2051	H205	0.913400	0.698700	0.280400
C2261	C226	0.827300	0.199000	0.990700
H2061	H206	0.807000	0.173000	0.986900
C2271	C227	0.644600	0.412900	0.485300
H2071	H207	0.666200	0.430800	0.490900
C2281	C228	0.891300	0.749600	0.314600
H2081	H208	0.914200	0.748000	0.352000
C2291	C229	0.829500	0.181200	0.949800
H2091	H209	0.809600	0.142600	0.918000
C2301	C230	0.647300	0.401400	0.529100
H2101	H210	0.670900	0.413800	0.564800
N491	N49	0.909400	0.555400	0.999600
N501	N50	0.907100	0.537200	0.848100
N511	N51	0.624300	0.392200	0.678300
N521	N52	0.878200	0.644700	0.124100
N531	N53	0.878000	0.648800	0.667600
N541	N54	0.620100	0.523200	0.828600
N551	N55	0.884900	0.665100	0.174500
N561	N56	0.882900	0.664700	0.627700
N571	N57	0.630500	0.532700	0.881500
N581	N58	0.858900	0.779700	0.303400
N591	N59	0.858600	0.215100	0.951400
N601	N60	0.617500	0.372200	0.526200
O411	O41	0.863600	0.378500	0.884100
O421	O42	0.578100	0.511400	0.556600
O431	O43	0.673100	0.258200	0.653100
O441	O44	0.846400	0.550200	0.863900
O451	O45	0.575100	0.691100	0.550400
O461	O46	0.953600	0.392700	0.970700
O471	O47	0.664300	0.519700	0.643400
O481	O48	0.420200	0.768100	0.432500
O491	O49	0.792800	0.152500	0.808100
O501	O50	0.470400	0.874900	0.474100
Cd161	Cd16	0.122460	0.873930	0.604540
Cd171	Cd17	0.413110	0.031990	0.929160
Cd181	Cd18	0.360410	0.695110	0.879200
C2311	C231	0.442000	0.053300	0.055000
H2111	H211	0.465100	0.040900	0.063900
C2321	C232	0.374700	0.071000	0.796700
H2121	H212	0.353200	0.084200	0.792200
C2331	C233	0.153900	0.848500	0.730100
H2131	H213	0.171000	0.803600	0.732800
C2341	C234	0.338500	0.950500	0.856800
C2351	C235	0.061800	0.097600	0.528500
C2361	C236	0.441900	0.070000	0.099800
H2141	H214	0.464600	0.065300	0.137300
C2371	C237	0.372000	0.087400	0.748700
H2151	H215	0.349100	0.106600	0.713400
C2381	C238	0.159600	0.868000	0.778600
H2161	H216	0.179500	0.834000	0.812300
C2391	C239	0.296600	0.920600	0.813200
H2171	H217	0.293900	0.862700	0.790100
H2181	H218	0.288900	0.892600	0.833200
C2401	C240	0.026000	0.086200	0.467400
H2191	H219	0.033100	0.082200	0.444400
H2201	H220	0.013700	0.019000	0.462800
C2411	C241	0.407200	0.092800	0.087300
C2421	C242	0.404600	0.073800	0.757000
C2431	C243	0.135600	0.938800	0.777500
C2441	C244	0.268500	0.010400	0.773200
H2211	H221	0.276800	0.042600	0.754800
H2221	H222	0.269000	0.065700	0.795400
C2451	C245	0.995900	0.182100	0.443900
H2231	H223	0.974500	0.171400	0.403800
H2241	H224	0.007900	0.249900	0.448400
C2461	C246	0.373100	0.098500	0.029500
H2251	H225	0.349600	0.113100	0.018900
C2471	C247	0.437300	0.039300	0.808600
H2261	H226	0.459400	0.028800	0.814400
C2481	C248	0.104400	0.982100	0.725100
H2271	H227	0.086700	0.025200	0.721800
C2491	C249	0.227900	0.970000	0.728200
H2281	H228	0.219400	0.940600	0.746900
H2291	H229	0.227900	0.911900	0.707600
C2501	C250	0.981300	0.186300	0.476500
H2301	H230	0.003100	0.189200	0.516900
H2311	H231	0.967400	0.120700	0.469000
C2511	C251	0.377000	0.080500	0.988500
H2321	H232	0.355100	0.086900	0.950500
C2521	C252	0.437200	0.019800	0.852900
H2331	H233	0.459300	0.993500	0.887200
C2531	C253	0.100600	0.959700	0.679300
H2341	H234	0.080400	0.992100	0.645200
C2541	C254	0.199700	0.053500	0.686300
C2551	C255	0.956300	0.279500	0.460700
C2561	C256	0.408000	0.115000	0.133500
H2351	H235	0.430700	0.107200	0.170800
C2571	C257	0.406300	0.094200	0.711900
H2361	H236	0.426400	0.069400	0.715100
C2581	C258	0.142100	0.961900	0.829500
H2371	H237	0.162900	0.930900	0.863600
C2591	C259	0.353800	0.198300	0.164900
H2381	H238	0.330500	0.204000	0.128000
C2601	C260	0.356000	0.217000	0.583700
H2391	H239	0.335400	0.239900	0.579900
C2611	C261	0.105400	0.082400	0.878900
H2401	H240	0.083500	0.107700	0.844000
C2621	C262	0.326500	0.281200	0.249200
H2411	H241	0.304100	0.299800	0.241200
C2631	C263	0.386100	0.771500	0.997100
H2421	H242	0.405900	0.797900	0.000000
C2641	C264	0.083200	0.860300	0.472800
H2431	H243	0.061800	0.844400	0.468300
C2651	C265	0.324500	0.255500	0.202500
H2441	H244	0.301500	0.259200	0.165300
C2661	C266	0.386200	0.792800	0.041300
H2451	H245	0.406300	0.830800	0.073100
C2671	C267	0.079000	0.870900	0.425400
H2461	H246	0.055200	0.859400	0.389700
C2681	C268	0.357000	0.225700	0.214000
C2691	C269	0.356800	0.758100	0.038100
C2701	C270	0.110200	0.899000	0.430400
C2711	C271	0.390900	0.221100	0.271300
H2471	H247	0.413400	0.198700	0.280400
C2721	C272	0.327300	0.699000	0.990700
H2481	H248	0.307000	0.673000	0.986900
C2731	C273	0.144600	0.912900	0.485300
H2491	H249	0.166200	0.930800	0.490900
C2741	C274	0.391300	0.249600	0.314600
H2501	H250	0.414200	0.248000	0.352000
C2751	C275	0.329500	0.681200	0.949800
H2511	H251	0.309600	0.642600	0.918000
C2761	C276	0.147300	0.901400	0.529100
H2521	H252	0.170900	0.913800	0.564800
N611	N61	0.409400	0.055400	0.999600
N621	N62	0.407100	0.037200	0.848100
N631	N63	0.124300	0.892200	0.678300
N641	N64	0.378200	0.144700	0.124100
N651	N65	0.378000	0.148800	0.667600
N661	N66	0.120100	0.023200	0.828600
N671	N67	0.384900	0.165100	0.174500
N681	N68	0.382900	0.164700	0.627700
N691	N69	0.130500	0.032700	0.881500
N701	N70	0.358900	0.279700	0.303400
N711	N71	0.358600	0.715100	0.951400
N721	N72	0.117500	0.872200	0.526200
O511	O51	0.363600	0.878500	0.884100
O521	O52	0.078100	0.011400	0.556600
O531	O53	0.173100	0.758200	0.653100
O541	O54	0.346400	0.050200	0.863900
O551	O55	0.075100	0.191100	0.550400
O561	O56	0.453600	0.892700	0.970700
O571	O57	0.164300	0.019700	0.643400
O581	O58	0.920200	0.268100	0.432500
O591	O59	0.292800	0.652500	0.808100
O601	O60	0.970400	0.374900	0.474100
Cd191	Cd19	0.377540	0.373930	0.895460
Cd201	Cd20	0.086890	0.531990	0.570840
Cd211	Cd21	0.139590	0.195110	0.620800
C2771	C277	0.058000	0.553300	0.445000
H2531	H253	0.034900	0.540900	0.436100
C2781	C278	0.125300	0.571000	0.703300
H2541	H254	0.146800	0.584200	0.707800
C2791	C279	0.346100	0.348500	0.769900
H2551	H255	0.329000	0.303600	0.767200
C2801	C280	0.161500	0.450500	0.643200
C2811	C281	0.438200	0.597600	0.971500
C2821	C282	0.058100	0.570000	0.400200
H2561	H256	0.035400	0.565300	0.362700
C2831	C283	0.128000	0.587400	0.751300
H2571	H257	0.150900	0.606600	0.786600
C2841	C284	0.340400	0.368000	0.721400
H2581	H258	0.320500	0.334000	0.687700
C2851	C285	0.203400	0.420600	0.686800
H2591	H259	0.206100	0.362700	0.709900
H2601	H260	0.211100	0.392600	0.666800
C2861	C286	0.474000	0.586200	0.032600
H2611	H261	0.466900	0.582200	0.055600
H2621	H262	0.486300	0.519000	0.037200
C2871	C287	0.092800	0.592800	0.412700
C2881	C288	0.095400	0.573800	0.743000
C2891	C289	0.364400	0.438800	0.722500
C2901	C290	0.231500	0.510400	0.726800
H2631	H263	0.223200	0.542600	0.745200
H2641	H264	0.231000	0.565700	0.704600
C2911	C291	0.504100	0.682100	0.056100
H2651	H265	0.525500	0.671400	0.096200
H2661	H266	0.492100	0.749900	0.051600
C2921	C292	0.126900	0.598500	0.470500
H2671	H267	0.150400	0.613100	0.481100
C2931	C293	0.062700	0.539300	0.691400
H2681	H268	0.040600	0.528800	0.685600
C2941	C294	0.395600	0.482100	0.774900
H2691	H269	0.413300	0.525200	0.778200
C2951	C295	0.272100	0.470000	0.771800
H2701	H270	0.280600	0.440600	0.753100
H2711	H271	0.272100	0.411900	0.792400
C2961	C296	0.518700	0.686300	0.023500
H2721	H272	0.496900	0.689200	0.983100
H2731	H273	0.532600	0.620700	0.031000
C2971	C297	0.123000	0.580500	0.511500
H2741	H274	0.144900	0.586900	0.549500
C2981	C298	0.062800	0.519800	0.647100
H2751	H275	0.040700	0.493500	0.612800
C2991	C299	0.399400	0.459700	0.820700
H2761	H276	0.419600	0.492100	0.854800
C3001	C300	0.300300	0.553500	0.813700
C3011	C301	0.543700	0.779500	0.039300
C3021	C302	0.092000	0.615000	0.366500
H2771	H277	0.069300	0.607200	0.329200
C3031	C303	0.093700	0.594200	0.788100
H2781	H278	0.073600	0.569400	0.784900
C3041	C304	0.357900	0.461900	0.670500
H2791	H279	0.337100	0.430900	0.636400
C3051	C305	0.146200	0.698300	0.335100
H2801	H280	0.169500	0.704000	0.372000
C3061	C306	0.144000	0.717000	0.916300
H2811	H281	0.164600	0.739900	0.920100
C3071	C307	0.394600	0.582400	0.621100
H2821	H282	0.416500	0.607700	0.656000
C3081	C308	0.173500	0.781200	0.250800
H2831	H283	0.195900	0.799800	0.258800
C3091	C309	0.113900	0.271500	0.502900
H2841	H284	0.094100	0.297900	0.500000
C3101	C310	0.416800	0.360300	0.027200
H2851	H285	0.438200	0.344400	0.031700
C3111	C311	0.175500	0.755500	0.297500
H2861	H286	0.198500	0.759200	0.334700
C3121	C312	0.113800	0.292800	0.458700
H2871	H287	0.093700	0.330800	0.426900
C3131	C313	0.421000	0.370900	0.074600
H2881	H288	0.444800	0.359400	0.110300
C3141	C314	0.143000	0.725700	0.286000
C3151	C315	0.143200	0.258100	0.461900
C3161	C316	0.389800	0.399000	0.069600
C3171	C317	0.109100	0.721100	0.228700
H2891	H289	0.086600	0.698700	0.219600
C3181	C318	0.172700	0.199000	0.509300
H2901	H290	0.193000	0.173000	0.513100
C3191	C319	0.355400	0.412900	0.014700
H2911	H291	0.333800	0.430800	0.009100
C3201	C320	0.108700	0.749600	0.185400
H2921	H292	0.085800	0.748000	0.148000
C3211	C321	0.170500	0.181200	0.550200
H2931	H293	0.190400	0.142600	0.582000
C3221	C322	0.352700	0.401400	0.970900
H2941	H294	0.329100	0.413800	0.935200
N731	N73	0.090600	0.555400	0.500400
N741	N74	0.092900	0.537200	0.651900
N751	N75	0.375700	0.392200	0.821700
N761	N76	0.121800	0.644700	0.375900
N771	N77	0.122000	0.648800	0.832400
N781	N78	0.379900	0.523200	0.671400
N791	N79	0.115100	0.665100	0.325500
N801	N80	0.117100	0.664700	0.872300
N811	N81	0.369500	0.532700	0.618500
N821	N82	0.141100	0.779700	0.196600
N831	N83	0.141400	0.215100	0.548600
N841	N84	0.382500	0.372200	0.973800
O611	O61	0.136400	0.378500	0.615900
O621	O62	0.421900	0.511400	0.943400
O631	O63	0.326900	0.258200	0.846900
O641	O64	0.153600	0.550200	0.636100
O651	O65	0.424900	0.691100	0.949600
O661	O66	0.046400	0.392700	0.529300
O671	O67	0.335700	0.519700	0.856600
O681	O68	0.579800	0.768100	0.067500
O691	O69	0.207200	0.152500	0.691900
O701	O70	0.529600	0.874900	0.025900
Cd221	Cd22	0.877540	0.873930	0.895460
Cd231	Cd23	0.586890	0.031990	0.570840
Cd241	Cd24	0.639590	0.695110	0.620800
C3231	C323	0.558000	0.053300	0.445000
H2951	H295	0.534900	0.040900	0.436100
C3241	C324	0.625300	0.071000	0.703300
H2961	H296	0.646800	0.084200	0.707800
C3251	C325	0.846100	0.848500	0.769900
H2971	H297	0.829000	0.803600	0.767200
C3261	C326	0.661500	0.950500	0.643200
C3271	C327	0.938200	0.097600	0.971500
C3281	C328	0.558100	0.070000	0.400200
H2981	H298	0.535400	0.065300	0.362700
C3291	C329	0.628000	0.087400	0.751300
H2991	H299	0.650900	0.106600	0.786600
C3301	C330	0.840400	0.868000	0.721400
H3001	H300	0.820500	0.834000	0.687700
C3311	C331	0.703400	0.920600	0.686800
H3011	H301	0.706100	0.862700	0.709900
H3021	H302	0.711100	0.892600	0.666800
C3321	C332	0.974000	0.086200	0.032600
H3031	H303	0.966900	0.082200	0.055600
H3041	H304	0.986300	0.019000	0.037200
C3331	C333	0.592800	0.092800	0.412700
C3341	C334	0.595400	0.073800	0.743000
C3351	C335	0.864400	0.938800	0.722500
C3361	C336	0.731500	0.010400	0.726800
H3051	H305	0.723200	0.042600	0.745200
H3061	H306	0.731000	0.065700	0.704600
C3371	C337	0.004100	0.182100	0.056100
H3071	H307	0.025500	0.171400	0.096200
H3081	H308	0.992100	0.249900	0.051600
C3381	C338	0.626900	0.098500	0.470500
H3091	H309	0.650400	0.113100	0.481100
C3391	C339	0.562700	0.039300	0.691400
H3101	H310	0.540600	0.028800	0.685600
C3401	C340	0.895600	0.982100	0.774900
H3111	H311	0.913300	0.025200	0.778200
C3411	C341	0.772100	0.970000	0.771800
H3121	H312	0.780600	0.940600	0.753100
H3131	H313	0.772100	0.911900	0.792400
C3421	C342	0.018700	0.186300	0.023500
H3141	H314	0.996900	0.189200	0.983100
H3151	H315	0.032600	0.120700	0.031000
C3431	C343	0.623000	0.080500	0.511500
H3161	H316	0.644900	0.086900	0.549500
C3441	C344	0.562800	0.019800	0.647100
H3171	H317	0.540700	0.993500	0.612800
C3451	C345	0.899400	0.959700	0.820700
H3181	H318	0.919600	0.992100	0.854800
C3461	C346	0.800300	0.053500	0.813700
C3471	C347	0.043700	0.279500	0.039300
C3481	C348	0.592000	0.115000	0.366500
H3191	H319	0.569300	0.107200	0.329200
C3491	C349	0.593700	0.094200	0.788100
H3201	H320	0.573600	0.069400	0.784900
C3501	C350	0.857900	0.961900	0.670500
H3211	H321	0.837100	0.930900	0.636400
C3511	C351	0.646200	0.198300	0.335100
H3221	H322	0.669500	0.204000	0.372000
C3521	C352	0.644000	0.217000	0.916300
H3231	H323	0.664600	0.239900	0.920100
C3531	C353	0.894600	0.082400	0.621100
H3241	H324	0.916500	0.107700	0.656000
C3541	C354	0.673500	0.281200	0.250800
H3251	H325	0.695900	0.299800	0.258800
C3551	C355	0.613900	0.771500	0.502900
H3261	H326	0.594100	0.797900	0.500000
C3561	C356	0.916800	0.860300	0.027200
H3271	H327	0.938200	0.844400	0.031700
C3571	C357	0.675500	0.255500	0.297500
H3281	H328	0.698500	0.259200	0.334700
C3581	C358	0.613800	0.792800	0.458700
H3291	H329	0.593700	0.830800	0.426900
C3591	C359	0.921000	0.870900	0.074600
H3301	H330	0.944800	0.859400	0.110300
C3601	C360	0.643000	0.225700	0.286000
C3611	C361	0.643200	0.758100	0.461900
C3621	C362	0.889800	0.899000	0.069600
C3631	C363	0.609100	0.221100	0.228700
H3311	H331	0.586600	0.198700	0.219600
C3641	C364	0.672700	0.699000	0.509300
H3321	H332	0.693000	0.673000	0.513100
C3651	C365	0.855400	0.912900	0.014700
H3331	H333	0.833800	0.930800	0.009100
C3661	C366	0.608700	0.249600	0.185400
H3341	H334	0.585800	0.248000	0.148000
C3671	C367	0.670500	0.681200	0.550200
H3351	H335	0.690400	0.642600	0.582000
C3681	C368	0.852700	0.901400	0.970900
H3361	H336	0.829100	0.913800	0.935200
N851	N85	0.590600	0.055400	0.500400
N861	N86	0.592900	0.037200	0.651900
N871	N87	0.875700	0.892200	0.821700
N881	N88	0.621800	0.144700	0.375900
N891	N89	0.622000	0.148800	0.832400
N901	N90	0.879900	0.023200	0.671400
N911	N91	0.615100	0.165100	0.325500
N921	N92	0.617100	0.164700	0.872300
N931	N93	0.869500	0.032700	0.618500
N941	N94	0.641100	0.279700	0.196600
N951	N95	0.641400	0.715100	0.548600
N961	N96	0.882500	0.872200	0.973800
O711	O71	0.636400	0.878500	0.615900
O721	O72	0.921900	0.011400	0.943400
O731	O73	0.826900	0.758200	0.846900
O741	O74	0.653600	0.050200	0.636100
O751	O75	0.924900	0.191100	0.949600
O761	O76	0.546400	0.892700	0.529300
O771	O77	0.835700	0.019700	0.856600
O781	O78	0.079800	0.268100	0.067500
O791	O79	0.707200	0.652500	0.691900
O801	O80	0.029600	0.374900	0.025900
