data_c5dt03091a_c5dt03091a2_freeONLY_PM
_symmetry_space_group_name_H-M	'P1'
_cell_length_a	29.881000
_cell_length_b	29.881000
_cell_length_c	29.881000
_cell_angle_alpha	90.000000
_cell_angle_beta	90.000000
_cell_angle_gamma	90.000000
_symmetry_Int_Tables_number 1

loop_
_symmetry_equiv_pos_as_xyz
'x,y,z'

loop_
_atom_site_label
_atom_site_type_symbol
_atom_site_fract_x
_atom_site_fract_y
_atom_site_fract_z
Er11	Er1	0.243160	0.181230	0.141390
O11	O1	0.315560	0.201820	0.156520
O21	O2	0.317870	0.247460	0.218110
O31	O3	0.641000	0.258690	0.894200
O41	O4	0.698750	0.298890	0.919670
H11	H1	0.317500	0.280000	0.302900
O51	O5	0.247500	0.173030	0.221050
H21	H2	0.273700	0.162000	0.229800
O61	O6	0.286150	0.165320	0.073920
H31	H3	0.271600	0.147100	0.057600
H41	H4	0.290500	0.189500	0.059600
N11	N1	0.605010	0.244030	0.185250
C11	C1	0.336280	0.226700	0.185310
C21	C2	0.385960	0.230000	0.179030
C31	C3	0.406160	0.213300	0.140080
H51	H5	0.388900	0.198600	0.118800
C41	C4	0.413570	0.249700	0.211130
H61	H6	0.400700	0.259300	0.237800
C51	C5	0.452090	0.218500	0.133110
H71	H7	0.464700	0.207800	0.106700
C61	C6	0.459080	0.255600	0.205220
H81	H8	0.476200	0.269700	0.227000
C71	C7	0.479530	0.239400	0.164570
C81	C8	0.560830	0.241300	0.191070
H91	H9	0.550300	0.236600	0.220000
C91	C9	0.528870	0.244810	0.156520
C101	C10	0.545120	0.252450	0.113840
H101	H10	0.525200	0.255400	0.090100
C111	C11	0.591900	0.255870	0.105890
C121	C12	0.619600	0.250500	0.142760
H111	H11	0.650300	0.251400	0.138000
C131	C13	0.610080	0.260800	0.059780
C141	C14	0.588070	0.243500	0.022510
H121	H12	0.561700	0.227400	0.026500
C151	C15	0.650520	0.283100	0.051840
H131	H13	0.666500	0.294300	0.076100
C161	C16	0.604620	0.249800	0.979600
H141	H14	0.588700	0.238800	0.955200
C171	C17	0.667570	0.289100	0.009230
H151	H15	0.694400	0.304400	0.005300
C181	C18	0.645090	0.272500	0.972560
C191	C19	0.662820	0.277070	0.924770
Er21	Er2	0.256840	0.818770	0.641390
O71	O7	0.184440	0.798180	0.656520
O81	O8	0.182130	0.752540	0.718110
O91	O9	0.859000	0.741310	0.394200
O101	O10	0.801250	0.701110	0.419670
H161	H16	0.182500	0.720000	0.802900
O111	O11	0.252500	0.826970	0.721050
H171	H17	0.226300	0.838000	0.729800
O121	O12	0.213850	0.834680	0.573920
H181	H18	0.228400	0.852900	0.557600
H191	H19	0.209500	0.810500	0.559600
N21	N2	0.894990	0.755970	0.685250
C201	C20	0.163720	0.773300	0.685310
C211	C21	0.114040	0.770000	0.679030
C221	C22	0.093840	0.786700	0.640080
H201	H20	0.111100	0.801400	0.618800
C231	C23	0.086430	0.750300	0.711130
H211	H21	0.099300	0.740700	0.737800
C241	C24	0.047910	0.781500	0.633110
H221	H22	0.035300	0.792200	0.606700
C251	C25	0.040920	0.744400	0.705220
H231	H23	0.023800	0.730300	0.727000
C261	C26	0.020470	0.760600	0.664570
C271	C27	0.939170	0.758700	0.691070
H241	H24	0.949700	0.763400	0.720000
C281	C28	0.971130	0.755190	0.656520
C291	C29	0.954880	0.747550	0.613840
H251	H25	0.974800	0.744600	0.590100
C301	C30	0.908100	0.744130	0.605890
C311	C31	0.880400	0.749500	0.642760
H261	H26	0.849700	0.748600	0.638000
C321	C32	0.889920	0.739200	0.559780
C331	C33	0.911930	0.756500	0.522510
H271	H27	0.938300	0.772600	0.526500
C341	C34	0.849480	0.716900	0.551840
H281	H28	0.833500	0.705700	0.576100
C351	C35	0.895380	0.750200	0.479600
H291	H29	0.911300	0.761200	0.455200
C361	C36	0.832430	0.710900	0.509230
H301	H30	0.805600	0.695600	0.505300
C371	C37	0.854910	0.727500	0.472560
C381	C38	0.837180	0.722930	0.424770
Er31	Er3	0.756840	0.681230	0.358610
O131	O13	0.684440	0.701820	0.343480
O141	O14	0.682130	0.747460	0.281890
O151	O15	0.359000	0.758690	0.605800
O161	O16	0.301250	0.798890	0.580330
H311	H31	0.682500	0.780000	0.197100
O171	O17	0.752500	0.673030	0.278950
H321	H32	0.726300	0.662000	0.270200
O181	O18	0.713850	0.665320	0.426080
H331	H33	0.728400	0.647100	0.442400
H341	H34	0.709500	0.689500	0.440400
N31	N3	0.394990	0.744030	0.314750
C391	C39	0.663720	0.726700	0.314690
C401	C40	0.614040	0.730000	0.320970
C411	C41	0.593840	0.713300	0.359920
H351	H35	0.611100	0.698600	0.381200
C421	C42	0.586430	0.749700	0.288870
H361	H36	0.599300	0.759300	0.262200
C431	C43	0.547910	0.718500	0.366890
H371	H37	0.535300	0.707800	0.393300
C441	C44	0.540920	0.755600	0.294780
H381	H38	0.523800	0.769700	0.273000
C451	C45	0.520470	0.739400	0.335430
C461	C46	0.439170	0.741300	0.308930
H391	H39	0.449700	0.736600	0.280000
C471	C47	0.471130	0.744810	0.343480
C481	C48	0.454880	0.752450	0.386160
H401	H40	0.474800	0.755400	0.409900
C491	C49	0.408100	0.755870	0.394110
C501	C50	0.380400	0.750500	0.357240
H411	H41	0.349700	0.751400	0.362000
C511	C51	0.389920	0.760800	0.440220
C521	C52	0.411930	0.743500	0.477490
H421	H42	0.438300	0.727400	0.473500
C531	C53	0.349480	0.783100	0.448160
H431	H43	0.333500	0.794300	0.423900
C541	C54	0.395380	0.749800	0.520400
H441	H44	0.411300	0.738800	0.544800
C551	C55	0.332430	0.789100	0.490770
H451	H45	0.305600	0.804400	0.494700
C561	C56	0.354910	0.772500	0.527440
C571	C57	0.337180	0.777070	0.575230
Er41	Er4	0.743160	0.318770	0.858610
O191	O19	0.815560	0.298180	0.843480
O201	O20	0.817870	0.252540	0.781890
O211	O21	0.141000	0.241310	0.105800
O221	O22	0.198750	0.201110	0.080330
H461	H46	0.817500	0.220000	0.697100
O231	O23	0.747500	0.326970	0.778950
H471	H47	0.773700	0.338000	0.770200
O241	O24	0.786150	0.334680	0.926080
H481	H48	0.771600	0.352900	0.942400
H491	H49	0.790500	0.310500	0.940400
N41	N4	0.105010	0.255970	0.814750
C581	C58	0.836280	0.273300	0.814690
C591	C59	0.885960	0.270000	0.820970
C601	C60	0.906160	0.286700	0.859920
H501	H50	0.888900	0.301400	0.881200
C611	C61	0.913570	0.250300	0.788870
H511	H51	0.900700	0.240700	0.762200
C621	C62	0.952090	0.281500	0.866890
H521	H52	0.964700	0.292200	0.893300
C631	C63	0.959080	0.244400	0.794780
H531	H53	0.976200	0.230300	0.773000
C641	C64	0.979530	0.260600	0.835430
C651	C65	0.060830	0.258700	0.808930
H541	H54	0.050300	0.263400	0.780000
C661	C66	0.028870	0.255190	0.843480
C671	C67	0.045120	0.247550	0.886160
H551	H55	0.025200	0.244600	0.909900
C681	C68	0.091900	0.244130	0.894110
C691	C69	0.119600	0.249500	0.857240
H561	H56	0.150300	0.248600	0.862000
C701	C70	0.110080	0.239200	0.940220
C711	C71	0.088070	0.256500	0.977490
H571	H57	0.061700	0.272600	0.973500
C721	C72	0.150520	0.216900	0.948160
H581	H58	0.166500	0.205700	0.923900
C731	C73	0.104620	0.250200	0.020400
H591	H59	0.088700	0.261200	0.044800
C741	C74	0.167570	0.210900	0.990770
H601	H60	0.194400	0.195600	0.994700
C751	C75	0.145090	0.227500	0.027440
C761	C76	0.162820	0.222930	0.075230
Er51	Er5	0.141390	0.243160	0.181230
O251	O25	0.156520	0.315560	0.201820
O261	O26	0.218110	0.317870	0.247460
O271	O27	0.894200	0.641000	0.258690
O281	O28	0.919670	0.698750	0.298890
H611	H61	0.302900	0.317500	0.280000
O291	O29	0.221050	0.247500	0.173030
H621	H62	0.229800	0.273700	0.162000
O301	O30	0.073920	0.286150	0.165320
H631	H63	0.057600	0.271600	0.147100
H641	H64	0.059600	0.290500	0.189500
N51	N5	0.185250	0.605010	0.244030
C771	C77	0.185310	0.336280	0.226700
C781	C78	0.179030	0.385960	0.230000
C791	C79	0.140080	0.406160	0.213300
H651	H65	0.118800	0.388900	0.198600
C801	C80	0.211130	0.413570	0.249700
H661	H66	0.237800	0.400700	0.259300
C811	C81	0.133110	0.452090	0.218500
H671	H67	0.106700	0.464700	0.207800
C821	C82	0.205220	0.459080	0.255600
H681	H68	0.227000	0.476200	0.269700
C831	C83	0.164570	0.479530	0.239400
C841	C84	0.191070	0.560830	0.241300
H691	H69	0.220000	0.550300	0.236600
C851	C85	0.156520	0.528870	0.244810
C861	C86	0.113840	0.545120	0.252450
H701	H70	0.090100	0.525200	0.255400
C871	C87	0.105890	0.591900	0.255870
C881	C88	0.142760	0.619600	0.250500
H711	H71	0.138000	0.650300	0.251400
C891	C89	0.059780	0.610080	0.260800
C901	C90	0.022510	0.588070	0.243500
H721	H72	0.026500	0.561700	0.227400
C911	C91	0.051840	0.650520	0.283100
H731	H73	0.076100	0.666500	0.294300
C921	C92	0.979600	0.604620	0.249800
H741	H74	0.955200	0.588700	0.238800
C931	C93	0.009230	0.667570	0.289100
H751	H75	0.005300	0.694400	0.304400
C941	C94	0.972560	0.645090	0.272500
C951	C95	0.924770	0.662820	0.277070
Er61	Er6	0.641390	0.256840	0.818770
O311	O31	0.656520	0.184440	0.798180
O321	O32	0.718110	0.182130	0.752540
O331	O33	0.394200	0.859000	0.741310
O341	O34	0.419670	0.801250	0.701110
H761	H76	0.802900	0.182500	0.720000
O351	O35	0.721050	0.252500	0.826970
H771	H77	0.729800	0.226300	0.838000
O361	O36	0.573920	0.213850	0.834680
H781	H78	0.557600	0.228400	0.852900
H791	H79	0.559600	0.209500	0.810500
N61	N6	0.685250	0.894990	0.755970
C961	C96	0.685310	0.163720	0.773300
C971	C97	0.679030	0.114040	0.770000
C981	C98	0.640080	0.093840	0.786700
H801	H80	0.618800	0.111100	0.801400
C991	C99	0.711130	0.086430	0.750300
H811	H81	0.737800	0.099300	0.740700
C1001	C100	0.633110	0.047910	0.781500
H821	H82	0.606700	0.035300	0.792200
C1011	C101	0.705220	0.040920	0.744400
H831	H83	0.727000	0.023800	0.730300
C1021	C102	0.664570	0.020470	0.760600
C1031	C103	0.691070	0.939170	0.758700
H841	H84	0.720000	0.949700	0.763400
C1041	C104	0.656520	0.971130	0.755190
C1051	C105	0.613840	0.954880	0.747550
H851	H85	0.590100	0.974800	0.744600
C1061	C106	0.605890	0.908100	0.744130
C1071	C107	0.642760	0.880400	0.749500
H861	H86	0.638000	0.849700	0.748600
C1081	C108	0.559780	0.889920	0.739200
C1091	C109	0.522510	0.911930	0.756500
H871	H87	0.526500	0.938300	0.772600
C1101	C110	0.551840	0.849480	0.716900
H881	H88	0.576100	0.833500	0.705700
C1111	C111	0.479600	0.895380	0.750200
H891	H89	0.455200	0.911300	0.761200
C1121	C112	0.509230	0.832430	0.710900
H901	H90	0.505300	0.805600	0.695600
C1131	C113	0.472560	0.854910	0.727500
C1141	C114	0.424770	0.837180	0.722930
Er71	Er7	0.358610	0.756840	0.681230
O371	O37	0.343480	0.684440	0.701820
O381	O38	0.281890	0.682130	0.747460
O391	O39	0.605800	0.359000	0.758690
O401	O40	0.580330	0.301250	0.798890
H911	H91	0.197100	0.682500	0.780000
O411	O41	0.278950	0.752500	0.673030
H921	H92	0.270200	0.726300	0.662000
O421	O42	0.426080	0.713850	0.665320
H931	H93	0.442400	0.728400	0.647100
H941	H94	0.440400	0.709500	0.689500
N71	N7	0.314750	0.394990	0.744030
C1151	C115	0.314690	0.663720	0.726700
C1161	C116	0.320970	0.614040	0.730000
C1171	C117	0.359920	0.593840	0.713300
H951	H95	0.381200	0.611100	0.698600
C1181	C118	0.288870	0.586430	0.749700
H961	H96	0.262200	0.599300	0.759300
C1191	C119	0.366890	0.547910	0.718500
H971	H97	0.393300	0.535300	0.707800
C1201	C120	0.294780	0.540920	0.755600
H981	H98	0.273000	0.523800	0.769700
C1211	C121	0.335430	0.520470	0.739400
C1221	C122	0.308930	0.439170	0.741300
H991	H99	0.280000	0.449700	0.736600
C1231	C123	0.343480	0.471130	0.744810
C1241	C124	0.386160	0.454880	0.752450
H1001	H100	0.409900	0.474800	0.755400
C1251	C125	0.394110	0.408100	0.755870
C1261	C126	0.357240	0.380400	0.750500
H1011	H101	0.362000	0.349700	0.751400
C1271	C127	0.440220	0.389920	0.760800
C1281	C128	0.477490	0.411930	0.743500
H1021	H102	0.473500	0.438300	0.727400
C1291	C129	0.448160	0.349480	0.783100
H1031	H103	0.423900	0.333500	0.794300
C1301	C130	0.520400	0.395380	0.749800
H1041	H104	0.544800	0.411300	0.738800
C1311	C131	0.490770	0.332430	0.789100
H1051	H105	0.494700	0.305600	0.804400
C1321	C132	0.527440	0.354910	0.772500
C1331	C133	0.575230	0.337180	0.777070
Er81	Er8	0.858610	0.743160	0.318770
O431	O43	0.843480	0.815560	0.298180
O441	O44	0.781890	0.817870	0.252540
O451	O45	0.105800	0.141000	0.241310
O461	O46	0.080330	0.198750	0.201110
H1061	H106	0.697100	0.817500	0.220000
O471	O47	0.778950	0.747500	0.326970
H1071	H107	0.770200	0.773700	0.338000
O481	O48	0.926080	0.786150	0.334680
H1081	H108	0.942400	0.771600	0.352900
H1091	H109	0.940400	0.790500	0.310500
N81	N8	0.814750	0.105010	0.255970
C1341	C134	0.814690	0.836280	0.273300
C1351	C135	0.820970	0.885960	0.270000
C1361	C136	0.859920	0.906160	0.286700
H1101	H110	0.881200	0.888900	0.301400
C1371	C137	0.788870	0.913570	0.250300
H1111	H111	0.762200	0.900700	0.240700
C1381	C138	0.866890	0.952090	0.281500
H1121	H112	0.893300	0.964700	0.292200
C1391	C139	0.794780	0.959080	0.244400
H1131	H113	0.773000	0.976200	0.230300
C1401	C140	0.835430	0.979530	0.260600
C1411	C141	0.808930	0.060830	0.258700
H1141	H114	0.780000	0.050300	0.263400
C1421	C142	0.843480	0.028870	0.255190
C1431	C143	0.886160	0.045120	0.247550
H1151	H115	0.909900	0.025200	0.244600
C1441	C144	0.894110	0.091900	0.244130
C1451	C145	0.857240	0.119600	0.249500
H1161	H116	0.862000	0.150300	0.248600
C1461	C146	0.940220	0.110080	0.239200
C1471	C147	0.977490	0.088070	0.256500
H1171	H117	0.973500	0.061700	0.272600
C1481	C148	0.948160	0.150520	0.216900
H1181	H118	0.923900	0.166500	0.205700
C1491	C149	0.020400	0.104620	0.250200
H1191	H119	0.044800	0.088700	0.261200
C1501	C150	0.990770	0.167570	0.210900
H1201	H120	0.994700	0.194400	0.195600
C1511	C151	0.027440	0.145090	0.227500
C1521	C152	0.075230	0.162820	0.222930
Er91	Er9	0.181230	0.141390	0.243160
O491	O49	0.201820	0.156520	0.315560
O501	O50	0.247460	0.218110	0.317870
O511	O51	0.258690	0.894200	0.641000
O521	O52	0.298890	0.919670	0.698750
H1211	H121	0.280000	0.302900	0.317500
O531	O53	0.173030	0.221050	0.247500
H1221	H122	0.162000	0.229800	0.273700
O541	O54	0.165320	0.073920	0.286150
H1231	H123	0.147100	0.057600	0.271600
H1241	H124	0.189500	0.059600	0.290500
N91	N9	0.244030	0.185250	0.605010
C1531	C153	0.226700	0.185310	0.336280
C1541	C154	0.230000	0.179030	0.385960
C1551	C155	0.213300	0.140080	0.406160
H1251	H125	0.198600	0.118800	0.388900
C1561	C156	0.249700	0.211130	0.413570
H1261	H126	0.259300	0.237800	0.400700
C1571	C157	0.218500	0.133110	0.452090
H1271	H127	0.207800	0.106700	0.464700
C1581	C158	0.255600	0.205220	0.459080
H1281	H128	0.269700	0.227000	0.476200
C1591	C159	0.239400	0.164570	0.479530
C1601	C160	0.241300	0.191070	0.560830
H1291	H129	0.236600	0.220000	0.550300
C1611	C161	0.244810	0.156520	0.528870
C1621	C162	0.252450	0.113840	0.545120
H1301	H130	0.255400	0.090100	0.525200
C1631	C163	0.255870	0.105890	0.591900
C1641	C164	0.250500	0.142760	0.619600
H1311	H131	0.251400	0.138000	0.650300
C1651	C165	0.260800	0.059780	0.610080
C1661	C166	0.243500	0.022510	0.588070
H1321	H132	0.227400	0.026500	0.561700
C1671	C167	0.283100	0.051840	0.650520
H1331	H133	0.294300	0.076100	0.666500
C1681	C168	0.249800	0.979600	0.604620
H1341	H134	0.238800	0.955200	0.588700
C1691	C169	0.289100	0.009230	0.667570
H1351	H135	0.304400	0.005300	0.694400
C1701	C170	0.272500	0.972560	0.645090
C1711	C171	0.277070	0.924770	0.662820
Er101	Er10	0.818770	0.641390	0.256840
O551	O55	0.798180	0.656520	0.184440
O561	O56	0.752540	0.718110	0.182130
O571	O57	0.741310	0.394200	0.859000
O581	O58	0.701110	0.419670	0.801250
H1361	H136	0.720000	0.802900	0.182500
O591	O59	0.826970	0.721050	0.252500
H1371	H137	0.838000	0.729800	0.226300
O601	O60	0.834680	0.573920	0.213850
H1381	H138	0.852900	0.557600	0.228400
H1391	H139	0.810500	0.559600	0.209500
N101	N10	0.755970	0.685250	0.894990
C1721	C172	0.773300	0.685310	0.163720
C1731	C173	0.770000	0.679030	0.114040
C1741	C174	0.786700	0.640080	0.093840
H1401	H140	0.801400	0.618800	0.111100
C1751	C175	0.750300	0.711130	0.086430
H1411	H141	0.740700	0.737800	0.099300
C1761	C176	0.781500	0.633110	0.047910
H1421	H142	0.792200	0.606700	0.035300
C1771	C177	0.744400	0.705220	0.040920
H1431	H143	0.730300	0.727000	0.023800
C1781	C178	0.760600	0.664570	0.020470
C1791	C179	0.758700	0.691070	0.939170
H1441	H144	0.763400	0.720000	0.949700
C1801	C180	0.755190	0.656520	0.971130
C1811	C181	0.747550	0.613840	0.954880
H1451	H145	0.744600	0.590100	0.974800
C1821	C182	0.744130	0.605890	0.908100
C1831	C183	0.749500	0.642760	0.880400
H1461	H146	0.748600	0.638000	0.849700
C1841	C184	0.739200	0.559780	0.889920
C1851	C185	0.756500	0.522510	0.911930
H1471	H147	0.772600	0.526500	0.938300
C1861	C186	0.716900	0.551840	0.849480
H1481	H148	0.705700	0.576100	0.833500
C1871	C187	0.750200	0.479600	0.895380
H1491	H149	0.761200	0.455200	0.911300
C1881	C188	0.710900	0.509230	0.832430
H1501	H150	0.695600	0.505300	0.805600
C1891	C189	0.727500	0.472560	0.854910
C1901	C190	0.722930	0.424770	0.837180
Er111	Er11	0.681230	0.358610	0.756840
O611	O61	0.701820	0.343480	0.684440
O621	O62	0.747460	0.281890	0.682130
O631	O63	0.758690	0.605800	0.359000
O641	O64	0.798890	0.580330	0.301250
H1511	H151	0.780000	0.197100	0.682500
O651	O65	0.673030	0.278950	0.752500
H1521	H152	0.662000	0.270200	0.726300
O661	O66	0.665320	0.426080	0.713850
H1531	H153	0.647100	0.442400	0.728400
H1541	H154	0.689500	0.440400	0.709500
N111	N11	0.744030	0.314750	0.394990
C1911	C191	0.726700	0.314690	0.663720
C1921	C192	0.730000	0.320970	0.614040
C1931	C193	0.713300	0.359920	0.593840
H1551	H155	0.698600	0.381200	0.611100
C1941	C194	0.749700	0.288870	0.586430
H1561	H156	0.759300	0.262200	0.599300
C1951	C195	0.718500	0.366890	0.547910
H1571	H157	0.707800	0.393300	0.535300
C1961	C196	0.755600	0.294780	0.540920
H1581	H158	0.769700	0.273000	0.523800
C1971	C197	0.739400	0.335430	0.520470
C1981	C198	0.741300	0.308930	0.439170
H1591	H159	0.736600	0.280000	0.449700
C1991	C199	0.744810	0.343480	0.471130
C2001	C200	0.752450	0.386160	0.454880
H1601	H160	0.755400	0.409900	0.474800
C2011	C201	0.755870	0.394110	0.408100
C2021	C202	0.750500	0.357240	0.380400
H1611	H161	0.751400	0.362000	0.349700
C2031	C203	0.760800	0.440220	0.389920
C2041	C204	0.743500	0.477490	0.411930
H1621	H162	0.727400	0.473500	0.438300
C2051	C205	0.783100	0.448160	0.349480
H1631	H163	0.794300	0.423900	0.333500
C2061	C206	0.749800	0.520400	0.395380
H1641	H164	0.738800	0.544800	0.411300
C2071	C207	0.789100	0.490770	0.332430
H1651	H165	0.804400	0.494700	0.305600
C2081	C208	0.772500	0.527440	0.354910
C2091	C209	0.777070	0.575230	0.337180
Er121	Er12	0.318770	0.858610	0.743160
O671	O67	0.298180	0.843480	0.815560
O681	O68	0.252540	0.781890	0.817870
O691	O69	0.241310	0.105800	0.141000
O701	O70	0.201110	0.080330	0.198750
H1661	H166	0.220000	0.697100	0.817500
O711	O71	0.326970	0.778950	0.747500
H1671	H167	0.338000	0.770200	0.773700
O721	O72	0.334680	0.926080	0.786150
H1681	H168	0.352900	0.942400	0.771600
H1691	H169	0.310500	0.940400	0.790500
N121	N12	0.255970	0.814750	0.105010
C2101	C210	0.273300	0.814690	0.836280
C2111	C211	0.270000	0.820970	0.885960
C2121	C212	0.286700	0.859920	0.906160
H1701	H170	0.301400	0.881200	0.888900
C2131	C213	0.250300	0.788870	0.913570
H1711	H171	0.240700	0.762200	0.900700
C2141	C214	0.281500	0.866890	0.952090
H1721	H172	0.292200	0.893300	0.964700
C2151	C215	0.244400	0.794780	0.959080
H1731	H173	0.230300	0.773000	0.976200
C2161	C216	0.260600	0.835430	0.979530
C2171	C217	0.258700	0.808930	0.060830
H1741	H174	0.263400	0.780000	0.050300
C2181	C218	0.255190	0.843480	0.028870
C2191	C219	0.247550	0.886160	0.045120
H1751	H175	0.244600	0.909900	0.025200
C2201	C220	0.244130	0.894110	0.091900
C2211	C221	0.249500	0.857240	0.119600
H1761	H176	0.248600	0.862000	0.150300
C2221	C222	0.239200	0.940220	0.110080
C2231	C223	0.256500	0.977490	0.088070
H1771	H177	0.272600	0.973500	0.061700
C2241	C224	0.216900	0.948160	0.150520
H1781	H178	0.205700	0.923900	0.166500
C2251	C225	0.250200	0.020400	0.104620
H1791	H179	0.261200	0.044800	0.088700
C2261	C226	0.210900	0.990770	0.167570
H1801	H180	0.195600	0.994700	0.194400
C2271	C227	0.227500	0.027440	0.145090
C2281	C228	0.222930	0.075230	0.162820
Er131	Er13	0.247630	0.247630	0.247630
O731	O73	0.294530	0.294530	0.294530
O741	O74	0.170740	0.170740	0.170740
H1811	H181	0.154290	0.154290	0.154290
Er141	Er14	0.252370	0.752370	0.747630
O751	O75	0.205470	0.705470	0.794530
O761	O76	0.329260	0.829260	0.670740
H1821	H182	0.345710	0.845710	0.654290
Er151	Er15	0.752370	0.747630	0.252370
O771	O77	0.705470	0.794530	0.205470
O781	O78	0.829260	0.670740	0.329260
H1831	H183	0.845710	0.654290	0.345710
Er161	Er16	0.747630	0.252370	0.752370
O791	O79	0.794530	0.205470	0.705470
O801	O80	0.670740	0.329260	0.829260
H1841	H184	0.654290	0.345710	0.845710
Er171	Er17	0.756840	0.818770	0.858610
O811	O81	0.684440	0.798180	0.843480
O821	O82	0.682130	0.752540	0.781890
O831	O83	0.359000	0.741310	0.105800
O841	O84	0.301250	0.701110	0.080330
H1851	H185	0.682500	0.720000	0.697100
O851	O85	0.752500	0.826970	0.778950
H1861	H186	0.726300	0.838000	0.770200
O861	O86	0.713850	0.834680	0.926080
H1871	H187	0.728400	0.852900	0.942400
H1881	H188	0.709500	0.810500	0.940400
N131	N13	0.394990	0.755970	0.814750
C2291	C229	0.663720	0.773300	0.814690
C2301	C230	0.614040	0.770000	0.820970
C2311	C231	0.593840	0.786700	0.859920
H1891	H189	0.611100	0.801400	0.881200
C2321	C232	0.586430	0.750300	0.788870
H1901	H190	0.599300	0.740700	0.762200
C2331	C233	0.547910	0.781500	0.866890
H1911	H191	0.535300	0.792200	0.893300
C2341	C234	0.540920	0.744400	0.794780
H1921	H192	0.523800	0.730300	0.773000
C2351	C235	0.520470	0.760600	0.835430
C2361	C236	0.439170	0.758700	0.808930
H1931	H193	0.449700	0.763400	0.780000
C2371	C237	0.471130	0.755190	0.843480
C2381	C238	0.454880	0.747550	0.886160
H1941	H194	0.474800	0.744600	0.909900
C2391	C239	0.408100	0.744130	0.894110
C2401	C240	0.380400	0.749500	0.857240
H1951	H195	0.349700	0.748600	0.862000
C2411	C241	0.389920	0.739200	0.940220
C2421	C242	0.411930	0.756500	0.977490
H1961	H196	0.438300	0.772600	0.973500
C2431	C243	0.349480	0.716900	0.948160
H1971	H197	0.333500	0.705700	0.923900
C2441	C244	0.395380	0.750200	0.020400
H1981	H198	0.411300	0.761200	0.044800
C2451	C245	0.332430	0.710900	0.990770
H1991	H199	0.305600	0.695600	0.994700
C2461	C246	0.354910	0.727500	0.027440
C2471	C247	0.337180	0.722930	0.075230
Er181	Er18	0.743160	0.181230	0.358610
O871	O87	0.815560	0.201820	0.343480
O881	O88	0.817870	0.247460	0.281890
O891	O89	0.141000	0.258690	0.605800
O901	O90	0.198750	0.298890	0.580330
H2001	H200	0.817500	0.280000	0.197100
O911	O91	0.747500	0.173030	0.278950
H2011	H201	0.773700	0.162000	0.270200
O921	O92	0.786150	0.165320	0.426080
H2021	H202	0.771600	0.147100	0.442400
H2031	H203	0.790500	0.189500	0.440400
N141	N14	0.105010	0.244030	0.314750
C2481	C248	0.836280	0.226700	0.314690
C2491	C249	0.885960	0.230000	0.320970
C2501	C250	0.906160	0.213300	0.359920
H2041	H204	0.888900	0.198600	0.381200
C2511	C251	0.913570	0.249700	0.288870
H2051	H205	0.900700	0.259300	0.262200
C2521	C252	0.952090	0.218500	0.366890
H2061	H206	0.964700	0.207800	0.393300
C2531	C253	0.959080	0.255600	0.294780
H2071	H207	0.976200	0.269700	0.273000
C2541	C254	0.979530	0.239400	0.335430
C2551	C255	0.060830	0.241300	0.308930
H2081	H208	0.050300	0.236600	0.280000
C2561	C256	0.028870	0.244810	0.343480
C2571	C257	0.045120	0.252450	0.386160
H2091	H209	0.025200	0.255400	0.409900
C2581	C258	0.091900	0.255870	0.394110
C2591	C259	0.119600	0.250500	0.357240
H2101	H210	0.150300	0.251400	0.362000
C2601	C260	0.110080	0.260800	0.440220
C2611	C261	0.088070	0.243500	0.477490
H2111	H211	0.061700	0.227400	0.473500
C2621	C262	0.150520	0.283100	0.448160
H2121	H212	0.166500	0.294300	0.423900
C2631	C263	0.104620	0.249800	0.520400
H2131	H213	0.088700	0.238800	0.544800
C2641	C264	0.167570	0.289100	0.490770
H2141	H214	0.194400	0.304400	0.494700
C2651	C265	0.145090	0.272500	0.527440
C2661	C266	0.162820	0.277070	0.575230
Er191	Er19	0.243160	0.318770	0.641390
O931	O93	0.315560	0.298180	0.656520
O941	O94	0.317870	0.252540	0.718110
O951	O95	0.641000	0.241310	0.394200
O961	O96	0.698750	0.201110	0.419670
H2151	H215	0.317500	0.220000	0.802900
O971	O97	0.247500	0.326970	0.721050
H2161	H216	0.273700	0.338000	0.729800
O981	O98	0.286150	0.334680	0.573920
H2171	H217	0.271600	0.352900	0.557600
H2181	H218	0.290500	0.310500	0.559600
N151	N15	0.605010	0.255970	0.685250
C2671	C267	0.336280	0.273300	0.685310
C2681	C268	0.385960	0.270000	0.679030
C2691	C269	0.406160	0.286700	0.640080
H2191	H219	0.388900	0.301400	0.618800
C2701	C270	0.413570	0.250300	0.711130
H2201	H220	0.400700	0.240700	0.737800
C2711	C271	0.452090	0.281500	0.633110
H2211	H221	0.464700	0.292200	0.606700
C2721	C272	0.459080	0.244400	0.705220
H2221	H222	0.476200	0.230300	0.727000
C2731	C273	0.479530	0.260600	0.664570
C2741	C274	0.560830	0.258700	0.691070
H2231	H223	0.550300	0.263400	0.720000
C2751	C275	0.528870	0.255190	0.656520
C2761	C276	0.545120	0.247550	0.613840
H2241	H224	0.525200	0.244600	0.590100
C2771	C277	0.591900	0.244130	0.605890
C2781	C278	0.619600	0.249500	0.642760
H2251	H225	0.650300	0.248600	0.638000
C2791	C279	0.610080	0.239200	0.559780
C2801	C280	0.588070	0.256500	0.522510
H2261	H226	0.561700	0.272600	0.526500
C2811	C281	0.650520	0.216900	0.551840
H2271	H227	0.666500	0.205700	0.576100
C2821	C282	0.604620	0.250200	0.479600
H2281	H228	0.588700	0.261200	0.455200
C2831	C283	0.667570	0.210900	0.509230
H2291	H229	0.694400	0.195600	0.505300
C2841	C284	0.645090	0.227500	0.472560
C2851	C285	0.662820	0.222930	0.424770
Er201	Er20	0.256840	0.681230	0.141390
O991	O99	0.184440	0.701820	0.156520
O1001	O100	0.182130	0.747460	0.218110
O1011	O101	0.859000	0.758690	0.894200
O1021	O102	0.801250	0.798890	0.919670
H2301	H230	0.182500	0.780000	0.302900
O1031	O103	0.252500	0.673030	0.221050
H2311	H231	0.226300	0.662000	0.229800
O1041	O104	0.213850	0.665320	0.073920
H2321	H232	0.228400	0.647100	0.057600
H2331	H233	0.209500	0.689500	0.059600
N161	N16	0.894990	0.744030	0.185250
C2861	C286	0.163720	0.726700	0.185310
C2871	C287	0.114040	0.730000	0.179030
C2881	C288	0.093840	0.713300	0.140080
H2341	H234	0.111100	0.698600	0.118800
C2891	C289	0.086430	0.749700	0.211130
H2351	H235	0.099300	0.759300	0.237800
C2901	C290	0.047910	0.718500	0.133110
H2361	H236	0.035300	0.707800	0.106700
C2911	C291	0.040920	0.755600	0.205220
H2371	H237	0.023800	0.769700	0.227000
C2921	C292	0.020470	0.739400	0.164570
C2931	C293	0.939170	0.741300	0.191070
H2381	H238	0.949700	0.736600	0.220000
C2941	C294	0.971130	0.744810	0.156520
C2951	C295	0.954880	0.752450	0.113840
H2391	H239	0.974800	0.755400	0.090100
C2961	C296	0.908100	0.755870	0.105890
C2971	C297	0.880400	0.750500	0.142760
H2401	H240	0.849700	0.751400	0.138000
C2981	C298	0.889920	0.760800	0.059780
C2991	C299	0.911930	0.743500	0.022510
H2411	H241	0.938300	0.727400	0.026500
C3001	C300	0.849480	0.783100	0.051840
H2421	H242	0.833500	0.794300	0.076100
C3011	C301	0.895380	0.749800	0.979600
H2431	H243	0.911300	0.738800	0.955200
C3021	C302	0.832430	0.789100	0.009230
H2441	H244	0.805600	0.804400	0.005300
C3031	C303	0.854910	0.772500	0.972560
C3041	C304	0.837180	0.777070	0.924770
Er211	Er21	0.858610	0.756840	0.818770
O1051	O105	0.843480	0.684440	0.798180
O1061	O106	0.781890	0.682130	0.752540
O1071	O107	0.105800	0.359000	0.741310
O1081	O108	0.080330	0.301250	0.701110
H2451	H245	0.697100	0.682500	0.720000
O1091	O109	0.778950	0.752500	0.826970
H2461	H246	0.770200	0.726300	0.838000
O1101	O110	0.926080	0.713850	0.834680
H2471	H247	0.942400	0.728400	0.852900
H2481	H248	0.940400	0.709500	0.810500
N171	N17	0.814750	0.394990	0.755970
C3051	C305	0.814690	0.663720	0.773300
C3061	C306	0.820970	0.614040	0.770000
C3071	C307	0.859920	0.593840	0.786700
H2491	H249	0.881200	0.611100	0.801400
C3081	C308	0.788870	0.586430	0.750300
H2501	H250	0.762200	0.599300	0.740700
C3091	C309	0.866890	0.547910	0.781500
H2511	H251	0.893300	0.535300	0.792200
C3101	C310	0.794780	0.540920	0.744400
H2521	H252	0.773000	0.523800	0.730300
C3111	C311	0.835430	0.520470	0.760600
C3121	C312	0.808930	0.439170	0.758700
H2531	H253	0.780000	0.449700	0.763400
C3131	C313	0.843480	0.471130	0.755190
C3141	C314	0.886160	0.454880	0.747550
H2541	H254	0.909900	0.474800	0.744600
C3151	C315	0.894110	0.408100	0.744130
C3161	C316	0.857240	0.380400	0.749500
H2551	H255	0.862000	0.349700	0.748600
C3171	C317	0.940220	0.389920	0.739200
C3181	C318	0.977490	0.411930	0.756500
H2561	H256	0.973500	0.438300	0.772600
C3191	C319	0.948160	0.349480	0.716900
H2571	H257	0.923900	0.333500	0.705700
C3201	C320	0.020400	0.395380	0.750200
H2581	H258	0.044800	0.411300	0.761200
C3211	C321	0.990770	0.332430	0.710900
H2591	H259	0.994700	0.305600	0.695600
C3221	C322	0.027440	0.354910	0.727500
C3231	C323	0.075230	0.337180	0.722930
Er221	Er22	0.358610	0.743160	0.181230
O1111	O111	0.343480	0.815560	0.201820
O1121	O112	0.281890	0.817870	0.247460
O1131	O113	0.605800	0.141000	0.258690
O1141	O114	0.580330	0.198750	0.298890
H2601	H260	0.197100	0.817500	0.280000
O1151	O115	0.278950	0.747500	0.173030
H2611	H261	0.270200	0.773700	0.162000
O1161	O116	0.426080	0.786150	0.165320
H2621	H262	0.442400	0.771600	0.147100
H2631	H263	0.440400	0.790500	0.189500
N181	N18	0.314750	0.105010	0.244030
C3241	C324	0.314690	0.836280	0.226700
C3251	C325	0.320970	0.885960	0.230000
C3261	C326	0.359920	0.906160	0.213300
H2641	H264	0.381200	0.888900	0.198600
C3271	C327	0.288870	0.913570	0.249700
H2651	H265	0.262200	0.900700	0.259300
C3281	C328	0.366890	0.952090	0.218500
H2661	H266	0.393300	0.964700	0.207800
C3291	C329	0.294780	0.959080	0.255600
H2671	H267	0.273000	0.976200	0.269700
C3301	C330	0.335430	0.979530	0.239400
C3311	C331	0.308930	0.060830	0.241300
H2681	H268	0.280000	0.050300	0.236600
C3321	C332	0.343480	0.028870	0.244810
C3331	C333	0.386160	0.045120	0.252450
H2691	H269	0.409900	0.025200	0.255400
C3341	C334	0.394110	0.091900	0.255870
C3351	C335	0.357240	0.119600	0.250500
H2701	H270	0.362000	0.150300	0.251400
C3361	C336	0.440220	0.110080	0.260800
C3371	C337	0.477490	0.088070	0.243500
H2711	H271	0.473500	0.061700	0.227400
C3381	C338	0.448160	0.150520	0.283100
H2721	H272	0.423900	0.166500	0.294300
C3391	C339	0.520400	0.104620	0.249800
H2731	H273	0.544800	0.088700	0.238800
C3401	C340	0.490770	0.167570	0.289100
H2741	H274	0.494700	0.194400	0.304400
C3411	C341	0.527440	0.145090	0.272500
C3421	C342	0.575230	0.162820	0.277070
Er231	Er23	0.641390	0.243160	0.318770
O1171	O117	0.656520	0.315560	0.298180
O1181	O118	0.718110	0.317870	0.252540
O1191	O119	0.394200	0.641000	0.241310
O1201	O120	0.419670	0.698750	0.201110
H2751	H275	0.802900	0.317500	0.220000
O1211	O121	0.721050	0.247500	0.326970
H2761	H276	0.729800	0.273700	0.338000
O1221	O122	0.573920	0.286150	0.334680
H2771	H277	0.557600	0.271600	0.352900
H2781	H278	0.559600	0.290500	0.310500
N191	N19	0.685250	0.605010	0.255970
C3431	C343	0.685310	0.336280	0.273300
C3441	C344	0.679030	0.385960	0.270000
C3451	C345	0.640080	0.406160	0.286700
H2791	H279	0.618800	0.388900	0.301400
C3461	C346	0.711130	0.413570	0.250300
H2801	H280	0.737800	0.400700	0.240700
C3471	C347	0.633110	0.452090	0.281500
H2811	H281	0.606700	0.464700	0.292200
C3481	C348	0.705220	0.459080	0.244400
H2821	H282	0.727000	0.476200	0.230300
C3491	C349	0.664570	0.479530	0.260600
C3501	C350	0.691070	0.560830	0.258700
H2831	H283	0.720000	0.550300	0.263400
C3511	C351	0.656520	0.528870	0.255190
C3521	C352	0.613840	0.545120	0.247550
H2841	H284	0.590100	0.525200	0.244600
C3531	C353	0.605890	0.591900	0.244130
C3541	C354	0.642760	0.619600	0.249500
H2851	H285	0.638000	0.650300	0.248600
C3551	C355	0.559780	0.610080	0.239200
C3561	C356	0.522510	0.588070	0.256500
H2861	H286	0.526500	0.561700	0.272600
C3571	C357	0.551840	0.650520	0.216900
H2871	H287	0.576100	0.666500	0.205700
C3581	C358	0.479600	0.604620	0.250200
H2881	H288	0.455200	0.588700	0.261200
C3591	C359	0.509230	0.667570	0.210900
H2891	H289	0.505300	0.694400	0.195600
C3601	C360	0.472560	0.645090	0.227500
C3611	C361	0.424770	0.662820	0.222930
Er241	Er24	0.141390	0.256840	0.681230
O1231	O123	0.156520	0.184440	0.701820
O1241	O124	0.218110	0.182130	0.747460
O1251	O125	0.894200	0.859000	0.758690
O1261	O126	0.919670	0.801250	0.798890
H2901	H290	0.302900	0.182500	0.780000
O1271	O127	0.221050	0.252500	0.673030
H2911	H291	0.229800	0.226300	0.662000
O1281	O128	0.073920	0.213850	0.665320
H2921	H292	0.057600	0.228400	0.647100
H2931	H293	0.059600	0.209500	0.689500
N201	N20	0.185250	0.894990	0.744030
C3621	C362	0.185310	0.163720	0.726700
C3631	C363	0.179030	0.114040	0.730000
C3641	C364	0.140080	0.093840	0.713300
H2941	H294	0.118800	0.111100	0.698600
C3651	C365	0.211130	0.086430	0.749700
H2951	H295	0.237800	0.099300	0.759300
C3661	C366	0.133110	0.047910	0.718500
H2961	H296	0.106700	0.035300	0.707800
C3671	C367	0.205220	0.040920	0.755600
H2971	H297	0.227000	0.023800	0.769700
C3681	C368	0.164570	0.020470	0.739400
C3691	C369	0.191070	0.939170	0.741300
H2981	H298	0.220000	0.949700	0.736600
C3701	C370	0.156520	0.971130	0.744810
C3711	C371	0.113840	0.954880	0.752450
H2991	H299	0.090100	0.974800	0.755400
C3721	C372	0.105890	0.908100	0.755870
C3731	C373	0.142760	0.880400	0.750500
H3001	H300	0.138000	0.849700	0.751400
C3741	C374	0.059780	0.889920	0.760800
C3751	C375	0.022510	0.911930	0.743500
H3011	H301	0.026500	0.938300	0.727400
C3761	C376	0.051840	0.849480	0.783100
H3021	H302	0.076100	0.833500	0.794300
C3771	C377	0.979600	0.895380	0.749800
H3031	H303	0.955200	0.911300	0.738800
C3781	C378	0.009230	0.832430	0.789100
H3041	H304	0.005300	0.805600	0.804400
C3791	C379	0.972560	0.854910	0.772500
C3801	C380	0.924770	0.837180	0.777070
Er251	Er25	0.818770	0.858610	0.756840
O1291	O129	0.798180	0.843480	0.684440
O1301	O130	0.752540	0.781890	0.682130
O1311	O131	0.741310	0.105800	0.359000
O1321	O132	0.701110	0.080330	0.301250
H3051	H305	0.720000	0.697100	0.682500
O1331	O133	0.826970	0.778950	0.752500
H3061	H306	0.838000	0.770200	0.726300
O1341	O134	0.834680	0.926080	0.713850
H3071	H307	0.852900	0.942400	0.728400
H3081	H308	0.810500	0.940400	0.709500
N211	N21	0.755970	0.814750	0.394990
C3811	C381	0.773300	0.814690	0.663720
C3821	C382	0.770000	0.820970	0.614040
C3831	C383	0.786700	0.859920	0.593840
H3091	H309	0.801400	0.881200	0.611100
C3841	C384	0.750300	0.788870	0.586430
H3101	H310	0.740700	0.762200	0.599300
C3851	C385	0.781500	0.866890	0.547910
H3111	H311	0.792200	0.893300	0.535300
C3861	C386	0.744400	0.794780	0.540920
H3121	H312	0.730300	0.773000	0.523800
C3871	C387	0.760600	0.835430	0.520470
C3881	C388	0.758700	0.808930	0.439170
H3131	H313	0.763400	0.780000	0.449700
C3891	C389	0.755190	0.843480	0.471130
C3901	C390	0.747550	0.886160	0.454880
H3141	H314	0.744600	0.909900	0.474800
C3911	C391	0.744130	0.894110	0.408100
C3921	C392	0.749500	0.857240	0.380400
H3151	H315	0.748600	0.862000	0.349700
C3931	C393	0.739200	0.940220	0.389920
C3941	C394	0.756500	0.977490	0.411930
H3161	H316	0.772600	0.973500	0.438300
C3951	C395	0.716900	0.948160	0.349480
H3171	H317	0.705700	0.923900	0.333500
C3961	C396	0.750200	0.020400	0.395380
H3181	H318	0.761200	0.044800	0.411300
C3971	C397	0.710900	0.990770	0.332430
H3191	H319	0.695600	0.994700	0.305600
C3981	C398	0.727500	0.027440	0.354910
C3991	C399	0.722930	0.075230	0.337180
Er261	Er26	0.181230	0.358610	0.743160
O1351	O135	0.201820	0.343480	0.815560
O1361	O136	0.247460	0.281890	0.817870
O1371	O137	0.258690	0.605800	0.141000
O1381	O138	0.298890	0.580330	0.198750
H3201	H320	0.280000	0.197100	0.817500
O1391	O139	0.173030	0.278950	0.747500
H3211	H321	0.162000	0.270200	0.773700
O1401	O140	0.165320	0.426080	0.786150
H3221	H322	0.147100	0.442400	0.771600
H3231	H323	0.189500	0.440400	0.790500
N221	N22	0.244030	0.314750	0.105010
C4001	C400	0.226700	0.314690	0.836280
C4011	C401	0.230000	0.320970	0.885960
C4021	C402	0.213300	0.359920	0.906160
H3241	H324	0.198600	0.381200	0.888900
C4031	C403	0.249700	0.288870	0.913570
H3251	H325	0.259300	0.262200	0.900700
C4041	C404	0.218500	0.366890	0.952090
H3261	H326	0.207800	0.393300	0.964700
C4051	C405	0.255600	0.294780	0.959080
H3271	H327	0.269700	0.273000	0.976200
C4061	C406	0.239400	0.335430	0.979530
C4071	C407	0.241300	0.308930	0.060830
H3281	H328	0.236600	0.280000	0.050300
C4081	C408	0.244810	0.343480	0.028870
C4091	C409	0.252450	0.386160	0.045120
H3291	H329	0.255400	0.409900	0.025200
C4101	C410	0.255870	0.394110	0.091900
C4111	C411	0.250500	0.357240	0.119600
H3301	H330	0.251400	0.362000	0.150300
C4121	C412	0.260800	0.440220	0.110080
C4131	C413	0.243500	0.477490	0.088070
H3311	H331	0.227400	0.473500	0.061700
C4141	C414	0.283100	0.448160	0.150520
H3321	H332	0.294300	0.423900	0.166500
C4151	C415	0.249800	0.520400	0.104620
H3331	H333	0.238800	0.544800	0.088700
C4161	C416	0.289100	0.490770	0.167570
H3341	H334	0.304400	0.494700	0.194400
C4171	C417	0.272500	0.527440	0.145090
C4181	C418	0.277070	0.575230	0.162820
Er271	Er27	0.318770	0.641390	0.243160
O1411	O141	0.298180	0.656520	0.315560
O1421	O142	0.252540	0.718110	0.317870
O1431	O143	0.241310	0.394200	0.641000
O1441	O144	0.201110	0.419670	0.698750
H3351	H335	0.220000	0.802900	0.317500
O1451	O145	0.326970	0.721050	0.247500
H3361	H336	0.338000	0.729800	0.273700
O1461	O146	0.334680	0.573920	0.286150
H3371	H337	0.352900	0.557600	0.271600
H3381	H338	0.310500	0.559600	0.290500
N231	N23	0.255970	0.685250	0.605010
C4191	C419	0.273300	0.685310	0.336280
C4201	C420	0.270000	0.679030	0.385960
C4211	C421	0.286700	0.640080	0.406160
H3391	H339	0.301400	0.618800	0.388900
C4221	C422	0.250300	0.711130	0.413570
H3401	H340	0.240700	0.737800	0.400700
C4231	C423	0.281500	0.633110	0.452090
H3411	H341	0.292200	0.606700	0.464700
C4241	C424	0.244400	0.705220	0.459080
H3421	H342	0.230300	0.727000	0.476200
C4251	C425	0.260600	0.664570	0.479530
C4261	C426	0.258700	0.691070	0.560830
H3431	H343	0.263400	0.720000	0.550300
C4271	C427	0.255190	0.656520	0.528870
C4281	C428	0.247550	0.613840	0.545120
H3441	H344	0.244600	0.590100	0.525200
C4291	C429	0.244130	0.605890	0.591900
C4301	C430	0.249500	0.642760	0.619600
H3451	H345	0.248600	0.638000	0.650300
C4311	C431	0.239200	0.559780	0.610080
C4321	C432	0.256500	0.522510	0.588070
H3461	H346	0.272600	0.526500	0.561700
C4331	C433	0.216900	0.551840	0.650520
H3471	H347	0.205700	0.576100	0.666500
C4341	C434	0.250200	0.479600	0.604620
H3481	H348	0.261200	0.455200	0.588700
C4351	C435	0.210900	0.509230	0.667570
H3491	H349	0.195600	0.505300	0.694400
C4361	C436	0.227500	0.472560	0.645090
C4371	C437	0.222930	0.424770	0.662820
Er281	Er28	0.681230	0.141390	0.256840
O1471	O147	0.701820	0.156520	0.184440
O1481	O148	0.747460	0.218110	0.182130
O1491	O149	0.758690	0.894200	0.859000
O1501	O150	0.798890	0.919670	0.801250
H3501	H350	0.780000	0.302900	0.182500
O1511	O151	0.673030	0.221050	0.252500
H3511	H351	0.662000	0.229800	0.226300
O1521	O152	0.665320	0.073920	0.213850
H3521	H352	0.647100	0.057600	0.228400
H3531	H353	0.689500	0.059600	0.209500
N241	N24	0.744030	0.185250	0.894990
C4381	C438	0.726700	0.185310	0.163720
C4391	C439	0.730000	0.179030	0.114040
C4401	C440	0.713300	0.140080	0.093840
H3541	H354	0.698600	0.118800	0.111100
C4411	C441	0.749700	0.211130	0.086430
H3551	H355	0.759300	0.237800	0.099300
C4421	C442	0.718500	0.133110	0.047910
H3561	H356	0.707800	0.106700	0.035300
C4431	C443	0.755600	0.205220	0.040920
H3571	H357	0.769700	0.227000	0.023800
C4441	C444	0.739400	0.164570	0.020470
C4451	C445	0.741300	0.191070	0.939170
H3581	H358	0.736600	0.220000	0.949700
C4461	C446	0.744810	0.156520	0.971130
C4471	C447	0.752450	0.113840	0.954880
H3591	H359	0.755400	0.090100	0.974800
C4481	C448	0.755870	0.105890	0.908100
C4491	C449	0.750500	0.142760	0.880400
H3601	H360	0.751400	0.138000	0.849700
C4501	C450	0.760800	0.059780	0.889920
C4511	C451	0.743500	0.022510	0.911930
H3611	H361	0.727400	0.026500	0.938300
C4521	C452	0.783100	0.051840	0.849480
H3621	H362	0.794300	0.076100	0.833500
C4531	C453	0.749800	0.979600	0.895380
H3631	H363	0.738800	0.955200	0.911300
C4541	C454	0.789100	0.009230	0.832430
H3641	H364	0.804400	0.005300	0.805600
C4551	C455	0.772500	0.972560	0.854910
C4561	C456	0.777070	0.924770	0.837180
Er291	Er29	0.752370	0.752370	0.752370
O1531	O153	0.705470	0.705470	0.705470
O1541	O154	0.829260	0.829260	0.829260
H3651	H365	0.845710	0.845710	0.845710
Er301	Er30	0.747630	0.247630	0.252370
O1551	O155	0.794530	0.294530	0.205470
O1561	O156	0.670740	0.170740	0.329260
H3661	H366	0.654290	0.154290	0.345710
Er311	Er31	0.247630	0.252370	0.747630
O1571	O157	0.294530	0.205470	0.794530
O1581	O158	0.170740	0.329260	0.670740
H3671	H367	0.154290	0.345710	0.654290
Er321	Er32	0.252370	0.747630	0.247630
O1591	O159	0.205470	0.794530	0.294530
O1601	O160	0.329260	0.670740	0.170740
H3681	H368	0.345710	0.654290	0.154290
