data_c6cc02494g_c6cc02494g3_freeONLY_PM
_symmetry_space_group_name_H-M	'P1'
_cell_length_a	27.316000
_cell_length_b	27.316000
_cell_length_c	15.089100
_cell_angle_alpha	90.000000
_cell_angle_beta	90.000000
_cell_angle_gamma	120.000000
_symmetry_Int_Tables_number 1

loop_
_symmetry_equiv_pos_as_xyz
'x,y,z'

loop_
_atom_site_label
_atom_site_type_symbol
_atom_site_fract_x
_atom_site_fract_y
_atom_site_fract_z
S11	S1	0.287770	0.229100	0.052450
O11	O1	0.371240	0.318470	0.192260
O21	O2	0.338100	0.279430	0.325240
C11	C1	0.339530	0.218110	0.197450
C21	C2	0.316390	0.197150	0.113830
C31	C3	0.357800	0.187610	0.245140
C41	C4	0.344350	0.268150	0.234670
H11	H1	0.373210	0.203060	0.308510
S21	S2	0.954440	0.562430	0.385780
O31	O3	0.037910	0.651800	0.525590
O41	O4	0.004770	0.612760	0.658570
C51	C5	0.006200	0.551440	0.530780
C61	C6	0.983060	0.530480	0.447160
C71	C7	0.024470	0.520940	0.578470
C81	C8	0.011020	0.601480	0.568000
H21	H2	0.039880	0.536390	0.641840
S31	S3	0.621100	0.895770	0.719120
O51	O5	0.704570	0.985140	0.858930
O61	O6	0.671430	0.946100	0.991910
C91	C9	0.672860	0.884780	0.864120
C101	C10	0.649720	0.863820	0.780500
C111	C11	0.691130	0.854280	0.911810
C121	C12	0.677680	0.934820	0.901340
H31	H3	0.706540	0.869730	0.975180
S41	S4	0.770900	0.058670	0.052450
O71	O7	0.681530	0.052770	0.192260
O81	O8	0.720570	0.058670	0.325240
C131	C13	0.781890	0.121420	0.197450
C141	C14	0.802850	0.119240	0.113830
C151	C15	0.812390	0.170190	0.245140
C161	C16	0.731850	0.076200	0.234670
H41	H4	0.796940	0.170150	0.308510
S51	S5	0.437570	0.392000	0.385780
O91	O9	0.348200	0.386100	0.525590
O101	O10	0.387240	0.392000	0.658570
C171	C17	0.448560	0.454750	0.530780
C181	C18	0.469520	0.452570	0.447160
C191	C19	0.479060	0.503520	0.578470
C201	C20	0.398520	0.409530	0.568000
H51	H5	0.463610	0.503480	0.641840
S61	S6	0.104230	0.725340	0.719120
O111	O11	0.014860	0.719440	0.858930
O121	O12	0.053900	0.725340	0.991910
C211	C21	0.115220	0.788090	0.864120
C221	C22	0.136180	0.785910	0.780500
C231	C23	0.145720	0.836860	0.911810
C241	C24	0.065180	0.742870	0.901340
H61	H6	0.130270	0.836820	0.975180
S71	S7	0.941330	0.712230	0.052450
O131	O13	0.947230	0.628760	0.192260
O141	O14	0.941330	0.661900	0.325240
C251	C25	0.878580	0.660470	0.197450
C261	C26	0.880760	0.683610	0.113830
C271	C27	0.829810	0.642200	0.245140
C281	C28	0.923800	0.655650	0.234670
H71	H7	0.829850	0.626790	0.308510
S81	S8	0.608000	0.045560	0.385780
O151	O15	0.613900	0.962090	0.525590
O161	O16	0.608000	0.995230	0.658570
C291	C29	0.545250	0.993800	0.530780
C301	C30	0.547430	0.016940	0.447160
C311	C31	0.496480	0.975530	0.578470
C321	C32	0.590470	0.988980	0.568000
H81	H8	0.496520	0.960120	0.641840
S91	S9	0.274660	0.378900	0.719120
O171	O17	0.280560	0.295430	0.858930
O181	O18	0.274660	0.328570	0.991910
C331	C33	0.211910	0.327140	0.864120
C341	C34	0.214090	0.350280	0.780500
C351	C35	0.163140	0.308870	0.911810
C361	C36	0.257130	0.322320	0.901340
H91	H9	0.163180	0.293460	0.975180
S101	S10	0.229100	0.287770	0.447550
O191	O19	0.318470	0.371240	0.307740
O201	O20	0.279430	0.338100	0.174760
C371	C37	0.218110	0.339530	0.302550
C381	C38	0.197150	0.316390	0.386170
C391	C39	0.187610	0.357800	0.254860
C401	C40	0.268150	0.344350	0.265330
H101	H10	0.203060	0.373210	0.191490
S111	S11	0.895770	0.621100	0.780880
O211	O21	0.985140	0.704570	0.641070
O221	O22	0.946100	0.671430	0.508090
C411	C41	0.884780	0.672860	0.635880
C421	C42	0.863820	0.649720	0.719500
C431	C43	0.854280	0.691130	0.588190
C441	C44	0.934820	0.677680	0.598660
H111	H11	0.869730	0.706540	0.524820
S121	S12	0.562430	0.954440	0.114220
O231	O23	0.651800	0.037910	0.974410
O241	O24	0.612760	0.004770	0.841430
C451	C45	0.551440	0.006200	0.969220
C461	C46	0.530480	0.983060	0.052840
C471	C47	0.520940	0.024470	0.921530
C481	C48	0.601480	0.011020	0.932000
H121	H12	0.536390	0.039880	0.858160
S131	S13	0.058670	0.770900	0.447550
O251	O25	0.052770	0.681530	0.307740
O261	O26	0.058670	0.720570	0.174760
C491	C49	0.121420	0.781890	0.302550
C501	C50	0.119240	0.802850	0.386170
C511	C51	0.170190	0.812390	0.254860
C521	C52	0.076200	0.731850	0.265330
H131	H13	0.170150	0.796940	0.191490
S141	S14	0.725340	0.104230	0.780880
O271	O27	0.719440	0.014860	0.641070
O281	O28	0.725340	0.053900	0.508090
C531	C53	0.788090	0.115220	0.635880
C541	C54	0.785910	0.136180	0.719500
C551	C55	0.836860	0.145720	0.588190
C561	C56	0.742870	0.065180	0.598660
H141	H14	0.836820	0.130270	0.524820
S151	S15	0.392000	0.437570	0.114220
O291	O29	0.386100	0.348200	0.974410
O301	O30	0.392000	0.387240	0.841430
C571	C57	0.454750	0.448560	0.969220
C581	C58	0.452570	0.469520	0.052840
C591	C59	0.503520	0.479060	0.921530
C601	C60	0.409530	0.398520	0.932000
H151	H15	0.503480	0.463610	0.858160
S161	S16	0.712230	0.941330	0.447550
O311	O31	0.628760	0.947230	0.307740
O321	O32	0.661900	0.941330	0.174760
C611	C61	0.660470	0.878580	0.302550
C621	C62	0.683610	0.880760	0.386170
C631	C63	0.642200	0.829810	0.254860
C641	C64	0.655650	0.923800	0.265330
H161	H16	0.626790	0.829850	0.191490
S171	S17	0.378900	0.274660	0.780880
O331	O33	0.295430	0.280560	0.641070
O341	O34	0.328570	0.274660	0.508090
C651	C65	0.327140	0.211910	0.635880
C661	C66	0.350280	0.214090	0.719500
C671	C67	0.308870	0.163140	0.588190
C681	C68	0.322320	0.257130	0.598660
H171	H17	0.293460	0.163180	0.524820
S181	S18	0.045560	0.608000	0.114220
O351	O35	0.962090	0.613900	0.974410
O361	O36	0.995230	0.608000	0.841430
C691	C69	0.993800	0.545250	0.969220
C701	C70	0.016940	0.547430	0.052840
C711	C71	0.975530	0.496480	0.921530
C721	C72	0.988980	0.590470	0.932000
H181	H18	0.960120	0.496520	0.858160
S191	S19	0.712230	0.770900	0.947550
O371	O37	0.628760	0.681530	0.807740
O381	O38	0.661900	0.720570	0.674760
C731	C73	0.660470	0.781890	0.802550
C741	C74	0.683610	0.802850	0.886170
C751	C75	0.642200	0.812390	0.754860
C761	C76	0.655650	0.731850	0.765330
H191	H19	0.626790	0.796940	0.691490
S201	S20	0.378900	0.104230	0.280880
O391	O39	0.295430	0.014860	0.141070
O401	O40	0.328570	0.053900	0.008090
C771	C77	0.327140	0.115220	0.135880
C781	C78	0.350280	0.136180	0.219500
C791	C79	0.308870	0.145720	0.088190
C801	C80	0.322320	0.065180	0.098660
H201	H20	0.293460	0.130270	0.024820
S211	S21	0.045560	0.437570	0.614220
O411	O41	0.962090	0.348200	0.474410
O421	O42	0.995230	0.387240	0.341430
C811	C81	0.993800	0.448560	0.469220
C821	C82	0.016940	0.469520	0.552840
C831	C83	0.975530	0.479060	0.421530
C841	C84	0.988980	0.398520	0.432000
H211	H21	0.960120	0.463610	0.358160
S221	S22	0.229100	0.941330	0.947550
O431	O43	0.318470	0.947230	0.807740
O441	O44	0.279430	0.941330	0.674760
C851	C85	0.218110	0.878580	0.802550
C861	C86	0.197150	0.880760	0.886170
C871	C87	0.187610	0.829810	0.754860
C881	C88	0.268150	0.923800	0.765330
H221	H22	0.203060	0.829850	0.691490
S231	S23	0.895770	0.274660	0.280880
O451	O45	0.985140	0.280560	0.141070
O461	O46	0.946100	0.274660	0.008090
C891	C89	0.884780	0.211910	0.135880
C901	C90	0.863820	0.214090	0.219500
C911	C91	0.854280	0.163140	0.088190
C921	C92	0.934820	0.257130	0.098660
H231	H23	0.869730	0.163180	0.024820
S241	S24	0.562430	0.608000	0.614220
O471	O47	0.651800	0.613900	0.474410
O481	O48	0.612760	0.608000	0.341430
C931	C93	0.551440	0.545250	0.469220
C941	C94	0.530480	0.547430	0.552840
C951	C95	0.520940	0.496480	0.421530
C961	C96	0.601480	0.590470	0.432000
H241	H24	0.536390	0.496520	0.358160
S251	S25	0.058670	0.287770	0.947550
O491	O49	0.052770	0.371240	0.807740
O501	O50	0.058670	0.338100	0.674760
C971	C97	0.121420	0.339530	0.802550
C981	C98	0.119240	0.316390	0.886170
C991	C99	0.170190	0.357800	0.754860
C1001	C100	0.076200	0.344350	0.765330
H251	H25	0.170150	0.373210	0.691490
S261	S26	0.725340	0.621100	0.280880
O511	O51	0.719440	0.704570	0.141070
O521	O52	0.725340	0.671430	0.008090
C1011	C101	0.788090	0.672860	0.135880
C1021	C102	0.785910	0.649720	0.219500
C1031	C103	0.836860	0.691130	0.088190
C1041	C104	0.742870	0.677680	0.098660
H261	H26	0.836820	0.706540	0.024820
S271	S27	0.392000	0.954440	0.614220
O531	O53	0.386100	0.037910	0.474410
O541	O54	0.392000	0.004770	0.341430
C1051	C105	0.454750	0.006200	0.469220
C1061	C106	0.452570	0.983060	0.552840
C1071	C107	0.503520	0.024470	0.421530
C1081	C108	0.409530	0.011020	0.432000
H271	H27	0.503480	0.039880	0.358160
S281	S28	0.770900	0.712230	0.552450
O551	O55	0.681530	0.628760	0.692260
O561	O56	0.720570	0.661900	0.825240
C1091	C109	0.781890	0.660470	0.697450
C1101	C110	0.802850	0.683610	0.613830
C1111	C111	0.812390	0.642200	0.745140
C1121	C112	0.731850	0.655650	0.734670
H281	H28	0.796940	0.626790	0.808510
S291	S29	0.437570	0.045560	0.885780
O571	O57	0.348200	0.962090	0.025590
O581	O58	0.387240	0.995230	0.158570
C1131	C113	0.448560	0.993800	0.030780
C1141	C114	0.469520	0.016940	0.947160
C1151	C115	0.479060	0.975530	0.078470
C1161	C116	0.398520	0.988980	0.068000
H291	H29	0.463610	0.960120	0.141840
S301	S30	0.104230	0.378900	0.219120
O591	O59	0.014860	0.295430	0.358930
O601	O60	0.053900	0.328570	0.491910
C1171	C117	0.115220	0.327140	0.364120
C1181	C118	0.136180	0.350280	0.280500
C1191	C119	0.145720	0.308870	0.411810
C1201	C120	0.065180	0.322320	0.401340
H301	H30	0.130270	0.293460	0.475180
S311	S31	0.941330	0.229100	0.552450
O611	O61	0.947230	0.318470	0.692260
O621	O62	0.941330	0.279430	0.825240
C1211	C121	0.878580	0.218110	0.697450
C1221	C122	0.880760	0.197150	0.613830
C1231	C123	0.829810	0.187610	0.745140
C1241	C124	0.923800	0.268150	0.734670
H311	H31	0.829850	0.203060	0.808510
S321	S32	0.608000	0.562430	0.885780
O631	O63	0.613900	0.651800	0.025590
O641	O64	0.608000	0.612760	0.158570
C1251	C125	0.545250	0.551440	0.030780
C1261	C126	0.547430	0.530480	0.947160
C1271	C127	0.496480	0.520940	0.078470
C1281	C128	0.590470	0.601480	0.068000
H321	H32	0.496520	0.536390	0.141840
S331	S33	0.274660	0.895770	0.219120
O651	O65	0.280560	0.985140	0.358930
O661	O66	0.274660	0.946100	0.491910
C1291	C129	0.211910	0.884780	0.364120
C1301	C130	0.214090	0.863820	0.280500
C1311	C131	0.163140	0.854280	0.411810
C1321	C132	0.257130	0.934820	0.401340
H331	H33	0.163180	0.869730	0.475180
S341	S34	0.287770	0.058670	0.552450
O671	O67	0.371240	0.052770	0.692260
O681	O68	0.338100	0.058670	0.825240
C1331	C133	0.339530	0.121420	0.697450
C1341	C134	0.316390	0.119240	0.613830
C1351	C135	0.357800	0.170190	0.745140
C1361	C136	0.344350	0.076200	0.734670
H341	H34	0.373210	0.170150	0.808510
S351	S35	0.954440	0.392000	0.885780
O691	O69	0.037910	0.386100	0.025590
O701	O70	0.004770	0.392000	0.158570
C1371	C137	0.006200	0.454750	0.030780
C1381	C138	0.983060	0.452570	0.947160
C1391	C139	0.024470	0.503520	0.078470
C1401	C140	0.011020	0.409530	0.068000
H351	H35	0.039880	0.503480	0.141840
S361	S36	0.621100	0.725340	0.219120
O711	O71	0.704570	0.719440	0.358930
O721	O72	0.671430	0.725340	0.491910
C1411	C141	0.672860	0.788090	0.364120
C1421	C142	0.649720	0.785910	0.280500
C1431	C143	0.691130	0.836860	0.411810
C1441	C144	0.677680	0.742870	0.401340
H361	H36	0.706540	0.836820	0.475180
Mn11	Mn1	0.312540	0.333330	0.083330
Mn21	Mn2	0.666670	0.979200	0.083330
Mn31	Mn3	0.333330	0.312540	0.416670
Mn41	Mn4	0.020800	0.687460	0.083330
Mn51	Mn5	0.354130	0.354130	0.750000
Mn61	Mn6	0.000000	0.645870	0.750000
Mn71	Mn7	0.979200	0.666670	0.416670
Mn81	Mn8	0.645870	0.000000	0.750000
Mn91	Mn9	0.687460	0.020800	0.416670
Mn101	Mn10	0.687460	0.666670	0.916670
Mn111	Mn11	0.354130	0.000000	0.250000
Mn121	Mn12	0.020800	0.333330	0.583330
Mn131	Mn13	0.333330	0.020800	0.916670
Mn141	Mn14	0.000000	0.354130	0.250000
Mn151	Mn15	0.979200	0.312540	0.916670
Mn161	Mn16	0.645870	0.645870	0.250000
Mn171	Mn17	0.666670	0.687460	0.583330
Mn181	Mn18	0.312540	0.979200	0.583330
Mn191	Mn19	0.402650	0.402650	0.250000
Mn201	Mn20	0.069320	0.735980	0.583330
Mn211	Mn21	0.735980	0.069320	0.916670
Mn221	Mn22	0.597350	0.000000	0.250000
Mn231	Mn23	0.264020	0.333330	0.583330
Mn241	Mn24	0.930680	0.666670	0.916670
Mn251	Mn25	0.000000	0.597350	0.250000
Mn261	Mn26	0.666670	0.930680	0.583330
Mn271	Mn27	0.333330	0.264020	0.916670
Mn281	Mn28	0.597350	0.597350	0.750000
Mn291	Mn29	0.264020	0.930680	0.083330
Mn301	Mn30	0.930680	0.264020	0.416670
Mn311	Mn31	0.402650	0.000000	0.750000
Mn321	Mn32	0.069320	0.333330	0.083330
Mn331	Mn33	0.735980	0.666670	0.416670
Mn341	Mn34	0.000000	0.402650	0.750000
Mn351	Mn35	0.666670	0.735980	0.083330
Mn361	Mn36	0.333330	0.069320	0.416670
