data_c6cc02494g_c6cc02494g6_freeONLY_PM
_symmetry_space_group_name_H-M	'P1'
_cell_length_a	27.300000
_cell_length_b	27.300000
_cell_length_c	15.123000
_cell_angle_alpha	90.000000
_cell_angle_beta	90.000000
_cell_angle_gamma	120.000000
_symmetry_Int_Tables_number 1

loop_
_symmetry_equiv_pos_as_xyz
'x,y,z'

loop_
_atom_site_label
_atom_site_type_symbol
_atom_site_fract_x
_atom_site_fract_y
_atom_site_fract_z
S11	S1	0.280100	0.227000	0.050000
O11	O1	0.379900	0.319300	0.194300
O21	O2	0.336000	0.266100	0.316000
C11	C1	0.338200	0.218000	0.192900
C21	C2	0.315100	0.196000	0.108400
C31	C3	0.354300	0.187800	0.244000
C41	C4	0.348000	0.271900	0.234000
H11	H1	0.372840	0.207100	0.306990
S21	S2	0.946770	0.560330	0.383330
O31	O3	0.046570	0.652630	0.527630
O41	O4	0.002670	0.599430	0.649330
C51	C5	0.004870	0.551330	0.526230
C61	C6	0.981770	0.529330	0.441730
C71	C7	0.020970	0.521130	0.577330
C81	C8	0.014670	0.605230	0.567330
H21	H2	0.039510	0.540440	0.640320
S31	S3	0.613430	0.893670	0.716670
O51	O5	0.713230	0.985970	0.860970
O61	O6	0.669330	0.932770	0.982670
C91	C9	0.671530	0.884670	0.859570
C101	C10	0.648430	0.862670	0.775070
C111	C11	0.687630	0.854470	0.910670
C121	C12	0.681330	0.938570	0.900670
H31	H3	0.706180	0.873770	0.973650
S41	S4	0.773000	0.053100	0.050000
O71	O7	0.680700	0.060600	0.194300
O81	O8	0.733900	0.069900	0.316000
C131	C13	0.782000	0.120200	0.192900
C141	C14	0.804000	0.119100	0.108400
C151	C15	0.812200	0.166500	0.244000
C161	C16	0.728100	0.076100	0.234000
H41	H4	0.792900	0.165740	0.306990
S51	S5	0.439670	0.386430	0.383330
O91	O9	0.347370	0.393930	0.527630
O101	O10	0.400570	0.403230	0.649330
C171	C17	0.448670	0.453530	0.526230
C181	C18	0.470670	0.452430	0.441730
C191	C19	0.478870	0.499830	0.577330
C201	C20	0.394770	0.409430	0.567330
H51	H5	0.459560	0.499070	0.640320
S61	S6	0.106330	0.719770	0.716670
O111	O11	0.014030	0.727270	0.860970
O121	O12	0.067230	0.736570	0.982670
C211	C21	0.115330	0.786870	0.859570
C221	C22	0.137330	0.785770	0.775070
C231	C23	0.145530	0.833170	0.910670
C241	C24	0.061430	0.742770	0.900670
H61	H6	0.126230	0.832410	0.973650
S71	S7	0.946900	0.719900	0.050000
O131	O13	0.939400	0.620100	0.194300
O141	O14	0.930100	0.664000	0.316000
C251	C25	0.879800	0.661800	0.192900
C261	C26	0.880900	0.684900	0.108400
C271	C27	0.833500	0.645700	0.244000
C281	C28	0.923900	0.652000	0.234000
H71	H7	0.834260	0.627160	0.306990
S81	S8	0.613570	0.053230	0.383330
O151	O15	0.606070	0.953430	0.527630
O161	O16	0.596770	0.997330	0.649330
C291	C29	0.546470	0.995130	0.526230
C301	C30	0.547570	0.018230	0.441730
C311	C31	0.500170	0.979030	0.577330
C321	C32	0.590570	0.985330	0.567330
H81	H8	0.500930	0.960490	0.640320
S91	S9	0.280230	0.386570	0.716670
O171	O17	0.272730	0.286770	0.860970
O181	O18	0.263430	0.330670	0.982670
C331	C33	0.213130	0.328470	0.859570
C341	C34	0.214230	0.351570	0.775070
C351	C35	0.166830	0.312370	0.910670
C361	C36	0.257230	0.318670	0.900670
H91	H9	0.167590	0.293820	0.973650
S101	S10	0.227000	0.280100	0.450000
O191	O19	0.319300	0.379900	0.305700
O201	O20	0.266100	0.336000	0.184000
C371	C37	0.218000	0.338200	0.307100
C381	C38	0.196000	0.315100	0.391600
C391	C39	0.187800	0.354300	0.256000
C401	C40	0.271900	0.348000	0.266000
H101	H10	0.207100	0.372840	0.193010
S111	S11	0.893670	0.613430	0.783330
O211	O21	0.985970	0.713230	0.639030
O221	O22	0.932770	0.669330	0.517330
C411	C41	0.884670	0.671530	0.640430
C421	C42	0.862670	0.648430	0.724930
C431	C43	0.854470	0.687630	0.589330
C441	C44	0.938570	0.681330	0.599330
H111	H11	0.873770	0.706180	0.526350
S121	S12	0.560330	0.946770	0.116670
O231	O23	0.652630	0.046570	0.972370
O241	O24	0.599430	0.002670	0.850670
C451	C45	0.551330	0.004870	0.973770
C461	C46	0.529330	0.981770	0.058270
C471	C47	0.521130	0.020970	0.922670
C481	C48	0.605230	0.014670	0.932670
H121	H12	0.540440	0.039510	0.859680
S131	S13	0.053100	0.773000	0.450000
O251	O25	0.060600	0.680700	0.305700
O261	O26	0.069900	0.733900	0.184000
C491	C49	0.120200	0.782000	0.307100
C501	C50	0.119100	0.804000	0.391600
C511	C51	0.166500	0.812200	0.256000
C521	C52	0.076100	0.728100	0.266000
H131	H13	0.165740	0.792900	0.193010
S141	S14	0.719770	0.106330	0.783330
O271	O27	0.727270	0.014030	0.639030
O281	O28	0.736570	0.067230	0.517330
C531	C53	0.786870	0.115330	0.640430
C541	C54	0.785770	0.137330	0.724930
C551	C55	0.833170	0.145530	0.589330
C561	C56	0.742770	0.061430	0.599330
H141	H14	0.832410	0.126230	0.526350
S151	S15	0.386430	0.439670	0.116670
O291	O29	0.393930	0.347370	0.972370
O301	O30	0.403230	0.400570	0.850670
C571	C57	0.453530	0.448670	0.973770
C581	C58	0.452430	0.470670	0.058270
C591	C59	0.499830	0.478870	0.922670
C601	C60	0.409430	0.394770	0.932670
H151	H15	0.499070	0.459560	0.859680
S161	S16	0.719900	0.946900	0.450000
O311	O31	0.620100	0.939400	0.305700
O321	O32	0.664000	0.930100	0.184000
C611	C61	0.661800	0.879800	0.307100
C621	C62	0.684900	0.880900	0.391600
C631	C63	0.645700	0.833500	0.256000
C641	C64	0.652000	0.923900	0.266000
H161	H16	0.627160	0.834260	0.193010
S171	S17	0.386570	0.280230	0.783330
O331	O33	0.286770	0.272730	0.639030
O341	O34	0.330670	0.263430	0.517330
C651	C65	0.328470	0.213130	0.640430
C661	C66	0.351570	0.214230	0.724930
C671	C67	0.312370	0.166830	0.589330
C681	C68	0.318670	0.257230	0.599330
H171	H17	0.293820	0.167590	0.526350
S181	S18	0.053230	0.613570	0.116670
O351	O35	0.953430	0.606070	0.972370
O361	O36	0.997330	0.596770	0.850670
C691	C69	0.995130	0.546470	0.973770
C701	C70	0.018230	0.547570	0.058270
C711	C71	0.979030	0.500170	0.922670
C721	C72	0.985330	0.590570	0.932670
H181	H18	0.960490	0.500930	0.859680
S191	S19	0.719900	0.773000	0.950000
O371	O37	0.620100	0.680700	0.805700
O381	O38	0.664000	0.733900	0.684000
C731	C73	0.661800	0.782000	0.807100
C741	C74	0.684900	0.804000	0.891600
C751	C75	0.645700	0.812200	0.756000
C761	C76	0.652000	0.728100	0.766000
H191	H19	0.627160	0.792900	0.693010
S201	S20	0.386570	0.106330	0.283330
O391	O39	0.286770	0.014030	0.139030
O401	O40	0.330670	0.067230	0.017330
C771	C77	0.328470	0.115330	0.140430
C781	C78	0.351570	0.137330	0.224930
C791	C79	0.312370	0.145530	0.089330
C801	C80	0.318670	0.061430	0.099330
H201	H20	0.293820	0.126230	0.026350
S211	S21	0.053230	0.439670	0.616670
O411	O41	0.953430	0.347370	0.472370
O421	O42	0.997330	0.400570	0.350670
C811	C81	0.995130	0.448670	0.473770
C821	C82	0.018230	0.470670	0.558270
C831	C83	0.979030	0.478870	0.422670
C841	C84	0.985330	0.394770	0.432670
H211	H21	0.960490	0.459560	0.359680
S221	S22	0.227000	0.946900	0.950000
O431	O43	0.319300	0.939400	0.805700
O441	O44	0.266100	0.930100	0.684000
C851	C85	0.218000	0.879800	0.807100
C861	C86	0.196000	0.880900	0.891600
C871	C87	0.187800	0.833500	0.756000
C881	C88	0.271900	0.923900	0.766000
H221	H22	0.207100	0.834260	0.693010
S231	S23	0.893670	0.280230	0.283330
O451	O45	0.985970	0.272730	0.139030
O461	O46	0.932770	0.263430	0.017330
C891	C89	0.884670	0.213130	0.140430
C901	C90	0.862670	0.214230	0.224930
C911	C91	0.854470	0.166830	0.089330
C921	C92	0.938570	0.257230	0.099330
H231	H23	0.873770	0.167590	0.026350
S241	S24	0.560330	0.613570	0.616670
O471	O47	0.652630	0.606070	0.472370
O481	O48	0.599430	0.596770	0.350670
C931	C93	0.551330	0.546470	0.473770
C941	C94	0.529330	0.547570	0.558270
C951	C95	0.521130	0.500170	0.422670
C961	C96	0.605230	0.590570	0.432670
H241	H24	0.540440	0.500930	0.359680
S251	S25	0.053100	0.280100	0.950000
O491	O49	0.060600	0.379900	0.805700
O501	O50	0.069900	0.336000	0.684000
C971	C97	0.120200	0.338200	0.807100
C981	C98	0.119100	0.315100	0.891600
C991	C99	0.166500	0.354300	0.756000
C1001	C100	0.076100	0.348000	0.766000
H251	H25	0.165740	0.372840	0.693010
S261	S26	0.719770	0.613430	0.283330
O511	O51	0.727270	0.713230	0.139030
O521	O52	0.736570	0.669330	0.017330
C1011	C101	0.786870	0.671530	0.140430
C1021	C102	0.785770	0.648430	0.224930
C1031	C103	0.833170	0.687630	0.089330
C1041	C104	0.742770	0.681330	0.099330
H261	H26	0.832410	0.706180	0.026350
S271	S27	0.386430	0.946770	0.616670
O531	O53	0.393930	0.046570	0.472370
O541	O54	0.403230	0.002670	0.350670
C1051	C105	0.453530	0.004870	0.473770
C1061	C106	0.452430	0.981770	0.558270
C1071	C107	0.499830	0.020970	0.422670
C1081	C108	0.409430	0.014670	0.432670
H271	H27	0.499070	0.039510	0.359680
S281	S28	0.773000	0.719900	0.550000
O551	O55	0.680700	0.620100	0.694300
O561	O56	0.733900	0.664000	0.816000
C1091	C109	0.782000	0.661800	0.692900
C1101	C110	0.804000	0.684900	0.608400
C1111	C111	0.812200	0.645700	0.744000
C1121	C112	0.728100	0.652000	0.734000
H281	H28	0.792900	0.627160	0.806990
S291	S29	0.439670	0.053230	0.883330
O571	O57	0.347370	0.953430	0.027630
O581	O58	0.400570	0.997330	0.149330
C1131	C113	0.448670	0.995130	0.026230
C1141	C114	0.470670	0.018230	0.941730
C1151	C115	0.478870	0.979030	0.077330
C1161	C116	0.394770	0.985330	0.067330
H291	H29	0.459560	0.960490	0.140320
S301	S30	0.106330	0.386570	0.216670
O591	O59	0.014030	0.286770	0.360970
O601	O60	0.067230	0.330670	0.482670
C1171	C117	0.115330	0.328470	0.359570
C1181	C118	0.137330	0.351570	0.275070
C1191	C119	0.145530	0.312370	0.410670
C1201	C120	0.061430	0.318670	0.400670
H301	H30	0.126230	0.293820	0.473650
S311	S31	0.946900	0.227000	0.550000
O611	O61	0.939400	0.319300	0.694300
O621	O62	0.930100	0.266100	0.816000
C1211	C121	0.879800	0.218000	0.692900
C1221	C122	0.880900	0.196000	0.608400
C1231	C123	0.833500	0.187800	0.744000
C1241	C124	0.923900	0.271900	0.734000
H311	H31	0.834260	0.207100	0.806990
S321	S32	0.613570	0.560330	0.883330
O631	O63	0.606070	0.652630	0.027630
O641	O64	0.596770	0.599430	0.149330
C1251	C125	0.546470	0.551330	0.026230
C1261	C126	0.547570	0.529330	0.941730
C1271	C127	0.500170	0.521130	0.077330
C1281	C128	0.590570	0.605230	0.067330
H321	H32	0.500930	0.540440	0.140320
S331	S33	0.280230	0.893670	0.216670
O651	O65	0.272730	0.985970	0.360970
O661	O66	0.263430	0.932770	0.482670
C1291	C129	0.213130	0.884670	0.359570
C1301	C130	0.214230	0.862670	0.275070
C1311	C131	0.166830	0.854470	0.410670
C1321	C132	0.257230	0.938570	0.400670
H331	H33	0.167590	0.873770	0.473650
S341	S34	0.280100	0.053100	0.550000
O671	O67	0.379900	0.060600	0.694300
O681	O68	0.336000	0.069900	0.816000
C1331	C133	0.338200	0.120200	0.692900
C1341	C134	0.315100	0.119100	0.608400
C1351	C135	0.354300	0.166500	0.744000
C1361	C136	0.348000	0.076100	0.734000
H341	H34	0.372840	0.165740	0.806990
S351	S35	0.946770	0.386430	0.883330
O691	O69	0.046570	0.393930	0.027630
O701	O70	0.002670	0.403230	0.149330
C1371	C137	0.004870	0.453530	0.026230
C1381	C138	0.981770	0.452430	0.941730
C1391	C139	0.020970	0.499830	0.077330
C1401	C140	0.014670	0.409430	0.067330
H351	H35	0.039510	0.499070	0.140320
S361	S36	0.613430	0.719770	0.216670
O711	O71	0.713230	0.727270	0.360970
O721	O72	0.669330	0.736570	0.482670
C1411	C141	0.671530	0.786870	0.359570
C1421	C142	0.648430	0.785770	0.275070
C1431	C143	0.687630	0.833170	0.410670
C1441	C144	0.681330	0.742770	0.400670
H361	H36	0.706180	0.832410	0.473650
Mn11	Mn1	0.323100	0.333330	0.083330
Mn21	Mn2	0.666670	0.989760	0.083330
Mn31	Mn3	0.333330	0.323100	0.416670
Mn41	Mn4	0.010240	0.676900	0.083330
Mn51	Mn5	0.343570	0.343570	0.750000
Mn61	Mn6	0.000000	0.656430	0.750000
Mn71	Mn7	0.989760	0.666670	0.416670
Mn81	Mn8	0.656430	0.000000	0.750000
Mn91	Mn9	0.676900	0.010240	0.416670
Mn101	Mn10	0.676900	0.666670	0.916670
Mn111	Mn11	0.343570	0.000000	0.250000
Mn121	Mn12	0.010240	0.333330	0.583330
Mn131	Mn13	0.333330	0.010240	0.916670
Mn141	Mn14	0.000000	0.343570	0.250000
Mn151	Mn15	0.989760	0.323100	0.916670
Mn161	Mn16	0.656430	0.656430	0.250000
Mn171	Mn17	0.666670	0.676900	0.583330
Mn181	Mn18	0.323100	0.989760	0.583330
Mn191	Mn19	0.397670	0.397670	0.250000
Mn201	Mn20	0.064330	0.731000	0.583330
Mn211	Mn21	0.731000	0.064330	0.916670
Mn221	Mn22	0.602330	0.000000	0.250000
Mn231	Mn23	0.269000	0.333330	0.583330
Mn241	Mn24	0.935670	0.666670	0.916670
Mn251	Mn25	0.000000	0.602330	0.250000
Mn261	Mn26	0.666670	0.935670	0.583330
Mn271	Mn27	0.333330	0.269000	0.916670
Mn281	Mn28	0.602330	0.602330	0.750000
Mn291	Mn29	0.269000	0.935670	0.083330
Mn301	Mn30	0.935670	0.269000	0.416670
Mn311	Mn31	0.397670	0.000000	0.750000
Mn321	Mn32	0.064330	0.333330	0.083330
Mn331	Mn33	0.731000	0.666670	0.416670
Mn341	Mn34	0.000000	0.397670	0.750000
Mn351	Mn35	0.666670	0.731000	0.083330
Mn361	Mn36	0.333330	0.064330	0.416670
