data_c6ce00126b_c6ce00126b2_freeONLY_PM
_symmetry_space_group_name_H-M	'P1'
_cell_length_a	17.342000
_cell_length_b	15.877300
_cell_length_c	18.855000
_cell_angle_alpha	90.000000
_cell_angle_beta	90.000000
_cell_angle_gamma	90.000000
_symmetry_Int_Tables_number 1

loop_
_symmetry_equiv_pos_as_xyz
'x,y,z'

loop_
_atom_site_label
_atom_site_type_symbol
_atom_site_fract_x
_atom_site_fract_y
_atom_site_fract_z
Zn11	Zn1	0.242250	0.011050	0.032700
O11	O1	0.199380	0.896200	0.021160
N11	N1	0.269910	0.123100	0.833230
N21	N2	0.261850	0.050700	0.930490
O21	O2	0.602570	0.520190	0.000320
N31	N3	0.351670	0.966790	0.054810
C11	C1	0.377160	0.893400	0.033560
H11	H1	0.350100	0.856300	0.004600
O31	O3	0.230630	0.132340	0.067280
C21	C2	0.504900	0.658200	0.030280
H21	H2	0.482400	0.605000	0.029400
N41	N4	0.447820	0.879530	0.059640
O41	O4	0.224500	0.040150	0.152570
N51	N5	0.310000	0.007230	0.885040
C31	C3	0.571930	0.817600	0.030300
H31	H3	0.593800	0.871100	0.029700
C41	C4	0.238790	0.119400	0.898650
H41	H4	0.206000	0.159500	0.918100
C51	C5	0.494750	0.806740	0.046330
C61	C6	0.630660	0.591180	0.996690
C71	C7	0.615840	0.747300	0.014900
H51	H5	0.668000	0.753400	0.004900
C81	C8	0.239900	0.315400	0.684460
C91	C9	0.583130	0.667550	0.014430
C101	C10	0.314100	0.051800	0.827210
H61	H6	0.342900	0.037300	0.787400
C111	C11	0.244900	0.232900	0.661700
H71	H7	0.241600	0.220500	0.613600
C121	C12	0.460980	0.727750	0.047300
H81	H8	0.409300	0.721700	0.059300
C131	C13	0.260670	0.188200	0.781820
N61	N6	0.406100	0.001900	0.097900
C141	C14	0.257900	0.271500	0.805300
H91	H9	0.263500	0.284400	0.853200
C151	C15	0.255100	0.167800	0.711050
H101	H10	0.258000	0.112000	0.696300
C161	C16	0.230340	0.113400	0.132100
C171	C17	0.246700	0.334600	0.755300
H111	H11	0.243800	0.390500	0.770000
C181	C18	0.463200	0.948400	0.099100
H121	H12	0.508800	0.956800	0.124100
Zn21	Zn2	0.742250	0.488950	0.967300
O51	O5	0.699380	0.603800	0.978840
N71	N7	0.769910	0.376900	0.166770
N81	N8	0.761850	0.449300	0.069510
O61	O6	0.102570	0.979810	0.999680
N91	N9	0.851670	0.533210	0.945190
C191	C19	0.877160	0.606600	0.966440
H131	H13	0.850100	0.643700	0.995400
O71	O7	0.730630	0.367660	0.932720
C201	C20	0.004900	0.841800	0.969720
H141	H14	0.982400	0.895000	0.970600
N101	N10	0.947820	0.620470	0.940360
O81	O8	0.724500	0.459850	0.847430
N111	N11	0.810000	0.492770	0.114960
C211	C21	0.071930	0.682400	0.969700
H151	H15	0.093800	0.628900	0.970300
C221	C22	0.738790	0.380600	0.101350
H161	H16	0.706000	0.340500	0.081900
C231	C23	0.994750	0.693260	0.953670
C241	C24	0.130660	0.908820	0.003310
C251	C25	0.115840	0.752700	0.985100
H171	H17	0.168000	0.746600	0.995100
C261	C26	0.739900	0.184600	0.315540
C271	C27	0.083130	0.832450	0.985570
C281	C28	0.814100	0.448200	0.172790
H181	H18	0.842900	0.462700	0.212600
C291	C29	0.744900	0.267100	0.338300
H191	H19	0.741600	0.279500	0.386400
C301	C30	0.960980	0.772250	0.952700
H201	H20	0.909300	0.778300	0.940700
C311	C31	0.760670	0.311800	0.218180
N121	N12	0.906100	0.498100	0.902100
C321	C32	0.757900	0.228500	0.194700
H211	H21	0.763500	0.215600	0.146800
C331	C33	0.755100	0.332200	0.288950
H221	H22	0.758000	0.388000	0.303700
C341	C34	0.730340	0.386600	0.867900
C351	C35	0.746700	0.165400	0.244700
H231	H23	0.743800	0.109500	0.230000
C361	C36	0.963200	0.551600	0.900900
H241	H24	0.008800	0.543200	0.875900
Zn31	Zn3	0.742250	0.011050	0.467300
O91	O9	0.699380	0.896200	0.478840
N131	N13	0.769910	0.123100	0.666770
N141	N14	0.761850	0.050700	0.569510
O101	O10	0.102570	0.520190	0.499680
N151	N15	0.851670	0.966790	0.445190
C371	C37	0.877160	0.893400	0.466440
H251	H25	0.850100	0.856300	0.495400
O111	O11	0.730630	0.132340	0.432720
C381	C38	0.004900	0.658200	0.469720
H261	H26	0.982400	0.605000	0.470600
N161	N16	0.947820	0.879530	0.440360
O121	O12	0.724500	0.040150	0.347430
N171	N17	0.810000	0.007230	0.614960
C391	C39	0.071930	0.817600	0.469700
H271	H27	0.093800	0.871100	0.470300
C401	C40	0.738790	0.119400	0.601350
H281	H28	0.706000	0.159500	0.581900
C411	C41	0.994750	0.806740	0.453670
C421	C42	0.130660	0.591180	0.503310
C431	C43	0.115840	0.747300	0.485100
H291	H29	0.168000	0.753400	0.495100
C441	C44	0.739900	0.315400	0.815540
C451	C45	0.083130	0.667550	0.485570
C461	C46	0.814100	0.051800	0.672790
H301	H30	0.842900	0.037300	0.712600
C471	C47	0.744900	0.232900	0.838300
H311	H31	0.741600	0.220500	0.886400
C481	C48	0.960980	0.727750	0.452700
H321	H32	0.909300	0.721700	0.440700
C491	C49	0.760670	0.188200	0.718180
N181	N18	0.906100	0.001900	0.402100
C501	C50	0.757900	0.271500	0.694700
H331	H33	0.763500	0.284400	0.646800
C511	C51	0.755100	0.167800	0.788950
H341	H34	0.758000	0.112000	0.803700
C521	C52	0.730340	0.113400	0.367900
C531	C53	0.746700	0.334600	0.744700
H351	H35	0.743800	0.390500	0.730000
C541	C54	0.963200	0.948400	0.400900
H361	H36	0.008800	0.956800	0.375900
Zn41	Zn4	0.242250	0.488950	0.532700
O131	O13	0.199380	0.603800	0.521160
N191	N19	0.269910	0.376900	0.333230
N201	N20	0.261850	0.449300	0.430490
O141	O14	0.602570	0.979810	0.500320
N211	N21	0.351670	0.533210	0.554810
C551	C55	0.377160	0.606600	0.533560
H371	H37	0.350100	0.643700	0.504600
O151	O15	0.230630	0.367660	0.567280
C561	C56	0.504900	0.841800	0.530280
H381	H38	0.482400	0.895000	0.529400
N221	N22	0.447820	0.620470	0.559640
O161	O16	0.224500	0.459850	0.652570
N231	N23	0.310000	0.492770	0.385040
C571	C57	0.571930	0.682400	0.530300
H391	H39	0.593800	0.628900	0.529700
C581	C58	0.238790	0.380600	0.398650
H401	H40	0.206000	0.340500	0.418100
C591	C59	0.494750	0.693260	0.546330
C601	C60	0.630660	0.908820	0.496690
C611	C61	0.615840	0.752700	0.514900
H411	H41	0.668000	0.746600	0.504900
C621	C62	0.239900	0.184600	0.184460
C631	C63	0.583130	0.832450	0.514430
C641	C64	0.314100	0.448200	0.327210
H421	H42	0.342900	0.462700	0.287400
C651	C65	0.244900	0.267100	0.161700
H431	H43	0.241600	0.279500	0.113600
C661	C66	0.460980	0.772250	0.547300
H441	H44	0.409300	0.778300	0.559300
C671	C67	0.260670	0.311800	0.281820
N241	N24	0.406100	0.498100	0.597900
C681	C68	0.257900	0.228500	0.305300
H451	H45	0.263500	0.215600	0.353200
C691	C69	0.255100	0.332200	0.211050
H461	H46	0.258000	0.388000	0.196300
C701	C70	0.230340	0.386600	0.632100
C711	C71	0.246700	0.165400	0.255300
H471	H47	0.243800	0.109500	0.270000
C721	C72	0.463200	0.551600	0.599100
H481	H48	0.508800	0.543200	0.624100
Zn51	Zn5	0.257750	0.988950	0.532700
O171	O17	0.300620	0.103800	0.521160
N251	N25	0.230090	0.876900	0.333230
N261	N26	0.238150	0.949300	0.430490
O181	O18	0.897430	0.479810	0.500320
N271	N27	0.148330	0.033210	0.554810
C731	C73	0.122840	0.106600	0.533560
H491	H49	0.149900	0.143700	0.504600
O191	O19	0.269370	0.867660	0.567280
C741	C74	0.995100	0.341800	0.530280
H501	H50	0.017600	0.395000	0.529400
N281	N28	0.052180	0.120470	0.559640
O201	O20	0.275500	0.959850	0.652570
N291	N29	0.190000	0.992770	0.385040
C751	C75	0.928070	0.182400	0.530300
H511	H51	0.906200	0.128900	0.529700
C761	C76	0.261210	0.880600	0.398650
H521	H52	0.294000	0.840500	0.418100
C771	C77	0.005250	0.193260	0.546330
C781	C78	0.869340	0.408820	0.496690
C791	C79	0.884160	0.252700	0.514900
H531	H53	0.832000	0.246600	0.504900
C801	C80	0.260100	0.684600	0.184460
C811	C81	0.916870	0.332450	0.514430
C821	C82	0.185900	0.948200	0.327210
H541	H54	0.157100	0.962700	0.287400
C831	C83	0.255100	0.767100	0.161700
H551	H55	0.258400	0.779500	0.113600
C841	C84	0.039020	0.272250	0.547300
H561	H56	0.090700	0.278300	0.559300
C851	C85	0.239330	0.811800	0.281820
N301	N30	0.093900	0.998100	0.597900
C861	C86	0.242100	0.728500	0.305300
H571	H57	0.236500	0.715600	0.353200
C871	C87	0.244900	0.832200	0.211050
H581	H58	0.242000	0.888000	0.196300
C881	C88	0.269660	0.886600	0.632100
C891	C89	0.253300	0.665400	0.255300
H591	H59	0.256200	0.609500	0.270000
C901	C90	0.036800	0.051600	0.599100
H601	H60	0.991200	0.043200	0.624100
Zn61	Zn6	0.757750	0.511050	0.467300
O211	O21	0.800620	0.396200	0.478840
N311	N31	0.730090	0.623100	0.666770
N321	N32	0.738150	0.550700	0.569510
O221	O22	0.397430	0.020190	0.499680
N331	N33	0.648330	0.466790	0.445190
C911	C91	0.622840	0.393400	0.466440
H611	H61	0.649900	0.356300	0.495400
O231	O23	0.769370	0.632340	0.432720
C921	C92	0.495100	0.158200	0.469720
H621	H62	0.517600	0.105000	0.470600
N341	N34	0.552180	0.379530	0.440360
O241	O24	0.775500	0.540150	0.347430
N351	N35	0.690000	0.507230	0.614960
C931	C93	0.428070	0.317600	0.469700
H631	H63	0.406200	0.371100	0.470300
C941	C94	0.761210	0.619400	0.601350
H641	H64	0.794000	0.659500	0.581900
C951	C95	0.505250	0.306740	0.453670
C961	C96	0.369340	0.091180	0.503310
C971	C97	0.384160	0.247300	0.485100
H651	H65	0.332000	0.253400	0.495100
C981	C98	0.760100	0.815400	0.815540
C991	C99	0.416870	0.167550	0.485570
C1001	C100	0.685900	0.551800	0.672790
H661	H66	0.657100	0.537300	0.712600
C1011	C101	0.755100	0.732900	0.838300
H671	H67	0.758400	0.720500	0.886400
C1021	C102	0.539020	0.227750	0.452700
H681	H68	0.590700	0.221700	0.440700
C1031	C103	0.739330	0.688200	0.718180
N361	N36	0.593900	0.501900	0.402100
C1041	C104	0.742100	0.771500	0.694700
H691	H69	0.736500	0.784400	0.646800
C1051	C105	0.744900	0.667800	0.788950
H701	H70	0.742000	0.612000	0.803700
C1061	C106	0.769660	0.613400	0.367900
C1071	C107	0.753300	0.834600	0.744700
H711	H71	0.756200	0.890500	0.730000
C1081	C108	0.536800	0.448400	0.400900
H721	H72	0.491200	0.456800	0.375900
Zn71	Zn7	0.757750	0.988950	0.967300
O251	O25	0.800620	0.103800	0.978840
N371	N37	0.730090	0.876900	0.166770
N381	N38	0.738150	0.949300	0.069510
O261	O26	0.397430	0.479810	0.999680
N391	N39	0.648330	0.033210	0.945190
C1091	C109	0.622840	0.106600	0.966440
H731	H73	0.649900	0.143700	0.995400
O271	O27	0.769370	0.867660	0.932720
C1101	C110	0.495100	0.341800	0.969720
H741	H74	0.517600	0.395000	0.970600
N401	N40	0.552180	0.120470	0.940360
O281	O28	0.775500	0.959850	0.847430
N411	N41	0.690000	0.992770	0.114960
C1111	C111	0.428070	0.182400	0.969700
H751	H75	0.406200	0.128900	0.970300
C1121	C112	0.761210	0.880600	0.101350
H761	H76	0.794000	0.840500	0.081900
C1131	C113	0.505250	0.193260	0.953670
C1141	C114	0.369340	0.408820	0.003310
C1151	C115	0.384160	0.252700	0.985100
H771	H77	0.332000	0.246600	0.995100
C1161	C116	0.760100	0.684600	0.315540
C1171	C117	0.416870	0.332450	0.985570
C1181	C118	0.685900	0.948200	0.172790
H781	H78	0.657100	0.962700	0.212600
C1191	C119	0.755100	0.767100	0.338300
H791	H79	0.758400	0.779500	0.386400
C1201	C120	0.539020	0.272250	0.952700
H801	H80	0.590700	0.278300	0.940700
C1211	C121	0.739330	0.811800	0.218180
N421	N42	0.593900	0.998100	0.902100
C1221	C122	0.742100	0.728500	0.194700
H811	H81	0.736500	0.715600	0.146800
C1231	C123	0.744900	0.832200	0.288950
H821	H82	0.742000	0.888000	0.303700
C1241	C124	0.769660	0.886600	0.867900
C1251	C125	0.753300	0.665400	0.244700
H831	H83	0.756200	0.609500	0.230000
C1261	C126	0.536800	0.051600	0.900900
H841	H84	0.491200	0.043200	0.875900
Zn81	Zn8	0.257750	0.511050	0.032700
O291	O29	0.300620	0.396200	0.021160
N431	N43	0.230090	0.623100	0.833230
N441	N44	0.238150	0.550700	0.930490
O301	O30	0.897430	0.020190	0.000320
N451	N45	0.148330	0.466790	0.054810
C1271	C127	0.122840	0.393400	0.033560
H851	H85	0.149900	0.356300	0.004600
O311	O31	0.269370	0.632340	0.067280
C1281	C128	0.995100	0.158200	0.030280
H861	H86	0.017600	0.105000	0.029400
N461	N46	0.052180	0.379530	0.059640
O321	O32	0.275500	0.540150	0.152570
N471	N47	0.190000	0.507230	0.885040
C1291	C129	0.928070	0.317600	0.030300
H871	H87	0.906200	0.371100	0.029700
C1301	C130	0.261210	0.619400	0.898650
H881	H88	0.294000	0.659500	0.918100
C1311	C131	0.005250	0.306740	0.046330
C1321	C132	0.869340	0.091180	0.996690
C1331	C133	0.884160	0.247300	0.014900
H891	H89	0.832000	0.253400	0.004900
C1341	C134	0.260100	0.815400	0.684460
C1351	C135	0.916870	0.167550	0.014430
C1361	C136	0.185900	0.551800	0.827210
H901	H90	0.157100	0.537300	0.787400
C1371	C137	0.255100	0.732900	0.661700
H911	H91	0.258400	0.720500	0.613600
C1381	C138	0.039020	0.227750	0.047300
H921	H92	0.090700	0.221700	0.059300
C1391	C139	0.239330	0.688200	0.781820
N481	N48	0.093900	0.501900	0.097900
C1401	C140	0.242100	0.771500	0.805300
H931	H93	0.236500	0.784400	0.853200
C1411	C141	0.244900	0.667800	0.711050
H941	H94	0.242000	0.612000	0.696300
C1421	C142	0.269660	0.613400	0.132100
C1431	C143	0.253300	0.834600	0.755300
H951	H95	0.256200	0.890500	0.770000
C1441	C144	0.036800	0.448400	0.099100
H961	H96	0.991200	0.456800	0.124100
