data_c6ce00407e_c6ce00407e1_freeONLY_PM
_symmetry_space_group_name_H-M	'P1'
_cell_length_a	22.410500
_cell_length_b	22.515600
_cell_length_c	22.274000
_cell_angle_alpha	100.141000
_cell_angle_beta	64.265200
_cell_angle_gamma	66.753200
_symmetry_Int_Tables_number 1

loop_
_symmetry_equiv_pos_as_xyz
'x,y,z'

loop_
_atom_site_label
_atom_site_type_symbol
_atom_site_fract_x
_atom_site_fract_y
_atom_site_fract_z
O11	O1	0.409230	0.597220	0.605870
O21	O2	0.497740	0.501470	0.607700
C11	C1	0.436370	0.566130	0.640690
O31	O3	0.392410	0.501980	0.529520
O41	O4	0.489810	0.405330	0.521500
C21	C2	0.419850	0.440820	0.533920
Cu11	Cu1	0.450580	0.548970	0.502470
Cu21	Cu2	0.558870	0.441960	0.502590
O51	O5	0.510440	0.488180	0.397880
O61	O6	0.602080	0.394080	0.398600
O71	O7	0.520370	0.584860	0.481290
O81	O8	0.615720	0.490440	0.477840
C31	C3	0.573120	0.423980	0.364490
C41	C4	0.589150	0.550650	0.470960
H11	H1	0.485330	0.845220	0.918440
C51	C5	0.551160	0.893200	0.877260
C61	C6	0.564550	0.931210	0.835900
H21	H2	0.607050	0.945790	0.827980
C71	C7	0.521480	0.952930	0.806160
H31	H3	0.531570	0.983280	0.774520
C81	C8	0.464710	0.937150	0.818410
C91	C9	0.453460	0.897430	0.857980
H41	H4	0.412530	0.880980	0.864980
C101	C10	0.496040	0.875920	0.887460
C111	C11	0.344970	0.973130	0.822830
H51	H5	0.315260	0.990060	0.881520
C121	C12	0.311600	0.959580	0.787030
C131	C13	0.351340	0.940620	0.711000
H61	H6	0.327110	0.928860	0.681250
C141	C14	0.425410	0.932440	0.673220
C151	C15	0.460040	0.937100	0.710920
H71	H7	0.520350	0.922000	0.682840
C161	C16	0.421040	0.954800	0.784500
H81	H8	0.044550	0.776630	0.944050
C171	C17	0.997660	0.872260	0.032960
C181	C18	0.941310	0.914930	0.112170
H91	H9	0.937160	0.962650	0.139070
C191	C19	0.887010	0.898760	0.151550
H101	H10	0.839580	0.935280	0.207870
C201	C20	0.889010	0.839960	0.116980
C211	C21	0.949050	0.794750	0.043790
H111	H11	0.950930	0.748570	0.016700
C221	C22	0.001740	0.811130	0.001850
C231	C23	0.775740	0.840840	0.218370
H121	H12	0.797100	0.843940	0.253250
C241	C24	0.706090	0.841500	0.243370
C251	C25	0.678820	0.840520	0.198010
H131	H13	0.623860	0.843760	0.217150
C261	C26	0.719990	0.839210	0.129510
C271	C27	0.789250	0.835840	0.105180
H141	H14	0.820260	0.836380	0.052520
C281	C28	0.818090	0.836490	0.148090
H151	H15	0.386180	0.064450	0.170290
C291	C29	0.489020	0.070030	0.122550
C301	C30	0.517640	0.114040	0.113510
H161	H16	0.579700	0.093110	0.082820
C311	C31	0.467280	0.185940	0.143560
H171	H17	0.491420	0.219290	0.137350
C321	C32	0.387670	0.214790	0.182220
C331	C33	0.358500	0.171160	0.193650
H181	H18	0.296170	0.193270	0.224550
C341	C34	0.409330	0.098530	0.163560
C351	C35	0.279630	0.327090	0.288540
H191	H19	0.266070	0.295380	0.316790
C361	C36	0.246010	0.399350	0.325630
C371	C37	0.275930	0.435150	0.287780
H201	H20	0.256760	0.489470	0.317170
C381	C38	0.334520	0.398130	0.212190
C391	C39	0.358060	0.328700	0.176760
H211	H21	0.400860	0.299070	0.118260
C401	C40	0.336760	0.291950	0.215380
H221	H22	0.670380	0.430400	0.862800
C411	C41	0.660960	0.472060	0.962920
C421	C42	0.691790	0.498170	0.993990
H231	H23	0.669130	0.512260	0.051590
C431	C43	0.750590	0.508210	0.952190
H241	H24	0.770600	0.532770	0.978800
C441	C44	0.777430	0.495060	0.879460
C451	C45	0.750350	0.464350	0.846950
H251	H25	0.768520	0.455840	0.791020
C461	C46	0.693340	0.451660	0.888280
C471	C47	0.768370	0.606280	0.890720
H261	H26	0.714550	0.627770	0.942850
C481	C48	0.789750	0.650860	0.866710
C491	C49	0.857550	0.623400	0.798630
H271	H27	0.873800	0.658920	0.779630
C501	C50	0.902320	0.550950	0.753620
C511	C51	0.878040	0.506530	0.778430
H281	H28	0.910380	0.450320	0.743950
C521	C52	0.811420	0.534710	0.848160
O91	O9	0.521160	0.950170	0.098130
O101	O10	0.613910	0.972620	0.026980
C531	C53	0.544220	0.993710	0.081860
O111	O11	0.628620	0.842400	0.099700
O121	O12	0.724070	0.861270	0.027880
C541	C54	0.690680	0.845590	0.082300
Cu31	Cu3	0.586580	0.847350	0.038890
Cu41	Cu4	0.694200	0.873350	0.958570
O131	O13	0.668710	0.747970	0.972120
O141	O14	0.757980	0.771070	0.897070
O151	O15	0.555090	0.861240	0.970980
O161	O16	0.645520	0.887330	0.903570
C551	C55	0.736580	0.727030	0.914000
C561	C56	0.588710	0.876330	0.916440
H291	H29	0.906780	0.076880	0.968720
C571	C57	0.956600	0.110710	0.020840
C581	C58	0.939310	0.163370	0.079610
H301	H30	0.984430	0.159640	0.088010
C591	C59	0.863690	0.222050	0.128260
H311	H31	0.851970	0.263550	0.172400
C601	C60	0.804420	0.228190	0.119230
C611	C61	0.821950	0.174460	0.061560
H321	H32	0.776910	0.175660	0.054350
C621	C62	0.897000	0.117150	0.012460
C631	C63	0.682860	0.316100	0.136600
H331	H33	0.710830	0.291910	0.077960
C641	C64	0.606770	0.373100	0.179690
C651	C65	0.571980	0.407730	0.253790
H341	H34	0.512300	0.452420	0.287520
C661	C66	0.612300	0.384710	0.285480
C671	C67	0.688430	0.325980	0.242400
H351	H35	0.719720	0.307070	0.267320
C681	C68	0.724130	0.291370	0.167360
H361	H36	0.351680	0.112240	0.578100
C691	C69	0.466620	0.087680	0.502690
C701	C70	0.512540	0.114400	0.473360
H371	H37	0.574880	0.078820	0.433830
C711	C71	0.478820	0.186130	0.491120
H381	H38	0.515760	0.204530	0.462780
C721	C72	0.399040	0.232300	0.541580
C731	C73	0.353970	0.205150	0.573850
H391	H39	0.292090	0.239660	0.615550
C741	C74	0.387410	0.132940	0.553020
C751	C75	0.289700	0.342340	0.565520
H401	H40	0.260690	0.313900	0.565830
C761	C76	0.257320	0.410140	0.568820
C771	C77	0.298490	0.443840	0.560950
H411	H41	0.275280	0.495320	0.559530
C781	C78	0.371540	0.409410	0.550230
C791	C79	0.401750	0.342480	0.549570
H421	H42	0.457870	0.316280	0.542460
C801	C80	0.361860	0.307910	0.555310
H431	H43	0.856080	0.493660	0.565040
C811	C81	0.917290	0.530860	0.494400
C821	C82	0.922450	0.558950	0.443640
H441	H44	0.969010	0.568550	0.417640
C831	C83	0.870030	0.572150	0.423660
H451	H45	0.877150	0.591740	0.381660
C841	C84	0.809630	0.560690	0.457190
C851	C85	0.805240	0.532270	0.508150
H461	H46	0.757700	0.524880	0.537600
C861	C86	0.860140	0.515720	0.525070
C871	C87	0.705200	0.551630	0.451800
H471	H47	0.724340	0.502910	0.459000
C881	C88	0.637470	0.582080	0.453160
C891	C89	0.613700	0.644100	0.442330
H481	H48	0.559830	0.669330	0.445060
C901	C90	0.657010	0.675930	0.432040
C911	C91	0.722790	0.646050	0.433750
H491	H49	0.752940	0.673630	0.431710
C921	C92	0.746750	0.584650	0.444410
H501	H50	0.511120	0.430810	0.881840
C931	C93	0.400650	0.513150	0.978680
C941	C94	0.332310	0.576240	0.006940
H511	H51	0.288830	0.603720	0.065460
C951	C95	0.319410	0.605120	0.960910
H521	H52	0.263820	0.653320	0.985110
C961	C96	0.377190	0.573820	0.886340
C971	C97	0.445250	0.509550	0.858370
H531	H53	0.493060	0.483980	0.801430
C981	C98	0.455960	0.478890	0.904090
C991	C99	0.405980	0.571320	0.763620
H541	H54	0.441060	0.513920	0.738980
C1001	C100	0.396620	0.605800	0.719770
C1011	C101	0.347370	0.678410	0.750890
H551	H55	0.339770	0.704700	0.716390
C1021	C102	0.309010	0.717360	0.825020
C1031	C103	0.320770	0.683600	0.868340
H561	H56	0.292460	0.715650	0.925600
C1041	C104	0.367800	0.609920	0.838600
O171	O17	0.089740	0.036440	0.985410
O181	O18	0.040500	0.002010	0.919550
C1051	C105	0.030640	0.049220	0.972990
O191	O19	0.247040	0.934210	0.889110
O201	O20	0.195580	0.951320	0.815700
C1061	C106	0.247210	0.949370	0.831000
Cu51	Cu5	0.156680	0.937300	0.963960
Cu61	Cu6	0.136570	0.908060	0.857970
O211	O21	0.219310	0.833700	0.926670
O221	O22	0.234910	0.818390	0.813580
O231	O23	0.063200	0.935270	0.022270
O241	O24	0.081650	0.869090	0.916130
C1071	C107	0.252300	0.793640	0.856860
C1081	C108	0.049910	0.893080	0.988120
O251	O25	0.544570	0.507740	0.083520
O261	O26	0.592480	0.411830	0.976440
C1091	C109	0.596610	0.463540	0.008290
O271	O27	0.495060	0.458680	0.188050
O281	O28	0.594070	0.358290	0.077730
C1101	C110	0.563310	0.397830	0.146830
Cu71	Cu7	0.449540	0.507250	0.140690
Cu81	Cu8	0.530680	0.379040	0.036850
O291	O29	0.366880	0.486790	0.182650
O301	O30	0.457160	0.365780	0.112630
O311	O31	0.417220	0.535650	0.076750
O321	O32	0.455180	0.420170	0.011510
C1111	C111	0.387240	0.419500	0.168050
C1121	C112	0.421600	0.489020	0.027140
O331	O33	0.450060	0.904410	0.550180
O341	O34	0.543960	0.903430	0.568240
C1131	C113	0.474660	0.912270	0.593300
O351	O35	0.567330	0.777510	0.428520
O361	O36	0.661670	0.780250	0.443390
C1141	C114	0.628310	0.747120	0.432350
Cu91	Cu9	0.514010	0.877210	0.444580
Cu101	Cu10	0.619690	0.881420	0.467370
O371	O37	0.588980	0.856850	0.343730
O381	O38	0.683590	0.853580	0.361860
O391	O39	0.470430	0.978960	0.470380
O401	O40	0.566920	0.980710	0.482740
C1151	C115	0.657830	0.849680	0.319450
C1161	C116	0.503050	0.012000	0.484050
O411	O41	0.988560	0.566900	0.653910
O421	O42	0.009120	0.454900	0.635940
C1171	C117	0.970820	0.522840	0.678070
O431	O43	0.994890	0.558260	0.526330
O441	O44	0.004340	0.450350	0.514180
C1181	C118	0.975010	0.512530	0.512540
Cu111	Cu11	0.070330	0.540300	0.553380
Cu121	Cu12	0.087800	0.412790	0.530640
O451	O45	0.149920	0.498090	0.448030
O461	O46	0.167840	0.387000	0.430030
O471	O47	0.153330	0.502940	0.570780
O481	O48	0.164610	0.394500	0.555740
C1191	C119	0.184990	0.430610	0.405100
C1201	C120	0.186790	0.438550	0.567500
