data_c6ce00407e_c6ce00407e3_freeONLY_PM
_symmetry_space_group_name_H-M	'P1'
_cell_length_a	18.360100
_cell_length_b	18.358600
_cell_length_c	18.360100
_cell_angle_alpha	89.981300
_cell_angle_beta	59.987100
_cell_angle_gamma	59.995000
_symmetry_Int_Tables_number 1

loop_
_symmetry_equiv_pos_as_xyz
'x,y,z'

loop_
_atom_site_label
_atom_site_type_symbol
_atom_site_fract_x
_atom_site_fract_y
_atom_site_fract_z
O11	O1	0.364320	0.614380	0.627550
O21	O2	0.486000	0.491420	0.627820
C11	C1	0.404500	0.567500	0.662930
O31	O3	0.363460	0.509500	0.521780
O41	O4	0.485140	0.386540	0.522050
C21	C2	0.403400	0.433670	0.527960
Cu11	Cu1	0.427960	0.572800	0.499840
Cu21	Cu2	0.572040	0.427200	0.500160
O51	O5	0.514000	0.508580	0.372180
O61	O6	0.635680	0.385620	0.372450
O71	O7	0.514860	0.613460	0.477950
O81	O8	0.636540	0.490500	0.478220
C31	C3	0.595500	0.432500	0.337070
C41	C4	0.596600	0.566330	0.472040
C51	C5	0.343660	0.047060	0.761560
C61	C6	0.214720	0.047450	0.893200
C71	C7	0.346390	0.047190	0.890270
C81	C8	0.257870	0.046010	0.806220
H11	H1	0.228870	0.044220	0.777350
C91	C9	0.260580	0.046140	0.934250
H21	H2	0.233410	0.044450	0.992170
C101	C10	0.388840	0.045750	0.803300
H31	H3	0.448630	0.043790	0.772450
C111	C11	0.781410	0.957600	0.109330
C121	C12	0.652530	0.957220	0.107300
C131	C13	0.650520	0.957330	0.238390
C141	C14	0.739740	0.956160	0.064990
H41	H4	0.770830	0.954390	0.005910
C151	C15	0.609540	0.955900	0.193370
H51	H5	0.552360	0.953940	0.221320
C161	C16	0.737730	0.956280	0.195390
H61	H6	0.767460	0.954580	0.224710
C171	C17	0.347300	0.262810	0.107010
C181	C18	0.344210	0.394440	0.109850
C191	C19	0.215670	0.391440	0.238520
C201	C20	0.387800	0.308330	0.065110
H71	H7	0.445080	0.280690	0.006020
C211	C21	0.256880	0.436280	0.195920
H81	H8	0.225390	0.495380	0.225510
C221	C22	0.259950	0.305350	0.193090
H91	H9	0.230550	0.275690	0.220770
C231	C23	0.649490	0.611920	0.892990
C241	C24	0.653170	0.740150	0.889540
C251	C25	0.781380	0.608400	0.761170
C261	C26	0.609290	0.697920	0.934590
H101	H10	0.552040	0.727720	0.993680
C271	C27	0.740480	0.694410	0.803480
H111	H11	0.772160	0.721840	0.773680
C281	C28	0.736810	0.566860	0.806910
H121	H12	0.766010	0.507820	0.779430
O91	O9	0.365420	0.128970	0.111170
O101	O10	0.487710	0.129340	0.988900
C291	C29	0.405850	0.164400	0.064700
O111	O11	0.515220	0.979360	0.110960
O121	O12	0.637510	0.979720	0.988690
C301	C30	0.597000	0.973490	0.064430
Cu31	Cu3	0.429210	0.001260	0.069290
Cu41	Cu4	0.574020	0.001690	0.924500
O131	O13	0.515530	0.873610	0.004890
O141	O14	0.637810	0.873970	0.882610
O151	O15	0.365720	0.023220	0.005100
O161	O16	0.488010	0.023590	0.882820
C311	C31	0.597380	0.838550	0.929080
C321	C32	0.406240	0.029460	0.929350
C331	C33	0.650220	0.393950	0.109410
C341	C34	0.781380	0.263150	0.107660
C351	C35	0.651930	0.392340	0.238640
C361	C36	0.737710	0.307940	0.065200
H131	H13	0.767620	0.279870	0.006100
C371	C37	0.739400	0.306340	0.193750
H141	H14	0.770470	0.277180	0.221800
C381	C38	0.608950	0.436440	0.195490
H151	H15	0.551570	0.495490	0.224730
C391	C39	0.345030	0.263290	0.545400
C401	C40	0.344510	0.393650	0.545690
C411	C41	0.214680	0.393280	0.545510
C421	C42	0.388510	0.306670	0.544280
H161	H16	0.448200	0.276940	0.542490
C431	C43	0.258870	0.435980	0.544400
H171	H17	0.230660	0.493910	0.542680
C441	C44	0.259380	0.306310	0.544110
H181	H18	0.231520	0.276320	0.542190
C451	C45	0.653150	0.608670	0.454320
C461	C46	0.651470	0.739610	0.454030
C471	C47	0.782390	0.610490	0.454210
C481	C48	0.608570	0.695560	0.455440
H191	H19	0.548880	0.724780	0.457240
C491	C49	0.737120	0.697360	0.455330
H201	H20	0.764580	0.727810	0.457040
C501	C50	0.738780	0.567120	0.455610
H211	H21	0.767380	0.509270	0.457530
C511	C51	0.214680	0.739990	0.890620
C521	C52	0.345660	0.608610	0.761840
C531	C53	0.343460	0.610960	0.893020
C541	C54	0.260150	0.695610	0.803780
H221	H22	0.232900	0.724680	0.773150
C551	C55	0.388240	0.567270	0.806160
H231	H23	0.447840	0.509340	0.777140
C561	C56	0.257970	0.697940	0.934260
H241	H24	0.229240	0.728600	0.992090
O171	O17	0.892690	0.129460	0.114190
O181	O18	0.892820	0.129510	0.991690
C571	C57	0.863560	0.164730	0.067540
O191	O19	0.104260	0.023680	0.008520
O201	O20	0.104390	0.023730	0.886010
C581	C58	0.133520	0.029750	0.932690
Cu51	Cu5	0.998460	0.001770	0.072590
Cu61	Cu6	0.998610	0.001830	0.927520
O211	O21	0.104250	0.874080	0.008420
O221	O22	0.104380	0.874140	0.885910
O231	O23	0.892680	0.979860	0.114100
O241	O24	0.892810	0.979920	0.991590
C591	C59	0.133510	0.838870	0.932570
C601	C60	0.863550	0.973850	0.067410
O251	O25	0.508930	0.618610	0.011180
O261	O26	0.631640	0.496290	0.888630
C611	C61	0.590860	0.572110	0.935370
O271	O27	0.509110	0.512600	0.116770
O281	O28	0.631820	0.390290	0.994220
C621	C62	0.591090	0.436860	0.070110
Cu71	Cu7	0.423080	0.576730	0.075110
Cu81	Cu8	0.568380	0.431880	0.929990
O291	O29	0.359820	0.512320	0.116480
O301	O30	0.482520	0.390000	0.993920
O311	O31	0.359640	0.618320	0.010890
O321	O32	0.482340	0.496010	0.888330
C631	C63	0.400590	0.436500	0.069730
C641	C64	0.400360	0.571750	0.935000
O331	O33	0.360460	0.023950	0.627500
O341	O34	0.483600	0.022710	0.627310
C651	C65	0.401380	0.029370	0.662650
O351	O35	0.509200	0.874390	0.477900
O361	O36	0.632350	0.873150	0.477710
C661	C66	0.591170	0.838530	0.471760
Cu91	Cu9	0.423940	0.002200	0.499830
Cu101	Cu10	0.569770	0.000720	0.499610
O371	O37	0.510110	0.980210	0.372130
O381	O38	0.633260	0.978960	0.371940
O391	O39	0.361360	0.129770	0.521730
O401	O40	0.484510	0.128530	0.521540
C671	C67	0.592330	0.973550	0.336790
C681	C68	0.402540	0.164390	0.527680
O411	O41	0.893130	0.614410	0.627750
O421	O42	0.892330	0.492360	0.627330
C691	C69	0.863530	0.567930	0.662790
O431	O43	0.893140	0.615450	0.478160
O441	O44	0.892340	0.493400	0.477750
C701	C70	0.863550	0.569260	0.471910
Cu111	Cu11	0.998990	0.572940	0.500100
Cu121	Cu12	0.998050	0.428410	0.499610
O451	O45	0.104700	0.508990	0.372380
O461	O46	0.103910	0.386940	0.371960
O471	O47	0.104690	0.507950	0.521970
O481	O48	0.103900	0.385900	0.521550
C711	C71	0.133500	0.433420	0.336930
C721	C72	0.133490	0.432090	0.527800
