data_c6ce00407e_c6ce00407e5_freeONLY_PM
_symmetry_space_group_name_H-M	'P1'
_cell_length_a	103.768000
_cell_length_b	97.918700
_cell_length_c	133.967000
_cell_angle_alpha	108.155000
_cell_angle_beta	109.251000
_cell_angle_gamma	62.074000
_symmetry_Int_Tables_number 1

loop_
_symmetry_equiv_pos_as_xyz
'x,y,z'

loop_
_atom_site_label
_atom_site_type_symbol
_atom_site_fract_x
_atom_site_fract_y
_atom_site_fract_z
C11	C1	0.980520	0.972520	0.461770
C21	C2	0.378620	0.470350	0.597390
C31	C3	0.252850	0.163100	0.024480
C41	C4	0.559430	0.099180	0.059390
C51	C5	0.926560	0.963860	0.127350
C61	C6	0.137380	0.803130	0.478760
C71	C7	0.551330	0.109340	0.052050
C81	C8	0.550350	0.103710	0.041070
C91	C9	0.557690	0.087640	0.037650
C101	C10	0.565790	0.077490	0.044990
C111	C11	0.566770	0.083120	0.055960
C121	C12	0.598840	0.036760	0.074470
C131	C13	0.606950	0.026590	0.081810
C141	C14	0.237940	0.168950	0.025000
C151	C15	0.607480	0.032120	0.092740
C161	C16	0.599680	0.048100	0.096150
C171	C17	0.591570	0.058270	0.088810
C181	C18	0.211110	0.648230	0.475000
C191	C19	0.591030	0.052740	0.077880
C201	C20	0.541850	0.114400	0.033320
C211	C21	0.534820	0.123250	0.026810
C221	C22	0.616010	0.021400	0.100480
C231	C23	0.623090	0.012510	0.106970
C241	C24	0.531890	0.131140	0.010020
C251	C25	0.786790	0.858500	0.276920
C261	C26	0.524010	0.140910	0.002430
C271	C27	0.510440	0.153630	0.003510
C281	C28	0.505070	0.156260	0.012470
C291	C29	0.512990	0.146440	0.020060
C301	C30	0.209400	0.636420	0.474750
C311	C31	0.526490	0.133730	0.018920
C321	C32	0.645030	0.989340	0.113650
C331	C33	0.653300	0.979050	0.121730
C341	C34	0.647790	0.981710	0.130650
C351	C35	0.634130	0.994380	0.131720
C361	C36	0.227370	0.172880	0.015620
C371	C37	0.626030	0.004310	0.124220
C381	C38	0.631520	0.001930	0.114800
C391	C39	0.083850	0.563060	0.563370
C401	C40	0.075410	0.569310	0.569790
C411	C41	0.096260	0.564380	0.550480
C421	C42	0.325930	0.720580	0.478490
C431	C43	0.105810	0.557300	0.543200
C441	C44	0.113600	0.541030	0.540720
C451	C45	0.111370	0.532180	0.545860
C461	C46	0.101820	0.539250	0.553130
C471	C47	0.231470	0.170880	0.006110
C481	C48	0.094030	0.555520	0.555620
C491	C49	0.063520	0.568050	0.583050
C501	C50	0.053970	0.575120	0.590320
C511	C51	0.045650	0.591340	0.592440
C521	C52	0.047360	0.600140	0.586930
C531	C53	0.056910	0.593070	0.579660
C541	C54	0.340390	0.718380	0.478440
C551	C55	0.065230	0.576850	0.577540
C561	C56	0.123780	0.533480	0.532960
C571	C57	0.132210	0.527220	0.526540
C581	C58	0.246390	0.164790	0.005440
C591	C59	0.035470	0.598880	0.600190
C601	C60	0.027030	0.605150	0.606620
C611	C61	0.154970	0.505540	0.519810
C621	C62	0.164430	0.498320	0.512470
C631	C63	0.161800	0.504840	0.503710
C641	C64	0.149210	0.519010	0.502720
C651	C65	0.139760	0.526210	0.510070
C661	C66	0.351760	0.703460	0.476360
C671	C67	0.142380	0.519640	0.518770
C681	C68	0.004210	0.626780	0.613250
C691	C69	0.286390	0.172930	0.991630
C701	C70	0.994100	0.634520	0.620950
C711	C71	0.996800	0.627960	0.629680
C721	C72	0.010240	0.613050	0.630530
C731	C73	0.019580	0.606110	0.623100
C741	C74	0.016850	0.612730	0.614370
C751	C75	0.152740	0.617020	0.742890
C761	C76	0.139650	0.619880	0.737420
C771	C77	0.180890	0.607290	0.744800
C781	C78	0.347820	0.690860	0.474330
C791	C79	0.195660	0.604060	0.750960
C801	C80	0.298860	0.174710	0.991070
C811	C81	0.199080	0.606890	0.762220
C821	C82	0.186790	0.613160	0.766930
C831	C83	0.172010	0.616400	0.760770
C841	C84	0.168590	0.613560	0.749500
C851	C85	0.111470	0.629750	0.735500
C861	C86	0.096700	0.632970	0.729330
C871	C87	0.093320	0.629960	0.718060
C881	C88	0.105640	0.623540	0.713360
C891	C89	0.120410	0.620330	0.719530
C901	C90	0.333360	0.693050	0.474380
C911	C91	0.306240	0.166440	0.982630
C921	C92	0.123790	0.623330	0.730800
C931	C93	0.214940	0.603390	0.768830
C941	C94	0.228060	0.600440	0.774270
C951	C95	0.077470	0.633390	0.711430
C961	C96	0.064400	0.636190	0.705950
C971	C97	0.248050	0.607510	0.789410
C981	C98	0.262940	0.603940	0.795470
C991	C99	0.274720	0.589330	0.793280
C1001	C100	0.270600	0.578590	0.784640
C1011	C101	0.255740	0.582180	0.778610
C1021	C102	0.300500	0.156290	0.974760
C1031	C103	0.321990	0.707980	0.476460
C1041	C104	0.243990	0.596730	0.780790
C1051	C105	0.044820	0.627870	0.691410
C1061	C106	0.030140	0.630880	0.685120
C1071	C107	0.018250	0.645710	0.686280
C1081	C108	0.022030	0.657350	0.694170
C1091	C109	0.036740	0.654310	0.700460
C1101	C110	0.048590	0.639480	0.699260
C1111	C111	0.530680	0.996100	0.886830
C1121	C112	0.525920	0.011860	0.893450
C1131	C113	0.390040	0.471670	0.606700
C1141	C114	0.288030	0.154510	0.975280
C1151	C115	0.542550	0.966640	0.884610
C1161	C116	0.193160	0.622820	0.473190
C1171	C117	0.547120	0.951520	0.878260
C1181	C118	0.544850	0.949250	0.867140
C1191	C119	0.537830	0.962670	0.862620
C1201	C120	0.533260	0.977790	0.868970
C1211	C121	0.535530	0.980070	0.880090
C1221	C122	0.512670	0.041290	0.895640
C1231	C123	0.508160	0.056400	0.902010
C1241	C124	0.511890	0.058680	0.913200
C1251	C125	0.280530	0.162780	0.983740
C1261	C126	0.520310	0.045270	0.917760
C1271	C127	0.524830	0.030160	0.911380
C1281	C128	0.009310	0.925760	0.481850
C1291	C129	0.930690	0.961830	0.117850
C1301	C130	0.191140	0.609470	0.472870
C1311	C131	0.521100	0.027880	0.900200
C1321	C132	0.549700	0.933210	0.860410
C1331	C133	0.553710	0.919890	0.854810
C1341	C134	0.507220	0.074680	0.919980
C1351	C135	0.503500	0.087940	0.925690
C1361	C136	0.233350	0.170930	0.035000
C1371	C137	0.572960	0.892480	0.850440
C1381	C138	0.577460	0.877320	0.844140
C1391	C139	0.567660	0.872900	0.835190
C1401	C140	0.553190	0.884350	0.832830
C1411	C141	0.548730	0.899510	0.839140
C1421	C142	0.203140	0.594940	0.473780
C1431	C143	0.558510	0.903860	0.848080
C1441	C144	0.510050	0.107730	0.940920
C1451	C145	0.506370	0.122520	0.947660
C1461	C146	0.491800	0.134090	0.946500
C1471	C147	0.913530	0.979840	0.158390
C1481	C148	0.481050	0.130160	0.938230
C1491	C149	0.484780	0.115280	0.931460
C1501	C150	0.499360	0.103780	0.932700
C1511	C151	0.136430	0.121760	0.743010
C1521	C152	0.141170	0.124810	0.737190
C1531	C153	0.117720	0.115710	0.746090
C1541	C154	0.217240	0.594340	0.475020
C1551	C155	0.112300	0.112190	0.752710
C1561	C156	0.119840	0.111070	0.763260
C1571	C157	0.132850	0.113510	0.767110
C1581	C158	0.779140	0.864150	0.268610
C1591	C159	0.138260	0.117030	0.760500
C1601	C160	0.130730	0.118130	0.749940
C1611	C161	0.159880	0.130610	0.733830
C1621	C162	0.165070	0.134220	0.727110
C1631	C163	0.157160	0.135700	0.716660
C1641	C164	0.144030	0.133520	0.713020
C1651	C165	0.138840	0.129920	0.719730
C1661	C166	0.219260	0.607700	0.475340
C1671	C167	0.146710	0.128460	0.730180
C1681	C168	0.114330	0.107230	0.770200
C1691	C169	0.229280	0.172630	0.043200
C1701	C170	0.109980	0.103910	0.776120
C1711	C171	0.162310	0.139730	0.709600
C1721	C172	0.166080	0.143270	0.703430
C1731	C173	0.115170	0.094720	0.792610
C1741	C174	0.110970	0.090400	0.799530
C1751	C175	0.096690	0.091040	0.797330
C1761	C176	0.086660	0.096240	0.788080
C1771	C177	0.090940	0.100560	0.781160
C1781	C178	0.207260	0.622230	0.474430
C1791	C179	0.105240	0.099760	0.783370
C1801	C180	0.203030	0.137260	0.936650
C1811	C181	0.184190	0.145110	0.696160
C1821	C182	0.187290	0.149350	0.688510
C1831	C183	0.175890	0.156270	0.680290
C1841	C184	0.161410	0.158940	0.679970
C1851	C185	0.158380	0.154730	0.687590
C1861	C186	0.169700	0.147760	0.695700
C1871	C187	0.520240	0.512060	0.896050
C1881	C188	0.507100	0.516290	0.890450
C1891	C189	0.548680	0.501190	0.898460
C1901	C190	0.121110	0.832550	0.481190
C1911	C191	0.194080	0.133490	0.928830
C1921	C192	0.563490	0.496420	0.904780
C1931	C193	0.566750	0.497070	0.915880
C1941	C194	0.554220	0.502810	0.920250
C1951	C195	0.539410	0.507590	0.913940
C1961	C196	0.536150	0.506930	0.902830
C1971	C197	0.478680	0.527010	0.888030
C1981	C198	0.463860	0.531770	0.881720
C1991	C199	0.460580	0.531260	0.870640
C2001	C200	0.473090	0.525670	0.866280
C2011	C201	0.487900	0.520900	0.872590
C2021	C202	0.319540	0.168360	0.982030
C2031	C203	0.107210	0.845570	0.481520
C2041	C204	0.491190	0.521410	0.883670
C2051	C205	0.582660	0.491920	0.922680
C2061	C206	0.595760	0.487650	0.928320
C2071	C207	0.444660	0.536390	0.863860
C2081	C208	0.431520	0.540610	0.858270
C2091	C209	0.622880	0.485250	0.933870
C2101	C210	0.637560	0.480420	0.940430
C2111	C211	0.641900	0.472370	0.948800
C2121	C212	0.630570	0.469510	0.950110
C2131	C213	0.330540	0.169940	0.981520
C2141	C214	0.615950	0.474340	0.943560
C2151	C215	0.093990	0.843840	0.479820
C2161	C216	0.611590	0.482400	0.935240
C2171	C217	0.404350	0.543830	0.853770
C2181	C218	0.389520	0.548590	0.847510
C2191	C219	0.384910	0.555580	0.838540
C2201	C220	0.396190	0.557470	0.836290
C2211	C221	0.411030	0.552690	0.842560
C2221	C222	0.415590	0.545720	0.851510
C2231	C223	0.583270	0.561610	0.569940
C2241	C224	0.386970	0.481490	0.616600
C2251	C225	0.210210	0.175480	0.052340
C2261	C226	0.575320	0.570850	0.563730
C2271	C227	0.592760	0.555040	0.588290
C2281	C228	0.095430	0.828370	0.477780
C2291	C229	0.601790	0.544530	0.595350
C2301	C230	0.611140	0.529180	0.591730
C2311	C231	0.611200	0.524650	0.580840
C2321	C232	0.602170	0.535160	0.573780
C2331	C233	0.592810	0.550510	0.577400
C2341	C234	0.566160	0.577570	0.545440
C2351	C235	0.557140	0.588080	0.538380
C2361	C236	0.205390	0.177480	0.061550
C2371	C237	0.547460	0.603290	0.541950
C2381	C238	0.547070	0.607660	0.552780
C2391	C239	0.556090	0.597150	0.559840
C2401	C240	0.109330	0.815340	0.477450
C2411	C241	0.565780	0.581940	0.556270
C2421	C242	0.620630	0.518070	0.599180
C2431	C243	0.628500	0.508810	0.605390
C2441	C244	0.537980	0.614410	0.534500
C2451	C245	0.530140	0.623700	0.528310
C2461	C246	0.635660	0.484320	0.611730
C2471	C247	0.214360	0.178800	0.071840
C2481	C248	0.644280	0.473930	0.618900
C2491	C249	0.655440	0.476530	0.627440
C2501	C250	0.657710	0.489880	0.628480
C2511	C251	0.649060	0.500260	0.621290
C2521	C252	0.920150	0.965800	0.108470
C2531	C253	0.122550	0.817080	0.479140
C2541	C254	0.637860	0.497680	0.612840
C2551	C255	0.509570	0.632400	0.512430
C2561	C256	0.500980	0.642850	0.505270
C2571	C257	0.503360	0.656140	0.506360
C2581	C258	0.228360	0.178030	0.072510
C2591	C259	0.514570	0.658630	0.514900
C2601	C260	0.523130	0.648180	0.522040
C2611	C261	0.520830	0.634870	0.520880
C2621	C262	0.076320	0.063070	0.063900
C2631	C263	0.083640	0.071060	0.069610
C2641	C264	0.070890	0.043110	0.047390
C2651	C265	0.367220	0.701120	0.476290
C2661	C266	0.062620	0.034090	0.040950
C2671	C267	0.050420	0.034800	0.043710
C2681	C268	0.046990	0.045090	0.053320
C2691	C269	0.233180	0.176040	0.063300
C2701	C270	0.055260	0.054110	0.059770
C2711	C271	0.067460	0.053400	0.057000
C2721	C272	0.088950	0.091190	0.086050
C2731	C273	0.097210	0.100200	0.092490
C2741	C274	0.109530	0.099340	0.089800
C2751	C275	0.113080	0.088900	0.080260
C2761	C276	0.104820	0.079880	0.073820
C2771	C277	0.379980	0.699280	0.476230
C2781	C278	0.092500	0.080740	0.076510
C2791	C279	0.041540	0.025160	0.036790
C2801	C280	0.831610	0.746310	0.323840
C2811	C281	0.034180	0.017220	0.031050
C2821	C282	0.118410	0.108990	0.096720
C2831	C283	0.125750	0.116950	0.102450
C2841	C284	0.028010	0.992260	0.025840
C2851	C285	0.019630	0.983410	0.019250
C2861	C286	0.007950	0.988610	0.010500
C2871	C287	0.005140	0.004090	0.008740
C2881	C288	0.013530	0.012910	0.015320
C2891	C289	0.079140	0.857770	0.480160
C2901	C290	0.025200	0.007710	0.024050
C2911	C291	0.224210	0.174720	0.053010
C2921	C292	0.146320	0.121380	0.118210
C2931	C293	0.154600	0.130290	0.124810
C2941	C294	0.151830	0.144900	0.123070
C2951	C295	0.140200	0.150010	0.114270
C2961	C296	0.131910	0.141080	0.107660
C2971	C297	0.134690	0.126500	0.109440
C2981	C298	0.028600	0.006350	0.902020
C2991	C299	0.032790	0.010750	0.896610
C3001	C300	0.017760	0.011390	0.917280
C3011	C301	0.066890	0.869350	0.480440
C3021	C302	0.347600	0.168910	0.971110
C3031	C303	0.012970	0.006480	0.923520
C3041	C304	0.014000	0.990400	0.920960
C3051	C305	0.019830	0.980170	0.912210
C3061	C306	0.024610	0.985090	0.905970
C3071	C307	0.023580	0.001170	0.908530
C3081	C308	0.043280	0.006080	0.881230
C3091	C309	0.048030	0.011170	0.875080
C3101	C310	0.047330	0.026300	0.877770
C3111	C311	0.041820	0.036270	0.886700
C3121	C312	0.037070	0.031180	0.892860
C3131	C313	0.360040	0.170700	0.970520
C3141	C314	0.201030	0.580720	0.473430
C3151	C315	0.037770	0.016060	0.890160
C3161	C316	0.009040	0.985280	0.927540
C3171	C317	0.004880	0.981120	0.933130
C3181	C318	0.052260	0.031640	0.871310
C3191	C319	0.056370	0.036110	0.865890
C3201	C320	0.003100	0.959970	0.939060
C3211	C321	0.998380	0.955850	0.946470
C3221	C322	0.990900	0.967550	0.954110
C3231	C323	0.987850	0.983140	0.954510
C3241	C324	0.369380	0.175520	0.979670
C3251	C325	0.992240	0.987440	0.947630
C3261	C326	0.199390	0.568850	0.473150
C3271	C327	0.999910	0.976400	0.939940
C3281	C328	0.067550	0.031180	0.850840
C3291	C329	0.072040	0.036270	0.844530
C3301	C330	0.070290	0.051780	0.846640
C3311	C331	0.064010	0.062020	0.855260
C3321	C332	0.059530	0.056870	0.861550
C3331	C333	0.061230	0.041440	0.859370
C3341	C334	0.635620	0.619990	0.735410
C3351	C335	0.449720	0.485760	0.646560
C3361	C336	0.365610	0.178440	0.989450
C3371	C337	0.631990	0.633530	0.740860
C3381	C338	0.639840	0.591440	0.731930
C3391	C339	0.397920	0.709720	0.475570
C3401	C340	0.643960	0.576110	0.725740
C3411	C341	0.648450	0.572280	0.716140
C3421	C342	0.648620	0.584510	0.713030
C3431	C343	0.644500	0.599840	0.719220
C3441	C344	0.640010	0.603670	0.728820
C3451	C345	0.627520	0.662130	0.744190
C3461	C346	0.623410	0.677470	0.750370
C3471	C347	0.353170	0.176660	0.990040
C3481	C348	0.619210	0.681280	0.760080
C3491	C349	0.619300	0.669010	0.763330
C3501	C350	0.623410	0.653670	0.757150
C3511	C351	0.412180	0.708030	0.475530
C3521	C352	0.627620	0.649870	0.747440
C3531	C353	0.652870	0.555970	0.709540
C3541	C354	0.656560	0.542480	0.704010
C3551	C355	0.614840	0.697610	0.766650
C3561	C356	0.611220	0.711170	0.772080
C3571	C357	0.668710	0.522110	0.689180
C3581	C358	0.343830	0.171850	0.980890
C3591	C359	0.672920	0.507050	0.682670
C3601	C360	0.669770	0.495320	0.683860
C3611	C361	0.662200	0.499480	0.691970
C3621	C362	0.657980	0.514620	0.698490
C3631	C363	0.424800	0.693750	0.476070
C3641	C364	0.661110	0.526290	0.697220
C3651	C365	0.608830	0.739130	0.776110
C3661	C366	0.604750	0.754520	0.782190
C3671	C367	0.598500	0.759100	0.791100
C3681	C368	0.596560	0.747450	0.793590
C3691	C369	0.172200	0.125850	0.920830
C3701	C370	0.600650	0.732050	0.787490
C3711	C371	0.606880	0.727530	0.778600
C3721	C372	0.130910	0.129850	0.232630
C3731	C373	0.126770	0.125470	0.238090
C3741	C374	0.128000	0.149960	0.223710
C3751	C375	0.905220	0.971700	0.108970
C3761	C376	0.422230	0.681240	0.476650
C3771	C377	0.132730	0.154830	0.217410
C3781	C378	0.145440	0.144810	0.213410
C3791	C379	0.153340	0.129870	0.215820
C3801	C380	0.161920	0.121690	0.912020
C3811	C381	0.148610	0.125010	0.222120
C3821	C382	0.135900	0.135010	0.226100
C3831	C383	0.129220	0.104860	0.246300
C3841	C384	0.124530	0.099810	0.252510
C3851	C385	0.112400	0.110010	0.257110
C3861	C386	0.105020	0.125340	0.255410
C3871	C387	0.109710	0.130400	0.249200
C3881	C388	0.407910	0.682960	0.476690
C3891	C389	0.121840	0.120190	0.244600
C3901	C390	0.150310	0.149770	0.206680
C3911	C391	0.162190	0.120530	0.901470
C3921	C392	0.154440	0.153680	0.200930
C3931	C393	0.107500	0.104710	0.263630
C3941	C394	0.103450	0.100260	0.269090
C3951	C395	0.167160	0.146460	0.186370
C3961	C396	0.171590	0.150360	0.179340
C3971	C397	0.168380	0.165920	0.179690
C3981	C398	0.160800	0.177460	0.187340
C3991	C399	0.156360	0.173490	0.194370
C4001	C400	0.395340	0.697270	0.476160
C4011	C401	0.159430	0.157970	0.193870
C4021	C402	0.831310	0.733430	0.323230
C4031	C403	0.092330	0.105130	0.284170
C4041	C404	0.087900	0.099990	0.290500
C4051	C405	0.089710	0.084460	0.288390
C4061	C406	0.096000	0.074250	0.279770
C4071	C407	0.100410	0.079450	0.273460
C4081	C408	0.098650	0.094900	0.275630
C4091	C409	0.575020	0.570740	0.069810
C4101	C410	0.583410	0.562380	0.063520
C4111	C411	0.565130	0.595120	0.083430
C4121	C412	0.039340	0.882670	0.481310
C4131	C413	0.173200	0.123700	0.900100
C4141	C414	0.555600	0.604600	0.090570
C4151	C415	0.545500	0.600110	0.091930
C4161	C416	0.545300	0.585780	0.085890
C4171	C417	0.554820	0.576300	0.078750
C4181	C418	0.564920	0.580790	0.077380
C4191	C419	0.593600	0.537800	0.050120
C4201	C420	0.603130	0.528320	0.042980
C4211	C421	0.612940	0.533020	0.041390
C4221	C422	0.612840	0.547550	0.047220
C4231	C423	0.603320	0.557030	0.054350
C4241	C424	0.183480	0.127860	0.908900
C4251	C425	0.025620	0.896030	0.481640
C4261	C426	0.593510	0.552330	0.055950
C4271	C427	0.535400	0.610140	0.099500
C4281	C428	0.526970	0.618430	0.105780
C4291	C429	0.623050	0.522990	0.033830
C4301	C430	0.631500	0.514720	0.027560
C4311	C431	0.504020	0.626250	0.112330
C4321	C432	0.494490	0.635330	0.119490
C4331	C433	0.497290	0.646890	0.127950
C4341	C434	0.510050	0.649010	0.128880
C4351	C435	0.183200	0.129020	0.919460
C4361	C436	0.519580	0.639900	0.121690
C4371	C437	0.024020	0.910940	0.481440
C4381	C438	0.516780	0.628300	0.113300
C4391	C439	0.654390	0.507090	0.021020
C4401	C440	0.663960	0.498060	0.013880
C4411	C441	0.661290	0.486390	0.005460
C4421	C442	0.648630	0.484110	0.004550
C4431	C443	0.639050	0.493180	0.011710
C4441	C444	0.641720	0.504880	0.020060
C4451	C445	0.651630	0.617330	0.243200
C4461	C446	0.811490	0.828640	0.295810
C4471	C447	0.209240	0.180910	0.081630
C4481	C448	0.638500	0.621530	0.237590
C4491	C449	0.671790	0.606310	0.259370
C4501	C450	0.036910	0.911680	0.480900
C4511	C451	0.686600	0.601580	0.265690
C4521	C452	0.698130	0.602470	0.263050
C4531	C453	0.693870	0.608410	0.253670
C4541	C454	0.679070	0.613140	0.247350
C4551	C455	0.667540	0.612250	0.249990
C4561	C456	0.618410	0.632310	0.221320
C4571	C457	0.603600	0.637050	0.215000
C4581	C458	0.205030	0.182630	0.089770
C4591	C459	0.592000	0.636410	0.217720
C4601	C460	0.596190	0.630720	0.227200
C4611	C461	0.610990	0.625980	0.233530
C4621	C462	0.050570	0.898360	0.480580
C4631	C463	0.622590	0.626620	0.230800
C4641	C464	0.714040	0.597390	0.269840
C4651	C465	0.727180	0.593190	0.275430
C4661	C466	0.576100	0.641520	0.210920
C4671	C467	0.563000	0.645760	0.205270
C4681	C468	0.754350	0.589950	0.279890
C4691	C469	0.151340	0.116040	0.892080
C4701	C470	0.769180	0.585230	0.286160
C4711	C471	0.773780	0.578360	0.295180
C4721	C472	0.762500	0.576540	0.297490
C4731	C473	0.747660	0.581270	0.291200
C4741	C474	0.052180	0.883490	0.480780
C4751	C475	0.743100	0.588130	0.282200
C4761	C476	0.535890	0.648120	0.199680
C4771	C477	0.521220	0.652940	0.193100
C4781	C478	0.516900	0.660960	0.184720
C4791	C479	0.528250	0.663810	0.183420
C4801	C480	0.142460	0.112230	0.884210
C4811	C481	0.542850	0.659010	0.189990
C4821	C482	0.547190	0.650980	0.198320
C4831	C483	0.628200	0.137010	0.246360
C4841	C484	0.632220	0.123680	0.240760
C4851	C485	0.613370	0.158020	0.259620
C4861	C486	0.209550	0.539680	0.471930
C4871	C487	0.608810	0.173150	0.265980
C4881	C488	0.614060	0.183920	0.266070
C4891	C489	0.624050	0.178960	0.259550
C4901	C490	0.628610	0.163840	0.253190
C4911	C491	0.382660	0.177420	0.979040
C4921	C492	0.623360	0.153060	0.253100
C4931	C493	0.645040	0.103470	0.226220
C4941	C494	0.649560	0.088350	0.219850
C4951	C495	0.646260	0.076780	0.221030
C4961	C496	0.638270	0.080940	0.228820
C4971	C497	0.633750	0.096060	0.235190
C4981	C498	0.901040	0.973720	0.118500
C4991	C499	0.208180	0.526010	0.471710
C5001	C500	0.637050	0.107630	0.234020
C5011	C501	0.609220	0.199960	0.272820
C5021	C502	0.393660	0.178990	0.978500
C5031	C503	0.605220	0.213290	0.278430
C5041	C504	0.650920	0.060780	0.214200
C5051	C505	0.654640	0.047520	0.208480
C5061	C506	0.610230	0.233680	0.294110
C5071	C507	0.605790	0.248830	0.300450
C5081	C508	0.591320	0.260300	0.298120
C5091	C509	0.581500	0.255890	0.289180
C5101	C510	0.585980	0.240730	0.282850
C5111	C511	0.194870	0.526340	0.472330
C5121	C512	0.600440	0.229340	0.285180
C5131	C513	0.209660	0.184450	0.109720
C5141	C514	0.648100	0.027630	0.193300
C5151	C515	0.651810	0.012810	0.186560
C5161	C516	0.666410	0.001310	0.187660
C5171	C517	0.677170	0.005330	0.195880
C5181	C518	0.673420	0.020220	0.202630
C5191	C519	0.658800	0.031660	0.201450
C5201	C520	0.526900	0.499520	0.392760
C5211	C521	0.523270	0.513060	0.398220
C5221	C522	0.546070	0.472130	0.387450
C5231	C523	0.182940	0.541090	0.473160
C5241	C524	0.872650	0.862710	0.372810
C5251	C525	0.550170	0.456800	0.381270
C5261	C526	0.539680	0.451780	0.373510
C5271	C527	0.524890	0.462840	0.372230
C5281	C528	0.520780	0.478170	0.378420
C5291	C529	0.531270	0.483190	0.386170
C5301	C530	0.504110	0.540490	0.403460
C5311	C531	0.499990	0.555820	0.409650
C5321	C532	0.510450	0.560790	0.417480
C5331	C533	0.525230	0.549710	0.418830
C5341	C534	0.529350	0.534380	0.412640
C5351	C535	0.205200	0.185890	0.118960
C5361	C536	0.184350	0.554810	0.473390
C5371	C537	0.518890	0.529400	0.404800
C5381	C538	0.544050	0.435440	0.366930
C5391	C539	0.547660	0.421890	0.361490
C5401	C540	0.506040	0.577090	0.424120
C5411	C541	0.502340	0.590570	0.429680
C5421	C542	0.550070	0.393890	0.357400
C5431	C543	0.554170	0.378520	0.351290
C5441	C544	0.560420	0.373990	0.342390
C5451	C545	0.562340	0.385680	0.339930
C5461	C546	0.190900	0.187640	0.118540
C5471	C547	0.558240	0.401060	0.346060
C5481	C548	0.197700	0.554380	0.472810
C5491	C549	0.552010	0.405530	0.354940
C5501	C550	0.500940	0.618440	0.435260
C5511	C551	0.496720	0.633560	0.441810
C5521	C552	0.489120	0.637690	0.449890
C5531	C553	0.485950	0.625940	0.451030
C5541	C554	0.490160	0.610900	0.444500
C5551	C555	0.497790	0.606750	0.436490
C5561	C556	0.006380	0.516570	0.390680
C5571	C557	0.464790	0.482920	0.647550
C5581	C558	0.181240	0.187990	0.108410
C5591	C559	0.019500	0.513660	0.396130
C5601	C560	0.984430	0.508840	0.380270
C5611	C561	0.996490	0.898420	0.645440
C5621	C562	0.969630	0.512130	0.374130
C5631	C563	0.959950	0.526890	0.371410
C5641	C564	0.966010	0.538150	0.375220
C5651	C565	0.980810	0.534860	0.381370
C5661	C566	0.990500	0.520090	0.384090
C5671	C567	0.041780	0.521050	0.405890
C5681	C568	0.056580	0.517770	0.412030
C5691	C569	0.185730	0.186540	0.099170
C5701	C570	0.065920	0.503380	0.415400
C5711	C571	0.059520	0.492470	0.412240
C5721	C572	0.044720	0.495740	0.406090
C5731	C573	0.994340	0.885630	0.646130
C5741	C574	0.035380	0.510140	0.402720
C5751	C575	0.944050	0.530450	0.364830
C5761	C576	0.930910	0.533440	0.359420
C5771	C577	0.081800	0.499880	0.422010
C5781	C578	0.094890	0.497020	0.427480
C5791	C579	0.903240	0.551790	0.355070
C5801	C580	0.200070	0.184620	0.099610
C5811	C581	0.888370	0.555410	0.349050
C5821	C582	0.884190	0.544670	0.340450
C5831	C583	0.895940	0.530020	0.338290
C5841	C584	0.910840	0.526410	0.344330
C5851	C585	0.996270	0.882050	0.656050
C5861	C586	0.914960	0.537190	0.352910
C5871	C587	0.122510	0.478760	0.432980
C5881	C588	0.137220	0.475620	0.439300
C5891	C589	0.141100	0.487210	0.447170
C5901	C590	0.129280	0.502120	0.448280
C5911	C591	0.136260	0.100500	0.864730
C5921	C592	0.114600	0.505220	0.441970
C5931	C593	0.110730	0.493650	0.434140
C5941	C594	0.000960	0.892330	0.666060
C5951	C595	0.003260	0.905270	0.665770
C5961	C596	0.911620	0.970010	0.128000
C5971	C597	0.000960	0.908340	0.655630
C5981	C598	0.001700	0.859460	0.665510
C5991	C599	0.999270	0.845670	0.665410
C6001	C600	0.989520	0.840560	0.656900
C6011	C601	0.982170	0.849010	0.648520
C6021	C602	0.126870	0.095650	0.855590
C6031	C603	0.984240	0.862130	0.648280
C6041	C604	0.993920	0.867970	0.656470
C6051	C605	0.002990	0.909790	0.633430
C6061	C606	0.000970	0.913290	0.623550
C6071	C607	0.990320	0.909400	0.614070
C6081	C608	0.939410	0.978400	0.168990
C6091	C609	0.982510	0.902070	0.615460
C6101	C610	0.984530	0.898490	0.625400
C6111	C611	0.994520	0.902040	0.634660
C6121	C612	0.016760	0.923270	0.676210
C6131	C613	0.112750	0.097520	0.855790
C6141	C614	0.020820	0.933340	0.685440
C6151	C615	0.016310	0.936510	0.694880
C6161	C616	0.007650	0.929060	0.694760
C6171	C617	0.003590	0.918930	0.685530
C6181	C618	0.007960	0.915850	0.675970
C6191	C619	0.988020	0.913150	0.603540
C6201	C620	0.949240	0.982760	0.178040
C6211	C621	0.986180	0.916330	0.594820
C6221	C622	0.987010	0.826690	0.656740
C6231	C623	0.984950	0.815160	0.656620
C6241	C624	0.108480	0.104620	0.865630
C6251	C625	0.020570	0.947360	0.704600
C6261	C626	0.024160	0.956420	0.712610
C6271	C627	0.978440	0.912210	0.574670
C6281	C628	0.976420	0.915900	0.564810
C6291	C629	0.979900	0.927720	0.564300
C6301	C630	0.985480	0.935710	0.574000
C6311	C631	0.987500	0.932030	0.583860
C6321	C632	0.944360	0.993060	0.187160
C6331	C633	0.984020	0.920210	0.584370
C6341	C634	0.030120	0.965940	0.732630
C6351	C635	0.117970	0.109480	0.874820
C6361	C636	0.034260	0.976230	0.741670
C6371	C637	0.036950	0.988350	0.740680
C6381	C638	0.035340	0.989760	0.730270
C6391	C639	0.031200	0.979470	0.721230
C6401	C640	0.028510	0.967350	0.722220
C6411	C641	0.976890	0.792930	0.646980
C6421	C642	0.974570	0.779850	0.646870
C6431	C643	0.977750	0.774570	0.656290
C6441	C644	0.929210	0.998670	0.186880
C6451	C645	0.983350	0.782920	0.665800
C6461	C646	0.879590	0.869440	0.380730
C6471	C647	0.985660	0.795990	0.665910
C6481	C648	0.982480	0.801270	0.656500
C6491	C649	0.977740	0.931680	0.553880
C6501	C650	0.975970	0.935080	0.545260
C6511	C651	0.975310	0.760690	0.656200
C6521	C652	0.973320	0.749170	0.656210
C6531	C653	0.041400	0.999210	0.750300
C6541	C654	0.045870	0.009750	0.759800
C6551	C655	0.969930	0.954850	0.534460
C6561	C656	0.919320	0.994290	0.177810
C6571	C657	0.132100	0.107450	0.874550
C6581	C658	0.968320	0.959020	0.524900
C6591	C659	0.970550	0.947910	0.515440
C6601	C660	0.974340	0.932450	0.515940
C6611	C661	0.975950	0.928300	0.525540
C6621	C662	0.973870	0.939410	0.534990
C6631	C663	0.973080	0.731300	0.666060
C6641	C664	0.971160	0.718200	0.666350
C6651	C665	0.967030	0.708480	0.656980
C6661	C666	0.964870	0.712570	0.647290
C6671	C667	0.966820	0.725720	0.647020
C6681	C668	0.473170	0.472450	0.639890
C6691	C669	0.416540	0.185290	0.986940
C6701	C670	0.996750	0.984110	0.503010
C6711	C671	0.924150	0.984140	0.168560
C6721	C672	0.971020	0.735330	0.656400
C6731	C673	0.047020	0.035850	0.769790
C6741	C674	0.051760	0.045490	0.779060
C6751	C675	0.060310	0.039810	0.788540
C6761	C676	0.063800	0.024130	0.788300
C6771	C677	0.059050	0.014560	0.779060
C6781	C678	0.050620	0.020180	0.769600
C6791	C679	0.987030	0.636050	0.638010
C6801	C680	0.429030	0.186940	0.986290
C6811	C681	0.964560	0.621360	0.660890
C6821	C682	0.002320	0.648920	0.679150
C6831	C683	0.924790	0.963800	0.098490
C6841	C684	0.944960	0.679630	0.681230
C6851	C685	0.965720	0.693890	0.657510
C6861	C686	0.930630	0.663800	0.638350
C6871	C687	0.446410	0.185610	0.975700
C6881	C688	0.488160	0.149850	0.954160
C6891	C689	0.458510	0.208990	0.951880
C6901	C690	0.514520	0.188080	0.972150
C6911	C691	0.432590	0.184260	0.976450
C6921	C692	0.474760	0.222890	0.994410
C6931	C693	0.501830	0.163790	0.995120
C6941	C694	0.761780	0.213680	0.493120
C6951	C695	0.928910	0.962080	0.090310
C6961	C696	0.751570	0.218350	0.483470
C6971	C697	0.738900	0.232890	0.483310
C6981	C698	0.736610	0.243010	0.493260
C6991	C699	0.746170	0.239250	0.503210
C7001	C700	0.758790	0.224520	0.502900
C7011	C701	0.712700	0.247580	0.472360
C7021	C702	0.422920	0.179870	0.967330
C7031	C703	0.702560	0.252340	0.462820
C7041	C704	0.706920	0.247580	0.453080
C7051	C705	0.721980	0.237710	0.453370
C7061	C706	0.732160	0.232900	0.462910
C7071	C707	0.838470	0.966690	0.151580
C7081	C708	0.727860	0.237760	0.472750
C7091	C709	0.788750	0.194410	0.500790
C7101	C710	0.801200	0.179630	0.500340
C7111	C711	0.801210	0.166810	0.491960
C7121	C712	0.787960	0.169690	0.484080
C7131	C713	0.410450	0.178230	0.967990
C7141	C714	0.775530	0.184420	0.484490
C7151	C715	0.775450	0.197400	0.492840
C7161	C716	0.753540	0.252520	0.523050
C7171	C717	0.750000	0.263840	0.532460
C7181	C718	0.735320	0.274300	0.533230
C7191	C719	0.827480	0.965140	0.152130
C7201	C720	0.724390	0.272680	0.524100
C7211	C721	0.727880	0.261450	0.514710
C7221	C722	0.742580	0.251050	0.513790
C7231	C723	0.814520	0.150950	0.491410
C7241	C724	0.406930	0.180860	0.977810
C7251	C725	0.825460	0.137820	0.490880
C7261	C726	0.696010	0.252810	0.442940
C7271	C727	0.686890	0.257220	0.434590
C7281	C728	0.731360	0.286550	0.543190
C7291	C729	0.727860	0.296770	0.551340
C7301	C730	0.840520	0.111080	0.480510
C7311	C731	0.954960	0.997760	0.196660
C7321	C732	0.852820	0.096230	0.479860
C7331	C733	0.864050	0.091230	0.488860
C7341	C734	0.862200	0.102030	0.498550
C7351	C735	0.547280	0.816640	0.813560
C7361	C736	0.849900	0.116890	0.499190
C7371	C737	0.838670	0.121880	0.490190
C7381	C738	0.709190	0.321300	0.560830
C7391	C739	0.705080	0.332900	0.569970
C7401	C740	0.715040	0.333090	0.579970
C7411	C741	0.729350	0.320990	0.580290
C7421	C742	0.733470	0.309370	0.571140
C7431	C743	0.965680	0.002160	0.205820
C7441	C744	0.723500	0.309190	0.561140
C7451	C745	0.678390	0.254570	0.414280
C7461	C746	0.564240	0.831070	0.787870
C7471	C747	0.668030	0.259580	0.404860
C7481	C748	0.654570	0.272860	0.405190
C7491	C749	0.652010	0.280870	0.415450
C7501	C750	0.662380	0.275850	0.424870
C7511	C751	0.675840	0.262570	0.424530
C7521	C752	0.877240	0.075280	0.488170
C7531	C753	0.888140	0.062120	0.487600
C7541	C754	0.643550	0.278190	0.395120
C7551	C755	0.925070	0.958770	0.070240
C7561	C756	0.634550	0.282480	0.386700
C7571	C757	0.572350	0.856370	0.828540
C7581	C758	0.710620	0.345520	0.589760
C7591	C759	0.706950	0.355820	0.597840
C7601	C760	0.911710	0.040530	0.496050
C7611	C761	0.924070	0.025720	0.495430
C7621	C762	0.926880	0.015580	0.485630
C7631	C763	0.916470	0.021250	0.476490
C7641	C764	0.904110	0.036060	0.477130
C7651	C765	0.901350	0.046180	0.486920
C7661	C766	0.609580	0.299330	0.375940
C7671	C767	0.929960	0.956750	0.061050
C7681	C768	0.762980	0.862810	0.249590
C7691	C769	0.599950	0.303930	0.366160
C7701	C770	0.604300	0.296760	0.356320
C7711	C771	0.618700	0.284750	0.356840
C7721	C772	0.628230	0.280190	0.366570
C7731	C773	0.624000	0.287380	0.376380
C7741	C774	0.712460	0.368830	0.617550
C7751	C775	0.708350	0.380680	0.626600
C7761	C776	0.693970	0.392720	0.626240
C7771	C777	0.683970	0.392120	0.616260
C7781	C778	0.688100	0.380270	0.607230
C7791	C779	0.465180	0.465170	0.631050
C7801	C780	0.618760	0.815850	0.812800
C7811	C781	0.944030	0.955830	0.061760
C7821	C782	0.702480	0.368320	0.607590
C7831	C783	0.434840	0.931140	0.156920
C7841	C784	0.447440	0.933260	0.157260
C7851	C785	0.446850	0.947860	0.157240
C7861	C786	0.432830	0.960940	0.157090
C7871	C787	0.419650	0.959570	0.156750
C7881	C788	0.421090	0.944450	0.156720
C7891	C789	0.464320	0.962190	0.162580
C7901	C790	0.477970	0.962520	0.163070
C7911	C791	0.599690	0.801290	0.838330
C7921	C792	0.489140	0.949690	0.158330
C7931	C793	0.970090	0.952430	0.505460
C7941	C794	0.953000	0.957030	0.072060
C7951	C795	0.485940	0.936630	0.152980
C7961	C796	0.472390	0.936250	0.152500
C7971	C797	0.461210	0.948940	0.157380
C7981	C798	0.427850	0.912340	0.161700
C7991	C799	0.429840	0.897150	0.161820
C8001	C800	0.440390	0.883650	0.157010
C8011	C801	0.448770	0.886000	0.152000
C8021	C802	0.593980	0.775880	0.797630
C8031	C803	0.446840	0.901120	0.151880
C8041	C804	0.436400	0.914750	0.156790
C8051	C805	0.390760	0.972100	0.151400
C8061	C806	0.948120	0.959050	0.081250
C8071	C807	0.376580	0.984840	0.151000
C8081	C808	0.374650	0.001260	0.155770
C8091	C809	0.388000	0.003090	0.160600
C8101	C810	0.402840	0.989330	0.160850
C8111	C811	0.404280	0.973830	0.156320
C8121	C812	0.442700	0.867470	0.157180
C8131	C813	0.074730	0.057340	0.839710
C8141	C814	0.444780	0.853970	0.157260
C8151	C815	0.503800	0.949740	0.158910
C8161	C816	0.516040	0.949490	0.159300
C8171	C817	0.359510	0.014900	0.155420
C8181	C818	0.934050	0.959960	0.080540
C8191	C819	0.346970	0.026170	0.155120
C8201	C820	0.461130	0.825020	0.156620
C8211	C821	0.463570	0.809660	0.156670
C8221	C822	0.452350	0.806250	0.157420
C8231	C823	0.438590	0.818880	0.158130
C8241	C824	0.119810	0.036080	0.821880
C8251	C825	0.436150	0.834240	0.158090
C8261	C826	0.447370	0.837650	0.157330
C8271	C827	0.330000	0.055400	0.156840
C8281	C828	0.315820	0.068130	0.156490
C8291	C829	0.302660	0.065960	0.154050
C8301	C830	0.973060	0.015790	0.224780
C8311	C831	0.304470	0.050350	0.151970
C8321	C832	0.318650	0.037610	0.152320
C8331	C833	0.331810	0.039780	0.154760
C8341	C834	0.543050	0.934850	0.157680
C8351	C835	0.066280	0.049630	0.798540
C8361	C836	0.556970	0.934360	0.158060
C8371	C837	0.559400	0.948000	0.160510
C8381	C838	0.547230	0.962160	0.162560
C8391	C839	0.533300	0.962650	0.162180
C8401	C840	0.530870	0.949010	0.159730
C8411	C841	0.454900	0.789940	0.157460
C8421	C842	0.983290	0.020090	0.233640
C8431	C843	0.456870	0.776450	0.157490
C8441	C844	0.574220	0.947500	0.160890
C8451	C845	0.586470	0.947170	0.161200
C8461	C846	0.092610	0.085720	0.804610
C8471	C847	0.287510	0.079580	0.153680
C8481	C848	0.274990	0.090890	0.153370
C8491	C849	0.447110	0.757550	0.157840
C8501	C850	0.448790	0.742490	0.157850
C8511	C851	0.462400	0.729400	0.157560
C8521	C852	0.474290	0.732160	0.157270
C8531	C853	0.472560	0.747300	0.157260
C8541	C854	0.998140	0.015370	0.233420
C8551	C855	0.458920	0.760310	0.157530
C8561	C856	0.614420	0.933430	0.162150
C8571	C857	0.048300	0.106480	0.822480
C8581	C858	0.628130	0.933380	0.162390
C8591	C859	0.629210	0.946910	0.162060
C8601	C860	0.615880	0.960440	0.161490
C8611	C861	0.602230	0.960470	0.161240
C8621	C862	0.601140	0.946990	0.161550
C8631	C863	0.247080	0.103290	0.152950
C8641	C864	0.232990	0.116220	0.152580
C8651	C865	0.230970	0.131240	0.152240
C8661	C866	0.002530	0.005570	0.223320
C8671	C867	0.243860	0.132530	0.152290
C8681	C868	0.103380	0.091100	0.845800
C8691	C869	0.257900	0.119620	0.152660
C8701	C870	0.259920	0.104640	0.152990
C8711	C871	0.188660	0.181070	0.628170
C8721	C872	0.206410	0.191630	0.670440
C8731	C873	0.149850	0.207280	0.651730
C8741	C874	0.178700	0.160560	0.671780
C8751	C875	0.162200	0.149360	0.630830
C8761	C876	0.218380	0.134010	0.648630
C8771	C877	0.664930	0.722010	0.993480
C8781	C878	0.991470	0.001300	0.214190
C8791	C879	0.346410	0.830870	0.816600
C8801	C880	0.660720	0.727560	0.983870
C8811	C881	0.658380	0.742810	0.983530
C8821	C882	0.660030	0.753310	0.993370
C8831	C883	0.664130	0.748970	0.004110
C8841	C884	0.666490	0.733390	0.003870
C8851	C885	0.645030	0.763070	0.971050
C8861	C886	0.641000	0.767300	0.960980
C8871	C887	0.645950	0.756390	0.952020
C8881	C888	0.655180	0.741060	0.953600
C8891	C889	0.659190	0.736790	0.963640
C8901	C890	0.450010	0.468030	0.630020
C8911	C891	0.754350	0.869110	0.240170
C8921	C892	0.976820	0.006460	0.215020
C8931	C893	0.654190	0.747650	0.972660
C8941	C894	0.665070	0.700190	0.001410
C8951	C895	0.666900	0.684690	0.000450
C8961	C896	0.671500	0.672380	0.991060
C8971	C897	0.673990	0.677230	0.983380
C8981	C898	0.672100	0.692790	0.984290
C8991	C899	0.667500	0.704980	0.992980
C9001	C900	0.674560	0.756430	0.024580
C9011	C901	0.676110	0.767480	0.034140
C9021	C902	0.333030	0.844820	0.817030
C9031	C903	0.668910	0.783710	0.034480
C9041	C904	0.804800	0.958510	0.143680
C9051	C905	0.660030	0.788250	0.024700
C9061	C906	0.658490	0.777250	0.015140
C9071	C907	0.665720	0.760930	0.014720
C9081	C908	0.673460	0.655720	0.989750
C9091	C909	0.675110	0.641900	0.988570
C9101	C910	0.641650	0.760790	0.941280
C9111	C911	0.638120	0.764320	0.932330
C9121	C912	0.670570	0.795570	0.044670
C9131	C913	0.319370	0.844790	0.817140
C9141	C914	0.671890	0.805460	0.053060
C9151	C915	0.676150	0.615530	0.976940
C9161	C916	0.940660	0.999580	0.484960
C9171	C917	0.792380	0.956750	0.144330
C9181	C918	0.678050	0.599860	0.975540
C9191	C919	0.681000	0.593030	0.984200
C9201	C920	0.681960	0.602680	0.994340
C9211	C921	0.680060	0.618350	0.995740
C9221	C922	0.677110	0.625180	0.987080
C9231	C923	0.670510	0.832810	0.062900
C9241	C924	0.319650	0.830220	0.817070
C9251	C925	0.671970	0.844040	0.072360
C9261	C926	0.676480	0.840560	0.082640
C9271	C927	0.679440	0.825200	0.082930
C9281	C928	0.677980	0.813970	0.073470
C9291	C929	0.788700	0.959650	0.154130
C9301	C930	0.673470	0.817460	0.063190
C9311	C931	0.633580	0.757400	0.912040
C9321	C932	0.629630	0.761300	0.901870
C9331	C933	0.625830	0.776480	0.900720
C9341	C934	0.626150	0.787570	0.910200
C9351	C935	0.332610	0.816100	0.816780
C9361	C936	0.630090	0.783670	0.920370
C9371	C937	0.633900	0.768500	0.921520
C9381	C938	0.683030	0.576300	0.982720
C9391	C939	0.684730	0.562460	0.981570
C9401	C940	0.621610	0.780620	0.889900
C9411	C941	0.798110	0.964400	0.163250
C9421	C942	0.618090	0.784040	0.880920
C9431	C943	0.678050	0.852590	0.092750
C9441	C944	0.679350	0.862590	0.101070
C9451	C945	0.691600	0.538790	0.989250
C9461	C946	0.345760	0.816780	0.816550
C9471	C947	0.693460	0.523260	0.988250
C9481	C948	0.690690	0.513780	0.978270
C9491	C949	0.685960	0.520760	0.969320
C9501	C950	0.684100	0.536350	0.970340
C9511	C951	0.686830	0.545780	0.980350
C9521	C952	0.605970	0.781150	0.861110
C9531	C953	0.810530	0.966160	0.162610
C9541	C954	0.601710	0.785150	0.850950
C9551	C955	0.605100	0.796340	0.849240
C9561	C956	0.613030	0.803280	0.858220
C9571	C957	0.290590	0.859110	0.812670
C9581	C958	0.617270	0.799270	0.868390
C9591	C959	0.613790	0.788150	0.870080
C9601	C960	0.684590	0.886800	0.111050
C9611	C961	0.685810	0.898430	0.120250
C9621	C962	0.683500	0.898780	0.130060
C9631	C963	0.679920	0.886680	0.130100
C9641	C964	0.678690	0.875020	0.120860
C9651	C965	0.814210	0.963260	0.152810
C9661	C966	0.680920	0.874800	0.111060
C9671	C967	0.692180	0.497130	0.977490
C9681	C968	0.277000	0.872520	0.813080
C9691	C969	0.727830	0.450330	0.997960
C9701	C970	0.671300	0.477310	0.997440
C9711	C971	0.694970	0.420160	0.976060
C9721	C972	0.657650	0.467470	0.956440
C9731	C973	0.714550	0.440480	0.955280
C9741	C974	0.924170	0.384660	0.141890
C9751	C975	0.912910	0.387430	0.132180
C9761	C976	0.897950	0.399080	0.132000
C9771	C977	0.949220	0.953690	0.052000
C9781	C978	0.894590	0.408150	0.142080
C9791	C979	0.276470	0.887490	0.818100
C9801	C980	0.905060	0.406030	0.152020
C9811	C981	0.919700	0.394220	0.151630
C9821	C982	0.870230	0.408570	0.121300
C9831	C983	0.858830	0.411860	0.111870
C9841	C984	0.861830	0.408990	0.101810
C9851	C985	0.877080	0.402430	0.101810
C9861	C986	0.888550	0.399090	0.111250
C9871	C987	0.885560	0.402160	0.121410
C9881	C988	0.952830	0.372490	0.150480
C9891	C989	0.953490	0.951930	0.043890
C9901	C990	0.290360	0.888320	0.822590
C9911	C991	0.967670	0.360820	0.150780
C9921	C992	0.971520	0.347480	0.142680
C9931	C993	0.959430	0.346710	0.134190
C9941	C994	0.944540	0.358410	0.133860
C9951	C995	0.940590	0.371780	0.142030
C9961	C996	0.910740	0.419780	0.172010
C9971	C997	0.906470	0.429320	0.181750
C9981	C998	0.891740	0.436000	0.182990
C9991	C999	0.881560	0.432510	0.173900
C10001	C1000	0.885780	0.423010	0.164150
C10011	C1001	0.441660	0.478350	0.637820
C10021	C1002	0.304020	0.874880	0.822170
C10031	C1003	0.775430	0.957780	0.154820
C10041	C1004	0.900530	0.416310	0.162820
C10051	C1005	0.987560	0.334920	0.143100
C10061	C1006	0.003360	0.322650	0.143610
C10071	C1007	0.849410	0.412730	0.091740
C10081	C1008	0.839040	0.415890	0.083510
C10091	C1009	0.887110	0.446260	0.193400
C10101	C1010	0.883210	0.454760	0.201980
C10111	C1011	0.024770	0.299990	0.135020
C10121	C1012	0.039720	0.288430	0.135540
C10131	C1013	0.752150	0.883870	0.239150
C10141	C1014	0.050420	0.286230	0.145240
C10151	C1015	0.764450	0.956230	0.155410
C10161	C1016	0.045110	0.296410	0.154380
C10171	C1017	0.030170	0.307970	0.153860
C10181	C1018	0.019460	0.310180	0.144160
C10191	C1019	0.863990	0.476710	0.212530
C10201	C1020	0.859540	0.486300	0.222200
C10211	C1021	0.869280	0.484820	0.232300
C10221	C1022	0.883740	0.473170	0.232130
C10231	C1023	0.888190	0.463580	0.222460
C10241	C1024	0.304590	0.859770	0.817280
C10251	C1025	0.878450	0.465050	0.212360
C10261	C1026	0.828220	0.412040	0.063080
C10271	C1027	0.008860	0.019960	0.242850
C10281	C1028	0.816450	0.415670	0.053860
C10291	C1029	0.802060	0.427280	0.054490
C10301	C1030	0.800240	0.435010	0.064980
C10311	C1031	0.812010	0.431390	0.074210
C10321	C1032	0.826400	0.419780	0.073580
C10331	C1033	0.066530	0.273770	0.145800
C10341	C1034	0.079800	0.263510	0.146270
C10351	C1035	0.371970	0.817200	0.811260
C10361	C1036	0.789390	0.431190	0.044570
C10371	C1037	0.778920	0.434450	0.036400
C10381	C1038	0.864520	0.495070	0.242680
C10391	C1039	0.952290	0.942010	0.463120
C10401	C1040	0.017690	0.023820	0.250730
C10411	C1041	0.860650	0.503460	0.251290
C10421	C1042	0.106370	0.248360	0.156600
C10431	C1043	0.121280	0.236700	0.157160
C10441	C1044	0.126830	0.226880	0.148010
C10451	C1045	0.116330	0.229620	0.138250
C10461	C1046	0.385800	0.816510	0.811150
C10471	C1047	0.101430	0.241280	0.137710
C10481	C1048	0.095900	0.251050	0.146860
C10491	C1049	0.754280	0.453330	0.026450
C10501	C1050	0.742330	0.457100	0.017350
C10511	C1051	0.741430	0.446280	0.007680
C10521	C1052	0.972950	0.947740	0.034550
C10531	C1053	0.753380	0.431400	0.007760
C10541	C1054	0.765340	0.427650	0.016880
C10551	C1055	0.766170	0.438480	0.026540
C10561	C1056	0.862660	0.507720	0.271400
C10571	C1057	0.389900	0.829130	0.815950
C10581	C1058	0.858430	0.516780	0.281210
C10591	C1059	0.847360	0.532190	0.282080
C10601	C1060	0.840800	0.537950	0.272450
C10611	C1061	0.845060	0.528830	0.262610
C10621	C1062	0.856090	0.513420	0.261790
C10631	C1063	0.759500	0.650430	0.506400
C10641	C1064	0.977560	0.946120	0.025330
C10651	C1065	0.744370	0.653620	0.506170
C10661	C1066	0.733460	0.652410	0.496340
C10671	C1067	0.738460	0.647640	0.486650
C10681	C1068	0.379270	0.842610	0.820790
C10691	C1069	0.753080	0.644510	0.486290
C10701	C1070	0.763190	0.646100	0.496240
C10711	C1071	0.705190	0.660460	0.486700
C10721	C1072	0.690200	0.662990	0.485700
C10731	C1073	0.685450	0.661140	0.493640
C10741	C1074	0.696860	0.656750	0.502760
C10751	C1075	0.711940	0.654230	0.503800
C10761	C1076	0.967930	0.946540	0.015190
C10771	C1077	0.716780	0.655820	0.495730
C10781	C1078	0.787220	0.642990	0.517300
C10791	C1079	0.365360	0.843350	0.820900
C10801	C1080	0.798580	0.644260	0.526560
C10811	C1081	0.795550	0.654200	0.536350
C10821	C1082	0.780190	0.662680	0.536190
C10831	C1083	0.768750	0.661400	0.526900
C10841	C1084	0.771790	0.651600	0.516990
C10851	C1085	0.772620	0.630100	0.474310
C10861	C1086	0.776920	0.625560	0.464390
C10871	C1087	0.766750	0.630140	0.454940
C10881	C1088	0.953530	0.948570	0.014740
C10891	C1089	0.752010	0.639540	0.455980
C10901	C1090	0.361290	0.830590	0.816220
C10911	C1091	0.747680	0.644080	0.465880
C10921	C1092	0.757830	0.639530	0.475410
C10931	C1093	0.808040	0.655510	0.546250
C10941	C1094	0.818490	0.656430	0.554310
C10951	C1095	0.669180	0.663780	0.492330
C10961	C1096	0.655740	0.665980	0.491090
C10971	C1097	0.771370	0.625280	0.444330
C10981	C1098	0.775190	0.621270	0.435550
C10991	C1099	0.829690	0.662030	0.574750
C11001	C1100	0.948960	0.950170	0.023960
C11011	C1101	0.341550	0.786060	0.811470
C11021	C1102	0.841540	0.662970	0.583750
C11031	C1103	0.855870	0.659440	0.582730
C11041	C1104	0.857440	0.654890	0.572020
C11051	C1105	0.845590	0.653950	0.563020
C11061	C1106	0.831260	0.657480	0.564040
C11071	C1107	0.770270	0.613900	0.415060
C11081	C1108	0.774570	0.609360	0.405140
C11091	C1109	0.788650	0.607060	0.404530
C11101	C1110	0.798180	0.609580	0.414410
C11111	C1111	0.793880	0.614120	0.424330
C11121	C1112	0.900800	0.978280	0.158660
C11131	C1113	0.411000	0.489120	0.667720
C11141	C1114	0.341310	0.771770	0.811350
C11151	C1115	0.958530	0.949880	0.034080
C11161	C1116	0.779800	0.616410	0.424940
C11171	C1117	0.632240	0.673810	0.498060
C11181	C1118	0.617090	0.676320	0.496570
C11191	C1119	0.607930	0.673900	0.486400
C11201	C1120	0.615080	0.668760	0.477840
C11211	C1121	0.630220	0.666250	0.479330
C11221	C1122	0.639390	0.668680	0.489490
C11231	C1123	0.868680	0.660450	0.592450
C11241	C1124	0.879220	0.661270	0.600440
C11251	C1125	0.331980	0.771130	0.816480
C11261	C1126	0.591570	0.676620	0.484800
C11271	C1127	0.747720	0.957070	0.165980
C11281	C1128	0.578110	0.678870	0.483520
C11291	C1129	0.793260	0.602190	0.393910
C11301	C1130	0.797040	0.598130	0.385120
C11311	C1131	0.903550	0.665620	0.609630
C11321	C1132	0.915540	0.666370	0.618560
C11331	C1133	0.916960	0.663850	0.628720
C11341	C1134	0.905420	0.660520	0.629220
C11351	C1135	0.893440	0.659770	0.620280
C11361	C1136	0.759070	0.891960	0.248090
C11371	C1137	0.892070	0.662250	0.610140
C11381	C1138	0.552330	0.679240	0.472040
C11391	C1139	0.735260	0.955460	0.166700
C11401	C1140	0.537230	0.681730	0.470810
C11411	C1141	0.530420	0.686830	0.479570
C11421	C1142	0.539910	0.689240	0.489600
C11431	C1143	0.554950	0.686760	0.490810
C11441	C1144	0.561770	0.681640	0.482090
C11451	C1145	0.812590	0.596340	0.373050
C11461	C1146	0.816860	0.591560	0.363090
C11471	C1147	0.322890	0.785440	0.821740
C11481	C1148	0.810340	0.583320	0.353950
C11491	C1149	0.799280	0.580200	0.355390
C11501	C1150	0.795020	0.584990	0.365340
C11511	C1151	0.725560	0.951060	0.157600
C11521	C1152	0.801570	0.593160	0.374460
C11531	C1153	0.440300	0.692360	0.476170
C11541	C1154	0.459680	0.712750	0.455280
C11551	C1155	0.469130	0.726550	0.497930
C11561	C1156	0.514090	0.689020	0.478600
C11571	C1157	0.494830	0.666930	0.498310
C11581	C1158	0.323080	0.799750	0.821850
C11591	C1159	0.484910	0.653730	0.457450
C11601	C1160	0.337580	0.814090	0.322520
C11611	C1161	0.343330	0.807250	0.313090
C11621	C1162	0.336110	0.813000	0.303360
C11631	C1163	0.907410	0.972910	0.138640
C11641	C1164	0.729080	0.948340	0.147750
C11651	C1165	0.322040	0.826300	0.303240
C11661	C1166	0.315310	0.833870	0.312400
C11671	C1167	0.323540	0.827330	0.321910
C11681	C1168	0.335760	0.804190	0.282690
C11691	C1169	0.332420	0.800500	0.816710
C11701	C1170	0.342920	0.795950	0.273870
C11711	C1171	0.358460	0.787720	0.275180
C11721	C1172	0.366360	0.788390	0.285880
C11731	C1173	0.359260	0.796550	0.294680
C11741	C1174	0.343670	0.804660	0.293470
C11751	C1175	0.339820	0.807960	0.340790
C11761	C1176	0.741550	0.949960	0.147050
C11771	C1177	0.348160	0.801090	0.350070
C11781	C1178	0.363730	0.792990	0.352160
C11791	C1179	0.370460	0.792280	0.344450
C11801	C1180	0.404840	0.828120	0.815850
C11811	C1181	0.362180	0.799080	0.335180
C11821	C1182	0.346540	0.807100	0.332950
C11831	C1183	0.290740	0.853070	0.319460
C11841	C1184	0.276820	0.866450	0.319370
C11851	C1185	0.270790	0.876560	0.312020
C11861	C1186	0.279730	0.872210	0.304710
C11871	C1187	0.293650	0.858800	0.304770
C11881	C1188	0.751190	0.954390	0.156140
C11891	C1189	0.299820	0.848640	0.312180
C11901	C1190	0.372770	0.785500	0.362030
C11911	C1191	0.417260	0.827070	0.815710
C11921	C1192	0.380370	0.779240	0.370140
C11931	C1193	0.366320	0.778720	0.265810
C11941	C1194	0.373000	0.771210	0.258190
C11951	C1195	0.255770	0.891030	0.311990
C11961	C1196	0.243400	0.902920	0.312000
C11971	C1197	0.404010	0.759560	0.380180
C11981	C1198	0.412690	0.752460	0.389300
C11991	C1199	0.407560	0.756970	0.398750
C12001	C1200	0.042110	0.026690	0.260090
C12011	C1201	0.393210	0.769030	0.398510
C12021	C1202	0.261800	0.901700	0.818570
C12031	C1203	0.384530	0.776130	0.389380
C12041	C1204	0.389660	0.771620	0.379930
C12051	C1205	0.218800	0.923150	0.302690
C12061	C1206	0.204880	0.936530	0.302730
C12071	C1207	0.199470	0.945160	0.312120
C12081	C1208	0.209050	0.939380	0.321480
C12091	C1209	0.222970	0.926000	0.321440
C12101	C1210	0.228370	0.917380	0.312040
C12111	C1211	0.395930	0.750680	0.250540
C12121	C1212	0.051590	0.031580	0.269270
C12131	C1213	0.249560	0.913320	0.818910
C12141	C1214	0.403590	0.742170	0.242020
C12151	C1215	0.397020	0.744470	0.231380
C12161	C1216	0.382290	0.755860	0.229850
C12171	C1217	0.374630	0.764370	0.238370
C12181	C1218	0.381200	0.762070	0.249010
C12191	C1219	0.416870	0.749360	0.408550
C12201	C1220	0.424520	0.743090	0.416640
C12211	C1221	0.405260	0.735340	0.222220
C12221	C1222	0.412030	0.727830	0.214640
C12231	C1223	0.184440	0.959600	0.312170
C12241	C1224	0.406660	0.493700	0.677620
C12251	C1225	0.331730	0.755920	0.816340
C12261	C1226	0.047330	0.038620	0.279120
C12271	C1227	0.172070	0.971500	0.312210
C12281	C1228	0.428620	0.740670	0.436000
C12291	C1229	0.437010	0.733590	0.445150
C12301	C1230	0.451060	0.720940	0.445410
C12311	C1231	0.456180	0.715870	0.435880
C12321	C1232	0.447750	0.722970	0.426720
C12331	C1233	0.433690	0.735560	0.426480
C12341	C1234	0.415840	0.724430	0.195910
C12351	C1235	0.423420	0.716170	0.187340
C12361	C1236	0.331520	0.743300	0.816230
C12371	C1237	0.435870	0.701690	0.187670
C12381	C1238	0.033260	0.040410	0.279340
C12391	C1239	0.440210	0.696050	0.197210
C12401	C1240	0.432610	0.704340	0.205780
C12411	C1241	0.420180	0.718820	0.205430
C12421	C1242	0.151950	0.994980	0.321710
C12431	C1243	0.137190	0.009200	0.321780
C12441	C1244	0.127260	0.014620	0.312390
C12451	C1245	0.132370	0.005560	0.302930
C12461	C1246	0.147140	0.991340	0.302880
C12471	C1247	0.435390	0.838820	0.817400
C12481	C1248	0.157050	0.985950	0.312260
C12491	C1249	0.197670	0.204210	0.171240
C12501	C1250	0.023880	0.035540	0.270220
C12511	C1251	0.172310	0.169980	0.171610
C12521	C1252	0.142980	0.213560	0.148680
C12531	C1253	0.160620	0.154770	0.130640
C12541	C1254	0.186700	0.187580	0.128410
C12551	C1255	0.215720	0.145460	0.151790
C12561	C1256	0.259690	0.735620	0.001930
C12571	C1257	0.244770	0.747240	0.001750
C12581	C1258	0.767700	0.885660	0.257510
C12591	C1259	0.232940	0.750150	0.991400
C12601	C1260	0.237650	0.740530	0.981700
C12611	C1261	0.252320	0.728620	0.981280
C12621	C1262	0.028020	0.028650	0.260380
C12631	C1263	0.262910	0.726200	0.991160
C12641	C1264	0.204340	0.762670	0.982510
C12651	C1265	0.189490	0.774350	0.982210
C12661	C1266	0.185500	0.787350	0.990520
C12671	C1267	0.197490	0.787780	0.999210
C12681	C1268	0.212380	0.776080	0.999540
C12691	C1269	0.449460	0.837490	0.817190
C12701	C1270	0.216480	0.763040	0.991170
C12711	C1271	0.287510	0.725040	0.012360
C12721	C1272	0.299000	0.721670	0.021740
C12731	C1273	0.296130	0.725360	0.031950
C12741	C1274	0.670070	0.985510	0.180010
C12751	C1275	0.280900	0.732800	0.032150
C12761	C1276	0.269350	0.736230	0.022760
C12771	C1277	0.272200	0.732380	0.012460
C12781	C1278	0.271550	0.711750	0.969120
C12791	C1279	0.275810	0.702230	0.959380
C12801	C1280	0.461250	0.822940	0.815070
C12811	C1281	0.265660	0.698650	0.950300
C12821	C1282	0.250930	0.705290	0.951540
C12831	C1283	0.246620	0.714860	0.961270
C12841	C1284	0.256810	0.718390	0.970460
C12851	C1285	0.308640	0.721540	0.041970
C12861	C1286	0.894770	0.971480	0.139240
C12871	C1287	0.643840	0.947120	0.162000
C12881	C1288	0.319070	0.718310	0.050170
C12891	C1289	0.169440	0.799930	0.990100
C12901	C1290	0.156180	0.810230	0.989690
C12911	C1291	0.458170	0.809790	0.813180
C12921	C1292	0.270360	0.688340	0.939910
C12931	C1293	0.274340	0.679790	0.931360
C12941	C1294	0.330230	0.722500	0.070550
C12951	C1295	0.342050	0.718810	0.079750
C12961	C1296	0.356230	0.706700	0.079090
C12971	C1297	0.357770	0.698550	0.068610
C12981	C1298	0.345950	0.702240	0.059420
C12991	C1299	0.656390	0.971560	0.139050
C13001	C1300	0.331770	0.714350	0.060070
C13011	C1301	0.269390	0.670330	0.910930
C13021	C1302	0.444100	0.811120	0.813390
C13031	C1303	0.273940	0.660690	0.901300
C13041	C1304	0.288600	0.649550	0.901160
C13051	C1305	0.298430	0.648650	0.911250
C13061	C1306	0.293880	0.658300	0.920880
C13071	C1307	0.279210	0.669440	0.921020
C13081	C1308	0.134760	0.832910	0.998290
C13091	C1309	0.119810	0.844480	0.997790
C13101	C1310	0.109070	0.846720	0.988100
C13111	C1311	0.683720	0.912370	0.139720
C13121	C1312	0.114390	0.836540	0.978960
C13131	C1313	0.432310	0.825670	0.815510
C13141	C1314	0.129330	0.824970	0.979460
C13151	C1315	0.140070	0.822730	0.989150
C13161	C1316	0.368960	0.702710	0.088980
C13171	C1317	0.379480	0.699400	0.097120
C13181	C1318	0.092960	0.859200	0.987560
C13191	C1319	0.079680	0.869480	0.987100
C13201	C1320	0.293480	0.639250	0.890820
C13211	C1321	0.297460	0.630810	0.882240
C13221	C1322	0.404150	0.680430	0.107000
C13231	C1323	0.711760	0.949750	0.158400
C13241	C1324	0.318800	0.727490	0.817440
C13251	C1325	0.416140	0.676610	0.116070
C13261	C1326	0.417110	0.687390	0.125770
C13271	C1327	0.405180	0.702280	0.125720
C13281	C1328	0.393180	0.706090	0.116630
C13291	C1329	0.392280	0.695300	0.106950
C13301	C1330	0.053120	0.884890	0.976820
C13311	C1331	0.038210	0.896560	0.976290
C13321	C1332	0.032620	0.906180	0.985470
C13331	C1333	0.043090	0.903210	0.995210
C13341	C1334	0.057990	0.891530	0.995730
C13351	C1335	0.391940	0.503210	0.678680
C13361	C1336	0.318560	0.713200	0.817320
C13371	C1337	0.699940	0.926200	0.182170
C13381	C1338	0.063570	0.881970	0.986550
C13391	C1339	0.313150	0.605380	0.871010
C13401	C1340	0.317520	0.596210	0.861200
C13411	C1341	0.311080	0.601930	0.851550
C13421	C1342	0.300010	0.617340	0.852380
C13431	C1343	0.295680	0.626450	0.862150
C13441	C1344	0.302120	0.620800	0.871780
C13451	C1345	0.998910	0.978920	0.003100
C13461	C1346	0.016460	0.919520	0.984880
C13471	C1347	0.330760	0.698860	0.815820
C13481	C1348	0.972390	0.946030	0.005270
C13491	C1349	0.822910	0.830260	0.316250
C13501	C1350	0.961390	0.929560	0.962060
C13511	C1351	0.942980	0.988080	0.981690
C13521	C1352	0.986850	0.963560	0.962160
C13531	C1353	0.313040	0.331370	0.321730
C13541	C1354	0.306030	0.323460	0.312300
C13551	C1355	0.312260	0.314930	0.303010
C13561	C1356	0.326510	0.314500	0.303600
C13571	C1357	0.334390	0.322060	0.312770
C13581	C1358	0.343220	0.699470	0.814470
C13591	C1359	0.327150	0.330390	0.321610
C13601	C1360	0.310820	0.293910	0.285020
C13611	C1361	0.823620	0.815700	0.316680
C13621	C1362	0.303070	0.286270	0.275910
C13631	C1363	0.287600	0.290520	0.273740
C13641	C1364	0.280510	0.303060	0.281400
C13651	C1365	0.288220	0.310690	0.290500
C13661	C1366	0.303760	0.306470	0.292780
C13671	C1367	0.313720	0.343810	0.342280
C13681	C1368	0.306980	0.352220	0.351310
C13691	C1369	0.343460	0.713760	0.814600
C13701	C1370	0.291560	0.358230	0.350580
C13711	C1371	0.283390	0.355180	0.340120
C13721	C1372	0.290100	0.346750	0.331070
C13731	C1373	0.831870	0.808080	0.325570
C13741	C1374	0.305580	0.340690	0.331750
C13751	C1375	0.360150	0.324160	0.322940
C13761	C1376	0.374250	0.323790	0.323430
C13771	C1377	0.379650	0.320680	0.314290
C13781	C1378	0.369780	0.317910	0.304580
C13791	C1379	0.355650	0.318240	0.304060
C13801	C1380	0.916390	0.977260	0.148300
C13811	C1381	0.350130	0.321450	0.313230
C13821	C1382	0.284300	0.367310	0.360340
C13831	C1383	0.278310	0.374790	0.368360
C13841	C1384	0.279150	0.282290	0.263910
C13851	C1385	0.839540	0.815880	0.334520
C13861	C1386	0.272140	0.275580	0.255840
C13871	C1387	0.394930	0.320350	0.314900
C13881	C1388	0.407500	0.320110	0.315450
C13891	C1389	0.256860	0.385650	0.378250
C13901	C1390	0.250110	0.394070	0.387280
C13911	C1391	0.769900	0.870900	0.258540
C13921	C1392	0.257030	0.401350	0.396860
C13931	C1393	0.271210	0.399560	0.396720
C13941	C1394	0.277960	0.391150	0.387690
C13951	C1395	0.271040	0.383870	0.378110
C13961	C1396	0.430170	0.312830	0.307570
C13971	C1397	0.839280	0.830660	0.334740
C13981	C1398	0.444310	0.312570	0.308220
C13991	C1399	0.452220	0.319270	0.317510
C14001	C1400	0.444850	0.326260	0.326100
C14011	C1401	0.430720	0.326520	0.325450
C14021	C1402	0.331260	0.728100	0.816090
C14031	C1403	0.422800	0.319820	0.316150
C14041	C1404	0.248640	0.270140	0.244870
C14051	C1405	0.240720	0.262630	0.235820
C14061	C1406	0.247080	0.251800	0.227210
C14071	C1407	0.262010	0.249100	0.228380
C14081	C1408	0.269940	0.256610	0.237430
C14091	C1409	0.891160	0.974070	0.149190
C14101	C1410	0.830810	0.837490	0.325420
C14111	C1411	0.263570	0.267440	0.246050
C14121	C1412	0.249740	0.410430	0.406600
C14131	C1413	0.233200	0.942750	0.821160
C14141	C1414	0.243700	0.417880	0.414600
C14151	C1415	0.238490	0.243680	0.217410
C14161	C1416	0.231420	0.237000	0.209370
C14171	C1417	0.467520	0.318980	0.318220
C14181	C1418	0.480090	0.318730	0.318760
C14191	C1419	0.241330	0.436880	0.433040
C14201	C1420	0.234310	0.445210	0.441970
C14211	C1421	0.221670	0.444140	0.442790
C14221	C1422	0.833930	0.786850	0.334550
C14231	C1423	0.216640	0.434120	0.434000
C14241	C1424	0.219290	0.955790	0.821490
C14251	C1425	0.223650	0.425810	0.425110
C14261	C1426	0.236240	0.426880	0.424280
C14271	C1427	0.208580	0.230090	0.199100
C14281	C1428	0.200630	0.222510	0.190130
C14291	C1429	0.206220	0.213120	0.180890
C14301	C1430	0.220460	0.211950	0.181380
C14311	C1431	0.228400	0.219540	0.190360
C14321	C1432	0.222800	0.228890	0.199600
C14331	C1433	0.504260	0.323420	0.328880
C14341	C1434	0.833750	0.772290	0.334100
C14351	C1435	0.206090	0.954090	0.819940
C14361	C1436	0.518380	0.323090	0.329360
C14371	C1437	0.524750	0.317680	0.320330
C14381	C1438	0.515820	0.312660	0.310820
C14391	C1439	0.501740	0.312990	0.310350
C14401	C1440	0.495370	0.318390	0.319350
C14411	C1441	0.162260	0.234690	0.488220
C14421	C1442	0.158020	0.225350	0.478580
C14431	C1443	0.155820	0.228420	0.468450
C14441	C1444	0.158190	0.241340	0.468170
C14451	C1445	0.162540	0.251050	0.477640
C14461	C1446	0.381800	0.507850	0.669230
C14471	C1447	0.207590	0.938610	0.818060
C14481	C1448	0.831910	0.761860	0.324420
C14491	C1449	0.164450	0.247470	0.487550
C14501	C1450	0.155650	0.214710	0.448690
C14511	C1451	0.151580	0.204630	0.439420
C14521	C1452	0.142780	0.197290	0.439190
C14531	C1453	0.138140	0.200510	0.448590
C14541	C1454	0.142200	0.210530	0.457860
C14551	C1455	0.151140	0.217860	0.458200
C14561	C1456	0.174970	0.234020	0.508050
C14571	C1457	0.177020	0.230490	0.517980
C14581	C1458	0.221500	0.925580	0.817730
C14591	C1459	0.168600	0.223870	0.519370
C14601	C1460	0.830360	0.766800	0.315230
C14611	C1461	0.158040	0.220940	0.510460
C14621	C1462	0.155990	0.224420	0.500520
C14631	C1463	0.164420	0.231040	0.499050
C14641	C1464	0.175410	0.270100	0.485330
C14651	C1465	0.177580	0.283130	0.485180
C14661	C1466	0.169520	0.291880	0.477050
C14671	C1467	0.159210	0.286950	0.469010
C14681	C1468	0.157030	0.273880	0.469110
C14691	C1469	0.234700	0.927280	0.819270
C14701	C1470	0.165030	0.265110	0.477310
C14711	C1471	0.170780	0.220090	0.529870
C14721	C1472	0.830500	0.781320	0.315650
C14731	C1473	0.172560	0.216920	0.538590
C14741	C1474	0.138520	0.186480	0.429420
C14751	C1475	0.134920	0.177480	0.421360
C14761	C1476	0.171830	0.305790	0.477000
C14771	C1477	0.173810	0.317340	0.477020
C14781	C1478	0.170660	0.201680	0.549620
C14791	C1479	0.172670	0.198020	0.559490
C14801	C1480	0.476280	0.821530	0.814830
C14811	C1481	0.178780	0.205610	0.569170
C14821	C1482	0.182800	0.217000	0.568600
C14831	C1483	0.180790	0.220660	0.558730
C14841	C1484	0.832190	0.791950	0.325310
C14851	C1485	0.174690	0.213060	0.549060
C14861	C1486	0.173060	0.336460	0.467650
C14871	C1487	0.175350	0.349530	0.467700
C14881	C1488	0.180920	0.357950	0.477200
C14891	C1489	0.184100	0.352720	0.486630
C14901	C1490	0.181800	0.339650	0.486580
C14911	C1491	0.488690	0.820430	0.814630
C14921	C1492	0.176230	0.331240	0.477080
C14931	C1493	0.128190	0.154220	0.412570
C14941	C1494	0.124050	0.144000	0.403460
C14951	C1495	0.122120	0.145750	0.393080
C14961	C1496	0.807000	0.854030	0.306410
C14971	C1497	0.124510	0.158140	0.392190
C14981	C1498	0.128640	0.168350	0.401300
C14991	C1499	0.130570	0.166610	0.411680
C15001	C1500	0.180930	0.201670	0.579610
C15011	C1501	0.182710	0.198290	0.588250
C15021	C1502	0.191220	0.968030	0.820290
C15031	C1503	0.117650	0.134960	0.383390
C15041	C1504	0.113870	0.126120	0.375300
C15051	C1505	0.183350	0.371830	0.477240
C15061	C1506	0.185330	0.383350	0.477210
C15071	C1507	0.188800	0.178570	0.599120
C15081	C1508	0.798380	0.860680	0.297100
C15091	C1509	0.190420	0.174430	0.608700
C15101	C1510	0.188170	0.185560	0.618160
C15111	C1511	0.184340	0.201020	0.617610
C15121	C1512	0.182710	0.205140	0.607990
C15131	C1513	0.897140	0.870850	0.399380
C15141	C1514	0.184810	0.194000	0.598550
C15151	C1515	0.100580	0.121430	0.356040
C15161	C1516	0.095860	0.111890	0.346750
C15171	C1517	0.099510	0.096130	0.346420
C15181	C1518	0.108180	0.090360	0.355850
C15191	C1519	0.112900	0.099970	0.365170
C15201	C1520	0.796060	0.851500	0.286910
C15211	C1521	0.109140	0.115720	0.365450
C15221	C1522	0.192030	0.406690	0.486410
C15231	C1523	0.193980	0.419840	0.486150
C15241	C1524	0.178930	0.979600	0.820580
C15251	C1525	0.191620	0.424090	0.476470
C15261	C1526	0.187300	0.414500	0.467100
C15271	C1527	0.185370	0.401390	0.467380
C15281	C1528	0.187630	0.397210	0.477020
C15291	C1529	0.425160	0.481190	0.637240
C15301	C1530	0.414360	0.479560	0.627420
C15311	C1531	0.399250	0.482710	0.627190
C15321	C1532	0.330510	0.683660	0.815690
C15331	C1533	0.330310	0.671030	0.815580
C15341	C1534	0.386100	0.503270	0.659310
C15351	C1535	0.516880	0.805850	0.815960
C15361	C1536	0.530810	0.804880	0.815710
C15371	C1537	0.532250	0.817320	0.813820
C15381	C1538	0.518940	0.830730	0.812210
C15391	C1539	0.505060	0.831670	0.812470
C15401	C1540	0.503620	0.819280	0.814350
C15411	C1541	0.150980	0.992270	0.820130
C15421	C1542	0.904950	0.878460	0.408310
C15431	C1543	0.136310	0.006250	0.820460
C15441	C1544	0.134810	0.021590	0.821600
C15451	C1545	0.813780	0.837750	0.306100
C15461	C1546	0.147990	0.022890	0.822400
C15471	C1547	0.162630	0.008930	0.822070
C15481	C1548	0.164120	0.993640	0.820930
C15491	C1549	0.342300	0.641500	0.813890
C15501	C1550	0.342150	0.627170	0.813790
C15511	C1551	0.329780	0.626460	0.815240
C15521	C1552	0.317560	0.640810	0.816780
C15531	C1553	0.317730	0.655130	0.816880
C15541	C1554	0.904130	0.893330	0.408780
C15551	C1555	0.330100	0.655800	0.815440
C15561	C1556	0.400880	0.493740	0.658190
C15571	C1557	0.329940	0.536070	0.816060
C15581	C1558	0.343550	0.556450	0.790620
C15591	C1559	0.291060	0.585050	0.799850
C15601	C1560	0.329710	0.610900	0.815240
C15611	C1561	0.316030	0.592630	0.840800
C15621	C1562	0.368610	0.560870	0.831740
C15631	C1563	0.412670	0.894130	0.630360
C15641	C1564	0.422230	0.890360	0.640300
C15651	C1565	0.419980	0.900500	0.650260
C15661	C1566	0.894980	0.900080	0.399730
C15671	C1567	0.489550	0.469430	0.641200
C15681	C1568	0.407320	0.915050	0.650100
C15691	C1569	0.397100	0.919730	0.640460
C15701	C1570	0.400070	0.908870	0.630670
C15711	C1571	0.426760	0.900490	0.670660
C15721	C1572	0.436960	0.895660	0.680200
C15731	C1573	0.452010	0.885760	0.680470
C15741	C1574	0.456340	0.881000	0.670710
C15751	C1575	0.446190	0.885770	0.661180
C15761	C1576	0.431040	0.895620	0.660810
C15771	C1577	0.405270	0.880840	0.610530
C15781	C1578	0.503020	0.467090	0.642440
C15791	C1579	0.887170	0.892470	0.390800
C15801	C1580	0.408790	0.869500	0.601120
C15811	C1581	0.423470	0.859020	0.600350
C15821	C1582	0.434400	0.860640	0.609470
C15831	C1583	0.430930	0.871890	0.618860
C15841	C1584	0.416240	0.882320	0.619780
C15851	C1585	0.370140	0.939030	0.632800
C15861	C1586	0.357710	0.953820	0.633240
C15871	C1587	0.357720	0.966640	0.641620
C15881	C1588	0.370970	0.963750	0.649500
C15891	C1589	0.350780	0.477460	0.587290
C15901	C1590	0.383380	0.949000	0.649080
C15911	C1591	0.887990	0.877600	0.390330
C15921	C1592	0.383450	0.936030	0.640740
C15931	C1593	0.427410	0.846750	0.590400
C15941	C1594	0.430890	0.836500	0.582250
C15951	C1595	0.462930	0.880510	0.690590
C15961	C1596	0.472070	0.876090	0.698930
C15971	C1597	0.344420	0.982520	0.642180
C15981	C1598	0.333500	0.995670	0.642710
C15991	C1599	0.449620	0.812090	0.572730
C16001	C1600	0.802920	0.835300	0.286540
C16011	C1601	0.340360	0.476500	0.579230
C16021	C1602	0.453720	0.800460	0.563590
C16031	C1603	0.443680	0.800110	0.553640
C16041	C1604	0.823840	0.710510	0.313080
C16051	C1605	0.429310	0.812080	0.553360
C16061	C1606	0.425200	0.823710	0.562500
C16071	C1607	0.435240	0.824060	0.572450
C16081	C1608	0.318570	0.022520	0.653050
C16091	C1609	0.306290	0.037390	0.653700
C16101	C1610	0.294950	0.042310	0.644730
C16111	C1611	0.296670	0.031410	0.635070
C16121	C1612	0.387330	0.508130	0.689300
C16131	C1613	0.308960	0.016540	0.634420
C16141	C1614	0.320300	0.011620	0.643390
C16151	C1615	0.496540	0.857360	0.708620
C16161	C1616	0.823490	0.695950	0.312320
C16171	C1617	0.506930	0.852320	0.718030
C16181	C1618	0.504450	0.860380	0.728300
C16191	C1619	0.491050	0.873720	0.728660
C16201	C1620	0.480670	0.878760	0.719240
C16211	C1621	0.483140	0.870710	0.708980
C16221	C1622	0.448090	0.787650	0.543860
C16231	C1623	0.383520	0.512200	0.698080
C16241	C1624	0.451760	0.777320	0.535790
C16251	C1625	0.515490	0.855020	0.738360
C16261	C1626	0.524510	0.850710	0.746770
C16271	C1627	0.281770	0.058270	0.645420
C16281	C1628	0.830220	0.687840	0.320880
C16291	C1629	0.270880	0.071450	0.645990
C16301	C1630	0.446280	0.764180	0.516100
C16311	C1631	0.450430	0.752280	0.507080
C16321	C1632	0.464840	0.740280	0.507470
C16331	C1633	0.474820	0.740980	0.517440
C16341	C1634	0.526750	0.458530	0.635510
C16351	C1635	0.470650	0.752870	0.526450
C16361	C1636	0.456250	0.764780	0.526070
C16371	C1637	0.530850	0.852970	0.766900
C16381	C1638	0.540390	0.848390	0.776620
C16391	C1639	0.554790	0.836370	0.777130
C16401	C1640	0.869940	0.980550	0.158200
C16411	C1641	0.837310	0.695160	0.330240
C16421	C1642	0.559120	0.829220	0.767290
C16431	C1643	0.549490	0.833840	0.757510
C16441	C1644	0.535070	0.845790	0.757080
C16451	C1645	0.541910	0.455990	0.637000
C16461	C1646	0.247300	0.093030	0.637540
C16471	C1647	0.234940	0.107840	0.638160
C16481	C1648	0.232180	0.118020	0.647960
C16491	C1649	0.242620	0.112380	0.657100
C16501	C1650	0.254970	0.097550	0.656460
C16511	C1651	0.257690	0.087400	0.646670
C16521	C1652	0.335540	0.303860	0.817350
C16531	C1653	0.837660	0.709730	0.331000
C16541	C1654	0.327660	0.296600	0.808190
C16551	C1655	0.319190	0.303400	0.798850
C16561	C1656	0.550880	0.459060	0.647130
C16571	C1657	0.318930	0.318180	0.799060
C16581	C1658	0.326580	0.326010	0.808000
C16591	C1659	0.334820	0.318410	0.816910
C16601	C1660	0.297980	0.303240	0.781590
C16611	C1661	0.290150	0.295650	0.772660
C16621	C1662	0.294290	0.279390	0.770380
C16631	C1663	0.306810	0.271200	0.777650
C16641	C1664	0.314650	0.278750	0.786600
C16651	C1665	0.830940	0.717840	0.322440
C16661	C1666	0.310550	0.295090	0.788950
C16671	C1667	0.843820	0.855280	0.347020
C16681	C1668	0.346900	0.305600	0.837810
C16691	C1669	0.355480	0.299000	0.847100
C16701	C1670	0.362400	0.282810	0.846780
C16711	C1671	0.360120	0.273570	0.836600
C16721	C1672	0.351490	0.280160	0.827270
C16731	C1673	0.344660	0.296430	0.827540
C16741	C1674	0.327910	0.352780	0.817930
C16751	C1675	0.328070	0.367290	0.818350
C16761	C1676	0.326570	0.372220	0.809170
C16771	C1677	0.742950	0.890630	0.229070
C16781	C1678	0.543530	0.464860	0.655650
C16791	C1679	0.324750	0.361780	0.799490
C16801	C1680	0.324560	0.347230	0.799030
C16811	C1681	0.326250	0.342140	0.808260
C16821	C1682	0.371680	0.275880	0.856790
C16831	C1683	0.379340	0.270310	0.865130
C16841	C1684	0.285880	0.271230	0.760770
C16851	C1685	0.278950	0.264490	0.752850
C16861	C1686	0.326900	0.387770	0.809780
C16871	C1687	0.327220	0.400640	0.810400
C16881	C1688	0.390590	0.249040	0.876410
C16891	C1689	0.528380	0.467390	0.654160
C16901	C1690	0.735380	0.896340	0.220770
C16911	C1691	0.399230	0.242820	0.885870
C16921	C1692	0.406360	0.250850	0.894700
C16931	C1693	0.404360	0.265450	0.893530
C16941	C1694	0.395730	0.271660	0.884070
C16951	C1695	0.388590	0.263640	0.875240
C16961	C1696	0.320630	0.424540	0.802750
C16971	C1697	0.321010	0.439100	0.803530
C16981	C1698	0.328390	0.446220	0.812820
C16991	C1699	0.335390	0.437920	0.821290
C17001	C1700	0.519400	0.464330	0.644040
C17011	C1701	0.335010	0.423360	0.820510
C17021	C1702	0.829850	0.672240	0.320080
C17031	C1703	0.327620	0.416230	0.811220
C17041	C1704	0.271380	0.241420	0.742790
C17051	C1705	0.263580	0.233800	0.733860
C17061	C1706	0.254440	0.240520	0.724800
C17071	C1707	0.253610	0.255400	0.725260
C17081	C1708	0.261410	0.263020	0.734190
C17091	C1709	0.270560	0.256290	0.743250
C17101	C1710	0.415570	0.244180	0.904810
C17111	C1711	0.395520	0.487190	0.637360
C17121	C1712	0.364870	0.519380	0.709360
C17131	C1713	0.423140	0.238540	0.913140
C17141	C1714	0.246070	0.232300	0.715200
C17151	C1715	0.829570	0.659360	0.319480
C17161	C1716	0.239200	0.225450	0.707310
C17171	C1717	0.328790	0.461820	0.813640
C17181	C1718	0.329090	0.474700	0.814270
C17191	C1719	0.441980	0.237070	0.931310
C17201	C1720	0.450380	0.230180	0.940570
C17211	C1721	0.449390	0.217250	0.942130
C17221	C1722	0.439500	0.211740	0.933900
C17231	C1723	0.360580	0.523970	0.719290
C17241	C1724	0.431160	0.218610	0.924710
C17251	C1725	0.432140	0.231450	0.923110
C17261	C1726	0.220580	0.223940	0.689090
C17271	C1727	0.912510	0.901520	0.418370
C17281	C1728	0.212870	0.215980	0.680320
C17291	C1729	0.215060	0.200500	0.679690
C17301	C1730	0.225470	0.193600	0.688430
C17311	C1731	0.233140	0.201550	0.697160
C17321	C1732	0.230950	0.216990	0.697810
C17331	C1733	0.324620	0.496890	0.805770
C17341	C1734	0.370100	0.526570	0.729150
C17351	C1735	0.324830	0.511380	0.806230
C17361	C1736	0.329830	0.520240	0.815830
C17371	C1737	0.334620	0.513620	0.824980
C17381	C1738	0.334390	0.499060	0.824500
C17391	C1739	0.919400	0.908350	0.426260
C17401	C1740	0.329380	0.490270	0.814880
C17411	C1741	0.739560	0.173540	0.976970
C17421	C1742	0.738130	0.188660	0.976990
C17431	C1743	0.724400	0.202000	0.976820
C17441	C1744	0.711790	0.199920	0.976500
C17451	C1745	0.384160	0.524310	0.728510
C17461	C1746	0.712340	0.185350	0.976540
C17471	C1747	0.726350	0.172230	0.976660
C17481	C1748	0.712430	0.232020	0.981880
C17491	C1749	0.710470	0.247150	0.981750
C17501	C1750	0.718780	0.249520	0.976690
C17511	C1751	0.727230	0.916500	0.209350
C17521	C1752	0.729320	0.236020	0.971860
C17531	C1753	0.731340	0.220820	0.972000
C17541	C1754	0.722840	0.218400	0.976940
C17551	C1755	0.756420	0.143700	0.973030
C17561	C1756	0.388450	0.519710	0.718580
C17571	C1757	0.770500	0.130760	0.973300
C17581	C1758	0.783940	0.132520	0.977960
C17591	C1759	0.782520	0.147940	0.982360
C17601	C1760	0.768490	0.160880	0.982090
C17611	C1761	0.754920	0.159240	0.977380
C17621	C1762	0.694690	0.171210	0.971230
C17631	C1763	0.857480	0.978790	0.158760
C17641	C1764	0.718880	0.923450	0.200190
C17651	C1765	0.680980	0.171020	0.970760
C17661	C1766	0.669890	0.183900	0.975540
C17671	C1767	0.378930	0.517110	0.708710
C17681	C1768	0.673230	0.196870	0.980910
C17691	C1769	0.686840	0.197110	0.981370
C17701	C1770	0.697940	0.184380	0.976450
C17711	C1771	0.799020	0.118740	0.978250
C17721	C1772	0.811540	0.107410	0.978520
C17731	C1773	0.716420	0.265710	0.976500
C17741	C1774	0.714290	0.279240	0.976400
C17751	C1775	0.655160	0.184020	0.974980
C17761	C1776	0.709100	0.917860	0.191890
C17771	C1777	0.642850	0.184410	0.974610
C17781	C1778	0.329220	0.470800	0.558770
C17791	C1779	0.839800	0.095810	0.980780
C17801	C1780	0.853970	0.083050	0.981100
C17811	C1781	0.855840	0.067500	0.979520
C17821	C1782	0.842730	0.065440	0.977600
C17831	C1783	0.828560	0.078200	0.977280
C17841	C1784	0.826690	0.093750	0.978850
C17851	C1785	0.615780	0.199330	0.976070
C17861	C1786	0.601780	0.200000	0.975720
C17871	C1787	0.599280	0.186440	0.973480
C17881	C1788	0.708240	0.904790	0.193340
C17891	C1789	0.851670	0.862810	0.355970
C17901	C1790	0.611440	0.172190	0.971610
C17911	C1791	0.625440	0.171530	0.971970
C17921	C1792	0.627940	0.185080	0.974200
C17931	C1793	0.722780	0.299040	0.975500
C17941	C1794	0.720280	0.314420	0.975440
C17951	C1795	0.706510	0.327020	0.976200
C17961	C1796	0.695360	0.323570	0.977010
C17971	C1797	0.697860	0.308190	0.977070
C17981	C1798	0.711630	0.295580	0.976310
C17991	C1799	0.871000	0.053840	0.979880
C18001	C1800	0.317390	0.469830	0.549760
C18011	C1801	0.716650	0.897820	0.202560
C18021	C1802	0.883520	0.042520	0.980170
C18031	C1803	0.703900	0.343360	0.976140
C18041	C1804	0.701880	0.356870	0.976100
C18051	C1805	0.584380	0.187130	0.973130
C18061	C1806	0.572080	0.187600	0.972850
C18071	C1807	0.900730	0.013760	0.980870
C18081	C1808	0.914810	0.000880	0.981220
C18091	C1809	0.927660	0.002230	0.981250
C18101	C1810	0.925540	0.017290	0.980900
C18111	C1811	0.303030	0.473390	0.550750
C18121	C1812	0.911430	0.030180	0.980550
C18131	C1813	0.726370	0.903520	0.210830
C18141	C1814	0.898630	0.028770	0.980530
C18151	C1815	0.686170	0.386040	0.976370
C18161	C1816	0.684430	0.401190	0.976340
C18171	C1817	0.696290	0.403940	0.975980
C18181	C1818	0.709880	0.390830	0.975640
C18191	C1819	0.711580	0.375780	0.975670
C18201	C1820	0.699800	0.373010	0.976040
C18211	C1821	0.556160	0.174500	0.972850
C18221	C1822	0.405630	0.488800	0.647310
C18231	C1823	0.301430	0.478010	0.561460
C18241	C1824	0.542470	0.174640	0.972630
C18251	C1825	0.529180	0.188230	0.972070
C18261	C1826	0.834240	0.637090	0.327970
C18271	C1827	0.530350	0.201700	0.971710
C18281	C1828	0.544110	0.201530	0.971940
C18291	C1829	0.557350	0.187920	0.972530
C18301	C1830	0.067400	0.050330	0.330290
C18311	C1831	0.056710	0.045030	0.289100
C18321	C1832	0.040110	0.099990	0.313070
C18331	C1833	0.085320	0.078830	0.295310
C18341	C1834	0.313250	0.478980	0.570470
C18351	C1835	0.093580	0.086320	0.336370
C18361	C1836	0.111980	0.029420	0.312470
C18371	C1837	0.845810	0.802130	0.811920
C18381	C1838	0.834050	0.622580	0.327520
C18391	C1839	0.831700	0.803120	0.812060
C18401	C1840	0.824460	0.811500	0.820890
C18411	C1841	0.832340	0.819070	0.830040
C18421	C1842	0.846600	0.818630	0.830620
C18431	C1843	0.852820	0.810060	0.821330
C18441	C1844	0.803190	0.815300	0.829580
C18451	C1845	0.327600	0.475420	0.569480
C18461	C1846	0.789070	0.815610	0.829050
C18471	C1847	0.779220	0.812830	0.819340
C18481	C1848	0.784620	0.809740	0.810200
C18491	C1849	0.798720	0.809390	0.810710
C18501	C1850	0.828910	0.613800	0.317940
C18511	C1851	0.808720	0.812100	0.820420
C18521	C1852	0.868730	0.786660	0.802570
C18531	C1853	0.875420	0.778190	0.793530
C18541	C1854	0.867230	0.775140	0.783080
C18551	C1855	0.851810	0.781210	0.782350
C18561	C1856	0.567250	0.456320	0.648730
C18571	C1857	0.845090	0.789660	0.791380
C18581	C1858	0.853250	0.792770	0.801910
C18591	C1859	0.870640	0.822880	0.843080
C18601	C1860	0.878370	0.830540	0.852160
C18611	C1861	0.871290	0.843110	0.859810
C18621	C1862	0.823960	0.620500	0.308810
C18631	C1863	0.855830	0.847370	0.857650
C18641	C1864	0.848060	0.839710	0.848570
C18651	C1865	0.855100	0.827120	0.840820
C18661	C1866	0.874470	0.766010	0.773320
C18671	C1867	0.580720	0.454060	0.650010
C18681	C1868	0.880430	0.758490	0.765290
C18691	C1869	0.763950	0.813130	0.818710
C18701	C1870	0.751380	0.813350	0.818130
C18711	C1871	0.879760	0.851360	0.869610
C18721	C1872	0.886790	0.858090	0.877640
C18731	C1873	0.880710	0.742110	0.745980
C18741	C1874	0.824160	0.635060	0.309280
C18751	C1875	0.887430	0.733640	0.736940
C18761	C1876	0.901620	0.731790	0.736790
C18771	C1877	0.908580	0.739050	0.746340
C18781	C1878	0.290250	0.472350	0.541020
C18791	C1879	0.901870	0.747510	0.755380
C18801	C1880	0.887680	0.749360	0.755540
C18811	C1881	0.889540	0.875980	0.896480
C18821	C1882	0.897480	0.883510	0.905500
C18831	C1883	0.911920	0.881920	0.906180
C18841	C1884	0.917750	0.872200	0.897100
C18851	C1885	0.909810	0.864670	0.888080
C18861	C1886	0.851750	0.968590	0.150930
C18871	C1887	0.829310	0.643780	0.318880
C18881	C1888	0.895380	0.866250	0.887410
C18891	C1889	0.279710	0.471490	0.533020
C18901	C1890	0.728110	0.807080	0.808040
C18911	C1891	0.713980	0.807310	0.807360
C18921	C1892	0.706680	0.814090	0.815980
C18931	C1893	0.714660	0.820610	0.825330
C18941	C1894	0.728790	0.820380	0.826020
C18951	C1895	0.736090	0.813600	0.817400
C18961	C1896	0.908880	0.722660	0.727040
C18971	C1897	0.914900	0.715170	0.719030
C18981	C1898	0.691390	0.814340	0.815240
C18991	C1899	0.925660	0.932130	0.436340
C19001	C1900	0.365510	0.531510	0.739790
C19011	C1901	0.678830	0.814560	0.814670
C19021	C1902	0.920530	0.890060	0.915940
C19031	C1903	0.927610	0.896750	0.923960
C19041	C1904	0.934760	0.707390	0.708400
C19051	C1905	0.941740	0.699060	0.699510
C19061	C1906	0.936860	0.688800	0.690840
C19071	C1907	0.924380	0.687540	0.691780
C19081	C1908	0.917380	0.695910	0.700710
C19091	C1909	0.922330	0.706140	0.709360
C19101	C1910	0.657270	0.820080	0.823090
C19111	C1911	0.864220	0.854590	0.363200
C19121	C1912	0.933350	0.940050	0.445070
C19131	C1913	0.643200	0.820380	0.822610
C19141	C1914	0.634200	0.815520	0.813070
C19151	C1915	0.640490	0.810320	0.804020
C19161	C1916	0.654600	0.810020	0.804510
C19171	C1917	0.663550	0.814880	0.814070
C19181	C1918	0.950580	0.903450	0.934270
C19191	C1919	0.958530	0.911050	0.943230
C19201	C1920	0.952820	0.920690	0.952390
C19211	C1921	0.938470	0.922100	0.951820
C19221	C1922	0.361740	0.535610	0.748590
C19231	C1923	0.930530	0.914500	0.942860
C19241	C1924	0.943600	0.933200	0.453870
C19251	C1925	0.936240	0.904890	0.933710
C19261	C1926	0.844770	0.299940	0.821800
C19271	C1927	0.836510	0.306400	0.812270
C19281	C1928	0.822400	0.319540	0.811600
C19291	C1929	0.816600	0.326370	0.821010
C19301	C1930	0.823830	0.320700	0.830770
C19311	C1931	0.837990	0.307490	0.830940
C19321	C1932	0.797740	0.334330	0.798880
C19331	C1933	0.420230	0.485730	0.646940
C19341	C1934	0.606510	0.453540	0.661540
C19351	C1935	0.789420	0.341070	0.789600
C19361	C1936	0.796110	0.340440	0.781880
C19371	C1937	0.945600	0.917810	0.453310
C19381	C1938	0.811700	0.332470	0.784000
C19391	C1939	0.820080	0.325660	0.793300
C19401	C1940	0.813400	0.326460	0.801150
C19411	C1941	0.866600	0.275180	0.829550
C19421	C1942	0.880600	0.261860	0.829670
C19431	C1943	0.889540	0.257550	0.822370
C19441	C1944	0.883420	0.267580	0.814960
C19451	C1945	0.621620	0.451060	0.662800
C19461	C1946	0.869430	0.280870	0.814810
C19471	C1947	0.860350	0.285270	0.822090
C19481	C1948	0.824070	0.329620	0.851420
C19491	C1949	0.937870	0.909880	0.444540
C19501	C1950	0.816840	0.337840	0.860210
C19511	C1951	0.801270	0.345930	0.858850
C19521	C1952	0.793430	0.345130	0.848130
C19531	C1953	0.800600	0.336990	0.839370
C19541	C1954	0.816210	0.329020	0.840630
C19551	C1955	0.904650	0.243180	0.822470
C19561	C1956	0.628440	0.446080	0.654060
C19571	C1957	0.917090	0.231360	0.822510
C19581	C1958	0.787020	0.347870	0.771990
C19591	C1959	0.779370	0.354070	0.763860
C19601	C1960	0.793340	0.354920	0.868180
C19611	C1961	0.927660	0.916780	0.435750
C19621	C1962	0.786600	0.362420	0.875770
C19631	C1963	0.937670	0.208350	0.813170
C19641	C1964	0.951670	0.195060	0.813190
C19651	C1965	0.961270	0.189420	0.822580
C19661	C1966	0.955800	0.198080	0.831950
C19671	C1967	0.618950	0.443810	0.644010
C19681	C1968	0.941800	0.211360	0.831920
C19691	C1969	0.932200	0.217010	0.822530
C19701	C1970	0.763550	0.382880	0.883320
C19711	C1971	0.755820	0.391370	0.891810
C19721	C1972	0.762330	0.389120	0.902460
C19731	C1973	0.192940	0.438720	0.475990
C19741	C1974	0.777090	0.377790	0.904050
C19751	C1975	0.784830	0.369300	0.895560
C19761	C1976	0.778310	0.371550	0.884910
C19771	C1977	0.775020	0.356930	0.744520
C19781	C1978	0.603890	0.446290	0.642760
C19791	C1979	0.766280	0.363980	0.735380
C19801	C1980	0.752000	0.376170	0.735190
C19811	C1981	0.747010	0.380870	0.744720
C19821	C1982	0.755750	0.373820	0.753860
C19831	C1983	0.770020	0.361630	0.754050
C19841	C1984	0.976380	0.175070	0.822600
C19851	C1985	0.171720	0.496630	0.495470
C19861	C1986	0.988820	0.163260	0.822610
C19871	C1987	0.742640	0.383720	0.725380
C19881	C1988	0.734930	0.389940	0.717260
C19891	C1989	0.597060	0.451280	0.651470
C19901	C1990	0.754020	0.398240	0.911590
C19911	C1991	0.747180	0.405740	0.919120
C19921	C1992	0.013910	0.143690	0.832030
C19931	C1993	0.027890	0.130380	0.832010
C19941	C1994	0.032980	0.121240	0.822560
C19951	C1995	0.022970	0.126470	0.813130
C19961	C1996	0.009000	0.139780	0.813160
C19971	C1997	0.228270	0.468820	0.495160
C19981	C1998	0.003930	0.148900	0.822600
C19991	C1999	0.711540	0.409870	0.707150
C20001	C2000	0.255430	0.467040	0.523840
C20011	C2001	0.703040	0.416940	0.697980
C20021	C2002	0.708160	0.411960	0.688460
C20031	C2003	0.722300	0.399460	0.688740
C20041	C2004	0.730770	0.392420	0.697900
C20051	C2005	0.725690	0.397420	0.707410
C20061	C2006	0.743300	0.409210	0.937850
C20071	C2007	0.735640	0.417450	0.946380
C20081	C2008	0.723090	0.431850	0.945970
C20091	C2009	0.859140	0.960260	0.142490
C20101	C2010	0.193880	0.511350	0.472440
C20111	C2011	0.243450	0.466260	0.514920
C20121	C2012	0.718740	0.437420	0.936410
C20131	C2013	0.726420	0.429140	0.927870
C20141	C2014	0.738940	0.414740	0.928300
C20151	C2015	0.952550	0.398770	0.656770
C20161	C2016	0.953170	0.412900	0.657020
C20171	C2017	0.940750	0.427410	0.657330
C20181	C2018	0.927070	0.427630	0.657300
C20191	C2019	0.925460	0.413960	0.657030
C20201	C2020	0.938450	0.399530	0.656630
C20211	C2021	0.930670	0.454770	0.652860
C20221	C2022	0.241980	0.468790	0.504750
C20231	C2023	0.213550	0.453300	0.452400
C20241	C2024	0.932330	0.468320	0.653100
C20251	C2025	0.945620	0.470170	0.658210
C20261	C2026	0.957150	0.457930	0.663120
C20271	C2027	0.955540	0.444380	0.662870
C20281	C2028	0.942270	0.442370	0.657710
C20291	C2029	0.967320	0.368640	0.651300
C20301	C2030	0.980860	0.355060	0.650820
C20311	C2031	0.994840	0.355540	0.655750
C20321	C2032	0.994530	0.370250	0.661310
C20331	C2033	0.868390	0.838320	0.360900
C20341	C2034	0.981090	0.383780	0.661770
C20351	C2035	0.156950	0.483800	0.454510
C20361	C2036	0.967020	0.383500	0.656690
C20371	C2037	0.905240	0.403010	0.652410
C20381	C2038	0.890910	0.404630	0.652360
C20391	C2039	0.880590	0.418480	0.657190
C20401	C2040	0.885460	0.430540	0.662160
C20411	C2041	0.899700	0.428970	0.662200
C20421	C2042	0.910080	0.415210	0.657250
C20431	C2043	0.009420	0.341280	0.655200
C20441	C2044	0.371530	0.490060	0.616270
C20451	C2045	0.253480	0.472170	0.504230
C20461	C2046	0.021640	0.329670	0.654840
C20471	C2047	0.947480	0.484480	0.658450
C20481	C2048	0.233440	0.718630	0.476550
C20491	C2049	0.949140	0.496310	0.658680
C20501	C2050	0.865200	0.420450	0.657130
C20511	C2051	0.852420	0.422290	0.657140
C20521	C2052	0.049760	0.317570	0.656530
C20531	C2053	0.063680	0.304580	0.656210
C20541	C2054	0.065100	0.289080	0.653790
C20551	C2055	0.051830	0.287270	0.651720
C20561	C2056	0.265470	0.472950	0.513170
C20571	C2057	0.037900	0.300260	0.652050
C20581	C2058	0.036490	0.315770	0.654460
C20591	C2059	0.825510	0.439590	0.659070
C20601	C2060	0.220470	0.733080	0.476960
C20611	C2061	0.811050	0.441810	0.659140
C20621	C2062	0.807190	0.429210	0.657320
C20631	C2063	0.818620	0.414270	0.655440
C20641	C2064	0.833080	0.412050	0.655370
C20651	C2065	0.836950	0.424640	0.657190
C20661	C2066	0.965260	0.509940	0.660050
C20671	C2067	0.266880	0.470470	0.523320
C20681	C2068	0.967220	0.523320	0.660350
C20691	C2069	0.955200	0.537870	0.659580
C20701	C2070	0.941150	0.538460	0.658510
C20711	C2071	0.939190	0.525080	0.658210
C20721	C2072	0.206340	0.733880	0.476800
C20731	C2073	0.951210	0.510530	0.658970
C20741	C2074	0.079970	0.275190	0.653460
C20751	C2075	0.092240	0.263630	0.653180
C20761	C2076	0.957250	0.552110	0.659910
C20771	C2077	0.958860	0.563990	0.660180
C20781	C2078	0.363780	0.548830	0.768370
C20791	C2079	0.791720	0.431570	0.657400
C20801	C2080	0.778960	0.433430	0.657470
C20811	C2081	0.108570	0.234610	0.652950
C20821	C2082	0.122230	0.221310	0.652620
C20831	C2083	0.135140	0.222100	0.652170
C20841	C2084	0.205690	0.719750	0.476530
C20851	C2085	0.133560	0.237050	0.652080
C20861	C2086	0.119820	0.250390	0.652410
C20871	C2087	0.106960	0.249520	0.652850
C20881	C2088	0.948770	0.593180	0.661470
C20891	C2089	0.359530	0.553660	0.778320
C20901	C2090	0.950180	0.606830	0.661690
C20911	C2091	0.963470	0.606420	0.660960
C20921	C2092	0.975320	0.591630	0.660020
C20931	C2093	0.973880	0.577940	0.659800
C20941	C2094	0.960560	0.578440	0.660500
C20951	C2095	0.760990	0.423000	0.658070
C20961	C2096	0.218090	0.705220	0.476200
C20971	C2097	0.746720	0.424720	0.658120
C20981	C2098	0.734140	0.439040	0.657660
C20991	C2099	0.736750	0.451570	0.657160
C21001	C2100	0.348470	0.550580	0.779800
C21011	C2101	0.751080	0.449820	0.657110
C21021	C2102	0.763600	0.435470	0.657550
C21031	C2103	0.501170	0.665870	0.177050
C21041	C2104	0.466540	0.636420	0.156010
C21051	C2105	0.444320	0.693040	0.178320
C21061	C2106	0.430730	0.683280	0.135470
C21071	C2107	0.463740	0.713170	0.157460
C21081	C2108	0.231790	0.704970	0.476260
C21091	C2109	0.487340	0.656040	0.136010
C21101	C2110	0.494840	0.385650	0.130280
C21111	C2111	0.341940	0.542310	0.770680
C21121	C2112	0.498740	0.381190	0.140310
C21131	C2113	0.500330	0.391500	0.150240
C21141	C2114	0.497910	0.406760	0.149970
C21151	C2115	0.493790	0.412140	0.140340
C21161	C2116	0.492400	0.401300	0.130550
C21171	C2117	0.499590	0.397250	0.170120
C21181	C2118	0.503630	0.392860	0.180110
C21191	C2119	0.512830	0.377490	0.181610
C21201	C2120	0.177810	0.748940	0.471810
C21211	C2121	0.517720	0.366660	0.172600
C21221	C2122	0.346210	0.537480	0.760710
C21231	C2123	0.513660	0.371020	0.162570
C21241	C2124	0.504530	0.386490	0.161050
C21251	C2125	0.483690	0.378450	0.109930
C21261	C2126	0.482070	0.367490	0.100320
C21271	C2127	0.489910	0.351250	0.099750
C21281	C2128	0.499500	0.346580	0.109330
C21291	C2129	0.501120	0.357480	0.118940
C21301	C2130	0.493220	0.373810	0.119610
C21311	C2131	0.494160	0.433680	0.133190
C21321	C2132	0.871590	0.962020	0.141890
C21331	C2133	0.357230	0.540630	0.759260
C21341	C2134	0.164390	0.762500	0.472280
C21351	C2135	0.492270	0.449250	0.134120
C21361	C2136	0.487170	0.461230	0.142680
C21371	C2137	0.483910	0.456870	0.150190
C21381	C2138	0.485810	0.441370	0.149300
C21391	C2139	0.491130	0.429200	0.140830
C21401	C2140	0.488180	0.339460	0.089530
C21411	C2141	0.486830	0.329610	0.081120
C21421	C2142	0.517160	0.372970	0.192320
C21431	C2143	0.520710	0.369350	0.201240
C21441	C2144	0.644800	0.443890	0.655130
C21451	C2145	0.485260	0.477840	0.143860
C21461	C2146	0.164130	0.777190	0.477840
C21471	C2147	0.483640	0.491650	0.145000
C21481	C2148	0.487880	0.302380	0.071250
C21491	C2149	0.486400	0.291180	0.061780
C21501	C2150	0.482180	0.294590	0.051500
C21511	C2151	0.479530	0.309860	0.051230
C21521	C2152	0.481010	0.321060	0.060700
C21531	C2153	0.485230	0.317650	0.070980
C21541	C2154	0.482640	0.518010	0.156600
C21551	C2155	0.360200	0.488750	0.606990
C21561	C2156	0.860540	0.830760	0.351960
C21571	C2157	0.480750	0.533670	0.158000
C21581	C2158	0.477770	0.540510	0.149320
C21591	C2159	0.178120	0.777630	0.482780
C21601	C2160	0.476780	0.530850	0.139190
C21611	C2161	0.478670	0.515180	0.137790
C21621	C2162	0.481650	0.508350	0.146470
C21631	C2163	0.528170	0.350050	0.213100
C21641	C2164	0.532140	0.346070	0.223240
C21651	C2165	0.533050	0.356950	0.232770
C21661	C2166	0.529830	0.371990	0.231690
C21671	C2167	0.689750	0.406390	0.635820
C21681	C2168	0.525870	0.375970	0.221550
C21691	C2169	0.524950	0.365090	0.212020
C21701	C2170	0.480590	0.282590	0.041390
C21711	C2171	0.191650	0.764020	0.482290
C21721	C2172	0.479270	0.272610	0.033060
C21731	C2173	0.537290	0.352720	0.243560
C21741	C2174	0.540830	0.349230	0.252530
C21751	C2175	0.475730	0.557230	0.150790
C21761	C2176	0.474030	0.571070	0.151940
C21771	C2177	0.480110	0.260070	0.013310
C21781	C2178	0.664070	0.465820	0.635540
C21791	C2179	0.478850	0.248420	0.004060
C21801	C2180	0.475040	0.236470	0.004050
C21811	C2181	0.472530	0.236950	0.013830
C21821	C2182	0.473780	0.248570	0.023030
C21831	C2183	0.191900	0.749170	0.476900
C21841	C2184	0.477680	0.260420	0.023070
C21851	C2185	0.552970	0.352070	0.272330
C21861	C2186	0.557250	0.348030	0.282480
C21871	C2187	0.553900	0.336790	0.284170
C21881	C2188	0.545990	0.329850	0.275180
C21891	C2189	0.718630	0.440460	0.657580
C21901	C2190	0.541720	0.333900	0.265020
C21911	C2191	0.545160	0.345060	0.263350
C21921	C2192	0.467180	0.594730	0.144250
C21931	C2193	0.465310	0.610260	0.145250
C21941	C2194	0.468060	0.619750	0.155230
C21951	C2195	0.259230	0.703600	0.471420
C21961	C2196	0.472760	0.612790	0.164190
C21971	C2197	0.474630	0.597190	0.163160
C21981	C2198	0.471930	0.587750	0.153160
C21991	C2199	0.540210	0.317320	0.320600
C22001	C2200	0.673970	0.479260	0.676340
C22011	C2201	0.564970	0.357220	0.335820
C22021	C2202	0.594840	0.302040	0.345580
C22031	C2203	0.611730	0.316510	0.319850
C22041	C2204	0.586640	0.276820	0.304810
C22051	C2205	0.559330	0.331840	0.295080
C22061	C2206	0.839560	0.289570	0.316980
C22071	C2207	0.273480	0.702030	0.471470
C22081	C2208	0.839200	0.304160	0.317020
C22091	C2209	0.826180	0.318210	0.317240
C22101	C2210	0.813060	0.317450	0.317430
C22111	C2211	0.699430	0.420140	0.678580
C22121	C2212	0.812480	0.303330	0.317400
C22131	C2213	0.825940	0.289430	0.317040
C22141	C2214	0.817130	0.348260	0.322470
C22151	C2215	0.817340	0.362560	0.322570
C22161	C2216	0.826690	0.363200	0.317460
C22171	C2217	0.835820	0.348880	0.312230
C22181	C2218	0.835660	0.334570	0.312130
C22191	C2219	0.278340	0.714100	0.476430
C22201	C2220	0.826310	0.333830	0.317260
C22211	C2221	0.855160	0.259520	0.312020
C22221	C2222	0.250570	0.161950	0.994800
C22231	C2223	0.868900	0.246180	0.311650
C22241	C2224	0.882720	0.247180	0.316220
C22251	C2225	0.882020	0.262200	0.321260
C22261	C2226	0.868350	0.275510	0.321610
C22271	C2227	0.854430	0.274680	0.316920
C22281	C2228	0.793660	0.290680	0.313090
C22291	C2229	0.779770	0.291330	0.313150
C22301	C2230	0.769040	0.304790	0.317920
C22311	C2231	0.268000	0.727960	0.481250
C22321	C2232	0.773040	0.317480	0.322700
C22331	C2233	0.241580	0.157640	0.985110
C22341	C2234	0.786850	0.316880	0.322630
C22351	C2235	0.797620	0.303510	0.317750
C22361	C2236	0.897480	0.233100	0.315800
C22371	C2237	0.909800	0.221590	0.315520
C22381	C2238	0.826920	0.378400	0.317580
C22391	C2239	0.827140	0.391010	0.317670
C22401	C2240	0.754120	0.305710	0.317970
C22411	C2241	0.741710	0.306680	0.318080
C22421	C2242	0.937860	0.209660	0.316790
C22431	C2243	0.253670	0.729580	0.481190
C22441	C2244	0.244440	0.155110	0.975030
C22451	C2245	0.951860	0.196750	0.316530
C22461	C2246	0.953540	0.181220	0.314670
C22471	C2247	0.940430	0.179320	0.313100
C22481	C2248	0.926430	0.192230	0.313370
C22491	C2249	0.924760	0.207770	0.315220
C22501	C2250	0.714670	0.322500	0.319990
C22511	C2251	0.700620	0.323750	0.320150
C22521	C2252	0.697750	0.310550	0.318580
C22531	C2253	0.709750	0.296040	0.316830
C22541	C2254	0.723810	0.294790	0.316660
C22551	C2255	0.257160	0.156690	0.974780
C22561	C2256	0.877440	0.972210	0.149740
C22571	C2257	0.248840	0.717370	0.476350
C22581	C2258	0.726670	0.307990	0.318240
C22591	C2259	0.839720	0.406740	0.316150
C22601	C2260	0.839970	0.421010	0.316260
C22611	C2261	0.827920	0.435390	0.318000
C22621	C2262	0.815600	0.434850	0.319640
C22631	C2263	0.815350	0.420570	0.319540
C22641	C2264	0.827400	0.406190	0.317790
C22651	C2265	0.968500	0.167400	0.314390
C22661	C2266	0.363260	0.478800	0.597210
C22671	C2267	0.266810	0.160880	0.984270
C22681	C2268	0.980850	0.155910	0.314160
C22691	C2269	0.828180	0.450580	0.318120
C22701	C2270	0.228080	0.677840	0.480630
C22711	C2271	0.828390	0.463180	0.318210
C22721	C2272	0.682730	0.311870	0.318770
C22731	C2273	0.670320	0.312910	0.318940
C22741	C2274	0.997200	0.126620	0.312640
C22751	C2275	0.011940	0.112860	0.312370
C22761	C2276	0.025060	0.114420	0.313310
C22771	C2277	0.023540	0.129820	0.314530
C22781	C2278	0.847940	0.838940	0.344640
C22791	C2279	0.009740	0.143110	0.314820
C22801	C2280	0.995680	0.141900	0.313850
C22811	C2281	0.816470	0.492720	0.319950
C22821	C2282	0.226360	0.664310	0.480370
C22831	C2283	0.816630	0.507020	0.320030
C22841	C2284	0.828970	0.507690	0.318480
C22851	C2285	0.841130	0.493320	0.316860
C22861	C2286	0.840940	0.479020	0.316780
C22871	C2287	0.828610	0.478390	0.318320
C22881	C2288	0.653990	0.301640	0.321130
C22891	C2289	0.263210	0.163420	0.994210
C22901	C2290	0.640120	0.302530	0.321350
C22911	C2291	0.626770	0.315850	0.319620
C22921	C2292	0.628170	0.328260	0.317650
C22931	C2293	0.642100	0.327340	0.317430
C22941	C2294	0.213040	0.662520	0.475260
C22951	C2295	0.655400	0.314000	0.319170
C22961	C2296	0.790080	0.573130	0.301990
C22971	C2297	0.842520	0.541450	0.292870
C22981	C2298	0.828810	0.597960	0.317710
C22991	C2299	0.867840	0.548970	0.333890
C23001	C2300	0.238640	0.140770	0.955570
C23011	C2301	0.815260	0.577510	0.343140
C23021	C2302	0.829070	0.523230	0.318480
C23031	C2303	0.083230	0.070800	0.569950
C23041	C2304	0.075540	0.063400	0.564290
C23051	C2305	0.092890	0.085330	0.587740
C23061	C2306	0.201540	0.674800	0.470370
C23071	C2307	0.101590	0.093730	0.594160
C23081	C2308	0.110260	0.096890	0.589910
C23091	C2309	0.109860	0.091280	0.578940
C23101	C2310	0.101160	0.082880	0.572520
C23111	C2311	0.228760	0.136400	0.946470
C23121	C2312	0.092480	0.079720	0.576780
C23131	C2313	0.066030	0.048680	0.546530
C23141	C2314	0.057330	0.040290	0.540110
C23151	C2315	0.048500	0.037320	0.544340
C23161	C2316	0.048750	0.043110	0.555270
C23171	C2317	0.057450	0.051510	0.561690
C23181	C2318	0.203210	0.688330	0.470630
C23191	C2319	0.066280	0.054480	0.557470
C23201	C2320	0.119470	0.105860	0.596750
C23211	C2321	0.127040	0.113350	0.602480
C23221	C2322	0.213610	0.141940	0.946180
C23231	C2323	0.039290	0.028350	0.537500
C23241	C2324	0.031710	0.020860	0.531780
C23251	C2325	0.131540	0.133590	0.618510
C23261	C2326	0.139900	0.142190	0.625220
C23271	C2327	0.153160	0.140110	0.623250
C23281	C2328	0.157640	0.128990	0.614200
C23291	C2329	0.149230	0.120380	0.607480
C23301	C2330	0.216510	0.690280	0.475800
C23311	C2331	0.136010	0.122490	0.609510
C23321	C2332	0.009410	0.013990	0.526770
C23331	C2333	0.208740	0.152150	0.955330
C23341	C2334	0.001000	0.005360	0.520090
C23351	C2335	0.005740	0.993410	0.510580
C23361	C2336	0.019070	0.991200	0.508660
C23371	C2337	0.027450	0.999790	0.515330
C23381	C2338	0.022710	0.011740	0.524790
C23391	C2339	0.017790	0.010300	0.396390
C23401	C2340	0.022660	0.013500	0.390750
C23411	C2341	0.996310	0.009550	0.400910
C23421	C2342	0.293740	0.712140	0.476500
C23431	C2343	0.991230	0.005670	0.407540
C23441	C2344	0.218560	0.156480	0.964410
C23451	C2345	0.001600	0.998460	0.416780
C23461	C2346	0.016570	0.995500	0.418900
C23471	C2347	0.022050	0.999230	0.412450
C23481	C2348	0.012090	0.006420	0.403170
C23491	C2349	0.043370	0.014880	0.386630
C23501	C2350	0.048940	0.018530	0.380180
C23511	C2351	0.039700	0.024630	0.371080
C23521	C2352	0.024840	0.027050	0.368500
C23531	C2353	0.019270	0.023400	0.374930
C23541	C2354	0.306510	0.710310	0.476500
C23551	C2355	0.233810	0.150820	0.964840
C23561	C2356	0.028510	0.017300	0.384030
C23571	C2357	0.996410	0.994320	0.423750
C23581	C2358	0.992720	0.990590	0.429850
C23591	C2359	0.045420	0.028500	0.364310
C23601	C2360	0.049880	0.031870	0.358500
C23611	C2361	0.001590	0.977490	0.445570
C23621	C2362	0.998210	0.973120	0.453510
C23631	C2363	0.983530	0.976680	0.453300
C23641	C2364	0.972110	0.984390	0.445350
C23651	C2365	0.974970	0.988860	0.437650
C23661	C2366	0.257000	0.161110	0.014940
C23671	C2367	0.149580	0.791490	0.478400
C23681	C2368	0.989400	0.985730	0.437540
C23691	C2369	0.044790	0.041210	0.342120
C23701	C2370	0.049020	0.045610	0.335270
C23711	C2371	0.063310	0.044980	0.337530
C23721	C2372	0.073300	0.039710	0.346770
C23731	C2373	0.069000	0.035320	0.353630
C23741	C2374	0.054690	0.036110	0.351340
C23751	C2375	0.575330	0.072400	0.063700
C23761	C2376	0.582470	0.063460	0.070140
H11	H1	0.925550	0.979340	0.147950
H21	H2	0.087690	0.637930	0.733480
H31	H3	0.108170	0.072020	0.066540
H41	H4	0.955060	0.189050	0.805620
H51	H5	0.962520	0.194490	0.839530
H61	H6	0.938410	0.217380	0.839500
H71	H7	0.935390	0.960280	0.134290
H81	H8	0.221220	0.743730	0.477010
H91	H9	0.757810	0.385240	0.875300
H101	H10	0.744440	0.399940	0.889980
H111	H11	0.782840	0.375430	0.912080
H121	H12	0.796210	0.360730	0.897390
H131	H13	0.785960	0.347560	0.744120
H141	H14	0.036900	0.987520	0.032460
H151	H15	0.770820	0.359770	0.728270
H161	H16	0.736070	0.390240	0.745120
H171	H17	0.751210	0.378020	0.760970
H181	H18	0.010850	0.150080	0.839660
H191	H19	0.034870	0.127200	0.839650
H201	H20	0.195370	0.720170	0.477080
H211	H21	0.025940	0.120130	0.805470
H221	H22	0.001960	0.143000	0.805540
H231	H23	0.706950	0.414340	0.714260
H241	H24	0.692280	0.426630	0.698430
H251	H25	0.406640	0.672850	0.477170
H261	H26	0.727090	0.395020	0.681730
H271	H27	0.741630	0.382850	0.697550
H281	H28	0.752870	0.398150	0.938750
H291	H29	0.739690	0.412300	0.953460
H301	H30	0.709110	0.448410	0.935430
H311	H31	0.722410	0.434130	0.920710
H321	H32	0.176990	0.738060	0.467170
H331	H33	0.937720	0.388870	0.656600
H341	H34	0.963470	0.412510	0.656460
H351	H35	0.917460	0.438750	0.657450
H361	H36	0.022440	0.972210	0.021060
H371	H37	0.920170	0.453920	0.648570
H381	H38	0.923060	0.477530	0.649150
H391	H39	0.967650	0.458880	0.667250
H401	H40	0.964880	0.435450	0.667030
H411	H41	0.956920	0.367480	0.647110
H421	H42	0.980400	0.343930	0.646400
H431	H43	0.004990	0.371340	0.665390
H441	H44	0.153920	0.761450	0.468200
H451	H45	0.981880	0.394680	0.666400
H461	H46	0.912490	0.392040	0.648330
H471	H47	0.996300	0.008880	0.002120
H481	H48	0.887810	0.394820	0.648370
H491	H49	0.878050	0.441510	0.666140
H501	H50	0.902620	0.438830	0.666430
H511	H51	0.049350	0.329320	0.658460
H521	H52	0.073580	0.306710	0.657880
H531	H53	0.052240	0.275520	0.649810
H541	H54	0.028010	0.298130	0.650380
H551	H55	0.827800	0.449810	0.660540
H561	H56	0.178630	0.788740	0.487200
H571	H57	0.802690	0.453670	0.660650
H581	H58	0.010820	0.024090	0.013510
H591	H59	0.816330	0.404040	0.653980
H601	H60	0.841440	0.400190	0.653870
H611	H61	0.974920	0.498880	0.660680
H621	H62	0.978340	0.522310	0.661200
H631	H63	0.931490	0.549520	0.657880
H641	H64	0.928070	0.526100	0.657360
H651	H65	0.098990	0.233210	0.653280
H661	H66	0.122600	0.210140	0.652700
H671	H67	0.143080	0.238510	0.651720
H681	H68	0.202060	0.765140	0.486480
H691	H69	0.149040	0.110210	0.120040
H701	H70	0.119250	0.261660	0.652310
H711	H71	0.938220	0.594130	0.662030
H721	H72	0.940560	0.617930	0.662400
H731	H73	0.985870	0.590560	0.659380
H741	H74	0.983350	0.566720	0.659020
H751	H75	0.770220	0.411590	0.658420
H761	H76	0.745580	0.414480	0.658500
H771	H77	0.727550	0.462990	0.656770
H781	H78	0.752380	0.459940	0.656700
H791	H79	0.489390	0.405130	0.123060
H801	H80	0.163350	0.125580	0.131490
H811	H81	0.256330	0.693720	0.467200
H821	H82	0.500010	0.369660	0.140420
H831	H83	0.499900	0.414440	0.157500
H841	H84	0.492190	0.409350	0.169520
H851	H85	0.499450	0.401690	0.186840
H861	H86	0.524910	0.354560	0.173360
H871	H87	0.518090	0.362090	0.155970
H881	H88	0.477020	0.390800	0.109750
H891	H89	0.474430	0.371850	0.093160
H901	H90	0.505970	0.334160	0.109400
H911	H91	0.137330	0.161240	0.112450
H921	H92	0.509010	0.352830	0.125920
H931	H93	0.280900	0.691060	0.467510
H941	H94	0.498440	0.424930	0.126480
H951	H95	0.494970	0.451970	0.128040
H961	H96	0.479780	0.465690	0.156930
H971	H97	0.482770	0.439040	0.155370
H981	H98	0.491190	0.299030	0.078970
H991	H99	0.488610	0.279560	0.062520
H1001	H100	0.476220	0.313210	0.043510
H1011	H101	0.478800	0.332690	0.059960
H1021	H102	0.123040	0.145740	0.101010
H1031	H103	0.484920	0.513330	0.163620
H1041	H104	0.481630	0.540610	0.166040
H1051	H105	0.271100	0.737770	0.485230
H1061	H106	0.474490	0.535530	0.132170
H1071	H107	0.477780	0.508250	0.129750
H1081	H108	0.527610	0.341190	0.205930
H1091	H109	0.534540	0.334230	0.223650
H1101	H110	0.530400	0.380840	0.238850
H1111	H111	0.523460	0.387800	0.221140
H1121	H112	0.483200	0.268930	0.012840
H1131	H113	0.103810	0.620930	0.704680
H1141	H114	0.016930	0.023320	0.919280
H1151	H115	0.481130	0.248690	0.996830
H1161	H116	0.469680	0.228010	0.014480
H1171	H117	0.471790	0.248190	0.030350
H1181	H118	0.246410	0.740550	0.485250
H1191	H119	0.555910	0.360790	0.271440
H1201	H120	0.563450	0.353770	0.289100
H1211	H121	0.543160	0.320970	0.275940
H1221	H122	0.535680	0.328110	0.258290
H1231	H123	0.464930	0.587970	0.136300
H1241	H124	0.461710	0.614840	0.137970
H1251	H125	0.008450	0.014610	0.930340
H1261	H126	0.475180	0.619430	0.172150
H1271	H127	0.478360	0.592380	0.170360
H1281	H128	0.825940	0.278480	0.317220
H1291	H129	0.849290	0.304620	0.316840
H1301	H130	0.942420	0.957060	0.117840
H1311	H131	0.238600	0.678630	0.484920
H1321	H132	0.802900	0.328040	0.317130
H1331	H133	0.809810	0.348600	0.326790
H1341	H134	0.810070	0.373360	0.326780
H1351	H135	0.843230	0.348770	0.308090
H1361	H136	0.020670	0.968240	0.910220
H1371	H137	0.842840	0.323950	0.307730
H1381	H138	0.844930	0.257880	0.308130
H1391	H139	0.868720	0.234820	0.307630
H1401	H140	0.892330	0.263710	0.325040
H1411	H141	0.868870	0.286650	0.325870
H1421	H142	0.801270	0.279960	0.309060
H1431	H143	0.235610	0.655070	0.484310
H1441	H144	0.777330	0.281070	0.309310
H1451	H145	0.765270	0.328190	0.326610
H1461	H146	0.789120	0.327180	0.326700
H1471	H147	0.889280	0.978680	0.118450
H1481	H148	0.937270	0.221420	0.318270
H1491	H149	0.961610	0.198970	0.317800
H1501	H150	0.941030	0.167560	0.311630
H1511	H151	0.916690	0.190020	0.312100
H1521	H152	0.716210	0.333150	0.321260
H1531	H153	0.691770	0.335320	0.321550
H1541	H154	0.708220	0.285390	0.315560
H1551	H155	0.191020	0.673890	0.466240
H1561	H156	0.732660	0.283220	0.315270
H1571	H157	0.849350	0.395870	0.314760
H1581	H158	0.039920	0.871440	0.481490
H1591	H159	0.849790	0.420830	0.314940
H1601	H160	0.805970	0.445710	0.321030
H1611	H161	0.805530	0.420760	0.320850
H1621	H162	0.987470	0.124640	0.311880
H1631	H163	0.012370	0.101300	0.311420
H1641	H164	0.033310	0.131710	0.315300
H1651	H165	0.009450	0.154620	0.315780
H1661	H166	0.806630	0.492840	0.321170
H1671	H167	0.193890	0.697280	0.466490
H1681	H168	0.806850	0.517760	0.321310
H1691	H169	0.029140	0.976960	0.899150
H1701	H170	0.851020	0.493050	0.315610
H1711	H171	0.850650	0.468200	0.315490
H1721	H172	0.663890	0.290990	0.322540
H1731	H173	0.639910	0.292460	0.322920
H1741	H174	0.618320	0.338920	0.316230
H1751	H175	0.642470	0.337320	0.315870
H1761	H176	0.086340	0.083170	0.591400
H1771	H177	0.101540	0.097870	0.602640
H1781	H178	0.116400	0.093450	0.575280
H1791	H179	0.317620	0.732440	0.480150
H1801	H180	0.043890	0.994230	0.879030
H1811	H181	0.101190	0.078750	0.564040
H1821	H182	0.072710	0.050700	0.542890
H1831	H183	0.057500	0.036000	0.531660
H1841	H184	0.042080	0.041090	0.558920
H1851	H185	0.057290	0.055790	0.570150
H1861	H186	0.121360	0.135630	0.620410
H1871	H187	0.135840	0.150600	0.632120
H1881	H188	0.167840	0.126830	0.612290
H1891	H189	0.153160	0.111860	0.600570
H1901	H190	0.005440	0.022640	0.533620
H1911	H191	0.052300	0.003250	0.868110
H1921	H192	0.342730	0.728620	0.480060
H1931	H193	0.990750	0.007610	0.521980
H1941	H194	0.023190	0.982670	0.501820
H1951	H195	0.037690	0.997620	0.513460
H1961	H196	0.988620	0.014870	0.394100
H1971	H197	0.979550	0.007970	0.405890
H1981	H198	0.024150	0.990170	0.425740
H1991	H199	0.033790	0.996790	0.414290
H2001	H200	0.050690	0.010110	0.393730
H2011	H201	0.060580	0.016590	0.382290
H2021	H202	0.041200	0.048120	0.888900
H2031	H203	0.017520	0.031820	0.361400
H2041	H204	0.356130	0.679000	0.472660
H2051	H205	0.007630	0.025350	0.372830
H2061	H206	0.013010	0.974830	0.445740
H2071	H207	0.007420	0.967100	0.459510
H2081	H208	0.960640	0.987240	0.445160
H2091	H209	0.965740	0.995000	0.431710
H2101	H210	0.033570	0.041870	0.340260
H2111	H211	0.040880	0.049640	0.328170
H2121	H212	0.084510	0.039130	0.348790
H2131	H213	0.032790	0.039100	0.899820
H2141	H214	0.076850	0.031350	0.360840
H2151	H215	0.560010	0.103910	0.067900
H2161	H216	0.331020	0.682820	0.472750
H2171	H217	0.545730	0.121810	0.054950
H2181	H218	0.557120	0.082920	0.029140
H2191	H219	0.571400	0.065020	0.042090
H2201	H220	0.598620	0.032110	0.065990
H2211	H221	0.612920	0.014180	0.078920
H2221	H222	0.599900	0.052740	0.104630
H2231	H223	0.585600	0.070670	0.091700
H2241	H224	0.129420	0.615360	0.715380
H2251	H225	0.009100	0.950920	0.933170
H2261	H226	0.542370	0.121320	0.008910
H2271	H227	0.528630	0.138340	0.995590
H2281	H228	0.494550	0.165970	0.013640
H2291	H229	0.183510	0.633860	0.472450
H2301	H230	0.508500	0.148750	0.026920
H2311	H231	0.649600	0.987070	0.106840
H2321	H232	0.663890	0.969400	0.120660
H2331	H233	0.629560	0.996790	0.138560
H2341	H234	0.615520	0.014010	0.125430
H2351	H235	0.090480	0.577050	0.552120
H2361	H236	0.001040	0.943630	0.946010
H2371	H237	0.107140	0.564710	0.539440
H2381	H238	0.117150	0.519500	0.544210
H2391	H239	0.100490	0.531840	0.556900
H2401	H240	0.069710	0.555420	0.581700
H2411	H241	0.179980	0.610490	0.471890
H2421	H242	0.053050	0.567760	0.594390
H2431	H243	0.041160	0.612770	0.588280
H2441	H244	0.057830	0.600430	0.575600
H2451	H245	0.157510	0.499930	0.526410
H2461	H246	0.173940	0.487320	0.513660
H2471	H247	0.982070	0.992390	0.960430
H2481	H248	0.146480	0.524630	0.496080
H2491	H249	0.130130	0.537140	0.508890
H2501	H250	0.001700	0.632310	0.606600
H2511	H251	0.984600	0.645530	0.619750
H2521	H252	0.013120	0.607260	0.637120
H2531	H253	0.989760	0.999700	0.948410
H2541	H254	0.068940	0.019070	0.849040
H2551	H255	0.016100	0.894620	0.482060
H2561	H256	0.076860	0.027940	0.837880
H2571	H257	0.062430	0.074190	0.857160
H2581	H258	0.054600	0.065030	0.868200
H2591	H259	0.636440	0.593810	0.739320
H2601	H260	0.239490	0.619010	0.791530
H2611	H261	0.643640	0.567040	0.728510
H2621	H262	0.652020	0.582140	0.705640
H2631	H263	0.644820	0.608900	0.716450
H2641	H264	0.630700	0.659790	0.736720
H2651	H265	0.623520	0.686570	0.747500
H2661	H266	0.616120	0.671360	0.770800
H2671	H267	0.036520	0.922830	0.480730
H2681	H268	0.623300	0.644570	0.760020
H2691	H269	0.671400	0.530740	0.687860
H2701	H270	0.678700	0.504650	0.676520
H2711	H271	0.230420	0.606680	0.476310
H2721	H272	0.659350	0.490960	0.693260
H2731	H273	0.652080	0.517290	0.704630
H2741	H274	0.613620	0.736220	0.769290
H2751	H275	0.606540	0.762980	0.779830
H2761	H276	0.591760	0.750240	0.800390
H2771	H277	0.598900	0.723480	0.789760
H2781	H278	0.118030	0.157900	0.226750
H2791	H279	0.060120	0.899720	0.480170
H2801	H280	0.126420	0.166530	0.215570
H2811	H281	0.163270	0.121900	0.212730
H2821	H282	0.265230	0.612840	0.802030
H2831	H283	0.154890	0.113280	0.223910
H2841	H284	0.138720	0.096750	0.242750
H2851	H285	0.130400	0.087790	0.253770
H2861	H286	0.095520	0.133450	0.258960
H2871	H287	0.103840	0.142410	0.247940
H2881	H288	0.169630	0.134280	0.185880
H2891	H289	0.177440	0.141010	0.173500
H2901	H290	0.158020	0.189710	0.187810
H2911	H291	0.220130	0.538780	0.471470
H2921	H292	0.150280	0.182640	0.200190
H2931	H293	0.279050	0.567040	0.782460
H2941	H294	0.090890	0.117250	0.285970
H2951	H295	0.083080	0.108290	0.297150
H2961	H296	0.097620	0.062070	0.277870
H2971	H297	0.105340	0.071300	0.266800
H2981	H298	0.572820	0.599040	0.082600
H2991	H299	0.556120	0.615660	0.095120
H3001	H300	0.537610	0.581860	0.086720
H3011	H301	0.554310	0.565240	0.074200
H3021	H302	0.586150	0.533720	0.051130
H3031	H303	0.217850	0.514950	0.471090
H3041	H304	0.253390	0.573300	0.772050
H3051	H305	0.602860	0.517100	0.038610
H3061	H306	0.620300	0.551640	0.046210
H3071	H307	0.603590	0.568250	0.058730
H3081	H308	0.501450	0.617350	0.105920
H3091	H309	0.484810	0.633090	0.118410
H3101	H310	0.512830	0.657740	0.135330
H3111	H311	0.529410	0.641850	0.122740
H3121	H312	0.656860	0.516080	0.027390
H3131	H313	0.673560	0.500430	0.014950
H3141	H314	0.645950	0.475290	0.998120
H3151	H315	0.053450	0.616140	0.690060
H3161	H316	0.172360	0.542110	0.473720
H3171	H317	0.629300	0.491100	0.010680
H3181	H318	0.663450	0.605290	0.261890
H3191	H319	0.689090	0.597100	0.272830
H3201	H320	0.702220	0.609430	0.251140
H3211	H321	0.676580	0.617620	0.240200
H3221	H322	0.626800	0.633120	0.218730
H3231	H323	0.601170	0.641330	0.207770
H3241	H324	0.587790	0.629910	0.229800
H3251	H325	0.613420	0.621700	0.240750
H3261	H326	0.028120	0.621300	0.679170
H3271	H327	0.751630	0.595160	0.273040
H3281	H328	0.174830	0.566000	0.474080
H3291	H329	0.777230	0.587020	0.283830
H3301	H330	0.765150	0.571320	0.304310
H3311	H331	0.739540	0.579510	0.293460
H3321	H332	0.538470	0.641940	0.205980
H3331	H333	0.513140	0.650200	0.194580
H3341	H334	0.525870	0.669870	0.177100
H3351	H335	0.551010	0.661600	0.188470
H3361	H336	0.609020	0.150010	0.259790
H3371	H337	0.896610	0.974950	0.101870
H3381	H338	0.013460	0.669120	0.695500
H3391	H339	0.601030	0.176520	0.270930
H3401	H340	0.628400	0.186970	0.259380
H3411	H341	0.001670	0.918770	0.655180
H3421	H342	0.636390	0.160460	0.248240
H3431	H343	0.647830	0.112120	0.225040
H3441	H344	0.655730	0.085620	0.213870
H3451	H345	0.635440	0.072300	0.229990
H3461	H346	0.627550	0.098800	0.241160
H3471	H347	0.621590	0.225180	0.296200
H3481	H348	0.613900	0.251580	0.307260
H3491	H349	0.038890	0.663840	0.706390
H3501	H350	0.570150	0.264310	0.286960
H3511	H351	0.578000	0.237840	0.275970
H3521	H352	0.636620	0.036160	0.192110
H3531	H353	0.991780	0.877920	0.638790
H3541	H354	0.642970	0.010430	0.180330
H3551	H355	0.688680	0.996890	0.197080
H3561	H356	0.682100	0.022890	0.208890
H3571	H357	0.554630	0.475440	0.393360
H3581	H358	0.561800	0.448660	0.382570
H3591	H359	0.516320	0.459530	0.366320
H3601	H360	0.544520	0.967900	0.893230
H3611	H361	0.509160	0.486300	0.377110
H3621	H362	0.495570	0.537210	0.397480
H3631	H363	0.488370	0.563970	0.408300
H3641	H364	0.533770	0.552980	0.424820
H3651	H365	0.944040	0.970140	0.162250
H3661	H366	0.002650	0.889710	0.673770
H3671	H367	0.540970	0.526220	0.414000
H3681	H368	0.545290	0.396760	0.364220
H3691	H369	0.552400	0.370030	0.353630
H3701	H370	0.567140	0.382930	0.333150
H3711	H371	0.552540	0.941390	0.882090
H3721	H372	0.559980	0.409660	0.343810
H3731	H373	0.506870	0.615800	0.429150
H3741	H374	0.499580	0.642100	0.440560
H3751	H375	0.480140	0.628320	0.457160
H3761	H376	0.487450	0.602260	0.445780
H3771	H377	0.991320	0.497170	0.382090
H3781	H378	0.009730	0.862750	0.672080
H3791	H379	0.965660	0.502880	0.371440
H3801	H380	0.959130	0.549820	0.373410
H3811	H381	0.984780	0.544110	0.384060
H3821	H382	0.535850	0.961410	0.854010
H3831	H383	0.035170	0.532420	0.403550
H3841	H384	0.060820	0.526750	0.414200
H3851	H385	0.066130	0.481100	0.414580
H3861	H386	0.040480	0.486770	0.403920
H3871	H387	0.905640	0.560680	0.361590
H3881	H388	0.879950	0.567000	0.351220
H3891	H389	0.893610	0.521100	0.331760
H3901	H390	0.005220	0.839440	0.672060
H3911	H391	0.919370	0.514880	0.342230
H3921	H392	0.120290	0.469240	0.427080
H3931	H393	0.130970	0.834620	0.482560
H3941	H394	0.145700	0.463780	0.438020
H3951	H395	0.131340	0.511670	0.454240
H3961	H396	0.106020	0.517000	0.443290
H3971	H397	0.974450	0.845300	0.641870
H3981	H398	0.977750	0.867950	0.641500
H3991	H399	0.011230	0.912490	0.640140
H4001	H400	0.007430	0.918850	0.622850
H4011	H401	0.974510	0.899090	0.608650
H4021	H402	0.977750	0.893130	0.625820
H4031	H403	0.020880	0.921120	0.669200
H4041	H404	0.527830	0.987930	0.865140
H4051	H405	0.960930	0.977980	0.177930
H4061	H406	0.027660	0.938780	0.685190
H4071	H407	0.003870	0.931210	0.701930
H4081	H408	0.996580	0.913770	0.685870
H4091	H409	0.975610	0.902940	0.574740
H4101	H410	0.972050	0.909410	0.557430
H4111	H411	0.988310	0.944990	0.573940
H4121	H412	0.991870	0.938520	0.591230
H4131	H413	0.028150	0.956680	0.733770
H4141	H414	0.035400	0.974690	0.749610
H4151	H415	0.509550	0.040020	0.886970
H4161	H416	0.037330	0.999000	0.729130
H4171	H417	0.924900	0.006730	0.193800
H4181	H418	0.030080	0.980990	0.713290
H4191	H419	0.974260	0.796610	0.639470
H4201	H420	0.970200	0.773730	0.639290
H4211	H421	0.985980	0.779230	0.673310
H4221	H422	0.990030	0.802110	0.673490
H4231	H423	0.968230	0.963820	0.541640
H4241	H424	0.965480	0.971180	0.525030
H4251	H425	0.976370	0.923330	0.508870
H4261	H426	0.501640	0.066520	0.898150
H4271	H427	0.979070	0.916140	0.525640
H4281	H428	0.976360	0.738420	0.673540
H4291	H429	0.907630	0.999290	0.177970
H4301	H430	0.973070	0.715620	0.674120
H4311	H431	0.961760	0.705420	0.639760
H4321	H432	0.965100	0.728400	0.639310
H4331	H433	0.040480	0.040700	0.762590
H4341	H434	0.048800	0.057520	0.778750
H4351	H435	0.070450	0.019000	0.795380
H4361	H436	0.062120	0.002460	0.779280
H4371	H437	0.523470	0.046530	0.926420
H4381	H438	0.766090	0.221230	0.510430
H4391	H439	0.753500	0.210560	0.475900
H4401	H440	0.727480	0.254470	0.493220
H4411	H441	0.914060	0.959410	0.069280
H4421	H442	0.708360	0.251550	0.479530
H4431	H443	0.690990	0.259910	0.463060
H4441	H444	0.726000	0.233670	0.446040
H4451	H445	0.743710	0.225490	0.462550
H4461	H446	0.789800	0.203750	0.507460
H4471	H447	0.811110	0.178240	0.506720
H4481	H448	0.226890	0.583300	0.475760
H4491	H449	0.531370	0.020040	0.915250
H4501	H450	0.787150	0.160250	0.477410
H4511	H451	0.765680	0.185410	0.478140
H4521	H452	0.765160	0.245050	0.522990
H4531	H453	0.758990	0.264490	0.539290
H4541	H454	0.922590	0.955890	0.053220
H4551	H455	0.712800	0.280320	0.524220
H4561	H456	0.718660	0.260850	0.508090
H4571	H457	0.832240	0.114200	0.473240
H4581	H458	0.853560	0.088450	0.472110
H4591	H459	0.870480	0.098910	0.505820
H4601	H460	0.580920	0.895390	0.857330
H4611	H461	0.849160	0.124660	0.506940
H4621	H462	0.700970	0.321790	0.553310
H4631	H463	0.693830	0.341960	0.569210
H4641	H464	0.737570	0.320490	0.587800
H4651	H465	0.744720	0.300310	0.571910
H4661	H466	0.964020	0.956380	0.073020
H4671	H467	0.688650	0.244190	0.413540
H4681	H468	0.670590	0.252930	0.397120
H4691	H469	0.641760	0.291250	0.416190
H4701	H470	0.659820	0.282510	0.432610
H4711	H471	0.588810	0.868900	0.846380
H4721	H472	0.910250	0.047770	0.503890
H4731	H473	0.931640	0.022210	0.502850
H4741	H474	0.917900	0.014130	0.468620
H4751	H475	0.896530	0.039710	0.469740
H4761	H476	0.605710	0.305350	0.383340
H4771	H477	0.589030	0.313430	0.366350
H4781	H478	0.955480	0.959910	0.089080
H4791	H479	0.622890	0.278710	0.349570
H4801	H480	0.639270	0.270880	0.366430
H4811	H481	0.723790	0.359920	0.618340
H4821	H482	0.545100	0.881580	0.826000
H4831	H483	0.716730	0.380490	0.634000
H4841	H484	0.672700	0.401130	0.615330
H4851	H485	0.679870	0.380530	0.599730
H4861	H486	0.411370	0.942960	0.156570
H4871	H487	0.458160	0.923380	0.158040
H4881	H488	0.432110	0.972180	0.156830
H4891	H489	0.456260	0.972380	0.166610
H4901	H490	0.887660	0.968310	0.131840
H4911	H491	0.961720	0.019920	0.225570
H4921	H492	0.479890	0.972990	0.167320
H4931	H493	0.537380	0.908000	0.837030
H4941	H494	0.494160	0.926430	0.149080
H4951	H495	0.470660	0.925750	0.148040
H4961	H496	0.419700	0.922330	0.165770
H4971	H497	0.423050	0.895920	0.165830
H4981	H498	0.457010	0.875890	0.148070
H4991	H499	0.453580	0.902040	0.147670
H5001	H500	0.391000	0.960560	0.147480
H5011	H501	0.366720	0.982490	0.147000
H5021	H502	0.387630	0.014740	0.164310
H5031	H503	0.979460	0.027330	0.240910
H5041	H504	0.521510	0.099140	0.942160
H5051	H505	0.412720	0.991570	0.164970
H5061	H506	0.470180	0.827100	0.156020
H5071	H507	0.474450	0.800230	0.156100
H5081	H508	0.429540	0.816800	0.158730
H5091	H509	0.425270	0.843670	0.158650
H5101	H510	0.339790	0.057820	0.158770
H5111	H511	0.315120	0.079970	0.158180
H5121	H512	0.294680	0.047930	0.150030
H5131	H513	0.319350	0.025780	0.150630
H5141	H514	0.541750	0.923930	0.155740
H5151	H515	0.106780	0.857290	0.483140
H5161	H516	0.013860	0.001440	0.222530
H5171	H517	0.566050	0.923080	0.156400
H5181	H518	0.548520	0.973080	0.164490
H5191	H519	0.524210	0.973940	0.163830
H5201	H520	0.436310	0.767280	0.158060
H5211	H521	0.439130	0.741160	0.158070
H5221	H522	0.485100	0.722470	0.157020
H5231	H523	0.482080	0.748880	0.157020
H5241	H524	0.614170	0.922630	0.162390
H5251	H525	0.638040	0.922500	0.162790
H5261	H526	0.515200	0.124850	0.953950
H5271	H527	0.615910	0.971320	0.161170
H5281	H528	0.994830	0.994070	0.206780
H5291	H529	0.592260	0.971290	0.160770
H5301	H530	0.247940	0.091960	0.153200
H5311	H531	0.223510	0.114360	0.152560
H5321	H532	0.243150	0.143790	0.152030
H5331	H533	0.267440	0.121400	0.152670
H5341	H534	0.669400	0.729530	0.011340
H5351	H535	0.658610	0.719950	0.976340
H5361	H536	0.658990	0.764690	0.993110
H5371	H537	0.469560	0.138650	0.936980
H5381	H538	0.640560	0.772060	0.977610
H5391	H539	0.633780	0.779380	0.960150
H5401	H540	0.807120	0.956100	0.135870
H5411	H541	0.659400	0.732170	0.946920
H5421	H542	0.666620	0.724720	0.964310
H5431	H543	0.661460	0.708820	0.008370
H5441	H544	0.664830	0.681730	0.006740
H5451	H545	0.677550	0.668640	0.976380
H5461	H546	0.674620	0.695130	0.977960
H5471	H547	0.680730	0.744090	0.024980
H5481	H548	0.476110	0.112660	0.925160
H5491	H549	0.683190	0.763210	0.041460
H5501	H550	0.654090	0.800660	0.024440
H5511	H551	0.651190	0.781810	0.007980
H5521	H552	0.785480	0.953040	0.136990
H5531	H553	0.673890	0.620210	0.969930
H5541	H554	0.677180	0.592920	0.967490
H5551	H555	0.684230	0.598000	0.001350
H5561	H556	0.680930	0.625280	0.003790
H5571	H557	0.666970	0.836230	0.055170
H5581	H558	0.669520	0.855730	0.071600
H5591	H559	0.029280	0.595210	0.624230
H5601	H560	0.111730	0.116540	0.737840
H5611	H561	0.682980	0.821790	0.090660
H5621	H562	0.680430	0.802280	0.074220
H5631	H563	0.636450	0.745460	0.912510
H5641	H564	0.629550	0.752270	0.894750
H5651	H565	0.795790	0.966810	0.171070
H5661	H566	0.623280	0.799520	0.909730
H5671	H567	0.630180	0.792700	0.927490
H5681	H568	0.693870	0.545540	0.997200
H5691	H569	0.697080	0.518670	0.995530
H5701	H570	0.683520	0.514130	0.961350
H5711	H571	0.102130	0.110280	0.749590
H5721	H572	0.680350	0.541180	0.963150
H5731	H573	0.602980	0.772470	0.862010
H5741	H574	0.595490	0.779420	0.844330
H5751	H575	0.615890	0.812130	0.857450
H5761	H576	0.623320	0.805050	0.875110
H5771	H577	0.817430	0.969870	0.169950
H5781	H578	0.686420	0.887280	0.103700
H5791	H579	0.688470	0.907490	0.119560
H5801	H580	0.677800	0.886310	0.137360
H5811	H581	0.675790	0.866040	0.121360
H5821	H582	0.138860	0.112640	0.775350
H5831	H583	0.927630	0.392060	0.159150
H5841	H584	0.915830	0.380410	0.124620
H5851	H585	0.883670	0.417600	0.142180
H5861	H586	0.866740	0.410940	0.128640
H5871	H587	0.847320	0.416790	0.112490
H5881	H588	0.880270	0.399880	0.094300
H5891	H589	0.980790	0.947460	0.042250
H5901	H590	0.900000	0.394280	0.110530
H5911	H591	0.951120	0.382470	0.157050
H5921	H592	0.976400	0.362330	0.157570
H5931	H593	0.148450	0.118890	0.763600
H5941	H594	0.961490	0.336740	0.127620
H5951	H595	0.935940	0.356640	0.127070
H5961	H596	0.922310	0.415320	0.171690
H5971	H597	0.914920	0.431590	0.188480
H5981	H598	0.869980	0.437220	0.174330
H5991	H599	0.877190	0.420700	0.157600
H6001	H600	0.017170	0.300970	0.127240
H6011	H601	0.988820	0.944750	0.026210
H6021	H602	0.042970	0.281020	0.128140
H6031	H603	0.052710	0.295430	0.162170
H6041	H604	0.166130	0.129510	0.741990
H6051	H605	0.026920	0.315380	0.161270
H6061	H606	0.855910	0.478450	0.204980
H6071	H607	0.848190	0.495090	0.221770
H6081	H608	0.891820	0.471410	0.239670
H6091	H609	0.899530	0.454770	0.222890
H6101	H610	0.839040	0.402930	0.061970
H6111	H611	0.818690	0.409200	0.046010
H6121	H612	0.789420	0.444130	0.066100
H6131	H613	0.898750	0.979790	0.166400
H6141	H614	0.945500	0.949140	0.007140
H6151	H615	0.175340	0.135940	0.730070
H6161	H616	0.809760	0.437860	0.082050
H6171	H617	0.102950	0.255410	0.164030
H6181	H618	0.128580	0.235310	0.165020
H6191	H619	0.119630	0.222480	0.130810
H6201	H620	0.094000	0.242620	0.129880
H6211	H621	0.754160	0.462300	0.033640
H6221	H622	0.733510	0.468810	0.018000
H6231	H623	0.753470	0.422330	0.000650
H6241	H624	0.774130	0.415910	0.016360
H6251	H625	0.871260	0.495890	0.271320
H6261	H626	0.137730	0.134690	0.704880
H6271	H627	0.937640	0.951830	0.023200
H6281	H628	0.863970	0.511450	0.288270
H6291	H629	0.832080	0.549710	0.272470
H6301	H630	0.839510	0.533940	0.255440
H6311	H631	0.774100	0.644480	0.496010
H6321	H632	0.741060	0.657090	0.513730
H6331	H633	0.730940	0.645690	0.479140
H6341	H634	0.707520	0.662540	0.480160
H6351	H635	0.682080	0.666520	0.478460
H6361	H636	0.694120	0.655110	0.509300
H6371	H637	0.085570	0.826300	0.476400
H6381	H638	0.720000	0.650640	0.511040
H6391	H639	0.754800	0.960550	0.173300
H6401	H640	0.790870	0.634710	0.510240
H6411	H641	0.810120	0.637190	0.526010
H6421	H642	0.776880	0.670620	0.543460
H6431	H643	0.757250	0.668560	0.527500
H6441	H644	0.781150	0.625790	0.481190
H6451	H645	0.788510	0.618210	0.464110
H6461	H646	0.743610	0.643540	0.448950
H6471	H647	0.736090	0.651610	0.466010
H6481	H648	0.128530	0.128280	0.716790
H6491	H649	0.818990	0.664950	0.576240
H6501	H650	0.839390	0.666570	0.591740
H6511	H651	0.733180	0.957810	0.174580
H6521	H652	0.868140	0.651970	0.570530
H6531	H653	0.847740	0.650340	0.555030
H6541	H654	0.759210	0.615480	0.414990
H6551	H655	0.766690	0.607590	0.397760
H6561	H656	0.809240	0.607990	0.414470
H6571	H657	0.801760	0.615880	0.431700
H6581	H658	0.638530	0.675960	0.506170
H6591	H659	0.126380	0.094040	0.794420
H6601	H660	0.612440	0.680280	0.503600
H6611	H661	0.608790	0.666620	0.469730
H6621	H662	0.634880	0.662290	0.472290
H6631	H663	0.722020	0.944960	0.140380
H6641	H664	0.903350	0.667660	0.602090
H6651	H665	0.923990	0.668870	0.617400
H6661	H666	0.905670	0.658270	0.636700
H6671	H667	0.885050	0.657080	0.621350
H6681	H668	0.556740	0.675250	0.464890
H6691	H669	0.530810	0.679450	0.462780
H6701	H670	0.179030	0.604810	0.736120
H6711	H671	0.119130	0.086400	0.806640
H6721	H672	0.535670	0.693080	0.496820
H6731	H673	0.561460	0.688870	0.498840
H6741	H674	0.818090	0.602630	0.379830
H6751	H675	0.825550	0.594320	0.362600
H6761	H676	0.743690	0.947740	0.139200
H6771	H677	0.793790	0.573810	0.348700
H6781	H678	0.786430	0.582160	0.365920
H6791	H679	0.319240	0.832940	0.329130
H6801	H680	0.353480	0.796670	0.313210
H6811	H681	0.316250	0.830800	0.295870
H6821	H682	0.075460	0.096830	0.786100
H6831	H683	0.323700	0.810000	0.280970
H6841	H684	0.336070	0.795970	0.265790
H6851	H685	0.378420	0.782440	0.287520
H6861	H686	0.366400	0.796610	0.302640
H6871	H687	0.327810	0.813770	0.339680
H6881	H688	0.045810	0.021390	0.252590
H6891	H689	0.342230	0.802080	0.355730
H6901	H690	0.382480	0.786300	0.345610
H6911	H691	0.368400	0.798180	0.329770
H6921	H692	0.294200	0.845930	0.325360
H6931	H693	0.083050	0.104470	0.773930
H6941	H694	0.270590	0.868910	0.325250
H6951	H695	0.275890	0.879410	0.298770
H6961	H696	0.299780	0.856630	0.298910
H6971	H697	0.408650	0.755510	0.373130
H6981	H698	0.423700	0.743190	0.388950
H6991	H699	0.388570	0.773080	0.405560
H7001	H700	0.062310	0.030000	0.268580
H7011	H701	0.373530	0.785400	0.389730
H7021	H702	0.222140	0.917160	0.295100
H7031	H703	0.198160	0.940220	0.295170
H7041	H704	0.193170	0.139630	0.702480
H7051	H705	0.205700	0.945370	0.329060
H7061	H706	0.229680	0.922320	0.329000
H7071	H707	0.401720	0.748280	0.258560
H7081	H708	0.414960	0.733550	0.243810
H7091	H709	0.376510	0.758270	0.221830
H7101	H710	0.363270	0.772990	0.236580
H7111	H711	0.417820	0.750340	0.436360
H7121	H712	0.029240	0.045840	0.286710
H7131	H713	0.432220	0.738110	0.452170
H7141	H714	0.466880	0.706060	0.435420
H7151	H715	0.198700	0.147070	0.688970
H7161	H716	0.452330	0.718420	0.419600
H7171	H717	0.406340	0.735550	0.195070
H7181	H718	0.419390	0.721380	0.180290
H7191	H719	0.449760	0.684980	0.198120
H7201	H720	0.436600	0.699280	0.212910
H7211	H721	0.158910	0.991640	0.329320
H7221	H722	0.134210	0.015450	0.329450
H7231	H723	0.125480	0.008850	0.295300
H7241	H724	0.013050	0.037290	0.270820
H7251	H725	0.150200	0.985050	0.295230
H7261	H726	0.152160	0.164310	0.673740
H7271	H727	0.273670	0.716490	0.990960
H7281	H728	0.241770	0.754320	0.009280
H7291	H729	0.229800	0.742680	0.974150
H7301	H730	0.206130	0.752970	0.975760
H7311	H731	0.180860	0.773100	0.975250
H7321	H732	0.195340	0.797470	0.005960
H7331	H733	0.220890	0.777560	0.006520
H7341	H734	0.290920	0.721970	0.004890
H7351	H735	0.310500	0.716010	0.020950
H7361	H736	0.873520	0.988900	0.164480
H7371	H737	0.147030	0.156850	0.687150
H7381	H738	0.830760	0.848380	0.325100
H7391	H739	0.277800	0.736010	0.039780
H7401	H740	0.257920	0.741770	0.023660
H7411	H741	0.280120	0.714130	0.975660
H7421	H742	0.287370	0.697570	0.958960
H7431	H743	0.242500	0.702960	0.944810
H7441	H744	0.235060	0.719270	0.961600
H7451	H745	0.319590	0.732010	0.071690
H7461	H746	0.340030	0.725620	0.087580
H7471	H747	0.368410	0.689040	0.067480
H7481	H748	0.546990	0.500370	0.889930
H7491	H749	0.347980	0.695430	0.051590
H7501	H750	0.817040	0.810460	0.310070
H7511	H751	0.257880	0.678710	0.910470
H7521	H752	0.265780	0.661990	0.893760
H7531	H753	0.309940	0.640290	0.911710
H7541	H754	0.302040	0.657010	0.928420
H7551	H755	0.142360	0.831920	0.006080
H7561	H756	0.116580	0.851880	0.005210
H7571	H757	0.106780	0.837530	0.971170
H7581	H758	0.132560	0.817570	0.972040
H7591	H759	0.109760	0.803630	0.475820
H7601	H760	0.404230	0.671490	0.099810
H7611	H761	0.424950	0.664880	0.115400
H7621	H762	0.845810	0.810320	0.341430
H7631	H763	0.405130	0.711320	0.132850
H7641	H764	0.384410	0.717840	0.117190
H7651	H765	0.056570	0.878010	0.969370
H7661	H766	0.030940	0.898130	0.968440
H7671	H767	0.039770	0.910160	0.002690
H7681	H768	0.065380	0.890010	0.003550
H7691	H769	0.318620	0.600290	0.878190
H7701	H770	0.572630	0.492100	0.900860
H7711	H771	0.326230	0.584450	0.861230
H7721	H772	0.294560	0.622650	0.845300
H7731	H773	0.287090	0.638280	0.862180
H7741	H774	0.835130	0.794380	0.342330
H7751	H775	0.332390	0.336760	0.328450
H7761	H776	0.295650	0.323510	0.312350
H7771	H777	0.331590	0.308140	0.296760
H7781	H778	0.322750	0.289550	0.286010
H7791	H779	0.309440	0.276680	0.270430
H7801	H780	0.268570	0.307180	0.280320
H7811	H781	0.204650	0.599200	0.746810
H7821	H782	0.555910	0.503630	0.928790
H7831	H783	0.281560	0.320400	0.295750
H7841	H784	0.325720	0.339450	0.343760
H7851	H785	0.314100	0.354010	0.359120
H7861	H786	0.271400	0.359470	0.338850
H7871	H787	0.835010	0.769160	0.341530
H7881	H788	0.282760	0.345280	0.323330
H7891	H789	0.357290	0.326390	0.330510
H7901	H790	0.381160	0.325970	0.331260
H7911	H791	0.373030	0.315430	0.297110
H7921	H792	0.348850	0.316170	0.296170
H7931	H793	0.530270	0.511900	0.917850
H7941	H794	0.250780	0.380390	0.371180
H7951	H795	0.239150	0.394900	0.386740
H7961	H796	0.277290	0.404830	0.403800
H7971	H797	0.288920	0.390320	0.388230
H7981	H798	0.424880	0.307390	0.300090
H7991	H799	0.829020	0.759220	0.307490
H8001	H800	0.449170	0.306930	0.301210
H8011	H801	0.450150	0.331700	0.333580
H8021	H802	0.425860	0.332160	0.332460
H8031	H803	0.242870	0.278320	0.251140
H8041	H804	0.480380	0.527720	0.896560
H8051	H805	0.229250	0.265410	0.235590
H8061	H806	0.267780	0.240920	0.222110
H8071	H807	0.281400	0.253830	0.237670
H8081	H808	0.251010	0.438340	0.433010
H8091	H809	0.238930	0.452700	0.448360
H8101	H810	0.206940	0.432600	0.433930
H8111	H811	0.829510	0.784030	0.308140
H8121	H812	0.219030	0.418350	0.418690
H8131	H813	0.203420	0.237040	0.205880
H8141	H814	0.189800	0.224010	0.190540
H8151	H815	0.454730	0.535970	0.885630
H8161	H816	0.225730	0.204870	0.174670
H8171	H817	0.239310	0.217960	0.190060
H8181	H818	0.500210	0.327770	0.336210
H8191	H819	0.524410	0.327220	0.337040
H8201	H820	0.519770	0.308320	0.303440
H8211	H821	0.495660	0.308900	0.302670
H8221	H822	0.167090	0.255130	0.494900
H8231	H823	0.808040	0.861930	0.314030
H8241	H824	0.157000	0.215070	0.478970
H8251	H825	0.156630	0.243860	0.460460
H8261	H826	0.471380	0.524960	0.857750
H8271	H827	0.162760	0.219790	0.448420
H8281	H828	0.155480	0.202450	0.432290
H8291	H829	0.131190	0.195150	0.448770
H8301	H830	0.137970	0.212730	0.464830
H8311	H831	0.182070	0.238850	0.507420
H8321	H832	0.185400	0.232900	0.524710
H8331	H833	0.151200	0.215880	0.511220
H8341	H834	0.147400	0.222130	0.493960
H8351	H835	0.793330	0.873340	0.297920
H8361	H836	0.182270	0.263670	0.491790
H8371	H837	0.497030	0.516700	0.868680
H8381	H838	0.185790	0.286450	0.491570
H8391	H839	0.152640	0.293420	0.462520
H8401	H840	0.148630	0.270880	0.462740
H8411	H841	0.165880	0.195500	0.542280
H8421	H842	0.169410	0.189080	0.559590
H8431	H843	0.187600	0.223160	0.575950
H8441	H844	0.184070	0.229580	0.558630
H8451	H845	0.168710	0.330290	0.460080
H8461	H846	0.172730	0.353160	0.460180
H8471	H847	0.801640	0.827550	0.278870
H8481	H848	0.620280	0.491460	0.927570
H8491	H849	0.188440	0.358890	0.494200
H8501	H850	0.184430	0.336020	0.494100
H8511	H851	0.129550	0.152430	0.420490
H8521	H852	0.122300	0.134550	0.404540
H8531	H853	0.123120	0.159940	0.384270
H8541	H854	0.130370	0.177820	0.400220
H8551	H855	0.190510	0.169570	0.591960
H8561	H856	0.193290	0.162270	0.608600
H8571	H857	0.182290	0.210170	0.624670
H8581	H858	0.179560	0.217300	0.607870
H8591	H859	0.645630	0.483170	0.938950
H8601	H860	0.852160	0.985610	0.165470
H8611	H861	0.816630	0.815960	0.294740
H8621	H862	0.097390	0.133590	0.355890
H8631	H863	0.089100	0.117090	0.339720
H8641	H864	0.111270	0.078270	0.356100
H8651	H865	0.119540	0.095040	0.372320
H8661	H866	0.193900	0.403900	0.494100
H8671	H867	0.197250	0.426880	0.493680
H8681	H868	0.185230	0.417210	0.459340
H8691	H869	0.181940	0.394390	0.459880
H8701	H870	0.632970	0.463440	0.956430
H8711	H871	0.427990	0.486870	0.654470
H8721	H872	0.417630	0.476270	0.619860
H8731	H873	0.834090	0.862660	0.342000
H8741	H874	0.384610	0.488810	0.637600
H8751	H875	0.367850	0.498350	0.623310
H8761	H876	0.348650	0.495810	0.607520
H8771	H877	0.381970	0.462400	0.590140
H8781	H878	0.401550	0.464530	0.606120
H8791	H879	0.444270	0.494320	0.652860
H8801	H880	0.470040	0.489150	0.654560
H8811	H881	0.388650	0.721100	0.475140
H8821	H882	0.470830	0.456920	0.624740
H8831	H883	0.444860	0.461700	0.623020
H8841	H884	0.422580	0.481510	0.667580
H8851	H885	0.847750	0.875450	0.357280
H8861	H886	0.415050	0.489650	0.684640
H8871	H887	0.370220	0.515290	0.669520
H8881	H888	0.377600	0.507640	0.652440
H8891	H889	0.520620	0.455860	0.627440
H8901	H890	0.546720	0.451490	0.630000
H8911	H891	0.549660	0.467530	0.663720
H8921	H892	0.188640	0.615630	0.775610
H8931	H893	0.607800	0.471740	0.945090
H8941	H894	0.523560	0.471900	0.661160
H8951	H895	0.356990	0.517550	0.702000
H8961	H896	0.349540	0.525530	0.719240
H8971	H897	0.392040	0.526140	0.735870
H8981	H898	0.878040	0.831190	0.366130
H8991	H899	0.399490	0.518160	0.718620
H9001	H900	0.339930	0.467850	0.557290
H9011	H901	0.319570	0.466170	0.541770
H9021	H902	0.290700	0.480960	0.562940
H9031	H903	0.311060	0.482650	0.578450
H9041	H904	0.407090	0.538520	0.860580
H9051	H905	0.602100	0.457420	0.668680
H9061	H906	0.628050	0.453210	0.670850
H9071	H907	0.623200	0.440070	0.636810
H9081	H908	0.597380	0.444290	0.634720
H9091	H909	0.255670	0.464990	0.531380
H9101	H910	0.864760	0.818110	0.350720
H9111	H911	0.235040	0.463720	0.516100
H9121	H912	0.253190	0.474440	0.496750
H9131	H913	0.273820	0.475690	0.512090
H9141	H914	0.372370	0.551640	0.767760
H9151	H915	0.381470	0.546730	0.849790
H9161	H916	0.365030	0.560070	0.784990
H9171	H917	0.333250	0.539580	0.771190
H9181	H918	0.340700	0.531180	0.753950
H9191	H919	0.270320	0.166570	0.001610
H9201	H920	0.232440	0.155540	0.985460
H9211	H921	0.259210	0.155220	0.967050
H9221	H922	0.764270	0.851330	0.249890
H9231	H923	0.250320	0.135820	0.955390
H9241	H924	0.233070	0.128430	0.939530
H9251	H925	0.197050	0.156860	0.955450
H9261	H926	0.393530	0.562780	0.829500
H9271	H927	0.213920	0.164670	0.971160
H9281	H928	0.268750	0.156190	0.014980
H9291	H929	0.261490	0.159870	0.031580
H9301	H930	0.215650	0.177610	0.015640
H9311	H931	0.222610	0.174430	0.999180
H9321	H932	0.281120	0.179990	0.998330
H9331	H933	0.302770	0.182810	0.997390
H9341	H934	0.749280	0.862270	0.233520
H9351	H935	0.305820	0.149510	0.968040
H9361	H936	0.284450	0.146180	0.968960
H9371	H937	0.419140	0.554520	0.840350
H9381	H938	0.202850	0.174520	0.044520
H9391	H939	0.194430	0.178000	0.060620
H9401	H940	0.235720	0.179000	0.080330
H9411	H941	0.244140	0.175520	0.064230
H9421	H942	0.340760	0.165150	0.963760
H9431	H943	0.362420	0.168260	0.962730
H9441	H944	0.372450	0.182210	0.996810
H9451	H945	0.350790	0.179100	0.997840
H9461	H946	0.757790	0.903440	0.247790
H9471	H947	0.171550	0.126620	0.928890
H9481	H948	0.585590	0.566910	0.591360
H9491	H949	0.153580	0.119320	0.913480
H9501	H950	0.173850	0.122920	0.892040
H9511	H951	0.191820	0.130220	0.907440
H9521	H952	0.220910	0.182960	0.110460
H9531	H953	0.213280	0.185340	0.126540
H9541	H954	0.170080	0.189110	0.107530
H9551	H955	0.177900	0.186710	0.091480
H9561	H956	0.147120	0.098680	0.864130
H9571	H957	0.130910	0.090170	0.848240
H9581	H958	0.772770	0.892490	0.264160
H9591	H959	0.601480	0.548410	0.603790
H9601	H960	0.097730	0.106260	0.866310
H9611	H961	0.114250	0.114820	0.882310
H9621	H962	0.414380	0.187480	0.994770
H9631	H963	0.436070	0.190310	0.993670
H9641	H964	0.425030	0.177550	0.959460
H9651	H965	0.403390	0.174760	0.960650
H9661	H966	0.355880	0.806150	0.816810
H9671	H967	0.333090	0.855740	0.816860
H9681	H968	0.309540	0.829830	0.817280
H9691	H969	0.289940	0.848020	0.808440
H9701	H970	0.618360	0.512770	0.577760
H9711	H971	0.898300	0.859370	0.399560
H9721	H972	0.266620	0.871130	0.809370
H9731	H973	0.290680	0.899640	0.826590
H9741	H974	0.314320	0.876400	0.826000
H9751	H975	0.369610	0.806960	0.807170
H9761	H976	0.393500	0.805800	0.807180
H9771	H977	0.381800	0.852800	0.824650
H9781	H978	0.357820	0.854070	0.824980
H9791	H979	0.348850	0.785710	0.807130
H9801	H980	0.348540	0.760970	0.807110
H9811	H981	0.602470	0.531270	0.565330
H9821	H982	0.315490	0.785560	0.825890
H9831	H983	0.855220	0.952130	0.136200
H9841	H984	0.911820	0.872540	0.415020
H9851	H985	0.315930	0.810370	0.826270
H9861	H986	0.426700	0.850410	0.819090
H9871	H987	0.451160	0.848100	0.818720
H9881	H988	0.466860	0.798200	0.811490
H9891	H989	0.442400	0.800510	0.811850
H9901	H990	0.309050	0.738310	0.818630
H9911	H991	0.308630	0.713330	0.818400
H9921	H992	0.573590	0.565810	0.542410
H9931	H993	0.352970	0.688650	0.813290
H9941	H994	0.353390	0.713630	0.813510
H9951	H995	0.243030	0.944820	0.822410
H9961	H996	0.893820	0.911560	0.399540
H9971	H997	0.218840	0.967490	0.822980
H9981	H998	0.197760	0.936540	0.816800
H9991	H999	0.221950	0.913870	0.816230
H10001	H1000	0.516470	0.795840	0.817460
H10011	H1001	0.540630	0.794150	0.817030
H10021	H1002	0.519180	0.840820	0.810720
H10031	H1003	0.163020	0.621240	0.764920
H10041	H1004	0.413280	0.718250	0.475080
H10051	H1005	0.495200	0.842370	0.811170
H10061	H1006	0.151410	0.980720	0.819230
H10071	H1007	0.126600	0.004320	0.819780
H10081	H1008	0.147710	0.034380	0.823280
H10091	H1009	0.880300	0.898400	0.384090
H10101	H1010	0.172390	0.010770	0.822720
H10111	H1011	0.352170	0.641410	0.812740
H10121	H1012	0.351970	0.616460	0.812560
H10131	H1013	0.307650	0.641050	0.817970
H10141	H1014	0.307990	0.665930	0.818120
H10151	H1015	0.557720	0.584320	0.529990
H10161	H1016	0.392760	0.912160	0.623150
H10171	H1017	0.431360	0.878900	0.640340
H10181	H1018	0.405410	0.922850	0.657680
H10191	H1019	0.415220	0.907920	0.671030
H10201	H1020	0.432960	0.899710	0.687540
H10211	H1021	0.818430	0.716190	0.306160
H10221	H1022	0.467900	0.873410	0.670460
H10231	H1023	0.450510	0.881800	0.654000
H10241	H1024	0.393650	0.888330	0.610590
H10251	H1025	0.399790	0.868850	0.594300
H10261	H1026	0.539650	0.619430	0.555810
H10271	H1027	0.445990	0.852990	0.609350
H10281	H1028	0.440160	0.872490	0.625470
H10291	H1029	0.369070	0.929700	0.626130
H10301	H1030	0.347780	0.955230	0.626870
H10311	H1031	0.371790	0.973180	0.656170
H10321	H1032	0.393240	0.948000	0.655440
H10331	H1033	0.817820	0.690900	0.304850
H10341	H1034	0.457900	0.811720	0.580200
H10351	H1035	0.465020	0.791510	0.564320
H10361	H1036	0.421030	0.812450	0.545880
H10371	H1037	0.555530	0.600920	0.568230
H10381	H1038	0.413900	0.832660	0.561770
H10391	H1039	0.326940	0.019470	0.660300
H10401	H1040	0.305650	0.045240	0.661420
H10411	H1041	0.288310	0.034460	0.627820
H10421	H1042	0.309600	0.008680	0.626700
H10431	H1043	0.499040	0.850670	0.700870
H10441	H1044	0.517140	0.841880	0.717270
H10451	H1045	0.842730	0.689490	0.337160
H10461	H1046	0.488550	0.880410	0.736400
H10471	H1047	0.470460	0.889190	0.720000
H10481	H1048	0.627000	0.481990	0.605240
H10491	H1049	0.434940	0.773050	0.515290
H10501	H1050	0.442060	0.752400	0.499670
H10511	H1051	0.486110	0.732000	0.518400
H10521	H1052	0.478880	0.752670	0.533950
H10531	H1053	0.519820	0.862280	0.767050
H10541	H1054	0.536210	0.854410	0.783890
H10551	H1055	0.570050	0.819720	0.767080
H10561	H1056	0.553350	0.827830	0.750100
H10571	H1057	0.843340	0.714770	0.338470
H10581	H1058	0.248720	0.085770	0.629710
H10591	H1059	0.642000	0.463790	0.617780
H10601	H1060	0.227340	0.111330	0.630750
H10611	H1061	0.241220	0.119520	0.664960
H10621	H1062	0.262580	0.093920	0.663840
H10631	H1063	0.341390	0.323670	0.823510
H10641	H1064	0.327730	0.285710	0.808530
H10651	H1065	0.312670	0.323720	0.792140
H10661	H1066	0.293770	0.315880	0.782800
H10671	H1067	0.280530	0.302760	0.767400
H10681	H1068	0.310720	0.258560	0.776370
H10691	H1069	0.734540	0.921460	0.215460
H10701	H1070	0.666170	0.492490	0.635020
H10711	H1071	0.324350	0.271380	0.791650
H10721	H1072	0.341720	0.318270	0.838850
H10731	H1073	0.356730	0.306790	0.854760
H10741	H1074	0.365200	0.260910	0.835810
H10751	H1075	0.350480	0.272210	0.819660
H10761	H1076	0.328870	0.350080	0.825430
H10771	H1077	0.329390	0.374880	0.826100
H10781	H1078	0.323530	0.364910	0.792070
H10791	H1079	0.323380	0.339700	0.791250
H10801	H1080	0.385350	0.242260	0.869860
H10811	H1081	0.651040	0.510590	0.622390
H10821	H1082	0.720150	0.933540	0.199690
H10831	H1083	0.400350	0.231460	0.886280
H10841	H1084	0.409600	0.272240	0.900090
H10851	H1085	0.394590	0.283030	0.883660
H10861	H1086	0.314720	0.419660	0.795330
H10871	H1087	0.315370	0.444930	0.796690
H10881	H1088	0.341290	0.442800	0.828700
H10891	H1089	0.340640	0.417520	0.827350
H10901	H1090	0.278240	0.235520	0.749510
H10911	H1091	0.264750	0.222310	0.734060
H10921	H1092	0.507510	0.622120	0.511300
H10931	H1093	0.246750	0.261300	0.718540
H10941	H1094	0.700870	0.899860	0.187270
H10951	H1095	0.260240	0.274510	0.733990
H10961	H1096	0.443240	0.247020	0.930530
H10971	H1097	0.457840	0.235050	0.946570
H10981	H1098	0.438110	0.201770	0.934490
H10991	H1099	0.423750	0.213710	0.918670
H11001	H1100	0.218300	0.235890	0.689060
H11011	H1101	0.204950	0.222180	0.673940
H11021	H1102	0.227760	0.181710	0.688610
H11031	H1103	0.492480	0.640330	0.498720
H11041	H1104	0.240980	0.195450	0.703610
H11051	H1105	0.320610	0.490670	0.798080
H11061	H1106	0.876870	0.954910	0.135200
H11071	H1107	0.715490	0.887760	0.203250
H11081	H1108	0.320950	0.515710	0.798820
H11091	H1109	0.338640	0.519770	0.832690
H11101	H1110	0.338240	0.494580	0.831850
H11111	H1111	0.727030	0.161000	0.976920
H11121	H1112	0.747850	0.190140	0.977120
H11131	H1113	0.701090	0.209820	0.975730
H11141	H1114	0.113300	0.632360	0.744180
H11151	H1115	0.516940	0.668720	0.516070
H11161	H1116	0.705740	0.231100	0.986130
H11171	H1117	0.702240	0.257260	0.985690
H11181	H1118	0.736060	0.237260	0.967810
H11191	H1119	0.739470	0.210830	0.967900
H11201	H1120	0.838360	0.643240	0.335650
H11211	H1121	0.746550	0.141380	0.969110
H11221	H1122	0.770860	0.119090	0.969730
H11231	H1123	0.792530	0.150060	0.986150
H11241	H1124	0.768420	0.172380	0.985880
H11251	H1125	0.702690	0.160980	0.967170
H11261	H1126	0.431460	0.669850	0.477120
H11271	H1127	0.678960	0.160610	0.966490
H11281	H1128	0.665080	0.207110	0.984850
H11291	H1129	0.688670	0.207550	0.985850
H11301	H1130	0.839070	0.107590	0.982060
H11311	H1131	0.863710	0.085400	0.982620
H11321	H1132	0.838060	0.618180	0.334920
H11331	H1133	0.843460	0.053660	0.976320
H11341	H1134	0.818820	0.075850	0.975750
H11351	H1135	0.617130	0.210200	0.977850
H11361	H1136	0.592720	0.211350	0.977240
H11371	H1137	0.531820	0.650430	0.528530
H11381	H1138	0.610090	0.161330	0.969850
H11391	H1139	0.634510	0.160170	0.970460
H11401	H1140	0.733660	0.289640	0.974900
H11411	H1141	0.729280	0.316530	0.974790
H11421	H1142	0.684490	0.332970	0.977620
H11431	H1143	0.688860	0.306080	0.977720
H11441	H1144	0.819820	0.614400	0.301120
H11451	H1145	0.891230	0.011930	0.980870
H11461	H1146	0.915590	0.989590	0.981480
H11471	H1147	0.934990	0.019210	0.980910
H11481	H1148	0.080200	0.042000	0.044780
H11491	H1149	0.910520	0.041530	0.980300
H11501	H1150	0.676670	0.384470	0.976660
H11511	H1151	0.673630	0.410880	0.976630
H11521	H1152	0.719530	0.392140	0.975360
H11531	H1153	0.722370	0.366040	0.975410
H11541	H1154	0.566090	0.163640	0.973320
H11551	H1155	0.542380	0.163800	0.972960
H11561	H1156	0.820180	0.639610	0.301940
H11571	H1157	0.520490	0.212620	0.971320
H11581	H1158	0.544430	0.212290	0.971670
H11591	H1159	0.065870	0.026370	0.033610
H11601	H1160	0.863190	0.810010	0.821260
H11611	H1161	0.826470	0.796720	0.805230
H11621	H1162	0.827250	0.825470	0.836880
H11631	H1163	0.809990	0.817380	0.837480
H11641	H1164	0.785810	0.818080	0.836520
H11651	H1165	0.777720	0.807560	0.802370
H11661	H1166	0.801590	0.807180	0.803140
H11671	H1167	0.876080	0.788120	0.810310
H11681	H1168	0.917960	0.938190	0.429830
H11691	H1169	0.887410	0.773850	0.794790
H11701	H1170	0.037680	0.046210	0.055930
H11711	H1171	0.844680	0.779420	0.774550
H11721	H1172	0.833080	0.794060	0.789920
H11731	H1173	0.877290	0.813150	0.837840
H11741	H1174	0.890300	0.826400	0.853220
H11751	H1175	0.849460	0.856990	0.863130
H11761	H1176	0.836130	0.844070	0.847590
H11771	H1177	0.869730	0.742990	0.745460
H11781	H1178	0.881320	0.728390	0.729880
H11791	H1179	0.919560	0.738160	0.746870
H11801	H1180	0.931220	0.951870	0.444850
H11811	H1181	0.052010	0.061840	0.067100
H11821	H1182	0.907980	0.752760	0.762450
H11831	H1183	0.878470	0.877850	0.896640
H11841	H1184	0.892130	0.890790	0.912150
H11851	H1185	0.928820	0.870320	0.896940
H11861	H1186	0.915160	0.857380	0.881440
H11871	H1187	0.732920	0.801610	0.801010
H11881	H1188	0.708630	0.802010	0.799830
H11891	H1189	0.709850	0.826080	0.832370
H11901	H1190	0.734140	0.825680	0.833540
H11911	H1191	0.939260	0.715040	0.714740
H11921	H1192	0.079540	0.092420	0.088600
H11931	H1193	0.953390	0.911660	0.459750
H11941	H1194	0.951310	0.700730	0.699480
H11951	H1195	0.919880	0.679860	0.685480
H11961	H1196	0.907830	0.694280	0.700840
H11971	H1197	0.663400	0.824030	0.830780
H11981	H1198	0.639310	0.824560	0.830000
H11991	H1199	0.634400	0.806320	0.796310
H12001	H1200	0.658600	0.805820	0.797160
H12011	H1201	0.955830	0.896290	0.927570
H12021	H1202	0.969460	0.909340	0.942900
H12031	H1203	0.093870	0.108050	0.099770
H12041	H1204	0.933110	0.929370	0.958460
H12051	H1205	0.939990	0.898000	0.444620
H12061	H1206	0.919530	0.916270	0.943100
H12071	H1207	0.843790	0.303060	0.838340
H12081	H1208	0.840860	0.300800	0.805060
H12091	H1209	0.806390	0.336880	0.820850
H12101	H1210	0.791550	0.335160	0.804290
H12111	H1211	0.777390	0.346940	0.788410
H12121	H1212	0.817610	0.331540	0.778350
H12131	H1213	0.832100	0.319960	0.794430
H12141	H1214	0.122500	0.087660	0.077710
H12151	H1215	0.860480	0.277330	0.835420
H12161	H1216	0.884490	0.254710	0.835660
H12171	H1217	0.241380	0.693840	0.476100
H12181	H1218	0.889650	0.265140	0.809080
H12191	H1219	0.865910	0.287960	0.808870
H12201	H1220	0.836130	0.323930	0.853180
H12211	H1221	0.823650	0.337930	0.868300
H12221	H1222	0.781370	0.350960	0.846460
H12231	H1223	0.793510	0.336810	0.831390
H12241	H1224	0.930950	0.211940	0.805580
O11	O1	0.974770	0.962550	0.483380
O21	O2	0.203550	0.143920	0.151740
O31	O3	0.107870	0.037610	0.321850
O41	O4	0.702620	0.945900	0.149410
O51	O5	0.081190	0.049600	0.332550
O61	O6	0.040570	0.085820	0.311980
O71	O7	0.056730	0.056090	0.322050
O81	O8	0.052550	0.101650	0.314010
O91	O9	0.070310	0.043410	0.289180
O101	O10	0.050420	0.052980	0.297500
O111	O11	0.465420	0.674740	0.156850
O121	O12	0.431540	0.694170	0.144440
O131	O13	0.197340	0.185420	0.137500
O141	O14	0.475930	0.652580	0.134930
O151	O15	0.476780	0.700530	0.157150
O161	O16	0.968120	0.967180	0.506260
O171	O17	0.701640	0.938960	0.182290
O181	O18	0.442060	0.669040	0.134530
O191	O19	0.451460	0.712110	0.157570
O201	O20	0.490690	0.666620	0.144230
O211	O21	0.498840	0.672600	0.168990
O221	O22	0.456510	0.679320	0.179060
O231	O23	0.490350	0.662830	0.178130
O241	O24	0.171070	0.149250	0.139120
O251	O25	0.439560	0.699830	0.169720
O261	O26	0.462990	0.641270	0.146800
O271	O27	0.469590	0.645320	0.165630
O281	O28	0.576040	0.317010	0.320340
O291	O29	0.684070	0.974460	0.180970
O301	O30	0.611600	0.304000	0.321750
O311	O31	0.567640	0.338380	0.303110
O321	O32	0.572750	0.287470	0.302020
O331	O33	0.599050	0.329330	0.318160
O341	O34	0.596740	0.280390	0.313070
O351	O35	0.983960	0.986200	0.504750
O361	O36	0.556380	0.320520	0.296190
O371	O37	0.545040	0.312100	0.311390
O381	O38	0.580890	0.313520	0.344730
O391	O39	0.548540	0.322330	0.329830
O401	O40	0.601530	0.295450	0.337290
O411	O41	0.650660	0.975050	0.147490
O421	O42	0.571060	0.353500	0.327420
O431	O43	0.562920	0.346620	0.338770
O441	O44	0.828920	0.560520	0.318010
O451	O45	0.857510	0.563370	0.336580
O461	O46	0.173090	0.188230	0.127410
O471	O47	0.841170	0.523130	0.316870
O481	O48	0.808820	0.569140	0.334960
O491	O49	0.864100	0.538500	0.325640
O501	O50	0.826200	0.580380	0.342160
O511	O51	0.816960	0.536540	0.319950
O521	O52	0.793920	0.566450	0.310490
O531	O53	0.658940	0.983370	0.172230
O541	O54	0.823840	0.589650	0.308410
O551	O55	0.800280	0.575110	0.299180
O561	O56	0.833810	0.592810	0.327010
O571	O57	0.214890	0.159320	0.151450
O581	O58	0.848970	0.534080	0.301250
O591	O59	0.831650	0.556150	0.293660
O601	O60	0.669490	0.959690	0.137900
O611	O61	0.656520	0.934030	0.162400
O621	O62	0.643420	0.960550	0.161200
O631	O63	0.193130	0.475210	0.474280
O641	O64	0.206280	0.498070	0.472150
O651	O65	0.159370	0.495380	0.462260
O661	O66	0.962390	0.935240	0.471420
O671	O67	0.201390	0.451450	0.452110
O681	O68	0.203850	0.194790	0.162790
O691	O69	0.181070	0.511860	0.473200
O701	O70	0.218450	0.463000	0.460770
O711	O71	0.167810	0.469220	0.453510
O721	O72	0.189430	0.442280	0.466320
O731	O73	0.217280	0.466480	0.496610
O741	O74	0.196710	0.447990	0.485140
O751	O75	0.227020	0.472140	0.485760
O761	O76	0.168320	0.503110	0.487020
O771	O77	0.183220	0.482780	0.496630
O781	O78	0.943040	0.990600	0.475360
O791	O79	0.152090	0.211060	0.158350
O801	O80	0.965740	0.657390	0.659390
O811	O81	0.956950	0.681640	0.681410
O821	O82	0.931820	0.660410	0.647680
O831	O83	0.962160	0.684450	0.648420
O841	O84	0.940270	0.669690	0.672980
O851	O85	0.969110	0.690450	0.667180
O861	O86	0.941700	0.666080	0.637010
O871	O87	0.975480	0.649870	0.636960
O881	O88	0.999640	0.636630	0.671100
O891	O89	0.990540	0.629410	0.646390
O901	O90	0.184460	0.205320	0.171720
O911	O91	0.972840	0.941380	0.496580
O921	O92	0.990580	0.664150	0.680250
O931	O93	0.952340	0.634750	0.661360
O941	O94	0.977330	0.620700	0.659990
O951	O95	0.480430	0.186870	0.973820
O961	O96	0.501830	0.201180	0.971730
O971	O97	0.507520	0.160230	0.986640
O981	O98	0.472650	0.211220	0.995840
O991	O99	0.514940	0.174670	0.972970
O1001	O100	0.477820	0.222230	0.985200
O1011	O101	0.147340	0.203990	0.139620
O1021	O102	0.488780	0.175730	0.996300
O1031	O103	0.950430	0.995130	0.494000
O1041	O104	0.455540	0.189430	0.984730
O1051	O105	0.456670	0.196340	0.951830
O1061	O106	0.449380	0.182340	0.966030
O1071	O107	0.468180	0.213990	0.959960
O1081	O108	0.499280	0.151920	0.961990
O1091	O109	0.474190	0.160970	0.953150
O1101	O110	0.184230	0.170790	0.650250
O1111	O111	0.166990	0.166170	0.664060
O1121	O112	0.992140	0.966850	0.469500
O1131	O113	0.178270	0.158270	0.163990
O1141	O114	0.216050	0.143010	0.658270
O1151	O115	0.174960	0.147220	0.628980
O1161	O116	0.949990	0.956320	0.462390
O1171	O117	0.192480	0.158440	0.672090
O1181	O118	0.157140	0.159300	0.639390
O1191	O119	0.208550	0.138390	0.639570
O1201	O120	0.190700	0.166260	0.627380
O1211	O121	0.162250	0.207960	0.651290
O1221	O122	0.185910	0.192170	0.637050
O1231	O123	0.149890	0.193700	0.651770
O1241	O124	0.169060	0.185010	0.172070
O1251	O125	0.208960	0.177180	0.671140
O1261	O126	0.196150	0.198480	0.662180
O1271	O127	0.693280	0.458720	0.976650
O1281	O128	0.966710	0.974790	0.461460
O1291	O129	0.681960	0.432860	0.976420
O1301	O130	0.719350	0.433780	0.963930
O1311	O131	0.668420	0.470570	0.955350
O1321	O132	0.707270	0.421150	0.975910
O1331	O133	0.660050	0.460720	0.964520
O1341	O134	0.702290	0.454130	0.954470
O1351	O135	0.979760	0.953970	0.983330
O1361	O136	0.689130	0.488230	0.967860
O1371	O137	0.682570	0.481000	0.998520
O1381	O138	0.695780	0.492240	0.986690
O1391	O139	0.668170	0.466550	0.989260
O1401	O140	0.002200	0.973500	0.494050
O1411	O141	0.727080	0.439430	0.988990
O1421	O142	0.716510	0.464560	0.998880
O1431	O143	0.477160	0.690560	0.477290
O1441	O144	0.509390	0.692860	0.487680
O1451	O145	0.488160	0.664950	0.456470
O1461	O146	0.955120	0.939190	0.970380
O1471	O147	0.484570	0.663790	0.490020
O1481	O148	0.505180	0.686160	0.468960
O1491	O149	0.498430	0.678790	0.499490
O1501	O150	0.478540	0.655830	0.465280
O1511	O151	0.452410	0.678710	0.476800
O1521	O152	0.996190	0.925180	0.482400
O1531	O153	0.990230	0.948570	0.961800
O1541	O154	0.955040	0.989760	0.981700
O1551	O155	0.974730	0.928250	0.961760
O1561	O156	0.944040	0.974130	0.982010
O1571	O157	0.980720	0.975230	0.969700
O1581	O158	0.458800	0.725890	0.488790
O1591	O159	0.987520	0.984780	0.994300
O1601	O160	0.986060	0.945030	0.006200
O1611	O161	0.002110	0.964050	0.004870
O1621	O162	0.961350	0.948100	0.995570
O1631	O163	0.007350	0.922350	0.975280
O1641	O164	0.009150	0.939320	0.481690
O1651	O165	0.012120	0.928930	0.993950
O1661	O166	0.681800	0.442320	0.656600
O1671	O167	0.706570	0.454170	0.657060
O1681	O168	0.705880	0.415180	0.670160
O1691	O169	0.441420	0.705200	0.475810
O1701	O170	0.670680	0.468110	0.677390
O1711	O171	0.717480	0.427620	0.657880
O1721	O172	0.680350	0.477080	0.668500
O1731	O173	0.686170	0.432650	0.678860
O1741	O174	0.653610	0.446710	0.664820
O1751	O175	0.660650	0.453850	0.634420
O1761	O176	0.677840	0.948440	0.160340
O1771	O177	0.649610	0.440160	0.646100
O1781	O178	0.674200	0.469180	0.643830
O1791	O179	0.700180	0.406930	0.644920
O1801	O180	0.482750	0.714790	0.499320
O1811	O181	0.676150	0.418210	0.634520
O1821	O182	0.582970	0.816130	0.813080
O1831	O183	0.614040	0.820900	0.822040
O1841	O184	0.596060	0.786400	0.794620
O1851	O185	0.591390	0.794760	0.830280
O1861	O186	0.610320	0.811040	0.803550
O1871	O187	0.602690	0.812580	0.837240
O1881	O188	0.685650	0.924160	0.138280
O1891	O189	0.587870	0.779710	0.806050
O1901	O190	0.559950	0.803760	0.815120
O1911	O191	0.472890	0.700130	0.455020
O1921	O192	0.562280	0.852780	0.820280
O1931	O193	0.547410	0.829200	0.811760
O1941	O194	0.586240	0.845770	0.831360
O1951	O195	0.578220	0.819630	0.788730
O1961	O196	0.557560	0.837660	0.796150
O1971	O197	0.084010	0.071200	0.822170
O1981	O198	0.078830	0.086440	0.802360
O1991	O199	0.109740	0.083070	0.837430
O2001	O200	0.690400	0.921080	0.174040
O2011	O201	0.057370	0.101980	0.831780
O2021	O202	0.453210	0.717850	0.463700
O2031	O203	0.103290	0.079990	0.812870
O2041	O204	0.052290	0.098260	0.813080
O2051	O205	0.089690	0.092880	0.845700
O2061	O206	0.072540	0.072420	0.842020
O2071	O207	0.075230	0.042520	0.806800
O2081	O208	0.080430	0.046990	0.831450
O2091	O209	0.063050	0.064640	0.798730
O2101	O210	0.119350	0.050230	0.822880
O2111	O211	0.107390	0.034480	0.821060
O2121	O212	0.708840	0.953040	0.168100
O2131	O213	0.179450	0.179560	0.150380
O2141	O214	0.329850	0.573550	0.815750
O2151	O215	0.317570	0.610950	0.816760
O2161	O216	0.364790	0.567640	0.823290
O2171	O217	0.326870	0.577900	0.840020
O2181	O218	0.341880	0.597620	0.813840
O2191	O219	0.309670	0.599970	0.832410
O2201	O220	0.358400	0.558780	0.834470
O2211	O221	0.334770	0.544490	0.825380
O2221	O222	0.301380	0.570680	0.797140
O2231	O223	0.325090	0.541110	0.806730
O2241	O224	0.157430	0.168920	0.128960
O2251	O225	0.680870	0.912880	0.148960
O2261	O226	0.294770	0.595490	0.808140
O2271	O227	0.350010	0.564830	0.798780
O2281	O228	0.332630	0.553590	0.791630
O2291	O229	0.076060	0.064790	0.312760
O2301	O230	0.079580	0.089140	0.303580
O2311	O231	0.103030	0.034050	0.303190
O2321	O232	0.096950	0.071240	0.336100
O2331	O233	0.087570	0.063740	0.292960
O2341	O234	0.084510	0.093490	0.328160
Zn11	Zn1	0.969530	0.977180	0.496480
Zn21	Zn2	0.499670	0.169240	0.973840
Zn31	Zn3	0.474530	0.190680	0.987060
Zn41	Zn4	0.976440	0.941960	0.483390
Zn51	Zn5	0.465790	0.181850	0.961750
Zn61	Zn6	0.165370	0.172450	0.651250
Zn71	Zn7	0.199790	0.162710	0.662370
Zn81	Zn8	0.189400	0.156250	0.637150
Zn91	Zn9	0.182210	0.191520	0.650230
Zn101	Zn10	0.676630	0.454840	0.976700
Zn111	Zn11	0.710990	0.439120	0.976380
Zn121	Zn12	0.176230	0.495480	0.474160
Zn131	Zn13	0.688500	0.467550	0.964090
Zn141	Zn14	0.696910	0.473450	0.989620
Zn151	Zn15	0.491370	0.694140	0.490380
Zn161	Zn16	0.959250	0.970700	0.471220
Zn171	Zn17	0.485510	0.685720	0.464990
Zn181	Zn18	0.473260	0.673060	0.477320
Zn191	Zn19	0.458450	0.709060	0.476420
Zn201	Zn20	0.164980	0.184910	0.137170
Zn211	Zn21	0.182880	0.158680	0.151210
Zn221	Zn22	0.198110	0.179830	0.150560
Zn231	Zn23	0.188120	0.460230	0.462050
Zn241	Zn24	0.171650	0.194620	0.162600
Zn251	Zn25	0.960900	0.953820	0.982780
Zn261	Zn26	0.987620	0.938840	0.971110
Zn271	Zn27	0.975900	0.975010	0.982380
Zn281	Zn28	0.993720	0.960590	0.482260
Zn291	Zn29	0.994400	0.948180	0.996480
Zn301	Zn30	0.685650	0.459840	0.656510
Zn311	Zn31	0.700500	0.423780	0.657360
Zn321	Zn32	0.673400	0.447160	0.668880
Zn331	Zn33	0.667670	0.438680	0.643510
Zn341	Zn34	0.197470	0.468380	0.487610
Zn351	Zn35	0.595970	0.823510	0.825380
Zn361	Zn36	0.591580	0.808640	0.800540
Zn371	Zn37	0.580590	0.799360	0.816010
Zn381	Zn38	0.563430	0.833150	0.810460
Zn391	Zn39	0.070050	0.079750	0.809630
Zn401	Zn40	0.683680	0.944690	0.147080
Zn411	Zn41	0.103250	0.071090	0.823820
Zn421	Zn42	0.076270	0.084130	0.834860
Zn431	Zn43	0.086700	0.049720	0.820390
Zn441	Zn44	0.313680	0.594080	0.818150
Zn451	Zn45	0.970380	0.672710	0.671560
Zn461	Zn46	0.345930	0.575810	0.813040
Zn471	Zn47	0.337140	0.564090	0.828370
Zn481	Zn48	0.322560	0.560300	0.803340
Zn491	Zn49	0.073210	0.086350	0.314560
Zn501	Zn50	0.083940	0.051920	0.300100
Zn511	Zn51	0.089990	0.056130	0.325230
Zn521	Zn52	0.676480	0.929870	0.161400
Zn531	Zn53	0.056770	0.064990	0.311110
Zn541	Zn54	0.447700	0.694320	0.157110
Zn551	Zn55	0.461660	0.660130	0.143840
Zn561	Zn56	0.948220	0.655780	0.660320
Zn571	Zn57	0.482180	0.678480	0.156820
Zn581	Zn58	0.470230	0.665950	0.169400
Zn591	Zn59	0.595610	0.299980	0.322990
Zn601	Zn60	0.578390	0.333800	0.317390
Zn611	Zn61	0.563050	0.309630	0.308060
Zn621	Zn62	0.567420	0.324460	0.332860
Zn631	Zn63	0.836280	0.573700	0.330410
Zn641	Zn64	0.692460	0.953530	0.172400
Zn651	Zn65	0.845140	0.539970	0.315590
Zn661	Zn66	0.812830	0.558320	0.320730
Zn671	Zn67	0.961370	0.664180	0.646020
Zn681	Zn68	0.821510	0.569970	0.305350
Zn691	Zn69	0.658600	0.966050	0.160330
Zn701	Zn70	0.210490	0.477000	0.473280
Zn711	Zn71	0.982580	0.636950	0.659240
Zn721	Zn72	0.481950	0.205340	0.972710
