data_c6ce00407e_c6ce00407e9_freeONLY_PM
_symmetry_space_group_name_H-M	'P1'
_cell_length_a	19.015300
_cell_length_b	17.314600
_cell_length_c	14.772900
_cell_angle_alpha	110.339000
_cell_angle_beta	114.077000
_cell_angle_gamma	60.314200
_symmetry_Int_Tables_number 1

loop_
_symmetry_equiv_pos_as_xyz
'x,y,z'

loop_
_atom_site_label
_atom_site_type_symbol
_atom_site_fract_x
_atom_site_fract_y
_atom_site_fract_z
C11	C1	0.682360	0.011380	0.389900
C21	C2	0.806780	0.825220	0.457430
C31	C3	0.748590	0.837360	0.360380
H11	H1	0.747190	0.777270	0.305170
C41	C4	0.690800	0.924190	0.329210
H21	H2	0.650570	0.921760	0.252340
C51	C5	0.784650	0.255860	0.318050
H31	H3	0.809600	0.183920	0.314450
C61	C6	0.842080	0.299300	0.367250
H41	H4	0.908490	0.257580	0.395790
C71	C7	0.284760	0.256890	0.242300
C81	C8	0.279430	0.235720	0.322170
H51	H5	0.330050	0.176460	0.352440
C91	C9	0.216030	0.292000	0.372020
H61	H6	0.218570	0.271430	0.434900
C101	C10	0.153710	0.375690	0.347560
C111	C11	0.156840	0.396780	0.266120
H71	H7	0.111360	0.461150	0.243660
C121	C12	0.220520	0.339860	0.215970
H81	H8	0.223590	0.365190	0.161020
C131	C13	0.740750	0.999880	0.487890
H91	H9	0.742270	0.060110	0.542750
C141	C14	0.799230	0.912100	0.519350
H101	H10	0.840300	0.913050	0.595910
C151	C15	0.696690	0.303930	0.280160
C161	C16	0.816310	0.393800	0.383500
C171	C17	0.729110	0.440720	0.344420
H111	H11	0.703290	0.513440	0.353610
C181	C18	0.672360	0.397810	0.296180
H121	H12	0.605730	0.441010	0.272620
C191	C19	0.307380	0.400280	0.026390
C201	C20	0.316400	0.371070	0.927070
H131	H13	0.376990	0.320200	0.917270
C211	C21	0.251570	0.402380	0.836460
H141	H14	0.268330	0.373360	0.766600
C221	C22	0.167820	0.467410	0.832350
C231	C23	0.157590	0.497750	0.931430
H151	H15	0.096030	0.547700	0.939110
C241	C24	0.223200	0.466200	0.023150
H161	H16	0.206220	0.493900	0.092820
C251	C25	0.980390	0.540370	0.529390
C261	C26	0.876060	0.443140	0.440250
C271	C27	0.920730	0.488660	0.486790
C281	C28	0.041170	0.524100	0.644740
C291	C29	0.096770	0.499920	0.729910
C301	C30	0.090440	0.439660	0.407950
C311	C31	0.041010	0.491270	0.461450
C321	C32	0.870660	0.727440	0.489960
C331	C33	0.921460	0.646800	0.513330
O11	O1	0.395410	0.369140	0.222420
O21	O2	0.449090	0.281810	0.089500
C341	C34	0.385460	0.351450	0.119500
O31	O3	0.567490	0.328080	0.296750
O41	O4	0.616940	0.193060	0.190820
C351	C35	0.625830	0.270210	0.252240
Cu11	Cu1	0.493370	0.293580	0.319240
Cu21	Cu2	0.512470	0.176800	0.156020
O51	O5	0.593440	0.194950	0.386140
O61	O6	0.572730	0.088460	0.245770
O71	O7	0.423200	0.241490	0.319260
O81	O8	0.403450	0.184710	0.149980
C361	C36	0.613940	0.104140	0.342400
C371	C37	0.373590	0.222730	0.232590
