data_c6ce00407e_c6ce00407e4_freeONLY_PM
_symmetry_space_group_name_H-M	'P1'
_cell_length_a	69.298000
_cell_length_b	69.305500
_cell_length_c	69.301300
_cell_angle_alpha	89.649400
_cell_angle_beta	92.919300
_cell_angle_gamma	90.433600
_symmetry_Int_Tables_number 1

loop_
_symmetry_equiv_pos_as_xyz
'x,y,z'

loop_
_atom_site_label
_atom_site_type_symbol
_atom_site_fract_x
_atom_site_fract_y
_atom_site_fract_z
Zn11	Zn1	0.519060	0.484250	0.504120
Zn21	Zn2	0.519190	0.529570	0.503900
Zn31	Zn3	0.486020	0.506800	0.480310
Zn41	Zn4	0.486930	0.506730	0.525650
O11	O1	0.502800	0.506840	0.503500
O21	O2	0.546330	0.490350	0.504680
O31	O3	0.514420	0.545870	0.481650
O41	O4	0.489860	0.484660	0.464320
O51	O5	0.546420	0.523750	0.504550
O61	O6	0.514210	0.467980	0.482010
O71	O7	0.490010	0.528970	0.464100
O81	O8	0.458880	0.506680	0.485410
O91	O9	0.491410	0.484570	0.542100
O101	O10	0.459550	0.506640	0.518830
O111	O11	0.515360	0.468080	0.526330
O121	O12	0.515560	0.545660	0.525980
O131	O13	0.491540	0.528870	0.541920
C11	C1	0.449740	0.506650	0.501840
C21	C2	0.503670	0.543600	0.540300
C31	C3	0.503490	0.469980	0.540620
C41	C4	0.555840	0.507090	0.504660
C51	C5	0.501900	0.469950	0.466870
C61	C6	0.502110	0.543790	0.466520
H11	H1	0.984240	0.258450	0.267820
C71	C7	0.994900	0.243870	0.243540
C81	C8	0.008720	0.244050	0.229750
H21	H2	0.009130	0.232320	0.219610
C91	C9	0.022650	0.258540	0.229540
C101	C10	0.022580	0.272990	0.243330
H31	H3	0.032870	0.284730	0.242830
C111	C11	0.008730	0.273120	0.257090
C121	C12	0.995010	0.258480	0.257100
C131	C13	0.056300	0.264180	0.219450
H41	H4	0.060660	0.268320	0.234040
C141	C14	0.070060	0.264080	0.205650
H51	H5	0.084760	0.268390	0.209560
C151	C15	0.065180	0.258410	0.186970
C161	C16	0.046400	0.252840	0.182210
H61	H6	0.042400	0.248470	0.167590
C171	C17	0.032610	0.252880	0.195970
H71	H7	0.017950	0.248790	0.191680
C181	C18	0.037400	0.258550	0.214770
C191	C19	0.974440	0.220770	0.261260
H81	H8	0.981090	0.225680	0.274800
C201	C20	0.960350	0.206560	0.261590
H91	H9	0.956010	0.200840	0.275270
C211	C21	0.951770	0.199640	0.244600
C221	C22	0.957520	0.206950	0.227220
H101	H10	0.950820	0.201660	0.213830
C231	C23	0.971650	0.221140	0.226830
H111	H11	0.975540	0.226930	0.213030
C241	C24	0.980190	0.228290	0.243860
C251	C25	0.991080	0.296120	0.277160
H121	H12	0.977530	0.291170	0.270460
C261	C26	0.990760	0.310270	0.291110
H131	H13	0.977090	0.315900	0.295300
C271	C27	0.007750	0.317240	0.299750
C281	C28	0.025120	0.310050	0.294180
H141	H14	0.038510	0.315370	0.300920
C291	C29	0.025500	0.295910	0.280180
H151	H15	0.039280	0.290210	0.276430
C301	C30	0.008450	0.288690	0.271610
C311	C31	0.936820	0.185020	0.245080
C321	C32	0.924250	0.172820	0.245610
C331	C33	0.079580	0.258290	0.172560
C341	C34	0.091610	0.258160	0.160470
C351	C35	0.007260	0.331770	0.314580
C361	C36	0.006660	0.343900	0.327040
C371	C37	0.907740	0.143930	0.232620
H161	H16	0.917850	0.143560	0.221260
C381	C38	0.893380	0.130020	0.233360
H171	H17	0.892310	0.118810	0.222560
C391	C39	0.880390	0.130350	0.247820
C401	C40	0.881880	0.144720	0.261550
H181	H18	0.871780	0.145090	0.272920
C411	C41	0.896250	0.158640	0.260810
H191	H19	0.897320	0.169830	0.271610
C421	C42	0.909230	0.158300	0.246350
C431	C43	0.019620	0.372780	0.343540
H201	H20	0.031160	0.373280	0.333630
C441	C44	0.018740	0.386620	0.357770
H211	H21	0.029600	0.397890	0.358910
C451	C45	0.004040	0.386140	0.370500
C461	C46	0.990230	0.371690	0.368900
H221	H22	0.978670	0.371200	0.378800
C471	C47	0.991110	0.357840	0.354680
H231	H23	0.980230	0.346590	0.353510
C481	C48	0.005810	0.358330	0.341940
C491	C49	0.104900	0.244490	0.131420
H241	H24	0.093280	0.233980	0.130790
C501	C50	0.118610	0.244350	0.117580
H251	H25	0.117660	0.233720	0.106210
C511	C51	0.133520	0.257710	0.118210
C521	C52	0.134590	0.271220	0.132810
H261	H26	0.146200	0.281740	0.133430
C531	C53	0.120870	0.271370	0.146650
H271	H27	0.121820	0.281990	0.158010
C541	C54	0.105960	0.258000	0.146020
C551	C55	0.865410	0.115780	0.248570
C561	C56	0.852930	0.103500	0.249070
C571	C57	0.147860	0.257570	0.103740
C581	C58	0.159890	0.257490	0.091640
C591	C59	0.003130	0.400650	0.385310
C601	C60	0.002500	0.412900	0.397640
C611	C61	0.823130	0.090170	0.261720
H281	H28	0.822450	0.102460	0.271190
C621	C62	0.808940	0.076020	0.261950
H291	H29	0.797350	0.077550	0.271670
C631	C63	0.809600	0.060200	0.249860
C641	C64	0.824710	0.058820	0.237610
H301	H30	0.825710	0.046710	0.227980
C651	C65	0.838850	0.072990	0.237430
H311	H31	0.850540	0.071750	0.227780
C661	C66	0.838130	0.088720	0.249450
C671	C67	0.190040	0.269710	0.078890
H321	H32	0.191630	0.279380	0.091050
C681	C68	0.203820	0.269720	0.065130
H331	H33	0.215980	0.279510	0.066860
C691	C69	0.202020	0.257420	0.049430
C701	C70	0.186160	0.245110	0.047820
H341	H34	0.184280	0.235330	0.035780
C711	C71	0.172410	0.245150	0.061630
H351	H35	0.160110	0.235490	0.060190
C721	C72	0.174270	0.257440	0.077220
C731	C73	0.989660	0.426010	0.427220
H361	H36	0.980240	0.413560	0.428030
C741	C74	0.989340	0.440150	0.441230
H371	H37	0.979600	0.438450	0.452820
C751	C75	0.001390	0.456160	0.440410
C761	C76	0.013680	0.457750	0.425310
H381	H38	0.023290	0.470010	0.424190
C771	C77	0.013950	0.443600	0.411360
H391	H39	0.023640	0.445010	0.399690
C781	C78	0.001990	0.427670	0.412250
H401	H40	0.030720	0.733010	0.240630
C791	C79	0.020010	0.758940	0.227180
C801	C80	0.005840	0.773090	0.227050
H411	H41	0.005820	0.784320	0.216190
C811	C81	0.991740	0.773140	0.240600
C821	C82	0.991800	0.758770	0.254550
H421	H42	0.981690	0.759290	0.265880
C831	C83	0.006470	0.743760	0.254910
C841	C84	0.020240	0.744420	0.241120
C851	C85	0.958050	0.783840	0.244810
H431	H43	0.953860	0.769090	0.247640
C861	C86	0.944200	0.798060	0.245300
H441	H44	0.929600	0.794300	0.248760
C871	C87	0.948890	0.817020	0.241470
C881	C88	0.967540	0.821630	0.236950
H451	H45	0.971370	0.836470	0.234010
C891	C89	0.981440	0.807420	0.236410
H461	H46	0.996040	0.811520	0.233330
C901	C90	0.976860	0.788370	0.240460
C911	C91	0.053750	0.754310	0.217320
H471	H47	0.058180	0.750800	0.232100
C921	C92	0.067490	0.754300	0.203510
H481	H48	0.082250	0.750540	0.207600
C931	C93	0.062490	0.759090	0.184570
C941	C94	0.043620	0.763960	0.179570
H491	H49	0.039530	0.767650	0.164750
C951	C95	0.029840	0.764030	0.193360
H501	H50	0.015100	0.767480	0.188910
C961	C96	0.034750	0.759150	0.212410
C971	C97	0.023500	0.720790	0.277710
H511	H51	0.037280	0.726340	0.273470
C981	C98	0.023250	0.706600	0.291840
H521	H52	0.036710	0.701080	0.298130
C991	C99	0.005940	0.699590	0.298080
C1001	C100	0.988870	0.706820	0.290030
H531	H53	0.975240	0.701360	0.294780
C1011	C101	0.989060	0.721030	0.275960
H541	H54	0.975440	0.726190	0.269730
C1021	C102	0.006380	0.728220	0.269660
C1031	C103	0.076870	0.758910	0.170140
C1041	C104	0.088940	0.758720	0.158090
C1051	C105	0.934400	0.831840	0.242400
C1061	C106	0.922140	0.844120	0.243320
C1071	C107	0.005620	0.684940	0.312980
C1081	C108	0.005210	0.672700	0.325510
C1091	C109	0.103090	0.772060	0.129060
H551	H55	0.091990	0.782960	0.128300
C1101	C110	0.116920	0.771810	0.115340
H561	H56	0.116570	0.782510	0.103920
C1111	C111	0.131170	0.757960	0.116150
C1121	C112	0.131460	0.744350	0.130820
H571	H57	0.142560	0.733460	0.131580
C1131	C113	0.117630	0.744600	0.144540
H581	H58	0.117990	0.733900	0.155960
C1141	C114	0.103380	0.758460	0.143730
C1151	C115	0.990620	0.658760	0.353960
H591	H59	0.980100	0.670220	0.353310
C1161	C116	0.989990	0.644800	0.368270
H601	H60	0.978990	0.645390	0.378760
C1171	C117	0.003350	0.630100	0.369210
C1181	C118	0.017350	0.629480	0.355730
H611	H61	0.027850	0.618010	0.356370
C1191	C119	0.017970	0.643440	0.341420
H621	H62	0.028960	0.642840	0.330930
C1201	C120	0.004610	0.658140	0.340480
C1211	C121	0.906560	0.873920	0.231580
H631	H63	0.916990	0.875010	0.220530
C1221	C122	0.892410	0.887790	0.232690
H641	H64	0.891840	0.899680	0.222510
C1231	C123	0.879000	0.886530	0.246730
C1241	C124	0.879860	0.871290	0.259660
H651	H65	0.869410	0.870180	0.270690
C1251	C125	0.894000	0.857410	0.258550
H661	H66	0.894560	0.845510	0.268710
C1261	C126	0.907410	0.858660	0.244500
C1271	C127	0.145630	0.757710	0.101810
C1281	C128	0.157730	0.757540	0.089780
C1291	C129	0.864210	0.901030	0.247820
C1301	C130	0.851890	0.913270	0.248570
C1311	C131	0.002710	0.615490	0.384130
C1321	C132	0.002270	0.603190	0.396580
C1331	C133	0.187680	0.745080	0.077250
H671	H67	0.189100	0.735450	0.089560
C1341	C134	0.201480	0.744960	0.063480
H681	H68	0.213480	0.735160	0.065360
C1351	C135	0.199900	0.757220	0.047610
C1361	C136	0.184240	0.769560	0.045810
H691	H69	0.182530	0.779320	0.033630
C1371	C137	0.170490	0.769620	0.059600
H701	H70	0.158370	0.779320	0.058010
C1381	C138	0.172130	0.757400	0.075380
C1391	C139	0.822330	0.926310	0.261510
H711	H71	0.821520	0.913830	0.270880
C1401	C140	0.808320	0.940430	0.261900
H721	H72	0.796730	0.938680	0.271630
C1411	C141	0.809130	0.956470	0.249910
C1421	C142	0.824240	0.958110	0.237630
H731	H73	0.825350	0.970400	0.228070
C1431	C143	0.838190	0.943990	0.237300
H741	H74	0.849850	0.945440	0.227600
C1441	C144	0.837300	0.928020	0.249190
C1451	C145	0.013950	0.572710	0.410620
H751	H75	0.023610	0.571480	0.398920
C1461	C146	0.013790	0.558540	0.424740
H761	H76	0.023430	0.546450	0.423740
C1471	C147	0.001540	0.559900	0.439860
C1481	C148	0.989430	0.575690	0.440530
H771	H77	0.979710	0.577210	0.452120
C1491	C149	0.989650	0.589840	0.426350
H781	H78	0.980170	0.602100	0.427050
C1501	C150	0.001920	0.588410	0.411360
H791	H79	0.021830	0.282460	0.742820
C1511	C151	0.996440	0.271380	0.727880
C1521	C152	0.981800	0.257640	0.728130
H801	H80	0.970480	0.257630	0.716830
C1531	C153	0.981570	0.243910	0.742760
C1541	C154	0.996160	0.244030	0.757180
H811	H81	0.996540	0.232870	0.768130
C1551	C155	0.010850	0.257670	0.757140
C1561	C156	0.010880	0.271290	0.742450
C1571	C157	0.958560	0.223430	0.760300
H821	H82	0.963430	0.230150	0.773730
C1581	C158	0.944390	0.209320	0.760650
H831	H83	0.938640	0.205010	0.774240
C1591	C159	0.937560	0.200680	0.743760
C1601	C160	0.944900	0.206350	0.726470
H841	H84	0.939670	0.199580	0.713180
C1611	C161	0.959050	0.220510	0.726060
H851	H85	0.964880	0.224340	0.712380
C1621	C162	0.966090	0.229130	0.743000
C1631	C163	0.013950	0.291860	0.704850
H861	H86	0.027380	0.285160	0.709710
C1641	C164	0.014280	0.305950	0.690680
H871	H87	0.027870	0.310260	0.684910
C1651	C165	0.997390	0.314560	0.683870
C1661	C166	0.980110	0.308880	0.691240
H881	H88	0.966810	0.315630	0.686030
C1671	C167	0.979710	0.294740	0.705390
H891	H89	0.966040	0.290900	0.711250
C1681	C168	0.996660	0.286150	0.712410
C1691	C169	0.045280	0.261720	0.768390
H901	H90	0.049070	0.264530	0.753710
C1701	C170	0.059740	0.261690	0.782870
H911	H91	0.074490	0.264750	0.779410
C1711	C171	0.055480	0.257680	0.801700
C1721	C172	0.036650	0.253680	0.805990
H921	H92	0.033210	0.250620	0.820740
C1731	C173	0.022160	0.253650	0.791540
H931	H93	0.007470	0.250840	0.795360
C1741	C174	0.026330	0.257680	0.772590
C1751	C175	0.997880	0.329470	0.669280
C1761	C176	0.998420	0.342000	0.657090
C1771	C177	0.922980	0.185740	0.744270
C1781	C178	0.910800	0.173180	0.744830
C1791	C179	0.070590	0.257680	0.816780
C1801	C180	0.083260	0.257670	0.829430
C1811	C181	0.985040	0.358010	0.627850
H941	H94	0.973340	0.347600	0.627200
C1821	C182	0.985800	0.372320	0.613910
H951	H95	0.974690	0.373060	0.602410
C1831	C183	0.000710	0.385670	0.614620
C1841	C184	0.014840	0.384630	0.629350
H961	H96	0.026550	0.395040	0.629990
C1851	C185	0.014080	0.370320	0.643290
H971	H97	0.025200	0.369570	0.654780
C1861	C186	0.999180	0.356960	0.642580
C1871	C187	0.097580	0.244900	0.859840
H981	H98	0.085600	0.234890	0.860510
C1881	C188	0.112060	0.244890	0.874300
H991	H99	0.111380	0.234870	0.886260
C1891	C189	0.127410	0.257640	0.873520
C1901	C190	0.128190	0.270400	0.858210
H1001	H100	0.140170	0.280420	0.857530
C1911	C191	0.113710	0.270410	0.843740
H1011	H101	0.114390	0.280430	0.831780
C1921	C192	0.098370	0.257660	0.844520
C1931	C193	0.881570	0.157070	0.731450
H1021	H102	0.880920	0.167450	0.719730
C1941	C194	0.867650	0.142740	0.732220
H1031	H103	0.856150	0.141940	0.721110
C1951	C195	0.868350	0.129430	0.747150
C1961	C196	0.883080	0.130540	0.761290
H1041	H104	0.883710	0.120170	0.773020
C1971	C197	0.897000	0.144880	0.760520
H1051	H105	0.908490	0.145690	0.771640
C1981	C198	0.896290	0.158190	0.745600
C1991	C199	0.001490	0.400560	0.600030
C2001	C200	0.002010	0.412980	0.587720
C2011	C201	0.853770	0.114510	0.747940
C2021	C202	0.841470	0.102070	0.748460
C2031	C203	0.142510	0.257630	0.888610
C2041	C204	0.155180	0.257630	0.901260
C2051	C205	0.014900	0.443230	0.574880
H1061	H106	0.024500	0.444410	0.587620
C2061	C206	0.015150	0.457340	0.560690
H1071	H107	0.025030	0.469390	0.562620
C2071	C207	0.002870	0.456020	0.544320
C2081	C208	0.990410	0.440330	0.542420
H1081	H108	0.980630	0.438830	0.529870
C2091	C209	0.990220	0.426280	0.556640
H1091	H109	0.980400	0.414140	0.555010
C2101	C210	0.002420	0.427680	0.572910
C2111	C211	0.828610	0.071820	0.761330
H1101	H110	0.841330	0.070660	0.770940
C2121	C212	0.814400	0.057700	0.761560
H1111	H111	0.816320	0.045660	0.771440
C2131	C213	0.798050	0.058990	0.749280
C2141	C214	0.796160	0.074660	0.736820
H1121	H112	0.783610	0.076140	0.727040
C2151	C215	0.810380	0.088720	0.736650
H1131	H113	0.808770	0.100860	0.726840
C2161	C216	0.826650	0.087360	0.748860
C2171	C217	0.185940	0.269920	0.915250
H1141	H114	0.186860	0.279580	0.903020
C2181	C218	0.200440	0.269950	0.929690
H1151	H115	0.212520	0.279740	0.928440
C2191	C219	0.199420	0.257630	0.945430
C2201	C220	0.183670	0.245310	0.946460
H1161	H116	0.182420	0.235530	0.958530
C2211	C221	0.169200	0.245340	0.931970
H1171	H117	0.156970	0.235670	0.932900
C2221	C222	0.170290	0.257630	0.916340
H1181	H118	0.020060	0.733880	0.740680
C2231	C223	0.008840	0.758110	0.755150
C2241	C224	0.994410	0.771820	0.754890
H1191	H119	0.993960	0.781920	0.766660
C2251	C225	0.980000	0.772080	0.740290
C2261	C226	0.980070	0.758310	0.725840
H1201	H120	0.969310	0.758860	0.714030
C2271	C227	0.994520	0.744550	0.725840
C2281	C228	0.008800	0.744560	0.740570
C2291	C229	0.945780	0.782510	0.734850
H1211	H121	0.941690	0.767980	0.730690
C2301	C230	0.931590	0.796410	0.735370
H1221	H122	0.916760	0.792690	0.731370
C2311	C231	0.936240	0.814950	0.741190
C2321	C232	0.955180	0.819540	0.746350
H1231	H123	0.958950	0.834060	0.750820
C2331	C233	0.969380	0.805680	0.745880
H1241	H124	0.984140	0.809790	0.749740
C2341	C234	0.964820	0.786980	0.740230
C2351	C235	0.030910	0.740740	0.778640
H1251	H125	0.024800	0.727120	0.773760
C2361	C236	0.045290	0.740680	0.793200
H1261	H126	0.050420	0.727130	0.799250
C2371	C237	0.053100	0.757800	0.800100
C2381	C238	0.046400	0.775020	0.792390
H1271	H127	0.052520	0.788490	0.797670
C2391	C239	0.031990	0.775140	0.777860
H1281	H128	0.027280	0.788820	0.771790
C2401	C240	0.024120	0.757980	0.770810
C2411	C241	0.013520	0.724170	0.702980
H1291	H129	0.026910	0.730910	0.708110
C2421	C242	0.013930	0.710180	0.688970
H1301	H130	0.027540	0.705760	0.683510
C2431	C243	0.995930	0.701470	0.681480
C2441	C244	0.978650	0.707590	0.688360
H1311	H131	0.965270	0.701100	0.682840
C2451	C245	0.978180	0.721700	0.702450
H1321	H132	0.964360	0.725610	0.707760
C2461	C246	0.995030	0.730150	0.710210
C2471	C247	0.068190	0.757710	0.815210
C2481	C248	0.080850	0.757640	0.827870
C2491	C249	0.921450	0.829450	0.742070
C2501	C250	0.909210	0.841730	0.742960
C2511	C251	0.996280	0.686470	0.667130
C2521	C252	0.996860	0.673880	0.655160
C2531	C253	0.096910	0.771920	0.856690
H1331	H133	0.086260	0.783240	0.856150
C2541	C254	0.111430	0.771860	0.871120
H1341	H134	0.112100	0.783140	0.881840
C2551	C255	0.125090	0.757440	0.871900
C2561	C256	0.124150	0.743080	0.858160
H1351	H135	0.134810	0.731760	0.858690
C2571	C257	0.109630	0.743140	0.843720
H1361	H136	0.108970	0.731870	0.833000
C2581	C258	0.095980	0.757560	0.842950
C2591	C259	0.983810	0.657470	0.626060
H1371	H137	0.972060	0.667660	0.625120
C2601	C260	0.984810	0.643150	0.612350
H1381	H138	0.973830	0.642180	0.600730
C2611	C261	0.999790	0.630090	0.613400
C2621	C262	0.013750	0.631450	0.628270
H1391	H139	0.025530	0.621290	0.629180
C2631	C263	0.012760	0.645770	0.641980
H1401	H140	0.023760	0.646770	0.653560
C2641	C264	0.997790	0.658840	0.640920
C2651	C265	0.896390	0.870270	0.758420
H1411	H141	0.908570	0.869980	0.768800
C2661	C266	0.882560	0.884460	0.759510
H1421	H142	0.883980	0.895220	0.770740
C2671	C267	0.866970	0.884960	0.746300
C2681	C268	0.865290	0.871160	0.732010
H1431	H143	0.853120	0.871460	0.721620
C2691	C269	0.879110	0.856970	0.730920
H1441	H144	0.877720	0.846230	0.719680
C2701	C270	0.894720	0.856480	0.744120
C2711	C271	0.140240	0.757390	0.886950
C2721	C272	0.152940	0.757360	0.899570
C2731	C273	0.852540	0.899780	0.747370
C2741	C274	0.840360	0.912140	0.748090
C2751	C275	0.000850	0.615210	0.599000
C2761	C276	0.001590	0.602830	0.586830
C2771	C277	0.183560	0.745080	0.913650
H1451	H145	0.184330	0.735430	0.901520
C2781	C278	0.198080	0.745040	0.928070
H1461	H146	0.210030	0.735270	0.926910
C2791	C279	0.197260	0.757340	0.943700
C2801	C280	0.181660	0.769630	0.944610
H1471	H147	0.180570	0.779400	0.956590
C2811	C281	0.167180	0.769610	0.930150
H1481	H148	0.155070	0.779260	0.931000
C2821	C282	0.168070	0.757350	0.914640
C2831	C283	0.809310	0.925490	0.736600
H1491	H149	0.807490	0.913490	0.726770
C2841	C284	0.795240	0.939490	0.736900
H1501	H150	0.782620	0.938070	0.727180
C2851	C285	0.797370	0.955020	0.749350
C2861	C286	0.813820	0.956220	0.761530
H1511	H151	0.815940	0.968150	0.771400
C2871	C287	0.827880	0.942160	0.761170
H1521	H152	0.840690	0.943270	0.770690
C2881	C288	0.825680	0.926770	0.748680
C2891	C289	0.014710	0.572830	0.574340
H1531	H153	0.024200	0.571740	0.587170
C2901	C290	0.015110	0.558780	0.560260
H1541	H154	0.024980	0.546870	0.562380
C2911	C291	0.002970	0.559970	0.543790
C2921	C292	0.990500	0.575470	0.541660
H1551	H155	0.980820	0.576870	0.529020
C2931	C293	0.990160	0.589450	0.555750
H1561	H156	0.980330	0.601440	0.553940
C2941	C294	0.002210	0.588190	0.572140
Zn51	Zn5	0.723680	0.006890	0.764420
Zn61	Zn6	0.745150	0.984390	0.732220
Zn71	Zn7	0.745470	0.029700	0.732180
Zn81	Zn8	0.769050	0.006910	0.765310
O141	O14	0.745840	0.006970	0.748540
O151	O15	0.707180	0.984740	0.759900
O161	O16	0.744610	0.990470	0.704990
O171	O17	0.723420	0.045800	0.735840
O181	O18	0.722900	0.968220	0.735920
O191	O19	0.707470	0.029020	0.759830
O201	O20	0.744800	0.023860	0.704940
O211	O21	0.767770	0.046000	0.736960
O221	O22	0.763940	0.006830	0.792460
O231	O23	0.785300	0.029100	0.761330
O241	O24	0.730510	0.006790	0.791770
O251	O25	0.767250	0.968080	0.737070
O261	O26	0.784980	0.984780	0.761410
C2951	C295	0.782900	0.043920	0.749240
C2961	C296	0.782400	0.970060	0.749360
C2971	C297	0.747510	0.006800	0.801590
C2981	C298	0.708620	0.970150	0.747800
C2991	C299	0.709100	0.043740	0.747720
C3001	C300	0.744660	0.007210	0.695500
H1571	H157	0.508620	0.232860	0.229610
C3011	C301	0.523630	0.243820	0.254960
C3021	C302	0.523430	0.257430	0.269550
H1581	H158	0.534730	0.257430	0.280870
C3031	C303	0.508860	0.271030	0.269740
C3041	C304	0.494450	0.270920	0.255130
H1591	H159	0.483560	0.282000	0.254700
C3051	C305	0.494420	0.257430	0.240490
C3061	C306	0.509050	0.243930	0.240520
C3071	C307	0.491360	0.291180	0.292610
H1601	H160	0.477910	0.284380	0.287740
C3081	C308	0.491030	0.305200	0.306680
H1611	H161	0.477430	0.309350	0.312350
C3091	C309	0.507930	0.313950	0.313510
C3101	C310	0.525230	0.308460	0.306270
H1621	H162	0.538540	0.315310	0.311490
C3111	C311	0.525620	0.294390	0.292220
H1631	H163	0.539310	0.290710	0.286460
C3121	C312	0.508660	0.285670	0.285160
C3131	C313	0.546510	0.223660	0.237490
H1641	H164	0.541680	0.230450	0.224040
C3141	C314	0.560570	0.209650	0.237180
H1651	H165	0.566260	0.205490	0.223590
C3151	C315	0.567350	0.200900	0.254080
C3161	C316	0.560080	0.206400	0.271370
H1661	H166	0.565260	0.199560	0.284680
C3171	C317	0.546030	0.220460	0.271740
H1671	H167	0.540250	0.224140	0.285420
C3181	C318	0.539030	0.229170	0.254770
C3191	C319	0.483130	0.253580	0.206070
H1681	H168	0.497800	0.250910	0.202290
C3201	C320	0.468650	0.253630	0.191600
H1691	H169	0.472100	0.250710	0.176870
C3211	C321	0.449840	0.257470	0.195840
C3221	C322	0.445580	0.261280	0.214650
H1701	H170	0.430850	0.264210	0.218080
C3231	C323	0.460030	0.261290	0.229150
H1711	H171	0.456230	0.263950	0.243820
C3241	C324	0.478960	0.257430	0.225000
C3251	C325	0.581800	0.186040	0.253600
C3261	C326	0.593870	0.173550	0.253040
C3271	C327	0.507430	0.328820	0.327970
C3281	C328	0.506840	0.341320	0.340040
C3291	C329	0.434750	0.257490	0.180720
C3301	C330	0.422090	0.257520	0.168050
C3311	C331	0.622910	0.157340	0.266410
H1721	H172	0.623630	0.167520	0.278180
C3321	C332	0.636700	0.143090	0.265600
H1731	H173	0.648160	0.142170	0.276730
C3331	C333	0.635910	0.130030	0.250600
C3341	C334	0.621230	0.131310	0.236430
H1741	H174	0.620520	0.121140	0.224650
C3351	C335	0.607440	0.145560	0.237250
H1751	H175	0.595990	0.146500	0.226100
C3361	C336	0.608230	0.158630	0.252240
C3371	C337	0.392070	0.270610	0.153350
H1761	H176	0.391710	0.280840	0.165040
C3381	C338	0.377600	0.270640	0.138870
H1771	H177	0.365950	0.280890	0.139270
C3391	C339	0.377960	0.257620	0.123910
C3401	C340	0.392880	0.244560	0.123500
H1781	H178	0.393230	0.234330	0.111810
C3411	C341	0.407350	0.244530	0.137970
H1791	H179	0.419000	0.234280	0.137580
C3421	C342	0.406990	0.257550	0.152940
C3431	C343	0.520080	0.357470	0.369210
H1801	H180	0.531780	0.347240	0.370020
C3441	C344	0.519230	0.371730	0.383000
H1811	H181	0.530280	0.372600	0.394550
C3451	C345	0.504310	0.384860	0.382110
C3461	C346	0.490250	0.383640	0.367310
H1821	H182	0.478530	0.393870	0.366520
C3471	C347	0.491100	0.369380	0.353510
H1831	H183	0.480040	0.368500	0.341970
C3481	C348	0.506010	0.356240	0.354420
C3491	C349	0.650360	0.115200	0.249760
C3501	C350	0.662560	0.102840	0.249190
C3511	C351	0.503440	0.399700	0.396560
C3521	C352	0.502850	0.412070	0.408770
C3531	C353	0.362850	0.257650	0.108800
C3541	C354	0.350190	0.257670	0.096140
C3551	C355	0.675150	0.072800	0.236280
H1841	H184	0.662390	0.071670	0.226710
C3561	C356	0.689240	0.058770	0.236020
H1851	H185	0.687190	0.046830	0.226160
C3571	C357	0.705640	0.060020	0.248270
C3581	C358	0.707680	0.075570	0.260700
H1861	H186	0.720260	0.077030	0.270460
C3591	C359	0.693580	0.089550	0.260910
H1871	H187	0.695330	0.101580	0.270710
C3601	C360	0.677270	0.088220	0.248750
C3611	C361	0.489910	0.442090	0.421360
H1881	H188	0.480340	0.443190	0.408600
C3621	C362	0.489630	0.456140	0.435460
H1891	H189	0.479760	0.468060	0.433400
C3631	C363	0.501870	0.454920	0.451860
C3641	C364	0.514310	0.439400	0.453910
H1901	H190	0.524070	0.437980	0.466490
C3651	C365	0.514540	0.425410	0.439800
H1911	H191	0.524350	0.413410	0.441550
C3661	C366	0.502380	0.426700	0.423480
C3671	C367	0.336040	0.245460	0.065490
H1921	H192	0.348160	0.235830	0.064650
C3681	C368	0.321580	0.245450	0.051000
H1931	H193	0.322720	0.235700	0.039010
C3691	C369	0.305970	0.257710	0.051900
C3701	C370	0.305090	0.269980	0.067550
H1941	H194	0.293120	0.279730	0.068710
C3711	C371	0.319580	0.269940	0.082000
H1951	H195	0.318760	0.279560	0.094150
C3721	C372	0.335090	0.257690	0.081030
H1961	H196	0.533360	0.756610	0.278130
C3731	C373	0.507320	0.742960	0.267190
C3741	C374	0.492840	0.743100	0.252660
H1971	H197	0.481180	0.732700	0.252980
C3751	C375	0.492550	0.757080	0.238300
C3761	C376	0.506990	0.771000	0.238520
H1981	H198	0.506840	0.781920	0.227340
C3771	C377	0.521610	0.771080	0.252920
C3781	C378	0.521630	0.757060	0.267270
C3791	C379	0.468980	0.774330	0.216240
H1991	H199	0.473710	0.787940	0.222450
C3801	C380	0.454450	0.774330	0.201830
H2001	H200	0.448260	0.787830	0.196770
C3811	C381	0.447740	0.757200	0.193910
C3821	C382	0.455620	0.740040	0.200520
H2011	H201	0.450480	0.726570	0.194300
C3831	C383	0.470130	0.739980	0.214950
H2021	H202	0.476320	0.726350	0.219590
C3841	C384	0.476980	0.757140	0.222940
C3851	C385	0.512650	0.732330	0.301430
H2031	H203	0.516550	0.746920	0.305500
C3861	C386	0.512340	0.718250	0.315650
H2041	H204	0.516260	0.721920	0.330470
C3871	C387	0.506880	0.699590	0.311040
C3881	C388	0.501810	0.695070	0.292100
H2051	H205	0.497610	0.680450	0.288370
C3891	C389	0.502050	0.709100	0.277870
H2061	H206	0.498300	0.705060	0.263110
C3901	C390	0.507410	0.727900	0.282400
C3911	C391	0.544120	0.794250	0.269910
H2071	H207	0.538330	0.790150	0.283540
C3921	C392	0.558270	0.808420	0.269720
H2081	H208	0.563530	0.814960	0.283110
C3931	C393	0.565570	0.814390	0.252500
C3941	C394	0.558710	0.806030	0.235480
H2091	H209	0.564450	0.810560	0.221950
C3951	C395	0.544550	0.791900	0.235620
H2101	H210	0.539680	0.785390	0.222090
C3961	C396	0.537040	0.785920	0.252830
C3971	C397	0.506350	0.684920	0.325870
C3981	C398	0.505820	0.672540	0.338220
C3991	C399	0.432630	0.757240	0.178830
C4001	C400	0.419960	0.757260	0.166170
C4011	C401	0.580170	0.829330	0.252220
C4021	C402	0.592370	0.841880	0.251840
C4031	C403	0.491130	0.643430	0.351490
H2111	H211	0.480670	0.643360	0.339380
C4041	C404	0.490470	0.629200	0.365520
H2121	H212	0.479490	0.618050	0.364340
C4051	C405	0.503790	0.629180	0.381020
C4061	C406	0.517770	0.643470	0.382420
H2131	H213	0.528240	0.643530	0.394520
C4071	C407	0.518430	0.657700	0.368390
H2141	H214	0.529420	0.668840	0.369570
C4081	C408	0.505120	0.657720	0.352880
C4091	C409	0.606320	0.870250	0.236410
H2151	H215	0.594920	0.869500	0.225200
C4101	C410	0.620280	0.884580	0.235810
H2161	H216	0.619750	0.895000	0.224140
C4111	C411	0.634900	0.885610	0.250070
C4121	C412	0.635470	0.872230	0.264930
H2171	H217	0.646890	0.872960	0.276130
C4131	C413	0.621520	0.857900	0.265530
H2181	H218	0.622060	0.847470	0.277200
C4141	C414	0.606910	0.856870	0.251270
C4151	C415	0.390900	0.742970	0.150440
H2191	H219	0.391280	0.731710	0.161310
C4161	C416	0.376430	0.742990	0.135960
H2201	H220	0.365530	0.731740	0.135530
C4171	C417	0.375860	0.757320	0.122030
C4181	C418	0.389830	0.771640	0.122670
H2211	H221	0.389440	0.782900	0.111790
C4191	C419	0.404290	0.771630	0.137150
H2221	H222	0.415200	0.782870	0.137580
C4201	C420	0.404860	0.757290	0.151070
C4211	C421	0.503140	0.614330	0.395670
C4221	C422	0.502710	0.601930	0.408000
C4231	C423	0.360770	0.757340	0.106930
C4241	C424	0.348120	0.757350	0.094260
C4251	C425	0.649500	0.900510	0.249450
C4261	C426	0.661820	0.912950	0.249040
C4271	C427	0.514660	0.588620	0.439050
H2231	H223	0.524470	0.600770	0.440650
C4281	C428	0.514520	0.574550	0.453260
H2241	H224	0.524350	0.576050	0.465780
C4291	C429	0.502060	0.558870	0.451390
C4301	C430	0.489730	0.557550	0.435070
H2251	H225	0.479840	0.545510	0.433160
C4311	C431	0.489910	0.571670	0.420880
H2261	H226	0.480260	0.570490	0.408190
C4321	C432	0.502390	0.587230	0.422820
C4331	C433	0.334120	0.769620	0.063520
H2271	H227	0.346360	0.779280	0.062590
C4341	C434	0.319660	0.769650	0.049040
H2281	H228	0.320920	0.779430	0.036960
C4351	C435	0.303890	0.757340	0.050060
C4361	C436	0.302860	0.745040	0.065810
H2291	H229	0.290770	0.735260	0.067070
C4371	C437	0.317360	0.745070	0.080260
H2301	H230	0.316430	0.735410	0.092490
C4381	C438	0.333020	0.757350	0.079160
C4391	C439	0.692860	0.926330	0.260980
H2311	H231	0.694470	0.914180	0.270770
C4401	C440	0.707070	0.940410	0.260850
H2321	H232	0.719600	0.938940	0.270660
C4411	C441	0.705200	0.956080	0.248400
C4421	C442	0.688870	0.957370	0.236080
H2331	H233	0.686950	0.969410	0.226210
C4431	C443	0.674680	0.943230	0.236260
H2341	H234	0.661980	0.944380	0.226620
C4441	C444	0.676620	0.927680	0.248720
Zn91	Zn9	0.018960	0.508090	0.515410
Zn101	Zn10	0.985950	0.530590	0.491520
Zn111	Zn11	0.018110	0.508090	0.470040
Zn121	Zn12	0.985830	0.485270	0.491760
O271	O27	0.002210	0.508010	0.492190
O281	O28	0.015060	0.530230	0.531370
O291	O29	0.989660	0.546730	0.469290
O301	O30	0.045460	0.508190	0.476910
O311	O31	0.990740	0.546900	0.513630
O321	O32	0.046100	0.508200	0.510340
O331	O33	0.013650	0.530240	0.453570
O341	O34	0.013510	0.485960	0.453810
O351	O35	0.990580	0.468980	0.514040
O361	O36	0.989480	0.469160	0.469710
O371	O37	0.014940	0.485920	0.531620
O381	O38	0.958680	0.524490	0.490910
O391	O39	0.958590	0.491090	0.491090
C4451	C445	0.001380	0.471230	0.455400
C4461	C446	0.949160	0.507750	0.490950
C4471	C447	0.002860	0.471080	0.529190
C4481	C448	0.003010	0.544930	0.528790
C4491	C449	0.055260	0.508210	0.493910
C4501	C450	0.001560	0.544820	0.455020
H2351	H235	0.497310	0.230820	0.779340
C4511	C451	0.510840	0.241750	0.754450
C4521	C452	0.510660	0.256200	0.740540
H2361	H236	0.521750	0.256550	0.730160
C4531	C453	0.497090	0.270780	0.740420
C4541	C454	0.483600	0.270870	0.754520
H2371	H237	0.472520	0.281750	0.754030
C4551	C455	0.483520	0.256530	0.768590
C4561	C456	0.497230	0.242020	0.768450
C4571	C457	0.493260	0.305040	0.729760
H2381	H238	0.490370	0.309090	0.744360
C4581	C458	0.493700	0.319270	0.715690
H2391	H239	0.490870	0.334080	0.719380
C4591	C459	0.497900	0.314710	0.697010
C4601	C460	0.501570	0.295790	0.692490
H2401	H240	0.504770	0.292070	0.677880
C4611	C461	0.501190	0.281540	0.706520
H2411	H241	0.503820	0.266800	0.702460
C4621	C462	0.497100	0.286010	0.725350
C4631	C463	0.534260	0.219370	0.771320
H2421	H242	0.530610	0.225200	0.785080
C4641	C464	0.548310	0.205290	0.770980
H2431	H243	0.555160	0.200150	0.784370
C4651	C465	0.553760	0.197920	0.753640
C4661	C466	0.544990	0.204670	0.736640
H2441	H244	0.549100	0.198920	0.722990
C4671	C467	0.530990	0.218760	0.736920
H2451	H245	0.524180	0.223540	0.723370
C4681	C468	0.525510	0.226330	0.754270
C4691	C469	0.460500	0.239570	0.789590
H2461	H246	0.464330	0.225930	0.783420
C4701	C470	0.446700	0.239750	0.803340
H2471	H247	0.440250	0.226330	0.807900
C4711	C471	0.441030	0.256920	0.811190
C4721	C472	0.449290	0.273950	0.805150
H2481	H248	0.445010	0.287470	0.811270
C4731	C473	0.463060	0.273840	0.791370
H2491	H249	0.469510	0.287370	0.787210
C4741	C474	0.468840	0.256630	0.783420
C4751	C475	0.568590	0.183400	0.753190
C4761	C476	0.581040	0.171270	0.752640
C4771	C477	0.498560	0.329560	0.682320
C4781	C478	0.499210	0.341910	0.669930
C4791	C479	0.426570	0.257070	0.825540
C4801	C480	0.414450	0.257210	0.837550
C4811	C481	0.608620	0.157170	0.737130
H2501	H250	0.607460	0.168330	0.726180
C4821	C482	0.622800	0.143290	0.736310
H2511	H251	0.632680	0.143670	0.724730
C4831	C483	0.624390	0.128940	0.750200
C4841	C484	0.611680	0.128590	0.764930
H2521	H252	0.612820	0.117410	0.775860
C4851	C485	0.597500	0.142470	0.765750
H2531	H253	0.587600	0.142070	0.777310
C4861	C486	0.595900	0.156810	0.751850
C4871	C487	0.386220	0.271710	0.851630
H2541	H254	0.386270	0.282860	0.840660
C4881	C488	0.372370	0.271860	0.865340
H2551	H255	0.361670	0.283130	0.865030
C4891	C489	0.372160	0.257680	0.879430
C4901	C490	0.385920	0.243350	0.879680
H2561	H256	0.385870	0.232190	0.890640
C4911	C491	0.399770	0.243200	0.865970
H2571	H257	0.410470	0.231920	0.866280
C4921	C492	0.399980	0.257380	0.851880
C4931	C493	0.513610	0.355500	0.641210
H2581	H258	0.523680	0.343660	0.641510
C4941	C494	0.514370	0.369500	0.626940
H2591	H259	0.525030	0.368540	0.616130
C4951	C495	0.501550	0.384670	0.626420
C4961	C496	0.487970	0.385740	0.640280
H2601	H260	0.477890	0.397570	0.639970
C4971	C497	0.487220	0.371750	0.654550
H2611	H261	0.476540	0.372690	0.665340
C4981	C498	0.500030	0.356570	0.655070
C4991	C499	0.639150	0.114390	0.749350
C5001	C500	0.651450	0.102120	0.748760
C5011	C501	0.502280	0.399280	0.611500
C5021	C502	0.502760	0.411590	0.599050
C5031	C503	0.357690	0.257830	0.893770
C5041	C504	0.345590	0.257910	0.905800
C5051	C505	0.665090	0.071420	0.760240
H2621	H262	0.653400	0.070040	0.769920
C5061	C506	0.679010	0.057260	0.759990
H2631	H263	0.677860	0.045010	0.769600
C5071	C507	0.694130	0.058820	0.747710
C5081	C508	0.695000	0.074810	0.735670
H2641	H264	0.706600	0.076490	0.725940
C5091	C509	0.681010	0.088960	0.735970
H2651	H265	0.681870	0.101390	0.726550
C5101	C510	0.666020	0.087330	0.748280
C5111	C511	0.491130	0.442100	0.585040
H2661	H266	0.481490	0.443330	0.596750
C5121	C512	0.491300	0.456260	0.570920
H2671	H267	0.481670	0.468370	0.571940
C5131	C513	0.503530	0.454890	0.555780
C5141	C514	0.515600	0.439090	0.555090
H2681	H268	0.525310	0.437560	0.543480
C5151	C515	0.515390	0.424940	0.569270
H2691	H269	0.524840	0.412660	0.568550
C5161	C516	0.503140	0.426380	0.584280
C5171	C517	0.332860	0.245690	0.935940
H2701	H270	0.345010	0.236020	0.937510
C5181	C518	0.319100	0.245670	0.949730
H2711	H271	0.320830	0.235890	0.961880
C5191	C519	0.303410	0.257970	0.947960
C5201	C520	0.301800	0.270260	0.932110
H2721	H272	0.289760	0.280040	0.930250
C5211	C521	0.315600	0.270230	0.918350
H2731	H273	0.314160	0.279890	0.906070
C5221	C522	0.331180	0.257960	0.920190
H2741	H274	0.494930	0.781600	0.777000
C5231	C523	0.480890	0.755930	0.766290
C5241	C524	0.481050	0.741540	0.752450
H2751	H275	0.470630	0.729880	0.752760
C5251	C525	0.495100	0.741350	0.738900
C5261	C526	0.508990	0.755850	0.739200
H2761	H276	0.519400	0.756300	0.728140
C5271	C527	0.509060	0.770360	0.752850
C5281	C528	0.494950	0.770310	0.766340
C5291	C529	0.512850	0.718550	0.718730
H2771	H277	0.526360	0.723470	0.725520
C5301	C530	0.513260	0.704480	0.704700
H2781	H278	0.526960	0.698900	0.700560
C5311	C531	0.496320	0.697540	0.695930
C5321	C532	0.478910	0.704680	0.701440
H2791	H279	0.465560	0.699370	0.694600
C5331	C533	0.478440	0.718740	0.715520
H2801	H280	0.464620	0.724390	0.719220
C5341	C534	0.495430	0.725910	0.724240
C5351	C535	0.470790	0.761160	0.799890
H2811	H281	0.485480	0.764980	0.804350
C5361	C536	0.456900	0.761180	0.813550
H2821	H282	0.460850	0.765290	0.828250
C5371	C537	0.438070	0.755950	0.808560
C5381	C538	0.433250	0.750610	0.789770
H2831	H283	0.418520	0.746540	0.785690
C5391	C539	0.447110	0.750520	0.776070
H2841	H284	0.442820	0.746650	0.761390
C5401	C540	0.466050	0.755850	0.780960
C5411	C541	0.519510	0.804720	0.756610
H2851	H285	0.504870	0.808710	0.759350
C5421	C542	0.533550	0.819010	0.756270
H2861	H286	0.529770	0.833810	0.759030
C5431	C543	0.552290	0.814530	0.752270
C5441	C544	0.556910	0.795620	0.748670
H2871	H287	0.571580	0.791960	0.745620
C5451	C545	0.542930	0.781310	0.748960
H2881	H288	0.547060	0.766580	0.746390
C5461	C546	0.524050	0.785700	0.752880
C5471	C547	0.423580	0.756090	0.822880
C5481	C548	0.411510	0.756260	0.834930
C5491	C549	0.496920	0.683060	0.681050
C5501	C550	0.497610	0.670970	0.668560
C5511	C551	0.566940	0.829440	0.751740
C5521	C552	0.579300	0.841850	0.751210
C5531	C553	0.382580	0.742750	0.849140
H2891	H289	0.381910	0.731770	0.838110
C5541	C554	0.368860	0.742950	0.862980
H2901	H290	0.357530	0.732140	0.862690
C5551	C555	0.369570	0.756900	0.877160
C5561	C556	0.384120	0.770650	0.877370
H2911	H291	0.384800	0.781610	0.888410
C5571	C557	0.397840	0.770440	0.863530
H2921	H292	0.409170	0.781240	0.863830
C5581	C558	0.397130	0.756490	0.849360
C5591	C559	0.608390	0.855300	0.737390
H2931	H293	0.608430	0.843260	0.727560
C5601	C560	0.622640	0.869350	0.736770
H2941	H294	0.633760	0.868240	0.726460
C5611	C561	0.622740	0.884780	0.749300
C5621	C562	0.608470	0.886050	0.762430
H2951	H295	0.608450	0.898080	0.772290
C5631	C563	0.594220	0.872000	0.763050
H2961	H296	0.583120	0.873100	0.773380
C5641	C564	0.594130	0.856570	0.750530
C5651	C565	0.484790	0.642120	0.651910
H2971	H297	0.473160	0.641610	0.661720
C5661	C566	0.485790	0.628290	0.637680
H2981	H298	0.474940	0.617030	0.636430
C5671	C567	0.500610	0.628790	0.625080
C5681	C568	0.514410	0.643240	0.626810
H2991	H299	0.526060	0.643740	0.617020
C5691	C569	0.513400	0.657070	0.641040
H3001	H300	0.524270	0.668320	0.642310
C5701	C570	0.498590	0.656570	0.653650
C5711	C571	0.355240	0.757100	0.891630
C5721	C572	0.343230	0.757240	0.903750
C5731	C573	0.501650	0.614280	0.610290
C5741	C574	0.502370	0.602020	0.597960
C5751	C575	0.637640	0.899440	0.748710
C5761	C576	0.650090	0.911770	0.748320
C5771	C577	0.330790	0.769660	0.933770
H3011	H301	0.343110	0.779290	0.935170
C5781	C578	0.317070	0.769750	0.947610
H3021	H302	0.318990	0.779540	0.959630
C5791	C579	0.301180	0.757480	0.946040
C5801	C580	0.299320	0.745150	0.930360
H3031	H303	0.287130	0.735390	0.928660
C5811	C581	0.313080	0.745120	0.916570
H3041	H304	0.311440	0.735420	0.904420
C5821	C582	0.328870	0.757350	0.918200
C5831	C583	0.515280	0.588890	0.568420
H3051	H305	0.524670	0.601370	0.567580
C5841	C584	0.515660	0.574720	0.554440
H3061	H306	0.525390	0.576440	0.542850
C5851	C585	0.503660	0.558680	0.555280
C5861	C586	0.491370	0.557080	0.570390
H3071	H307	0.481800	0.544800	0.571530
C5871	C587	0.491060	0.571250	0.584310
H3081	H308	0.481360	0.569840	0.595980
C5881	C588	0.502960	0.587220	0.583390
C5891	C589	0.664140	0.942260	0.760070
H3091	H309	0.652430	0.943480	0.769710
C5901	C590	0.678290	0.956430	0.759960
H3101	H310	0.677290	0.968520	0.769610
C5911	C591	0.693430	0.955070	0.747730
C5921	C592	0.694100	0.939280	0.735610
H3111	H311	0.705710	0.937760	0.725910
C5931	C593	0.679900	0.925130	0.735780
H3121	H312	0.680590	0.912860	0.726290
C5941	C594	0.664880	0.926560	0.748020
Zn131	Zn13	0.253320	0.273930	0.021290
Zn141	Zn14	0.229920	0.241320	0.998170
Zn151	Zn15	0.252190	0.274030	0.975920
Zn161	Zn16	0.275300	0.241450	0.999260
O401	O40	0.252680	0.257680	0.998670
O411	O41	0.231560	0.269570	0.037000
O421	O42	0.213140	0.245560	0.975590
O431	O43	0.252420	0.301240	0.981800
O441	O44	0.214300	0.245420	0.019940
O451	O45	0.253240	0.301160	0.015240
O461	O46	0.229600	0.269750	0.959130
O471	O47	0.273940	0.269940	0.960280
O481	O48	0.292110	0.245670	0.021850
O491	O49	0.291000	0.245810	0.977490
O501	O50	0.275910	0.269750	0.038080
O511	O51	0.235780	0.214110	0.998380
O521	O52	0.269220	0.214220	0.999180
C5951	C595	0.288680	0.257920	0.962680
C5961	C596	0.252460	0.204720	0.998780
C5971	C597	0.290520	0.257720	0.036460
C5981	C598	0.216720	0.257460	0.034690
C5991	C599	0.252830	0.310650	0.998480
C6001	C600	0.214870	0.257650	0.960860
Zn171	Zn17	0.757740	0.985460	0.265510
Zn181	Zn18	0.779450	0.008320	0.233240
Zn191	Zn19	0.734100	0.008200	0.232380
Zn201	Zn20	0.757930	0.030790	0.265430
O531	O53	0.757300	0.008190	0.249150
O541	O54	0.779820	0.969410	0.261840
O551	O55	0.772600	0.008400	0.205890
O561	O56	0.717900	0.985990	0.236380
O571	O57	0.795720	0.986230	0.237840
O581	O58	0.735460	0.969120	0.260740
O591	O59	0.739180	0.008290	0.205230
O601	O60	0.718110	0.030290	0.236270
O611	O61	0.758510	0.024710	0.292690
O621	O62	0.735800	0.047050	0.260600
O631	O63	0.758390	0.991310	0.292750
O641	O64	0.795890	0.030510	0.237750
O651	O65	0.780150	0.047000	0.261730
C6011	C601	0.720650	0.045020	0.248300
C6021	C602	0.794430	0.045100	0.249840
C6031	C603	0.758500	0.007970	0.302190
C6041	C604	0.794130	0.971500	0.249950
C6051	C605	0.720330	0.971180	0.248450
C6061	C606	0.755610	0.008360	0.196080
Zn211	Zn21	0.251070	0.741000	0.019640
Zn221	Zn22	0.249880	0.741070	0.974250
Zn231	Zn23	0.228000	0.773600	0.996280
Zn241	Zn24	0.273370	0.773680	0.997340
O661	O66	0.250590	0.757340	0.996890
O671	O67	0.250810	0.713800	0.013780
O681	O68	0.227310	0.745270	0.957500
O691	O69	0.212330	0.769290	0.018060
O701	O70	0.249950	0.713840	0.980340
O711	O71	0.229340	0.745150	0.035300
O721	O72	0.211160	0.769400	0.973710
O731	O73	0.234110	0.800810	0.996350
O741	O74	0.290180	0.769420	0.019900
O751	O75	0.267550	0.800890	0.997120
O761	O76	0.273690	0.745270	0.036390
O771	O77	0.271640	0.745400	0.958530
O781	O78	0.288970	0.769530	0.975540
C6071	C607	0.250880	0.810300	0.996730
C6081	C608	0.286500	0.757480	0.960800
C6091	C609	0.288440	0.757340	0.034630
C6101	C610	0.250370	0.704360	0.997100
C6111	C611	0.214620	0.757200	0.032890
C6121	C612	0.212730	0.757330	0.959110
C6131	C613	0.261470	0.507390	0.498030
C6141	C614	0.243530	0.507470	0.497730
C6151	C615	0.293560	0.490180	0.498680
H3131	H313	0.285820	0.476580	0.498640
C6161	C616	0.313880	0.490080	0.499030
H3141	H314	0.321300	0.476420	0.499250
C6171	C617	0.324730	0.507100	0.499100
C6181	C618	0.314290	0.524220	0.498820
H3151	H315	0.322030	0.537820	0.498860
C6191	C619	0.293960	0.524310	0.498470
H3161	H316	0.286540	0.537980	0.498260
C6201	C620	0.283120	0.507290	0.498400
C6211	C621	0.211440	0.524680	0.497090
H3171	H317	0.219180	0.538280	0.497140
C6221	C622	0.191120	0.524770	0.496750
H3181	H318	0.183700	0.538440	0.496540
C6231	C623	0.180270	0.507760	0.496670
C6241	C624	0.190720	0.490640	0.496950
H3191	H319	0.182980	0.477040	0.496900
C6251	C625	0.211040	0.490550	0.497290
H3201	H320	0.218460	0.476880	0.497500
C6261	C626	0.221890	0.507570	0.497370
C6271	C627	0.346380	0.507010	0.499490
C6281	C628	0.364320	0.506930	0.499830
C6291	C629	0.158630	0.507850	0.496280
C6301	C630	0.140680	0.507930	0.495940
C6311	C631	0.396140	0.506820	0.483460
H3211	H321	0.388180	0.506870	0.469640
C6321	C632	0.416470	0.506740	0.483910
H3221	H322	0.423530	0.506740	0.470360
C6331	C633	0.427650	0.506680	0.501250
C6341	C634	0.417410	0.506690	0.518090
H3231	H323	0.425220	0.506650	0.532000
C6351	C635	0.397090	0.506760	0.517610
H3241	H324	0.389890	0.506780	0.531080
C6361	C636	0.385970	0.506830	0.500300
C6371	C637	0.108850	0.508070	0.512310
H3251	H325	0.116820	0.508040	0.526130
C6381	C638	0.088520	0.508140	0.511850
H3261	H326	0.081460	0.508160	0.525400
C6391	C639	0.077350	0.508180	0.494510
C6401	C640	0.087590	0.508140	0.477670
H3271	H327	0.079790	0.508160	0.463770
C6411	C641	0.107910	0.508070	0.478160
H3281	H328	0.115120	0.508040	0.464690
C6421	C642	0.119030	0.508030	0.495480
C6431	C643	0.761450	0.507430	0.497430
C6441	C644	0.743560	0.507420	0.498130
C6451	C645	0.792100	0.505310	0.479250
H3291	H329	0.783320	0.503590	0.466020
C6461	C646	0.812360	0.505330	0.478460
H3301	H330	0.818690	0.503620	0.464640
C6471	C647	0.824500	0.507480	0.494980
C6481	C648	0.815420	0.509630	0.512320
H3311	H331	0.824200	0.511350	0.525550
C6491	C649	0.795170	0.509610	0.513100
H3321	H332	0.788840	0.511320	0.526920
C6501	C650	0.783020	0.507450	0.496590
C6511	C651	0.712910	0.509560	0.516310
H3331	H333	0.721680	0.511290	0.529540
C6521	C652	0.692650	0.509540	0.517100
H3341	H334	0.686320	0.511260	0.530920
C6531	C653	0.680500	0.507370	0.500590
C6541	C654	0.689580	0.505220	0.483240
H3351	H335	0.680800	0.503480	0.470020
C6551	C655	0.709840	0.505230	0.482450
H3361	H336	0.716160	0.503510	0.468640
C6561	C656	0.721990	0.507400	0.498970
C6571	C657	0.846080	0.507510	0.494140
C6581	C658	0.863970	0.507530	0.493450
C6591	C659	0.658930	0.507350	0.501420
C6601	C660	0.641040	0.507320	0.502110
C6611	C661	0.896240	0.524650	0.492180
H3371	H337	0.888750	0.538270	0.492370
C6621	C662	0.916510	0.524720	0.491520
H3381	H338	0.923980	0.538450	0.491250
C6631	C663	0.927110	0.507680	0.491280
C6641	C664	0.916350	0.490580	0.491710
H3391	H339	0.923700	0.476880	0.491610
C6651	C665	0.896080	0.490550	0.492370
H3401	H340	0.888460	0.476890	0.492730
C6661	C666	0.885540	0.507580	0.492650
C6671	C667	0.608760	0.490200	0.503380
H3411	H341	0.616250	0.476580	0.503160
C6681	C668	0.588500	0.490130	0.504050
H3421	H342	0.581020	0.476390	0.504290
C6691	C669	0.577900	0.507170	0.504310
C6701	C670	0.588660	0.524270	0.503890
H3431	H343	0.581310	0.537960	0.504020
C6711	C671	0.608920	0.524300	0.503230
H3441	H344	0.616550	0.537960	0.502890
C6721	C672	0.619460	0.507280	0.502930
C6731	C673	0.251640	0.998200	0.997760
C6741	C674	0.251710	0.016120	0.997950
C6751	C675	0.251550	0.965770	0.014610
H3451	H345	0.251610	0.973180	0.028290
C6761	C676	0.251470	0.945470	0.014480
H3461	H346	0.251470	0.937720	0.028060
C6771	C677	0.251400	0.935070	0.997330
C6781	C678	0.251410	0.945900	0.980330
H3471	H347	0.251360	0.938490	0.966650
C6791	C679	0.251490	0.966200	0.980460
H3481	H348	0.251490	0.973950	0.966880
C6801	C680	0.251560	0.976600	0.997610
C6811	C681	0.251680	0.048690	0.981280
H3491	H349	0.251530	0.041260	0.967610
C6821	C682	0.251750	0.069030	0.981220
H3501	H350	0.251640	0.076630	0.967550
C6831	C683	0.251940	0.079620	0.998240
C6841	C684	0.252050	0.068070	0.016110
H3511	H351	0.252200	0.075320	0.029880
C6851	C685	0.251980	0.047820	0.015620
H3521	H352	0.252070	0.039830	0.029060
C6861	C686	0.251790	0.037720	0.998270
C6871	C687	0.251320	0.913460	0.997200
C6881	C688	0.251250	0.895550	0.997090
C6891	C689	0.251970	0.101230	0.998310
C6901	C690	0.251960	0.119140	0.998390
C6911	C691	0.268190	0.863380	0.997310
H3531	H353	0.281870	0.871000	0.997670
C6921	C692	0.268120	0.843080	0.997220
H3541	H354	0.281810	0.835700	0.997510
C6931	C693	0.250980	0.832350	0.996780
C6941	C694	0.233940	0.842970	0.996430
H3551	H355	0.220180	0.835500	0.996090
C6951	C695	0.234040	0.863270	0.996520
H3561	H356	0.220430	0.870800	0.996250
C6961	C696	0.251160	0.873950	0.996970
C6971	C697	0.234620	0.151010	0.998140
H3571	H357	0.221080	0.143140	0.997770
C6981	C698	0.234330	0.171260	0.998230
H3581	H358	0.220580	0.178520	0.997940
C6991	C699	0.252340	0.182700	0.998720
C7001	C700	0.269260	0.171890	0.999070
H3591	H359	0.283080	0.179240	0.999430
C7011	C701	0.268960	0.151560	0.998960
H3601	H360	0.282560	0.144000	0.999250
C7021	C702	0.251850	0.140740	0.998500
C7031	C703	0.251510	0.516470	0.997770
C7041	C704	0.251640	0.498550	0.997830
C7051	C705	0.251070	0.548740	0.980580
H3611	H361	0.250940	0.541200	0.966970
C7061	C706	0.250930	0.569030	0.980520
H3621	H362	0.250700	0.576650	0.966850
C7071	C707	0.251080	0.579600	0.997560
C7081	C708	0.251370	0.568930	0.014680
H3631	H363	0.251490	0.576470	0.028290
C7091	C709	0.251510	0.548640	0.014750
H3641	H364	0.251740	0.541020	0.028410
C7101	C710	0.251360	0.538070	0.997700
C7111	C711	0.252160	0.466280	0.015020
H3651	H365	0.252340	0.473820	0.028640
C7121	C712	0.252300	0.445980	0.015090
H3661	H366	0.252590	0.438360	0.028760
C7131	C713	0.252080	0.435410	0.998040
C7141	C714	0.251710	0.446080	0.980920
H3671	H367	0.251530	0.438540	0.967310
C7151	C715	0.251570	0.466380	0.980850
H3681	H368	0.251280	0.473990	0.967190
C7161	C716	0.251790	0.476950	0.997900
C7171	C717	0.250930	0.601210	0.997490
C7181	C718	0.250810	0.619120	0.997430
C7191	C719	0.252230	0.413810	0.998120
C7201	C720	0.252360	0.395890	0.998180
C7211	C721	0.251040	0.651310	0.014390
H3691	H369	0.251440	0.643700	0.028060
C7221	C722	0.250920	0.671600	0.014330
H3701	H370	0.251240	0.679000	0.028020
C7231	C723	0.250430	0.682320	0.997190
C7241	C724	0.250050	0.671680	0.980140
H3711	H371	0.249660	0.679130	0.966390
C7251	C725	0.250160	0.651380	0.980240
H3721	H372	0.249860	0.643830	0.966620
C7261	C726	0.250670	0.640720	0.997350
C7271	C727	0.252150	0.363710	0.981220
H3731	H373	0.251770	0.371330	0.967550
C7281	C728	0.252270	0.343420	0.981270
H3741	H374	0.251970	0.336030	0.967570
C7291	C729	0.252760	0.332690	0.998400
C7301	C730	0.253110	0.343330	0.015460
H3751	H375	0.253490	0.335870	0.029210
C7311	C731	0.252990	0.363630	0.015370
H3761	H376	0.253280	0.371170	0.028980
C7321	C732	0.252500	0.374290	0.998260
C7331	C733	0.751380	0.007540	0.989870
C7341	C734	0.751690	0.007620	0.007810
C7351	C735	0.751030	0.024460	0.957400
H3771	H377	0.751340	0.038130	0.964850
C7361	C736	0.750670	0.024370	0.937080
H3781	H378	0.750710	0.037970	0.929370
C7371	C737	0.750270	0.007250	0.926610
C7381	C738	0.750240	0.990230	0.937420
H3791	H379	0.749930	0.976570	0.929980
C7391	C739	0.750600	0.990330	0.957750
H3801	H380	0.750560	0.976720	0.965460
C7401	C740	0.751000	0.007440	0.968220
C7411	C741	0.751960	0.990690	0.040270
H3811	H381	0.751600	0.977030	0.032830
C7421	C742	0.752320	0.990780	0.060590
H3821	H382	0.752230	0.977180	0.068310
C7431	C743	0.752810	0.007900	0.071070
C7441	C744	0.752910	0.024920	0.060260
H3831	H383	0.753290	0.038580	0.067700
C7451	C745	0.752550	0.024830	0.039930
H3841	H384	0.752660	0.038430	0.032220
C7461	C746	0.752070	0.007710	0.029450
C7471	C747	0.749870	0.007160	0.904960
C7481	C748	0.749520	0.007080	0.887010
C7491	C749	0.753210	0.007990	0.092720
C7501	C750	0.753560	0.008070	0.110660
C7511	C751	0.765880	0.006960	0.855190
H3851	H385	0.779710	0.007010	0.863150
C7521	C752	0.765430	0.006890	0.834860
H3861	H386	0.778980	0.006880	0.827800
C7531	C753	0.748090	0.006830	0.823680
C7541	C754	0.731250	0.006850	0.833920
H3871	H387	0.717350	0.006820	0.826120
C7551	C755	0.731740	0.006930	0.854240
H3881	H388	0.718270	0.006940	0.861440
C7561	C756	0.749050	0.006990	0.865370
C7571	C757	0.771350	0.008270	0.143430
H3891	H389	0.784820	0.008280	0.136220
C7581	C758	0.771850	0.008340	0.163750
H3901	H390	0.785760	0.008410	0.171540
C7591	C759	0.755010	0.008320	0.174000
C7601	C760	0.737670	0.008230	0.162820
H3911	H391	0.724120	0.008200	0.169890
C7611	C761	0.737210	0.008150	0.142490
H3921	H392	0.723380	0.008070	0.134540
C7621	C762	0.754040	0.008160	0.132310
C7631	C763	0.751930	0.007600	0.489900
C7641	C764	0.751220	0.007580	0.507790
C7651	C765	0.770270	0.007470	0.459250
H3931	H393	0.783610	0.007330	0.468030
C7661	C766	0.771060	0.007500	0.439000
H3941	H394	0.785000	0.007370	0.432680
C7671	C767	0.754410	0.007680	0.426850
C7681	C768	0.736910	0.007840	0.435920
H3951	H395	0.723570	0.007990	0.427140
C7691	C769	0.736120	0.007810	0.456180
H3961	H396	0.722180	0.007940	0.462500
C7701	C770	0.752770	0.007630	0.468330
C7711	C771	0.732880	0.007640	0.538440
H3971	H397	0.719540	0.007730	0.529660
C7721	C772	0.732090	0.007610	0.558690
H3981	H398	0.718150	0.007690	0.565020
C7731	C773	0.748750	0.007500	0.570850
C7741	C774	0.766240	0.007410	0.561770
H3991	H399	0.779580	0.007320	0.570550
C7751	C775	0.767030	0.007440	0.541510
H4001	H400	0.780970	0.007360	0.535190
C7761	C776	0.750370	0.007550	0.529360
C7771	C777	0.755250	0.007720	0.405270
C7781	C778	0.755940	0.007750	0.387390
C7791	C779	0.747900	0.007470	0.592420
C7801	C780	0.747210	0.007430	0.610310
C7811	C781	0.757210	0.024880	0.355130
H4011	H401	0.756990	0.038490	0.362640
C7821	C782	0.757880	0.024940	0.334870
H4021	H402	0.758130	0.038680	0.327410
C7831	C783	0.758150	0.007900	0.324240
C7841	C784	0.757740	0.990800	0.334980
H4031	H403	0.757860	0.977110	0.327620
C7851	C785	0.757070	0.990770	0.355250
H4041	H404	0.756730	0.977120	0.362850
C7861	C786	0.756760	0.007800	0.365810
C7871	C787	0.746120	0.024410	0.642450
H4051	H405	0.746490	0.038070	0.634850
C7881	C788	0.745450	0.024380	0.662710
H4061	H406	0.745350	0.038070	0.670080
C7891	C789	0.745010	0.007280	0.673450
C7901	C790	0.745240	0.990240	0.662820
H4071	H407	0.744970	0.976500	0.670270
C7911	C791	0.745910	0.990310	0.642550
H4081	H408	0.746100	0.976690	0.635040
C7921	C792	0.746390	0.007390	0.631880
