data_c6cp03028a_c6cp03028a3_freeONLY_PM
_symmetry_space_group_name_H-M	'P1'
_cell_length_a	14.890300
_cell_length_b	13.167800
_cell_length_c	12.985200
_cell_angle_alpha	90.000000
_cell_angle_beta	105.664000
_cell_angle_gamma	90.000000
_symmetry_Int_Tables_number 1

loop_
_symmetry_equiv_pos_as_xyz
'x,y,z'

loop_
_atom_site_label
_atom_site_type_symbol
_atom_site_fract_x
_atom_site_fract_y
_atom_site_fract_z
Y11	Y1	0.271000	0.435090	0.192290
Y21	Y2	0.728990	0.564920	0.807710
Y31	Y3	0.741600	0.431420	0.312020
Y41	Y4	0.258400	0.568580	0.687990
Y51	Y5	0.758400	0.931430	0.187990
Y61	Y6	0.241600	0.068580	0.812020
Y71	Y7	0.229000	0.935090	0.307710
Y81	Y8	0.771000	0.064920	0.692290
O11	O1	0.120990	0.460550	0.234280
O21	O2	0.879010	0.539460	0.765730
O31	O3	0.888770	0.442240	0.268360
O41	O4	0.111230	0.557760	0.731640
O51	O5	0.611220	0.942240	0.231640
O61	O6	0.388780	0.057760	0.768370
O71	O7	0.379010	0.960550	0.265730
O81	O8	0.620990	0.039450	0.734280
O91	O9	0.120230	0.447050	0.062620
O101	O10	0.879770	0.552950	0.937380
O111	O11	0.886390	0.503440	0.427810
O121	O12	0.113610	0.496560	0.572190
O131	O13	0.613610	0.003440	0.072190
O141	O14	0.386390	0.996560	0.927810
O151	O15	0.379770	0.947060	0.437380
O161	O16	0.620230	0.052940	0.562630
O171	O17	0.294560	0.309580	0.073290
O181	O18	0.705440	0.690420	0.926720
O191	O19	0.205440	0.809580	0.426720
O201	O20	0.794560	0.190420	0.573290
O211	O21	0.279600	0.180280	0.957280
O221	O22	0.720400	0.819720	0.042720
O231	O23	0.220400	0.680280	0.542730
O241	O24	0.779600	0.319720	0.457280
O251	O25	0.316940	0.449560	0.382730
O261	O26	0.683060	0.550440	0.617270
O271	O27	0.684450	0.443000	0.120620
O281	O28	0.315550	0.557000	0.879380
O291	O29	0.815550	0.943000	0.379380
O301	O30	0.184450	0.057000	0.620620
O311	O31	0.183060	0.949560	0.117270
O321	O32	0.816940	0.050440	0.882730
O331	O33	0.316400	0.481230	0.552390
O341	O34	0.683600	0.518770	0.447610
O351	O35	0.681910	0.475760	0.950120
O361	O36	0.318090	0.524240	0.049880
O371	O37	0.818090	0.975760	0.549880
O381	O38	0.181910	0.024240	0.450120
O391	O39	0.183600	0.981230	0.947610
O401	O40	0.816400	0.018770	0.052390
O411	O41	0.247520	0.275940	0.260630
O421	O42	0.752480	0.724060	0.739380
O431	O43	0.756260	0.270670	0.241350
O441	O44	0.243740	0.729340	0.758660
O451	O45	0.743730	0.770670	0.258650
O461	O46	0.256270	0.229330	0.741350
O471	O47	0.252480	0.775940	0.239380
O481	O48	0.747520	0.224060	0.760630
O491	O49	0.232640	0.108770	0.282190
O501	O50	0.767360	0.891230	0.717820
O511	O51	0.767700	0.102030	0.229030
O521	O52	0.232300	0.897970	0.770970
O531	O53	0.732300	0.602030	0.270970
O541	O54	0.267700	0.397970	0.729030
O551	O55	0.267360	0.608770	0.217810
O561	O56	0.732650	0.391230	0.782190
O571	O57	0.435050	0.433940	0.242910
O581	O58	0.564950	0.566060	0.757090
O591	O59	0.585750	0.386890	0.277840
O601	O60	0.414250	0.613110	0.722170
O611	O61	0.914250	0.886890	0.222160
O621	O62	0.085750	0.113110	0.777840
O631	O63	0.064960	0.933940	0.257090
O641	O64	0.935040	0.066060	0.742910
C11	C1	0.078910	0.465870	0.135440
C21	C2	0.921090	0.534130	0.864560
C31	C3	0.928920	0.486270	0.356910
C41	C4	0.071080	0.513730	0.643090
C51	C5	0.571070	0.986270	0.143090
C61	C6	0.428930	0.013730	0.856920
C71	C7	0.421100	0.965870	0.364560
C81	C8	0.578900	0.034130	0.635440
C91	C9	0.249020	0.258130	0.994090
C101	C10	0.750970	0.741870	0.005910
C111	C11	0.749030	0.241870	0.494090
C121	C12	0.250970	0.758130	0.505910
C131	C13	0.278960	0.484880	0.451370
C141	C14	0.721040	0.515120	0.548630
C151	C15	0.719970	0.480070	0.050910
C161	C16	0.280040	0.519930	0.949100
C171	C17	0.780040	0.980070	0.449090
C181	C18	0.219970	0.019930	0.550910
C191	C19	0.221040	0.984880	0.048630
C201	C20	0.778960	0.015120	0.951370
C211	C21	0.276680	0.185260	0.262500
C221	C22	0.723320	0.814740	0.737500
C231	C23	0.722750	0.182050	0.236160
C241	C24	0.277250	0.817950	0.763840
C251	C25	0.777240	0.682050	0.263840
C261	C26	0.222760	0.317950	0.736170
C271	C27	0.223320	0.685260	0.237500
C281	C28	0.776680	0.314740	0.762510
C291	C29	0.499290	0.368600	0.252020
C301	C30	0.500710	0.631400	0.747980
C311	C31	0.000710	0.868600	0.247980
C321	C32	0.999290	0.131400	0.752020
H11	H1	0.004060	0.488210	0.110560
H21	H2	0.995940	0.511790	0.889450
H31	H3	0.003080	0.509550	0.371760
H41	H4	0.996920	0.490450	0.628240
H51	H5	0.496920	0.009550	0.128240
H61	H6	0.503080	0.990450	0.871760
H71	H7	0.495940	0.988210	0.389440
H81	H8	0.504060	0.011790	0.610560
H91	H9	0.176540	0.283680	0.953810
H101	H10	0.823460	0.716320	0.046190
H111	H11	0.323460	0.783680	0.546190
H121	H12	0.676540	0.216320	0.453810
H131	H13	0.209540	0.521200	0.423680
H141	H14	0.790460	0.478810	0.576320
H151	H15	0.788900	0.518030	0.077630
H161	H16	0.211100	0.481970	0.922370
H171	H17	0.711100	0.018030	0.422370
H181	H18	0.288900	0.981970	0.577630
H191	H19	0.290460	0.021190	0.076320
H201	H20	0.709540	0.978810	0.923680
H211	H21	0.345410	0.171610	0.246350
H221	H22	0.654590	0.828390	0.753650
H231	H23	0.648620	0.173640	0.237920
H241	H24	0.351380	0.826360	0.762080
H251	H25	0.851380	0.673640	0.262080
H261	H26	0.148620	0.326360	0.737920
H271	H27	0.154590	0.671610	0.253650
H281	H28	0.845410	0.328390	0.746350
H291	H29	0.477490	0.287790	0.235770
H301	H30	0.522510	0.712210	0.764240
H311	H31	0.022510	0.787790	0.264230
H321	H32	0.977500	0.212210	0.735770
