data_c6ra28728j_c6ra28728j2_freeONLY_PM
_symmetry_space_group_name_H-M	'P1'
_cell_length_a	10.167600
_cell_length_b	17.300000
_cell_length_c	17.485000
_cell_angle_alpha	90.000000
_cell_angle_beta	91.708000
_cell_angle_gamma	90.000000
_symmetry_Int_Tables_number 1

loop_
_symmetry_equiv_pos_as_xyz
'x,y,z'

loop_
_atom_site_label
_atom_site_type_symbol
_atom_site_fract_x
_atom_site_fract_y
_atom_site_fract_z
Cd11	Cd1	0.827360	0.363200	0.019900
N11	N1	0.810700	0.397050	0.891780
N21	N2	0.861900	0.519030	0.634990
N31	N3	0.099200	0.738160	0.510870
C11	C1	0.712100	0.371200	0.846200
H11	H1	0.648100	0.338100	0.867300
C21	C2	0.699300	0.390500	0.769700
H21	H2	0.627200	0.371200	0.739600
C31	C3	0.791200	0.438000	0.736800
C41	C4	0.892200	0.465500	0.784700
H31	H3	0.956800	0.499300	0.765200
C51	C5	0.898900	0.443900	0.860500
H41	H4	0.969300	0.463200	0.891900
C61	C6	0.784500	0.460400	0.654690
C71	C7	0.700300	0.422000	0.602340
H51	H5	0.648300	0.379800	0.618500
C81	C8	0.693800	0.446700	0.525800
C91	C9	0.774200	0.508200	0.506400
H61	H6	0.773200	0.526700	0.455200
C101	C10	0.856500	0.542700	0.561700
C111	C11	0.080800	0.714800	0.581700
H71	H7	0.122100	0.743300	0.622200
C121	C12	0.005300	0.651700	0.600500
H81	H8	0.996300	0.637500	0.652600
C131	C13	0.942400	0.609000	0.542700
C141	C14	0.967500	0.631300	0.468300
H91	H9	0.930700	0.602900	0.426400
C151	C15	0.045400	0.694400	0.455200
H101	H10	0.062100	0.707700	0.403600
C161	C16	0.603200	0.409500	0.468660
C171	C17	0.555900	0.335200	0.479100
H111	H11	0.583500	0.306800	0.523200
C181	C18	0.469200	0.301600	0.426300
H121	H12	0.437000	0.250800	0.434300
C191	C19	0.430200	0.342800	0.362000
C201	C20	0.477400	0.416500	0.349740
H131	H13	0.451500	0.444100	0.304800
C211	C21	0.562300	0.449600	0.403000
H141	H14	0.593600	0.500600	0.394900
C221	C22	0.341700	0.326000	0.235800
C231	C23	0.221500	0.341500	0.198600
H151	H15	0.142800	0.341700	0.226500
C241	C24	0.216900	0.356500	0.120510
C251	C25	0.333000	0.355900	0.080300
H161	H16	0.330600	0.366300	0.026900
C261	C26	0.452900	0.340200	0.117900
C271	C27	0.455600	0.324400	0.195900
H171	H17	0.536600	0.312400	0.221600
C281	C28	0.086600	0.370900	0.080600
C291	C29	0.580000	0.340700	0.076200
O11	O1	0.081000	0.391760	0.011900
O21	O2	0.794200	0.490030	0.055630
H181	H18	0.822900	0.529000	0.031100
H191	H19	0.715900	0.503900	0.066300
O31	O3	0.984600	0.358840	0.118060
O41	O4	0.580400	0.362620	0.007620
O51	O5	0.683400	0.319750	0.111850
O61	O6	0.338700	0.307580	0.313040
Cd21	Cd2	0.172640	0.863200	0.480100
N41	N4	0.189300	0.897050	0.608220
N51	N5	0.138100	0.019030	0.865010
N61	N6	0.900800	0.238160	0.989130
C301	C30	0.287900	0.871200	0.653800
H201	H20	0.351900	0.838100	0.632700
C311	C31	0.300700	0.890500	0.730300
H211	H21	0.372800	0.871200	0.760400
C321	C32	0.208800	0.938000	0.763200
C331	C33	0.107800	0.965500	0.715300
H221	H22	0.043200	0.999300	0.734800
C341	C34	0.101100	0.943900	0.639500
H231	H23	0.030700	0.963200	0.608100
C351	C35	0.215500	0.960400	0.845310
C361	C36	0.299700	0.922000	0.897660
H241	H24	0.351700	0.879800	0.881500
C371	C37	0.306200	0.946700	0.974200
C381	C38	0.225800	0.008200	0.993600
H251	H25	0.226800	0.026700	0.044800
C391	C39	0.143500	0.042700	0.938300
C401	C40	0.919200	0.214800	0.918300
H261	H26	0.877900	0.243300	0.877800
C411	C41	0.994700	0.151700	0.899500
H271	H27	0.003700	0.137500	0.847400
C421	C42	0.057600	0.109000	0.957300
C431	C43	0.032500	0.131300	0.031700
H281	H28	0.069300	0.102900	0.073600
C441	C44	0.954600	0.194400	0.044800
H291	H29	0.937900	0.207700	0.096400
C451	C45	0.396800	0.909500	0.031340
C461	C46	0.444100	0.835200	0.020900
H301	H30	0.416500	0.806800	0.976800
C471	C47	0.530800	0.801600	0.073700
H311	H31	0.563000	0.750800	0.065700
C481	C48	0.569800	0.842800	0.138000
C491	C49	0.522600	0.916500	0.150260
H321	H32	0.548500	0.944100	0.195200
C501	C50	0.437700	0.949600	0.097000
H331	H33	0.406400	0.000600	0.105100
C511	C51	0.658300	0.826000	0.264200
C521	C52	0.778500	0.841500	0.301400
H341	H34	0.857200	0.841700	0.273500
C531	C53	0.783100	0.856500	0.379490
C541	C54	0.667000	0.855900	0.419700
H351	H35	0.669400	0.866300	0.473100
C551	C55	0.547100	0.840200	0.382100
C561	C56	0.544400	0.824400	0.304100
H361	H36	0.463400	0.812400	0.278400
C571	C57	0.913400	0.870900	0.419400
C581	C58	0.420000	0.840700	0.423800
O71	O7	0.919000	0.891760	0.488100
O81	O8	0.205800	0.990030	0.444370
H371	H37	0.177100	0.029000	0.468900
H381	H38	0.284100	0.003900	0.433700
O91	O9	0.015400	0.858840	0.381940
O101	O10	0.419600	0.862620	0.492380
O111	O11	0.316600	0.819750	0.388150
O121	O12	0.661300	0.807580	0.186960
Cd31	Cd3	0.172640	0.636800	0.980100
N71	N7	0.189300	0.602950	0.108220
N81	N8	0.138100	0.480970	0.365010
N91	N9	0.900800	0.261840	0.489130
C591	C59	0.287900	0.628800	0.153800
H391	H39	0.351900	0.661900	0.132700
C601	C60	0.300700	0.609500	0.230300
H401	H40	0.372800	0.628800	0.260400
C611	C61	0.208800	0.562000	0.263200
C621	C62	0.107800	0.534500	0.215300
H411	H41	0.043200	0.500700	0.234800
C631	C63	0.101100	0.556100	0.139500
H421	H42	0.030700	0.536800	0.108100
C641	C64	0.215500	0.539600	0.345310
C651	C65	0.299700	0.578000	0.397660
H431	H43	0.351700	0.620200	0.381500
C661	C66	0.306200	0.553300	0.474200
C671	C67	0.225800	0.491800	0.493600
H441	H44	0.226800	0.473300	0.544800
C681	C68	0.143500	0.457300	0.438300
C691	C69	0.919200	0.285200	0.418300
H451	H45	0.877900	0.256700	0.377800
C701	C70	0.994700	0.348300	0.399500
H461	H46	0.003700	0.362500	0.347400
C711	C71	0.057600	0.391000	0.457300
C721	C72	0.032500	0.368700	0.531700
H471	H47	0.069300	0.397100	0.573600
C731	C73	0.954600	0.305600	0.544800
H481	H48	0.937900	0.292300	0.596400
C741	C74	0.396800	0.590500	0.531340
C751	C75	0.444100	0.664800	0.520900
H491	H49	0.416500	0.693200	0.476800
C761	C76	0.530800	0.698400	0.573700
H501	H50	0.563000	0.749200	0.565700
C771	C77	0.569800	0.657200	0.638000
C781	C78	0.522600	0.583500	0.650260
H511	H51	0.548500	0.555900	0.695200
C791	C79	0.437700	0.550400	0.597000
H521	H52	0.406400	0.499400	0.605100
C801	C80	0.658300	0.674000	0.764200
C811	C81	0.778500	0.658500	0.801400
H531	H53	0.857200	0.658300	0.773500
C821	C82	0.783100	0.643500	0.879490
C831	C83	0.667000	0.644100	0.919700
H541	H54	0.669400	0.633700	0.973100
C841	C84	0.547100	0.659800	0.882100
C851	C85	0.544400	0.675600	0.804100
H551	H55	0.463400	0.687600	0.778400
C861	C86	0.913400	0.629100	0.919400
C871	C87	0.420000	0.659300	0.923800
O131	O13	0.919000	0.608240	0.988100
O141	O14	0.205800	0.509970	0.944370
H561	H56	0.177100	0.471000	0.968900
H571	H57	0.284100	0.496100	0.933700
O151	O15	0.015400	0.641160	0.881940
O161	O16	0.419600	0.637380	0.992380
O171	O17	0.316600	0.680250	0.888150
O181	O18	0.661300	0.692420	0.686960
Cd41	Cd4	0.827360	0.136800	0.519900
N101	N10	0.810700	0.102950	0.391780
N111	N11	0.861900	0.980970	0.134990
N121	N12	0.099200	0.761840	0.010870
C881	C88	0.712100	0.128800	0.346200
H581	H58	0.648100	0.161900	0.367300
C891	C89	0.699300	0.109500	0.269700
H591	H59	0.627200	0.128800	0.239600
C901	C90	0.791200	0.062000	0.236800
C911	C91	0.892200	0.034500	0.284700
H601	H60	0.956800	0.000700	0.265200
C921	C92	0.898900	0.056100	0.360500
H611	H61	0.969300	0.036800	0.391900
C931	C93	0.784500	0.039600	0.154690
C941	C94	0.700300	0.078000	0.102340
H621	H62	0.648300	0.120200	0.118500
C951	C95	0.693800	0.053300	0.025800
C961	C96	0.774200	0.991800	0.006400
H631	H63	0.773200	0.973300	0.955200
C971	C97	0.856500	0.957300	0.061700
C981	C98	0.080800	0.785200	0.081700
H641	H64	0.122100	0.756700	0.122200
C991	C99	0.005300	0.848300	0.100500
H651	H65	0.996300	0.862500	0.152600
C1001	C100	0.942400	0.891000	0.042700
C1011	C101	0.967500	0.868700	0.968300
H661	H66	0.930700	0.897100	0.926400
C1021	C102	0.045400	0.805600	0.955200
H671	H67	0.062100	0.792300	0.903600
C1031	C103	0.603200	0.090500	0.968660
C1041	C104	0.555900	0.164800	0.979100
H681	H68	0.583500	0.193200	0.023200
C1051	C105	0.469200	0.198400	0.926300
H691	H69	0.437000	0.249200	0.934300
C1061	C106	0.430200	0.157200	0.862000
C1071	C107	0.477400	0.083500	0.849740
H701	H70	0.451500	0.055900	0.804800
C1081	C108	0.562300	0.050400	0.903000
H711	H71	0.593600	0.999400	0.894900
C1091	C109	0.341700	0.174000	0.735800
C1101	C110	0.221500	0.158500	0.698600
H721	H72	0.142800	0.158300	0.726500
C1111	C111	0.216900	0.143500	0.620510
C1121	C112	0.333000	0.144100	0.580300
H731	H73	0.330600	0.133700	0.526900
C1131	C113	0.452900	0.159800	0.617900
C1141	C114	0.455600	0.175600	0.695900
H741	H74	0.536600	0.187600	0.721600
C1151	C115	0.086600	0.129100	0.580600
C1161	C116	0.580000	0.159300	0.576200
O191	O19	0.081000	0.108240	0.511900
O201	O20	0.794200	0.009970	0.555630
H751	H75	0.822900	0.971000	0.531100
H761	H76	0.715900	0.996100	0.566300
O211	O21	0.984600	0.141160	0.618060
O221	O22	0.580400	0.137380	0.507620
O231	O23	0.683400	0.180250	0.611850
O241	O24	0.338700	0.192420	0.813040
