data_CAHSOU_freeONLY_PM
_symmetry_space_group_name_H-M	'P1'
_cell_length_a	9.863600
_cell_length_b	9.863600
_cell_length_c	30.352900
_cell_angle_alpha	90.000000
_cell_angle_beta	90.000000
_cell_angle_gamma	90.000000
_symmetry_Int_Tables_number 1

loop_
_symmetry_equiv_pos_as_xyz
'x,y,z'

loop_
_atom_site_label
_atom_site_type_symbol
_atom_site_fract_x
_atom_site_fract_y
_atom_site_fract_z
Fe11	Fe1	0.229700	0.420600	0.090800
Fe21	Fe2	0.407200	0.950100	0.988700
P11	P1	0.444400	0.221900	0.140200
P21	P2	0.970200	0.675800	0.944300
P31	P3	0.378200	0.655200	0.030600
O11	O1	0.294200	0.314400	0.039800
O21	O2	0.310800	0.593500	0.070700
O31	O3	0.392300	0.357400	0.122800
O41	O4	0.977900	0.671400	0.894500
O51	O5	0.599700	0.228400	0.142000
F11	F1	0.073100	0.492900	0.053500
O61	O6	0.331000	0.802500	0.024000
O71	O7	0.000800	0.533400	0.962700
O81	O8	0.082500	0.263600	0.995300
O91	O9	0.377800	0.192600	0.185400
F21	F2	0.817000	0.565000	0.032300
O101	O10	0.835200	0.736300	0.959300
O111	O11	0.531800	0.644600	0.036900
O121	O12	0.395400	0.101700	0.110200
O131	O13	0.076000	0.778900	0.964100
O141	O14	0.334500	0.579800	0.986800
Fe31	Fe3	0.770300	0.579400	0.590800
Fe41	Fe4	0.592800	0.049900	0.488700
P41	P4	0.555600	0.778100	0.640200
P51	P5	0.029800	0.324200	0.444300
P61	P6	0.621800	0.344800	0.530600
O151	O15	0.705800	0.685600	0.539800
O161	O16	0.689200	0.406500	0.570700
O171	O17	0.607700	0.642600	0.622800
O181	O18	0.022100	0.328600	0.394500
O191	O19	0.400300	0.771600	0.642000
F31	F3	0.926900	0.507100	0.553500
O201	O20	0.669000	0.197500	0.524000
O211	O21	0.999200	0.466600	0.462700
O221	O22	0.917500	0.736400	0.495300
O231	O23	0.622200	0.807400	0.685400
F41	F4	0.183000	0.435000	0.532300
O241	O24	0.164800	0.263700	0.459300
O251	O25	0.468200	0.355400	0.536900
O261	O26	0.604600	0.898300	0.610200
O271	O27	0.924000	0.221100	0.464100
O281	O28	0.665500	0.420200	0.486800
Fe51	Fe5	0.079400	0.729700	0.840800
Fe61	Fe6	0.549900	0.907200	0.738700
P71	P7	0.278100	0.944400	0.890200
P81	P8	0.824200	0.470200	0.694300
P91	P9	0.844800	0.878200	0.780600
O291	O29	0.185600	0.794200	0.789800
O301	O30	0.906500	0.810800	0.820700
O311	O31	0.142600	0.892300	0.872800
O321	O32	0.828600	0.477900	0.644500
O331	O33	0.271600	0.099700	0.892000
F51	F5	0.007100	0.573100	0.803500
O341	O34	0.697500	0.831000	0.774000
O351	O35	0.966600	0.500800	0.712700
O361	O36	0.236400	0.582500	0.745300
O371	O37	0.307400	0.877800	0.935400
F61	F6	0.935000	0.317000	0.782300
O381	O38	0.763700	0.335200	0.709300
O391	O39	0.855400	0.031800	0.786900
O401	O40	0.398300	0.895400	0.860200
O411	O41	0.721100	0.576000	0.714100
O421	O42	0.920200	0.834500	0.736800
Fe71	Fe7	0.920600	0.270300	0.340800
Fe81	Fe8	0.450100	0.092800	0.238700
P101	P10	0.721900	0.055600	0.390200
P111	P11	0.175800	0.529800	0.194300
P121	P12	0.155200	0.121800	0.280600
O431	O43	0.814400	0.205800	0.289800
O441	O44	0.093500	0.189200	0.320700
O451	O45	0.857400	0.107700	0.372800
O461	O46	0.171400	0.522100	0.144500
O471	O47	0.728400	0.900300	0.392000
F71	F7	0.992900	0.426900	0.303500
O481	O48	0.302500	0.169000	0.274000
O491	O49	0.033400	0.499200	0.212700
O501	O50	0.763600	0.417500	0.245300
O511	O51	0.692600	0.122200	0.435400
F81	F8	0.065000	0.683000	0.282300
O521	O52	0.236300	0.664800	0.209300
O531	O53	0.144600	0.968200	0.286900
O541	O54	0.601700	0.104600	0.360200
O551	O55	0.278900	0.424000	0.214100
O561	O56	0.079800	0.165500	0.236800
Fe91	Fe9	0.270300	0.920600	0.659200
Fe101	Fe10	0.092800	0.450100	0.761300
P131	P13	0.055600	0.721900	0.609800
P141	P14	0.529800	0.175800	0.805700
P151	P15	0.121800	0.155200	0.719400
O571	O57	0.205800	0.814400	0.710200
O581	O58	0.189200	0.093500	0.679300
O591	O59	0.107700	0.857400	0.627200
O601	O60	0.522100	0.171400	0.855500
O611	O61	0.900300	0.728400	0.608000
F91	F9	0.426900	0.992900	0.696500
O621	O62	0.169000	0.302500	0.726000
O631	O63	0.499200	0.033400	0.787300
O641	O64	0.417500	0.763600	0.754700
O651	O65	0.122200	0.692600	0.564600
F101	F10	0.683000	0.065000	0.717700
O661	O66	0.664800	0.236300	0.790700
O671	O67	0.968200	0.144600	0.713100
O681	O68	0.104600	0.601700	0.639800
O691	O69	0.424000	0.278900	0.785900
O701	O70	0.165500	0.079800	0.763200
Fe111	Fe11	0.729700	0.079400	0.159200
Fe121	Fe12	0.907200	0.549900	0.261300
P161	P16	0.944400	0.278100	0.109800
P171	P17	0.470200	0.824200	0.305700
P181	P18	0.878200	0.844800	0.219400
O711	O71	0.794200	0.185600	0.210200
O721	O72	0.810800	0.906500	0.179300
O731	O73	0.892300	0.142600	0.127200
O741	O74	0.477900	0.828600	0.355500
O751	O75	0.099700	0.271600	0.108000
F111	F11	0.573100	0.007100	0.196500
O761	O76	0.831000	0.697500	0.226000
O771	O77	0.500800	0.966600	0.287300
O781	O78	0.582500	0.236400	0.254700
O791	O79	0.877800	0.307400	0.064600
F121	F12	0.317000	0.935000	0.217700
O801	O80	0.335200	0.763700	0.290700
O811	O81	0.031800	0.855400	0.213100
O821	O82	0.895400	0.398300	0.139800
O831	O83	0.576000	0.721100	0.285900
O841	O84	0.834500	0.920200	0.263200
Fe131	Fe13	0.420600	0.229700	0.909200
Fe141	Fe14	0.950100	0.407200	0.011300
P191	P19	0.221900	0.444400	0.859800
P201	P20	0.675800	0.970200	0.055700
P211	P21	0.655200	0.378200	0.969400
O851	O85	0.314400	0.294200	0.960200
O861	O86	0.593500	0.310800	0.929300
O871	O87	0.357400	0.392300	0.877200
O881	O88	0.671400	0.977900	0.105500
O891	O89	0.228400	0.599700	0.858000
F131	F13	0.492900	0.073100	0.946500
O901	O90	0.802500	0.331000	0.976000
O911	O91	0.533400	0.000800	0.037300
O921	O92	0.263600	0.082500	0.004700
O931	O93	0.192600	0.377800	0.814600
F141	F14	0.565000	0.817000	0.967700
O941	O94	0.736300	0.835200	0.040700
O951	O95	0.644600	0.531800	0.963100
O961	O96	0.101700	0.395400	0.889800
O971	O97	0.778900	0.076000	0.035900
O981	O98	0.579800	0.334500	0.013200
Fe151	Fe15	0.579400	0.770300	0.409200
Fe161	Fe16	0.049900	0.592800	0.511300
P221	P22	0.778100	0.555600	0.359800
P231	P23	0.324200	0.029800	0.555700
P241	P24	0.344800	0.621800	0.469400
O991	O99	0.685600	0.705800	0.460200
O1001	O100	0.406500	0.689200	0.429300
O1011	O101	0.642600	0.607700	0.377200
O1021	O102	0.328600	0.022100	0.605500
O1031	O103	0.771600	0.400300	0.358000
F151	F15	0.507100	0.926900	0.446500
O1041	O104	0.197500	0.669000	0.476000
O1051	O105	0.466600	0.999200	0.537300
O1061	O106	0.736400	0.917500	0.504700
O1071	O107	0.807400	0.622200	0.314600
F161	F16	0.435000	0.183000	0.467700
O1081	O108	0.263700	0.164800	0.540700
O1091	O109	0.355400	0.468200	0.463100
O1101	O110	0.898300	0.604600	0.389800
O1111	O111	0.221100	0.924000	0.535900
O1121	O112	0.420200	0.665500	0.513200
Fe171	Fe17	0.688800	0.688800	0.000000
P251	P25	0.237000	0.237000	0.000000
Fe181	Fe18	0.311200	0.311200	0.500000
P261	P26	0.763000	0.763000	0.500000
Fe191	Fe19	0.811200	0.188800	0.750000
P271	P27	0.263000	0.737000	0.750000
Fe201	Fe20	0.188800	0.811200	0.250000
P281	P28	0.737000	0.263000	0.250000
