data_CAHVAJ_freeONLY_PM
_symmetry_space_group_name_H-M	'P1'
_cell_length_a	9.644800
_cell_length_b	8.877000
_cell_length_c	14.813000
_cell_angle_alpha	90.000000
_cell_angle_beta	91.936000
_cell_angle_gamma	90.000000
_symmetry_Int_Tables_number 1

loop_
_symmetry_equiv_pos_as_xyz
'x,y,z'

loop_
_atom_site_label
_atom_site_type_symbol
_atom_site_fract_x
_atom_site_fract_y
_atom_site_fract_z
V11	V1	0.935500	0.997900	0.151300
V21	V2	0.168500	0.499800	0.893200
P11	P1	0.008000	0.747300	0.004700
O11	O1	0.046900	0.838300	0.088200
O21	O2	0.135700	0.649600	0.983300
O31	O3	0.965100	0.842700	0.922200
O41	O4	0.881800	0.845500	0.243700
O51	O5	0.880300	0.160700	0.238300
O61	O6	0.729000	0.650200	0.165400
O71	O7	0.720300	0.355200	0.166200
O81	O8	0.881400	0.643900	0.019800
O91	O9	0.797600	0.990700	0.088500
O101	O10	0.029600	0.506700	0.833200
O111	O11	0.121400	0.011000	0.240100
O121	O12	0.259400	0.211400	0.165900
O131	O13	0.614400	0.510000	0.024600
V31	V3	0.564500	0.997900	0.348700
V41	V4	0.331500	0.499800	0.606800
P21	P2	0.492000	0.747300	0.495300
O141	O14	0.453100	0.838300	0.411800
O151	O15	0.364300	0.649600	0.516700
O161	O16	0.534900	0.842700	0.577800
O171	O17	0.618200	0.845500	0.256300
O181	O18	0.619700	0.160700	0.261700
O191	O19	0.771000	0.650200	0.334600
O201	O20	0.779700	0.355200	0.333800
O211	O21	0.618600	0.643900	0.480200
O221	O22	0.702400	0.990700	0.411500
O231	O23	0.470400	0.506700	0.666800
O241	O24	0.378600	0.011000	0.259900
O251	O25	0.240600	0.211400	0.334100
O261	O26	0.885600	0.510000	0.475400
V51	V5	0.064500	0.002100	0.848700
V61	V6	0.831500	0.500200	0.106800
P31	P3	0.992000	0.252700	0.995300
O271	O27	0.953100	0.161700	0.911800
O281	O28	0.864300	0.350400	0.016700
O291	O29	0.034900	0.157300	0.077800
O301	O30	0.118200	0.154500	0.756300
O311	O31	0.119700	0.839300	0.761700
O321	O32	0.271000	0.349800	0.834600
O331	O33	0.279700	0.644800	0.833800
O341	O34	0.118600	0.356100	0.980200
O351	O35	0.202400	0.009300	0.911500
O361	O36	0.970400	0.493300	0.166800
O371	O37	0.878600	0.989000	0.759900
O381	O38	0.740600	0.788600	0.834100
O391	O39	0.385600	0.490000	0.975400
V71	V7	0.435500	0.002100	0.651300
V81	V8	0.668500	0.500200	0.393200
P41	P4	0.508000	0.252700	0.504700
O401	O40	0.546900	0.161700	0.588200
O411	O41	0.635700	0.350400	0.483300
O421	O42	0.465100	0.157300	0.422200
O431	O43	0.381800	0.154500	0.743700
O441	O44	0.380300	0.839300	0.738300
O451	O45	0.229000	0.349800	0.665400
O461	O46	0.220300	0.644800	0.666200
O471	O47	0.381400	0.356100	0.519800
O481	O48	0.297600	0.009300	0.588500
O491	O49	0.529600	0.493300	0.333200
O501	O50	0.621400	0.989000	0.740100
O511	O51	0.759400	0.788600	0.665900
O521	O52	0.114400	0.490000	0.524600
P51	P5	0.750000	0.253100	0.250000
P61	P6	0.750000	0.752300	0.250000
P71	P7	0.250000	0.746900	0.750000
P81	P8	0.250000	0.247700	0.750000
P91	P9	0.250000	0.104600	0.250000
P101	P10	0.750000	0.895400	0.750000
