data_CAMKEJ_freeONLY_PM
_symmetry_space_group_name_H-M	'P1'
_cell_length_a	15.428100
_cell_length_b	15.428100
_cell_length_c	16.974600
_cell_angle_alpha	90.000000
_cell_angle_beta	90.000000
_cell_angle_gamma	120.000000
_symmetry_Int_Tables_number 1

loop_
_symmetry_equiv_pos_as_xyz
'x,y,z'

loop_
_atom_site_label
_atom_site_type_symbol
_atom_site_fract_x
_atom_site_fract_y
_atom_site_fract_z
W11	W1	0.178820	0.469740	0.851380
S11	S1	0.427100	0.801400	0.075800
O11	O1	0.093200	0.369500	0.906100
O21	O2	0.273300	0.425100	0.832100
O31	O3	0.249200	0.553400	0.926300
O41	O4	0.450700	0.787900	0.157500
C11	C1	0.538000	0.881000	0.027400
H11	H1	0.563600	0.949900	0.046800
H21	H2	0.522800	0.880900	0.970000
H31	H3	0.585800	0.860000	0.034500
O51	O5	0.109100	0.538300	0.829500
C21	C2	0.369000	0.879000	0.083000
H41	H4	0.310300	0.845200	0.116100
H51	H5	0.347100	0.884300	0.028400
H61	H6	0.416600	0.943500	0.101900
W21	W2	0.530260	0.709080	0.851380
S21	S2	0.198600	0.625700	0.075800
O61	O6	0.630500	0.723700	0.906100
O71	O7	0.574900	0.848200	0.832100
O81	O8	0.446600	0.695800	0.926300
O91	O9	0.212100	0.662800	0.157500
C31	C3	0.119000	0.657000	0.027400
H71	H7	0.050100	0.613700	0.046800
H81	H8	0.119100	0.641900	0.970000
H91	H9	0.140000	0.725800	0.034500
O101	O10	0.461700	0.570800	0.829500
C41	C4	0.121000	0.490000	0.083000
H101	H10	0.154800	0.465100	0.116100
H111	H11	0.115700	0.462800	0.028400
H121	H12	0.056500	0.473100	0.101900
W31	W3	0.290920	0.821180	0.851380
S31	S3	0.374300	0.572900	0.075800
O111	O11	0.276300	0.906800	0.906100
O121	O12	0.151800	0.726700	0.832100
O131	O13	0.304200	0.750800	0.926300
O141	O14	0.337200	0.549300	0.157500
C51	C5	0.343000	0.462000	0.027400
H131	H13	0.386300	0.436400	0.046800
H141	H14	0.358100	0.477200	0.970000
H151	H15	0.274200	0.414200	0.034500
O151	O15	0.429200	0.890900	0.829500
C61	C6	0.510000	0.631000	0.083000
H161	H16	0.534900	0.689700	0.116100
H171	H17	0.537200	0.652900	0.028400
H181	H18	0.526900	0.583400	0.101900
W41	W4	0.821180	0.530260	0.351380
S41	S4	0.572900	0.198600	0.575800
O161	O16	0.906800	0.630500	0.406100
O171	O17	0.726700	0.574900	0.332100
O181	O18	0.750800	0.446600	0.426300
O191	O19	0.549300	0.212100	0.657500
C71	C7	0.462000	0.119000	0.527400
H191	H19	0.436400	0.050100	0.546800
H201	H20	0.477200	0.119100	0.470000
H211	H21	0.414200	0.140000	0.534500
O201	O20	0.890900	0.461700	0.329500
C81	C8	0.631000	0.121000	0.583000
H221	H22	0.689700	0.154800	0.616100
H231	H23	0.652900	0.115700	0.528400
H241	H24	0.583400	0.056500	0.601900
W51	W5	0.469740	0.290920	0.351380
S51	S5	0.801400	0.374300	0.575800
O211	O21	0.369500	0.276300	0.406100
O221	O22	0.425100	0.151800	0.332100
O231	O23	0.553400	0.304200	0.426300
O241	O24	0.787900	0.337200	0.657500
C91	C9	0.881000	0.343000	0.527400
H251	H25	0.949900	0.386300	0.546800
H261	H26	0.880900	0.358100	0.470000
H271	H27	0.860000	0.274200	0.534500
O251	O25	0.538300	0.429200	0.329500
C101	C10	0.879000	0.510000	0.583000
H281	H28	0.845200	0.534900	0.616100
H291	H29	0.884300	0.537200	0.528400
H301	H30	0.943500	0.526900	0.601900
W61	W6	0.709080	0.178820	0.351380
S61	S6	0.625700	0.427100	0.575800
O261	O26	0.723700	0.093200	0.406100
O271	O27	0.848200	0.273300	0.332100
O281	O28	0.695800	0.249200	0.426300
O291	O29	0.662800	0.450700	0.657500
C111	C11	0.657000	0.538000	0.527400
H311	H31	0.613700	0.563600	0.546800
H321	H32	0.641900	0.522800	0.470000
H331	H33	0.725800	0.585800	0.534500
O301	O30	0.570800	0.109100	0.329500
C121	C12	0.490000	0.369000	0.583000
H341	H34	0.465100	0.310300	0.616100
H351	H35	0.462800	0.347100	0.528400
H361	H36	0.473100	0.416600	0.601900
W71	W7	0.821180	0.530260	0.148620
S71	S7	0.572900	0.198600	0.924200
O311	O31	0.906800	0.630500	0.093900
O321	O32	0.726700	0.574900	0.167900
O331	O33	0.750800	0.446600	0.073700
O341	O34	0.549300	0.212100	0.842500
C131	C13	0.462000	0.119000	0.972600
H371	H37	0.436400	0.050100	0.953200
H381	H38	0.477200	0.119100	0.030000
H391	H39	0.414200	0.140000	0.965500
O351	O35	0.890900	0.461700	0.170500
C141	C14	0.631000	0.121000	0.917000
H401	H40	0.689700	0.154800	0.883900
H411	H41	0.652900	0.115700	0.971600
H421	H42	0.583400	0.056500	0.898100
W81	W8	0.469740	0.290920	0.148620
S81	S8	0.801400	0.374300	0.924200
O361	O36	0.369500	0.276300	0.093900
O371	O37	0.425100	0.151800	0.167900
O381	O38	0.553400	0.304200	0.073700
O391	O39	0.787900	0.337200	0.842500
C151	C15	0.881000	0.343000	0.972600
H431	H43	0.949900	0.386300	0.953200
H441	H44	0.880900	0.358100	0.030000
H451	H45	0.860000	0.274200	0.965500
O401	O40	0.538300	0.429200	0.170500
C161	C16	0.879000	0.510000	0.917000
H461	H46	0.845200	0.534900	0.883900
H471	H47	0.884300	0.537200	0.971600
H481	H48	0.943500	0.526900	0.898100
W91	W9	0.709080	0.178820	0.148620
S91	S9	0.625700	0.427100	0.924200
O411	O41	0.723700	0.093200	0.093900
O421	O42	0.848200	0.273300	0.167900
O431	O43	0.695800	0.249200	0.073700
O441	O44	0.662800	0.450700	0.842500
C171	C17	0.657000	0.538000	0.972600
H491	H49	0.613700	0.563600	0.953200
H501	H50	0.641900	0.522800	0.030000
H511	H51	0.725800	0.585800	0.965500
O451	O45	0.570800	0.109100	0.170500
C181	C18	0.490000	0.369000	0.917000
H521	H52	0.465100	0.310300	0.883900
H531	H53	0.462800	0.347100	0.971600
H541	H54	0.473100	0.416600	0.898100
W101	W10	0.178820	0.469740	0.648620
S101	S10	0.427100	0.801400	0.424200
O461	O46	0.093200	0.369500	0.593900
O471	O47	0.273300	0.425100	0.667900
O481	O48	0.249200	0.553400	0.573700
O491	O49	0.450700	0.787900	0.342500
C191	C19	0.538000	0.881000	0.472600
H551	H55	0.563600	0.949900	0.453200
H561	H56	0.522800	0.880900	0.530000
H571	H57	0.585800	0.860000	0.465500
O501	O50	0.109100	0.538300	0.670500
C201	C20	0.369000	0.879000	0.417000
H581	H58	0.310300	0.845200	0.383900
H591	H59	0.347100	0.884300	0.471600
H601	H60	0.416600	0.943500	0.398100
W111	W11	0.530260	0.709080	0.648620
S111	S11	0.198600	0.625700	0.424200
O511	O51	0.630500	0.723700	0.593900
O521	O52	0.574900	0.848200	0.667900
O531	O53	0.446600	0.695800	0.573700
O541	O54	0.212100	0.662800	0.342500
C211	C21	0.119000	0.657000	0.472600
H611	H61	0.050100	0.613700	0.453200
H621	H62	0.119100	0.641900	0.530000
H631	H63	0.140000	0.725800	0.465500
O551	O55	0.461700	0.570800	0.670500
C221	C22	0.121000	0.490000	0.417000
H641	H64	0.154800	0.465100	0.383900
H651	H65	0.115700	0.462800	0.471600
H661	H66	0.056500	0.473100	0.398100
W121	W12	0.290920	0.821180	0.648620
S121	S12	0.374300	0.572900	0.424200
O561	O56	0.276300	0.906800	0.593900
O571	O57	0.151800	0.726700	0.667900
O581	O58	0.304200	0.750800	0.573700
O591	O59	0.337200	0.549300	0.342500
C231	C23	0.343000	0.462000	0.472600
H671	H67	0.386300	0.436400	0.453200
H681	H68	0.358100	0.477200	0.530000
H691	H69	0.274200	0.414200	0.465500
O601	O60	0.429200	0.890900	0.670500
C241	C24	0.510000	0.631000	0.417000
H701	H70	0.534900	0.689700	0.383900
H711	H71	0.537200	0.652900	0.471600
H721	H72	0.526900	0.583400	0.398100
W131	W13	0.375720	0.484750	0.750000
O611	O61	0.269900	0.542800	0.750000
O621	O62	0.402900	0.391500	0.750000
O631	O63	0.109100	0.387900	0.750000
Na11	Na1	0.914200	0.309600	0.750000
W141	W14	0.515250	0.890970	0.750000
O641	O64	0.457200	0.727100	0.750000
O651	O65	0.608500	0.011400	0.750000
O661	O66	0.612100	0.721200	0.750000
Na21	Na2	0.690400	0.604600	0.750000
W151	W15	0.109030	0.624280	0.750000
O671	O67	0.272900	0.730100	0.750000
O681	O68	0.988600	0.597100	0.750000
O691	O69	0.278800	0.890900	0.750000
Na31	Na3	0.395400	0.085800	0.750000
W161	W16	0.624280	0.515250	0.250000
O701	O70	0.730100	0.457200	0.250000
O711	O71	0.597100	0.608500	0.250000
O721	O72	0.890900	0.612100	0.250000
Na41	Na4	0.085800	0.690400	0.250000
W171	W17	0.484750	0.109030	0.250000
O731	O73	0.542800	0.272900	0.250000
O741	O74	0.391500	0.988600	0.250000
O751	O75	0.387900	0.278800	0.250000
Na51	Na5	0.309600	0.395400	0.250000
W181	W18	0.890970	0.375720	0.250000
O761	O76	0.727100	0.269900	0.250000
O771	O77	0.011400	0.402900	0.250000
O781	O78	0.721200	0.109100	0.250000
Na61	Na6	0.604600	0.914200	0.250000
Ru11	Ru1	0.333330	0.666670	0.002850
Ru21	Ru2	0.666670	0.333330	0.502850
Ru31	Ru3	0.666670	0.333330	0.997150
Ru41	Ru4	0.333330	0.666670	0.497150
K11	K1	0.333330	0.666670	0.250000
K21	K2	0.666670	0.333330	0.750000
