data_CASTEW_freeONLY_PM
_symmetry_space_group_name_H-M	'P1'
_cell_length_a	7.203000
_cell_length_b	13.430000
_cell_length_c	17.540000
_cell_angle_alpha	90.000000
_cell_angle_beta	100.760000
_cell_angle_gamma	90.000000
_symmetry_Int_Tables_number 1

loop_
_symmetry_equiv_pos_as_xyz
'x,y,z'

loop_
_atom_site_label
_atom_site_type_symbol
_atom_site_fract_x
_atom_site_fract_y
_atom_site_fract_z
In11	In1	0.468280	0.398170	0.948180
O11	O1	0.577100	0.338500	0.063100
O21	O2	0.680700	0.481400	0.124300
O31	O3	0.986900	0.378600	0.073700
O41	O4	0.256600	0.389700	0.162200
O51	O5	0.232800	0.198700	0.415600
O61	O6	0.977500	0.098200	0.401400
O71	O7	0.666000	0.223900	0.424100
O81	O8	0.534100	0.128000	0.327900
O91	O9	0.690600	0.512800	0.971000
C11	C1	0.781300	0.330800	0.184800
C21	C2	0.977300	0.325200	0.199800
C31	C3	0.070700	0.278100	0.267400
H11	H1	0.204800	0.275600	0.278700
C41	C4	0.967200	0.235200	0.318000
C51	C5	0.769300	0.240400	0.302500
C61	C6	0.677700	0.288500	0.236400
H21	H2	0.543700	0.292800	0.226000
C71	C7	0.673200	0.388800	0.117600
C81	C8	0.086000	0.368500	0.142000
C91	C9	0.064800	0.172900	0.384200
C101	C10	0.651900	0.195800	0.354600
In21	In2	0.531720	0.898170	0.551820
O101	O10	0.422900	0.838500	0.436900
O111	O11	0.319300	0.981400	0.375700
O121	O12	0.013100	0.878600	0.426300
O131	O13	0.743400	0.889700	0.337800
O141	O14	0.767200	0.698700	0.084400
O151	O15	0.022500	0.598200	0.098600
O161	O16	0.334000	0.723900	0.075900
O171	O17	0.465900	0.628000	0.172100
O181	O18	0.309400	0.012800	0.529000
C111	C11	0.218700	0.830800	0.315200
C121	C12	0.022700	0.825200	0.300200
C131	C13	0.929300	0.778100	0.232600
H31	H3	0.795200	0.775600	0.221300
C141	C14	0.032800	0.735200	0.182000
C151	C15	0.230700	0.740400	0.197500
C161	C16	0.322300	0.788500	0.263600
H41	H4	0.456300	0.792800	0.274000
C171	C17	0.326800	0.888800	0.382400
C181	C18	0.914000	0.868500	0.358000
C191	C19	0.935200	0.672900	0.115800
C201	C20	0.348100	0.695800	0.145400
In31	In3	0.531720	0.601830	0.051820
O191	O19	0.422900	0.661500	0.936900
O201	O20	0.319300	0.518600	0.875700
O211	O21	0.013100	0.621400	0.926300
O221	O22	0.743400	0.610300	0.837800
O231	O23	0.767200	0.801300	0.584400
O241	O24	0.022500	0.901800	0.598600
O251	O25	0.334000	0.776100	0.575900
O261	O26	0.465900	0.872000	0.672100
O271	O27	0.309400	0.487200	0.029000
C211	C21	0.218700	0.669200	0.815200
C221	C22	0.022700	0.674800	0.800200
C231	C23	0.929300	0.721900	0.732600
H51	H5	0.795200	0.724400	0.721300
C241	C24	0.032800	0.764800	0.682000
C251	C25	0.230700	0.759600	0.697500
C261	C26	0.322300	0.711500	0.763600
H61	H6	0.456300	0.707200	0.774000
C271	C27	0.326800	0.611200	0.882400
C281	C28	0.914000	0.631500	0.858000
C291	C29	0.935200	0.827100	0.615800
C301	C30	0.348100	0.804200	0.645400
In41	In4	0.468280	0.101830	0.448180
O281	O28	0.577100	0.161500	0.563100
O291	O29	0.680700	0.018600	0.624300
O301	O30	0.986900	0.121400	0.573700
O311	O31	0.256600	0.110300	0.662200
O321	O32	0.232800	0.301300	0.915600
O331	O33	0.977500	0.401800	0.901400
O341	O34	0.666000	0.276100	0.924100
O351	O35	0.534100	0.372000	0.827900
O361	O36	0.690600	0.987200	0.471000
C311	C31	0.781300	0.169200	0.684800
C321	C32	0.977300	0.174800	0.699800
C331	C33	0.070700	0.221900	0.767400
H71	H7	0.204800	0.224400	0.778700
C341	C34	0.967200	0.264800	0.818000
C351	C35	0.769300	0.259600	0.802500
C361	C36	0.677700	0.211500	0.736400
H81	H8	0.543700	0.207200	0.726000
C371	C37	0.673200	0.111200	0.617600
C381	C38	0.086000	0.131500	0.642000
C391	C39	0.064800	0.327100	0.884200
C401	C40	0.651900	0.304200	0.854600
In51	In5	0.000000	0.500000	0.000000
In61	In6	0.000000	0.000000	0.500000
