data_CAVRAU_freeONLY_PM
_symmetry_space_group_name_H-M	'P1'
_cell_length_a	15.508000
_cell_length_b	19.220000
_cell_length_c	25.211000
_cell_angle_alpha	90.000000
_cell_angle_beta	90.000000
_cell_angle_gamma	90.000000
_symmetry_Int_Tables_number 1

loop_
_symmetry_equiv_pos_as_xyz
'x,y,z'

loop_
_atom_site_label
_atom_site_type_symbol
_atom_site_fract_x
_atom_site_fract_y
_atom_site_fract_z
Zn11	Zn1	0.053720	0.837820	0.227660
Zn21	Zn2	0.025790	0.964320	0.450130
Zn31	Zn3	0.446280	0.162180	0.727660
Zn41	Zn4	0.474210	0.035680	0.950130
Zn51	Zn5	0.946280	0.337820	0.772340
Zn61	Zn6	0.974210	0.464320	0.549870
Zn71	Zn7	0.553720	0.662180	0.272340
Zn81	Zn8	0.525790	0.535680	0.049870
Zn91	Zn9	0.946280	0.162180	0.772340
Zn101	Zn10	0.974210	0.035680	0.549870
Zn111	Zn11	0.553720	0.837820	0.272340
Zn121	Zn12	0.525790	0.964320	0.049870
Zn131	Zn13	0.053720	0.662180	0.227660
Zn141	Zn14	0.025790	0.535680	0.450130
Zn151	Zn15	0.446280	0.337820	0.727660
Zn161	Zn16	0.474210	0.464320	0.950130
Zn171	Zn17	0.182900	0.750000	0.304190
Zn181	Zn18	0.317100	0.250000	0.804190
Zn191	Zn19	0.817100	0.250000	0.695810
Zn201	Zn20	0.682900	0.750000	0.195810
H11	H1	0.911300	0.947500	0.320700
H21	H2	0.970800	0.009000	0.339000
H31	H3	0.977000	0.980700	0.280800
H41	H4	0.223600	0.808800	0.412700
H51	H5	0.212300	0.882100	0.439100
H61	H6	0.148800	0.821500	0.453400
H71	H7	0.964900	0.854600	0.647300
H81	H8	0.022300	0.003000	0.095700
H91	H9	0.064400	0.049300	0.014300
H101	H10	0.206900	0.052300	0.990800
H111	H11	0.266100	0.930300	0.112900
H121	H12	0.285500	0.886500	0.270400
H131	H13	0.379800	0.908400	0.285300
H141	H14	0.313900	0.889000	0.330000
H151	H15	0.588700	0.052500	0.820700
H161	H16	0.529200	0.991000	0.839000
H171	H17	0.523000	0.019300	0.780800
H181	H18	0.276400	0.191200	0.912700
H191	H19	0.287700	0.117900	0.939100
H201	H20	0.351200	0.178500	0.953400
H211	H21	0.535100	0.145400	0.147300
H221	H22	0.477700	0.997000	0.595700
H231	H23	0.435600	0.950700	0.514300
H241	H24	0.293100	0.947700	0.490800
H251	H25	0.233900	0.069700	0.612900
H261	H26	0.214500	0.113500	0.770400
H271	H27	0.120200	0.091600	0.785300
H281	H28	0.186100	0.111000	0.830000
H291	H29	0.088700	0.447500	0.679300
H301	H30	0.029200	0.509000	0.661000
H311	H31	0.023000	0.480700	0.719200
H321	H32	0.776400	0.308800	0.587300
H331	H33	0.787700	0.382100	0.560900
H341	H34	0.851200	0.321500	0.546600
H351	H35	0.035100	0.354600	0.352700
H361	H36	0.977700	0.503000	0.904300
H371	H37	0.935600	0.549300	0.985700
H381	H38	0.793100	0.552300	0.009200
H391	H39	0.733900	0.430300	0.887100
H401	H40	0.714500	0.386500	0.729600
H411	H41	0.620200	0.408400	0.714700
H421	H42	0.686100	0.389000	0.670000
H431	H43	0.411300	0.552500	0.179300
H441	H44	0.470800	0.491000	0.161000
H451	H45	0.477000	0.519300	0.219200
H461	H46	0.723600	0.691200	0.087300
H471	H47	0.712300	0.617900	0.060900
H481	H48	0.648800	0.678500	0.046600
H491	H49	0.464900	0.645400	0.852700
H501	H50	0.522300	0.497000	0.404300
H511	H51	0.564400	0.450700	0.485700
H521	H52	0.706900	0.447700	0.509200
H531	H53	0.766100	0.569700	0.387100
H541	H54	0.785500	0.613500	0.229600
H551	H55	0.879800	0.591600	0.214700
H561	H56	0.813900	0.611000	0.170000
H571	H57	0.088700	0.052500	0.679300
H581	H58	0.029200	0.991000	0.661000
H591	H59	0.023000	0.019300	0.719200
H601	H60	0.776400	0.191200	0.587300
H611	H61	0.787700	0.117900	0.560900
H621	H62	0.851200	0.178500	0.546600
H631	H63	0.035100	0.145400	0.352700
H641	H64	0.977700	0.997000	0.904300
H651	H65	0.935600	0.950700	0.985700
H661	H66	0.793100	0.947700	0.009200
H671	H67	0.733900	0.069700	0.887100
H681	H68	0.714500	0.113500	0.729600
H691	H69	0.620200	0.091600	0.714700
H701	H70	0.686100	0.111000	0.670000
H711	H71	0.411300	0.947500	0.179300
H721	H72	0.470800	0.009000	0.161000
H731	H73	0.477000	0.980700	0.219200
H741	H74	0.723600	0.808800	0.087300
H751	H75	0.712300	0.882100	0.060900
H761	H76	0.648800	0.821500	0.046600
H771	H77	0.464900	0.854600	0.852700
H781	H78	0.522300	0.003000	0.404300
H791	H79	0.564400	0.049300	0.485700
H801	H80	0.706900	0.052300	0.509200
H811	H81	0.766100	0.930300	0.387100
H821	H82	0.785500	0.886500	0.229600
H831	H83	0.879800	0.908400	0.214700
H841	H84	0.813900	0.889000	0.170000
H851	H85	0.911300	0.552500	0.320700
H861	H86	0.970800	0.491000	0.339000
H871	H87	0.977000	0.519300	0.280800
H881	H88	0.223600	0.691200	0.412700
H891	H89	0.212300	0.617900	0.439100
H901	H90	0.148800	0.678500	0.453400
H911	H91	0.964900	0.645400	0.647300
H921	H92	0.022300	0.497000	0.095700
H931	H93	0.064400	0.450700	0.014300
H941	H94	0.206900	0.447700	0.990800
H951	H95	0.266100	0.569700	0.112900
H961	H96	0.285500	0.613500	0.270400
H971	H97	0.379800	0.591600	0.285300
H981	H98	0.313900	0.611000	0.330000
H991	H99	0.588700	0.447500	0.820700
H1001	H100	0.529200	0.509000	0.839000
H1011	H101	0.523000	0.480700	0.780800
H1021	H102	0.276400	0.308800	0.912700
H1031	H103	0.287700	0.382100	0.939100
H1041	H104	0.351200	0.321500	0.953400
H1051	H105	0.535100	0.354600	0.147300
H1061	H106	0.477700	0.503000	0.595700
H1071	H107	0.435600	0.549300	0.514300
H1081	H108	0.293100	0.552300	0.490800
H1091	H109	0.233900	0.430300	0.612900
H1101	H110	0.214500	0.386500	0.770400
H1111	H111	0.120200	0.408400	0.785300
H1121	H112	0.186100	0.389000	0.830000
H1131	H113	0.168500	0.750000	0.210200
H1141	H114	0.957800	0.750000	0.693700
H1151	H115	0.005400	0.750000	0.512900
H1161	H116	0.331500	0.250000	0.710200
H1171	H117	0.542200	0.250000	0.193700
H1181	H118	0.494600	0.250000	0.012900
H1191	H119	0.831500	0.250000	0.789800
H1201	H120	0.042200	0.250000	0.306300
H1211	H121	0.994600	0.250000	0.487100
H1221	H122	0.668500	0.750000	0.289800
H1231	H123	0.457800	0.750000	0.806300
H1241	H124	0.505400	0.750000	0.987100
C11	C1	0.967400	0.968100	0.317200
C21	C2	0.034100	0.917400	0.334200
C31	C3	0.124900	0.863600	0.381700
C41	C4	0.182500	0.842100	0.425600
C51	C5	0.993900	0.880200	0.547100
C61	C6	0.988200	0.813200	0.575800
C71	C7	0.971900	0.812700	0.629300
C81	C8	0.114500	0.915300	0.160400
C91	C9	0.140500	0.956700	0.110600
C101	C10	0.078100	0.997300	0.082900
C111	C11	0.105000	0.027800	0.035900
C121	C12	0.190100	0.027000	0.020500
C131	C13	0.250300	0.989800	0.048000
C141	C14	0.225300	0.955100	0.093500
C151	C15	0.342000	0.988200	0.030600
C161	C16	0.332300	0.878700	0.294500
C171	C17	0.360000	0.804700	0.291300
C181	C18	0.532600	0.031900	0.817200
C191	C19	0.465900	0.082600	0.834200
C201	C20	0.375100	0.136400	0.881700
C211	C21	0.317500	0.157900	0.925600
C221	C22	0.506100	0.119800	0.047100
C231	C23	0.511800	0.186800	0.075800
C241	C24	0.528100	0.187300	0.129300
C251	C25	0.385500	0.084700	0.660400
C261	C26	0.359500	0.043300	0.610600
C271	C27	0.421900	0.002700	0.582900
C281	C28	0.395000	0.972200	0.535900
C291	C29	0.309900	0.973000	0.520500
C301	C30	0.249700	0.010200	0.548000
C311	C31	0.274700	0.044900	0.593500
C321	C32	0.158000	0.011800	0.530600
C331	C33	0.167700	0.121300	0.794500
C341	C34	0.140000	0.195300	0.791300
C351	C35	0.032600	0.468100	0.682800
C361	C36	0.965900	0.417400	0.665800
C371	C37	0.875100	0.363600	0.618300
C381	C38	0.817500	0.342100	0.574400
C391	C39	0.006100	0.380200	0.452900
C401	C40	0.011800	0.313200	0.424200
C411	C41	0.028100	0.312700	0.370700
C421	C42	0.885500	0.415300	0.839600
C431	C43	0.859500	0.456700	0.889400
C441	C44	0.921900	0.497300	0.917100
C451	C45	0.895000	0.527800	0.964100
C461	C46	0.809900	0.527000	0.979500
C471	C47	0.749700	0.489800	0.952000
C481	C48	0.774700	0.455100	0.906500
C491	C49	0.658000	0.488200	0.969400
C501	C50	0.667700	0.378700	0.705500
C511	C51	0.640000	0.304700	0.708700
C521	C52	0.467400	0.531900	0.182800
C531	C53	0.534100	0.582600	0.165800
C541	C54	0.624900	0.636400	0.118300
C551	C55	0.682500	0.657900	0.074400
C561	C56	0.493900	0.619800	0.952900
C571	C57	0.488200	0.686800	0.924200
C581	C58	0.471900	0.687300	0.870700
C591	C59	0.614500	0.584700	0.339600
C601	C60	0.640500	0.543300	0.389400
C611	C61	0.578100	0.502700	0.417100
C621	C62	0.605000	0.472200	0.464100
C631	C63	0.690100	0.473000	0.479500
C641	C64	0.750300	0.510200	0.452000
C651	C65	0.725300	0.544900	0.406500
C661	C66	0.842000	0.511800	0.469400
C671	C67	0.832300	0.621300	0.205500
C681	C68	0.860000	0.695300	0.208700
C691	C69	0.032600	0.031900	0.682800
C701	C70	0.965900	0.082600	0.665800
C711	C71	0.875100	0.136400	0.618300
C721	C72	0.817500	0.157900	0.574400
C731	C73	0.006100	0.119800	0.452900
C741	C74	0.011800	0.186800	0.424200
C751	C75	0.028100	0.187300	0.370700
C761	C76	0.885500	0.084700	0.839600
C771	C77	0.859500	0.043300	0.889400
C781	C78	0.921900	0.002700	0.917100
C791	C79	0.895000	0.972200	0.964100
C801	C80	0.809900	0.973000	0.979500
C811	C81	0.749700	0.010200	0.952000
C821	C82	0.774700	0.044900	0.906500
C831	C83	0.658000	0.011800	0.969400
C841	C84	0.667700	0.121300	0.705500
C851	C85	0.640000	0.195300	0.708700
C861	C86	0.467400	0.968100	0.182800
C871	C87	0.534100	0.917400	0.165800
C881	C88	0.624900	0.863600	0.118300
C891	C89	0.682500	0.842100	0.074400
C901	C90	0.493900	0.880200	0.952900
C911	C91	0.488200	0.813200	0.924200
C921	C92	0.471900	0.812700	0.870700
C931	C93	0.614500	0.915300	0.339600
C941	C94	0.640500	0.956700	0.389400
C951	C95	0.578100	0.997300	0.417100
C961	C96	0.605000	0.027800	0.464100
C971	C97	0.690100	0.027000	0.479500
C981	C98	0.750300	0.989800	0.452000
C991	C99	0.725300	0.955100	0.406500
C1001	C100	0.842000	0.988200	0.469400
C1011	C101	0.832300	0.878700	0.205500
C1021	C102	0.860000	0.804700	0.208700
C1031	C103	0.967400	0.531900	0.317200
C1041	C104	0.034100	0.582600	0.334200
C1051	C105	0.124900	0.636400	0.381700
C1061	C106	0.182500	0.657900	0.425600
C1071	C107	0.993900	0.619800	0.547100
C1081	C108	0.988200	0.686800	0.575800
C1091	C109	0.971900	0.687300	0.629300
C1101	C110	0.114500	0.584700	0.160400
C1111	C111	0.140500	0.543300	0.110600
C1121	C112	0.078100	0.502700	0.082900
C1131	C113	0.105000	0.472200	0.035900
C1141	C114	0.190100	0.473000	0.020500
C1151	C115	0.250300	0.510200	0.048000
C1161	C116	0.225300	0.544900	0.093500
C1171	C117	0.342000	0.511800	0.030600
C1181	C118	0.332300	0.621300	0.294500
C1191	C119	0.360000	0.695300	0.291300
C1201	C120	0.532600	0.468100	0.817200
C1211	C121	0.465900	0.417400	0.834200
C1221	C122	0.375100	0.363600	0.881700
C1231	C123	0.317500	0.342100	0.925600
C1241	C124	0.506100	0.380200	0.047100
C1251	C125	0.511800	0.313200	0.075800
C1261	C126	0.528100	0.312700	0.129300
C1271	C127	0.385500	0.415300	0.660400
C1281	C128	0.359500	0.456700	0.610600
C1291	C129	0.421900	0.497300	0.582900
C1301	C130	0.395000	0.527800	0.535900
C1311	C131	0.309900	0.527000	0.520500
C1321	C132	0.249700	0.489800	0.548000
C1331	C133	0.274700	0.455100	0.593500
C1341	C134	0.158000	0.488200	0.530600
C1351	C135	0.167700	0.378700	0.794500
C1361	C136	0.140000	0.304700	0.791300
C1371	C137	0.965800	0.750000	0.657100
C1381	C138	0.995400	0.750000	0.549300
C1391	C139	0.534200	0.250000	0.157100
C1401	C140	0.504600	0.250000	0.049300
C1411	C141	0.034200	0.250000	0.342900
C1421	C142	0.004600	0.250000	0.450700
C1431	C143	0.465800	0.750000	0.842900
C1441	C144	0.495400	0.750000	0.950700
N11	N1	0.067500	0.869300	0.303320
N21	N2	0.126800	0.834400	0.334050
N31	N3	0.066400	0.915400	0.383400
N41	N4	0.440500	0.785300	0.281100
N51	N5	0.432500	0.130700	0.803320
N61	N6	0.373200	0.165600	0.834050
N71	N7	0.433600	0.084600	0.883400
N81	N8	0.059500	0.214700	0.781100
N91	N9	0.932500	0.369300	0.696680
N101	N10	0.873200	0.334400	0.665950
N111	N11	0.933600	0.415400	0.616600
N121	N12	0.559500	0.285300	0.718900
N131	N13	0.567500	0.630700	0.196680
N141	N14	0.626800	0.665600	0.165950
N151	N15	0.566400	0.584600	0.116600
N161	N16	0.940500	0.714700	0.218900
N171	N17	0.932500	0.130700	0.696680
N181	N18	0.873200	0.165600	0.665950
N191	N19	0.933600	0.084600	0.616600
N201	N20	0.559500	0.214700	0.718900
N211	N21	0.567500	0.869300	0.196680
N221	N22	0.626800	0.834400	0.165950
N231	N23	0.566400	0.915400	0.116600
N241	N24	0.940500	0.785300	0.218900
N251	N25	0.067500	0.630700	0.303320
N261	N26	0.126800	0.665600	0.334050
N271	N27	0.066400	0.584600	0.383400
N281	N28	0.440500	0.714700	0.281100
N291	N29	0.432500	0.369300	0.803320
N301	N30	0.373200	0.334400	0.834050
N311	N31	0.433600	0.415400	0.883400
N321	N32	0.059500	0.285300	0.781100
N331	N33	0.308200	0.750000	0.298000
N341	N34	0.191800	0.250000	0.798000
N351	N35	0.691800	0.250000	0.702000
N361	N36	0.808200	0.750000	0.202000
O11	O1	0.012400	0.879300	0.499400
O21	O2	0.979500	0.933600	0.573900
O31	O3	0.395300	0.960200	0.061400
O41	O4	0.359100	0.016300	0.987040
O51	O5	0.167100	0.889000	0.186800
O61	O6	0.039200	0.913300	0.171800
O71	O7	0.487600	0.120700	0.999400
O81	O8	0.520500	0.066400	0.073900
O91	O9	0.104700	0.039800	0.561400
O101	O10	0.140900	0.983700	0.487040
O111	O11	0.332900	0.111000	0.686800
O121	O12	0.460800	0.086700	0.671800
O131	O13	0.987600	0.379300	0.500600
O141	O14	0.020500	0.433600	0.426100
O151	O15	0.604700	0.460200	0.938600
O161	O16	0.640900	0.516300	0.012960
O171	O17	0.832900	0.389000	0.813200
O181	O18	0.960800	0.413300	0.828200
O191	O19	0.512400	0.620700	0.000600
O201	O20	0.479500	0.566400	0.926100
O211	O21	0.895300	0.539800	0.438600
O221	O22	0.859100	0.483700	0.512960
O231	O23	0.667100	0.611000	0.313200
O241	O24	0.539200	0.586700	0.328200
O251	O25	0.987600	0.120700	0.500600
O261	O26	0.020500	0.066400	0.426100
O271	O27	0.604700	0.039800	0.938600
O281	O28	0.640900	0.983700	0.012960
O291	O29	0.832900	0.111000	0.813200
O301	O30	0.960800	0.086700	0.828200
O311	O31	0.512400	0.879300	0.000600
O321	O32	0.479500	0.933600	0.926100
O331	O33	0.895300	0.960200	0.438600
O341	O34	0.859100	0.016300	0.512960
O351	O35	0.667100	0.889000	0.313200
O361	O36	0.539200	0.913300	0.328200
O371	O37	0.012400	0.620700	0.499400
O381	O38	0.979500	0.566400	0.573900
O391	O39	0.395300	0.539800	0.061400
O401	O40	0.359100	0.483700	0.987040
O411	O41	0.167100	0.611000	0.186800
O421	O42	0.039200	0.586700	0.171800
O431	O43	0.487600	0.379300	0.999400
O441	O44	0.520500	0.433600	0.073900
O451	O45	0.104700	0.460200	0.561400
O461	O46	0.140900	0.516300	0.487040
O471	O47	0.332900	0.389000	0.686800
O481	O48	0.460800	0.413300	0.671800
O491	O49	0.125100	0.750000	0.233700
O501	O50	0.374900	0.250000	0.733700
O511	O51	0.874900	0.250000	0.766300
O521	O52	0.625100	0.750000	0.266300
