data_CAWVIH_SL_PM
_symmetry_space_group_name_H-M	'P1'
_cell_length_a	11.988700
_cell_length_b	18.636500
_cell_length_c	17.980700
_cell_angle_alpha	90.000000
_cell_angle_beta	90.000000
_cell_angle_gamma	90.000000
_symmetry_Int_Tables_number 1

loop_
_symmetry_equiv_pos_as_xyz
'x,y,z'

loop_
_atom_site_label
_atom_site_type_symbol
_atom_site_fract_x
_atom_site_fract_y
_atom_site_fract_z
Zn11	Zn1	0.610390	0.991030	0.697580
H21	H2	0.126000	0.207300	0.243300
H31	H3	0.449500	0.077400	0.510300
H41	H4	0.116600	0.764600	0.329600
H51	H5	0.350900	0.138400	0.420300
H61	H6	0.113900	0.641500	0.330700
H71	H7	0.145300	0.409900	0.303800
H81	H8	0.103500	0.173600	0.565100
H91	H9	0.204200	0.115300	0.655200
H101	H10	0.209700	0.143100	0.337000
H111	H11	0.141900	0.532400	0.305500
H121	H12	0.991400	0.339100	0.393600
H131	H13	0.074500	0.273800	0.488500
C141	C14	0.401500	0.052400	0.650700
C151	C15	0.337300	0.090000	0.592300
C161	C16	0.116300	0.221400	0.292500
C171	C17	0.051900	0.280400	0.308500
C181	C18	0.380300	0.097100	0.521700
C191	C19	0.069100	0.740100	0.297500
C201	C20	0.320500	0.133600	0.467600
C211	C21	0.216400	0.163300	0.482300
C221	C22	0.155000	0.202200	0.423300
C231	C23	0.067900	0.665900	0.297700
C241	C24	0.085800	0.434100	0.282100
C251	C25	0.173400	0.155000	0.553700
C261	C26	0.233700	0.119600	0.607500
C271	C27	0.166700	0.183000	0.349000
C281	C28	0.083800	0.507900	0.282400
C291	C29	0.036000	0.299800	0.382100
C301	C30	0.086600	0.260700	0.439200
O311	O31	0.494800	0.026580	0.632310
O321	O32	0.077700	0.889500	0.283680
O331	O33	0.359800	0.049000	0.714580
H341	H34	0.250000	0.000000	0.908820
Zn351	Zn35	0.889610	0.008970	0.697580
H361	H36	0.374000	0.792700	0.243300
H371	H37	0.050500	0.922600	0.510300
H381	H38	0.383400	0.235400	0.329600
H391	H39	0.149100	0.861600	0.420300
H401	H40	0.386100	0.358500	0.330700
H411	H41	0.354700	0.590100	0.303800
H421	H42	0.396500	0.826400	0.565100
H431	H43	0.295800	0.884700	0.655200
H441	H44	0.290300	0.856900	0.337000
H451	H45	0.358100	0.467600	0.305500
H461	H46	0.508600	0.660900	0.393600
H471	H47	0.425500	0.726200	0.488500
C481	C48	0.098500	0.947600	0.650700
C491	C49	0.162700	0.910000	0.592300
C501	C50	0.383700	0.778600	0.292500
C511	C51	0.448100	0.719600	0.308500
C521	C52	0.119700	0.902900	0.521700
C531	C53	0.430900	0.259900	0.297500
C541	C54	0.179500	0.866400	0.467600
C551	C55	0.283600	0.836700	0.482300
C561	C56	0.345000	0.797800	0.423300
C571	C57	0.432100	0.334100	0.297700
C581	C58	0.414200	0.565900	0.282100
C591	C59	0.326600	0.845000	0.553700
C601	C60	0.266300	0.880400	0.607500
C611	C61	0.333300	0.817000	0.349000
C621	C62	0.416200	0.492100	0.282400
C631	C63	0.464000	0.700200	0.382100
C641	C64	0.413400	0.739300	0.439200
O651	O65	0.005200	0.973420	0.632310
O661	O66	0.422300	0.110500	0.283680
O671	O67	0.140200	0.951000	0.714580
Zn691	Zn69	0.389610	0.991030	0.802420
H701	H70	0.874000	0.207300	0.256700
H711	H71	0.550500	0.077400	0.989700
H721	H72	0.883400	0.764600	0.170400
H731	H73	0.649100	0.138400	0.079700
H741	H74	0.886100	0.641500	0.169300
H751	H75	0.854700	0.409900	0.196200
H761	H76	0.896500	0.173600	0.934900
H771	H77	0.795800	0.115300	0.844800
H781	H78	0.790300	0.143100	0.163000
H791	H79	0.858100	0.532400	0.194500
H801	H80	0.008600	0.339100	0.106400
H811	H81	0.925500	0.273800	0.011500
C821	C82	0.598500	0.052400	0.849300
C831	C83	0.662700	0.090000	0.907700
C841	C84	0.883700	0.221400	0.207500
C851	C85	0.948100	0.280400	0.191500
C861	C86	0.619700	0.097100	0.978300
C871	C87	0.930900	0.740100	0.202500
C881	C88	0.679500	0.133600	0.032400
C891	C89	0.783600	0.163300	0.017700
C901	C90	0.845000	0.202200	0.076700
C911	C91	0.932100	0.665900	0.202300
C921	C92	0.914200	0.434100	0.217900
C931	C93	0.826600	0.155000	0.946300
C941	C94	0.766300	0.119600	0.892500
C951	C95	0.833300	0.183000	0.151000
C961	C96	0.916200	0.507900	0.217600
C971	C97	0.964000	0.299800	0.117900
C981	C98	0.913400	0.260700	0.060800
O991	O99	0.505200	0.026580	0.867690
O1001	O100	0.922300	0.889500	0.216320
O1011	O101	0.640200	0.049000	0.785420
H1021	H102	0.750000	0.000000	0.591180
Zn1031	Zn103	0.110390	0.008970	0.802420
H1041	H104	0.626000	0.792700	0.256700
H1051	H105	0.949500	0.922600	0.989700
H1061	H106	0.616600	0.235400	0.170400
H1071	H107	0.850900	0.861600	0.079700
H1081	H108	0.613900	0.358500	0.169300
H1091	H109	0.645300	0.590100	0.196200
H1101	H110	0.603500	0.826400	0.934900
H1111	H111	0.704200	0.884700	0.844800
H1121	H112	0.709700	0.856900	0.163000
H1131	H113	0.641900	0.467600	0.194500
H1141	H114	0.491400	0.660900	0.106400
H1151	H115	0.574500	0.726200	0.011500
C1161	C116	0.901500	0.947600	0.849300
C1171	C117	0.837300	0.910000	0.907700
C1181	C118	0.616300	0.778600	0.207500
C1191	C119	0.551900	0.719600	0.191500
C1201	C120	0.880300	0.902900	0.978300
C1211	C121	0.569100	0.259900	0.202500
C1221	C122	0.820500	0.866400	0.032400
C1231	C123	0.716400	0.836700	0.017700
C1241	C124	0.655000	0.797800	0.076700
C1251	C125	0.567900	0.334100	0.202300
C1261	C126	0.585800	0.565900	0.217900
C1271	C127	0.673400	0.845000	0.946300
C1281	C128	0.733700	0.880400	0.892500
C1291	C129	0.666700	0.817000	0.151000
C1301	C130	0.583800	0.492100	0.217600
C1311	C131	0.536000	0.700200	0.117900
C1321	C132	0.586600	0.739300	0.060800
O1331	O133	0.994800	0.973420	0.867690
O1341	O134	0.577700	0.110500	0.216320
O1351	O135	0.859800	0.951000	0.785420
Zn1371	Zn137	0.389610	0.008970	0.302420
H1381	H138	0.874000	0.792700	0.756700
H1391	H139	0.550500	0.922600	0.489700
H1401	H140	0.883400	0.235400	0.670400
H1411	H141	0.649100	0.861600	0.579700
H1421	H142	0.886100	0.358500	0.669300
H1431	H143	0.854700	0.590100	0.696200
H1441	H144	0.896500	0.826400	0.434900
H1451	H145	0.795800	0.884700	0.344800
H1461	H146	0.790300	0.856900	0.663000
H1471	H147	0.858100	0.467600	0.694500
H1481	H148	0.008600	0.660900	0.606400
H1491	H149	0.925500	0.726200	0.511500
C1501	C150	0.598500	0.947600	0.349300
C1511	C151	0.662700	0.910000	0.407700
C1521	C152	0.883700	0.778600	0.707500
C1531	C153	0.948100	0.719600	0.691500
C1541	C154	0.619700	0.902900	0.478300
C1551	C155	0.930900	0.259900	0.702500
C1561	C156	0.679500	0.866400	0.532400
C1571	C157	0.783600	0.836700	0.517700
C1581	C158	0.845000	0.797800	0.576700
C1591	C159	0.932100	0.334100	0.702300
C1601	C160	0.914200	0.565900	0.717900
C1611	C161	0.826600	0.845000	0.446300
C1621	C162	0.766300	0.880400	0.392500
C1631	C163	0.833300	0.817000	0.651000
C1641	C164	0.916200	0.492100	0.717600
C1651	C165	0.964000	0.700200	0.617900
C1661	C166	0.913400	0.739300	0.560800
O1671	O167	0.505200	0.973420	0.367690
O1681	O168	0.922300	0.110500	0.716320
O1691	O169	0.640200	0.951000	0.285420
H1701	H170	0.750000	0.000000	0.091180
Zn1711	Zn171	0.110390	0.991030	0.302420
H1721	H172	0.626000	0.207300	0.756700
H1731	H173	0.949500	0.077400	0.489700
H1741	H174	0.616600	0.764600	0.670400
H1751	H175	0.850900	0.138400	0.579700
H1761	H176	0.613900	0.641500	0.669300
H1771	H177	0.645300	0.409900	0.696200
H1781	H178	0.603500	0.173600	0.434900
H1791	H179	0.704200	0.115300	0.344800
H1801	H180	0.709700	0.143100	0.663000
H1811	H181	0.641900	0.532400	0.694500
H1821	H182	0.491400	0.339100	0.606400
H1831	H183	0.574500	0.273800	0.511500
C1841	C184	0.901500	0.052400	0.349300
C1851	C185	0.837300	0.090000	0.407700
C1861	C186	0.616300	0.221400	0.707500
C1871	C187	0.551900	0.280400	0.691500
C1881	C188	0.880300	0.097100	0.478300
C1891	C189	0.569100	0.740100	0.702500
C1901	C190	0.820500	0.133600	0.532400
C1911	C191	0.716400	0.163300	0.517700
C1921	C192	0.655000	0.202200	0.576700
C1931	C193	0.567900	0.665900	0.702300
C1941	C194	0.585800	0.434100	0.717900
C1951	C195	0.673400	0.155000	0.446300
C1961	C196	0.733700	0.119600	0.392500
C1971	C197	0.666700	0.183000	0.651000
C1981	C198	0.583800	0.507900	0.717600
C1991	C199	0.536000	0.299800	0.617900
C2001	C200	0.586600	0.260700	0.560800
O2011	O201	0.994800	0.026580	0.367690
O2021	O202	0.577700	0.889500	0.716320
O2031	O203	0.859800	0.049000	0.285420
Zn2051	Zn205	0.610390	0.008970	0.197580
H2061	H206	0.126000	0.792700	0.743300
H2071	H207	0.449500	0.922600	0.010300
H2081	H208	0.116600	0.235400	0.829600
H2091	H209	0.350900	0.861600	0.920300
H2101	H210	0.113900	0.358500	0.830700
H2111	H211	0.145300	0.590100	0.803800
H2121	H212	0.103500	0.826400	0.065100
H2131	H213	0.204200	0.884700	0.155200
H2141	H214	0.209700	0.856900	0.837000
H2151	H215	0.141900	0.467600	0.805500
H2161	H216	0.991400	0.660900	0.893600
H2171	H217	0.074500	0.726200	0.988500
C2181	C218	0.401500	0.947600	0.150700
C2191	C219	0.337300	0.910000	0.092300
C2201	C220	0.116300	0.778600	0.792500
C2211	C221	0.051900	0.719600	0.808500
C2221	C222	0.380300	0.902900	0.021700
C2231	C223	0.069100	0.259900	0.797500
C2241	C224	0.320500	0.866400	0.967600
C2251	C225	0.216400	0.836700	0.982300
C2261	C226	0.155000	0.797800	0.923300
C2271	C227	0.067900	0.334100	0.797700
C2281	C228	0.085800	0.565900	0.782100
C2291	C229	0.173400	0.845000	0.053700
C2301	C230	0.233700	0.880400	0.107500
C2311	C231	0.166700	0.817000	0.849000
C2321	C232	0.083800	0.492100	0.782400
C2331	C233	0.036000	0.700200	0.882100
C2341	C234	0.086600	0.739300	0.939200
O2351	O235	0.494800	0.973420	0.132310
O2361	O236	0.077700	0.110500	0.783680
O2371	O237	0.359800	0.951000	0.214580
H2381	H238	0.250000	0.000000	0.408820
Zn2391	Zn239	0.889610	0.991030	0.197580
H2401	H240	0.374000	0.207300	0.743300
H2411	H241	0.050500	0.077400	0.010300
H2421	H242	0.383400	0.764600	0.829600
H2431	H243	0.149100	0.138400	0.920300
H2441	H244	0.386100	0.641500	0.830700
H2451	H245	0.354700	0.409900	0.803800
H2461	H246	0.396500	0.173600	0.065100
H2471	H247	0.295800	0.115300	0.155200
H2481	H248	0.290300	0.143100	0.837000
H2491	H249	0.358100	0.532400	0.805500
H2501	H250	0.508600	0.339100	0.893600
H2511	H251	0.425500	0.273800	0.988500
C2521	C252	0.098500	0.052400	0.150700
C2531	C253	0.162700	0.090000	0.092300
C2541	C254	0.383700	0.221400	0.792500
C2551	C255	0.448100	0.280400	0.808500
C2561	C256	0.119700	0.097100	0.021700
C2571	C257	0.430900	0.740100	0.797500
C2581	C258	0.179500	0.133600	0.967600
C2591	C259	0.283600	0.163300	0.982300
C2601	C260	0.345000	0.202200	0.923300
C2611	C261	0.432100	0.665900	0.797700
C2621	C262	0.414200	0.434100	0.782100
C2631	C263	0.326600	0.155000	0.053700
C2641	C264	0.266300	0.119600	0.107500
C2651	C265	0.333300	0.183000	0.849000
C2661	C266	0.416200	0.507900	0.782400
C2671	C267	0.464000	0.299800	0.882100
C2681	C268	0.413400	0.260700	0.939200
O2691	O269	0.005200	0.026580	0.132310
O2701	O270	0.422300	0.889500	0.783680
O2711	O271	0.140200	0.049000	0.214580
C2731	C273	0.000000	0.395800	0.250000
C2741	C274	0.000000	0.626800	0.250000
C2751	C275	0.000000	0.858700	0.250000
C2761	C276	0.000000	0.547100	0.250000
C2771	C277	0.000000	0.778200	0.250000
N2781	N278	0.000000	0.319600	0.250000
C2791	C279	0.500000	0.604200	0.250000
C2801	C280	0.500000	0.373200	0.250000
C2811	C281	0.500000	0.141300	0.250000
C2821	C282	0.500000	0.452900	0.250000
C2831	C283	0.500000	0.221800	0.250000
N2841	N284	0.500000	0.680400	0.250000
C2851	C285	0.000000	0.604200	0.750000
C2861	C286	0.000000	0.373200	0.750000
C2871	C287	0.000000	0.141300	0.750000
C2881	C288	0.000000	0.452900	0.750000
C2891	C289	0.000000	0.221800	0.750000
N2901	N290	0.000000	0.680400	0.750000
C2911	C291	0.500000	0.395800	0.750000
C2921	C292	0.500000	0.626800	0.750000
C2931	C293	0.500000	0.858700	0.750000
C2941	C294	0.500000	0.547100	0.750000
C2951	C295	0.500000	0.778200	0.750000
N2961	N296	0.500000	0.319600	0.750000
O2971	O297	0.750000	0.000000	0.646800
O2981	O298	0.250000	0.000000	0.853200
O2991	O299	0.250000	0.000000	0.353200
O3001	O300	0.750000	0.000000	0.146800
