data_CAXZUY_freeONLY_PM
_symmetry_space_group_name_H-M	'P1'
_cell_length_a	31.819900
_cell_length_b	31.819900
_cell_length_c	25.114900
_cell_angle_alpha	90.000000
_cell_angle_beta	90.000000
_cell_angle_gamma	90.000000
_symmetry_Int_Tables_number 1

loop_
_symmetry_equiv_pos_as_xyz
'x,y,z'

loop_
_atom_site_label
_atom_site_type_symbol
_atom_site_fract_x
_atom_site_fract_y
_atom_site_fract_z
Ni11	Ni1	0.513300	0.257550	0.640400
Ni21	Ni2	0.256710	0.014750	0.392970
Ni31	Ni3	0.015070	0.755820	0.640290
Ni41	Ni4	0.743380	0.986230	0.891180
N11	N1	0.529500	0.774800	0.098600
C11	C1	0.570400	0.777000	0.115500
H11	H1	0.577000	0.764700	0.148900
C21	C2	0.603300	0.796300	0.087100
H21	H2	0.631400	0.796300	0.099700
C31	C3	0.591500	0.816200	0.037200
C41	C4	0.551000	0.814600	0.020200
H31	H3	0.542800	0.827600	0.987800
C51	C5	0.521700	0.793300	0.051600
H41	H4	0.493700	0.791700	0.038500
C61	C6	0.623400	0.840700	0.006900
C71	C7	0.659100	0.857500	0.032600
H51	H5	0.664500	0.850000	0.068500
C81	C8	0.686600	0.884700	0.006700
H61	H6	0.708800	0.898200	0.025500
C91	C9	0.680600	0.891700	0.952400
C101	C10	0.648500	0.874300	0.925600
H71	H7	0.645100	0.879700	0.888600
C111	C11	0.619000	0.847200	0.953000
H81	H8	0.596800	0.834100	0.934000
C121	C12	0.707800	0.924600	0.926200
O11	O1	0.733000	0.945600	0.953100
O21	O2	0.703400	0.931100	0.876300
N21	N2	0.541200	0.204800	0.672500
C131	C13	0.535000	0.199100	0.725900
H91	H9	0.514900	0.215200	0.744900
C141	C14	0.559700	0.168300	0.751600
H101	H10	0.556600	0.164800	0.789000
C151	C15	0.587700	0.143500	0.725700
C161	C16	0.591000	0.149000	0.672000
H111	H11	0.609600	0.131700	0.652100
C171	C17	0.567500	0.179600	0.646100
H121	H12	0.570200	0.182700	0.608700
C181	C18	0.610800	0.112300	0.755900
C191	C19	0.600200	0.095900	0.803800
H131	H13	0.573300	0.102400	0.817900
C201	C20	0.625800	0.070700	0.832600
H141	H14	0.616400	0.060700	0.866300
C211	C21	0.665300	0.059100	0.814300
C221	C22	0.678200	0.074200	0.765000
H151	H15	0.704300	0.065600	0.750200
C231	C23	0.652300	0.102400	0.737300
H161	H16	0.662400	0.115100	0.705500
C241	C24	0.693800	0.031700	0.846900
O31	O3	0.685400	0.021700	0.894800
O41	O4	0.729300	0.021900	0.826900
N31	N3	0.725300	0.468900	0.433000
C251	C25	0.707400	0.477500	0.479800
H171	H17	0.708500	0.505600	0.492200
C261	C26	0.686800	0.447400	0.512200
H181	H18	0.675400	0.455000	0.545800
C271	C27	0.684000	0.407200	0.493900
C281	C28	0.702700	0.395800	0.445100
H191	H19	0.702100	0.367800	0.432200
C291	C29	0.722800	0.429300	0.416300
H201	H20	0.735200	0.422700	0.382900
C301	C30	0.659700	0.375700	0.525100
C311	C31	0.654200	0.380300	0.579100
H211	H21	0.668400	0.401800	0.598300
C321	C32	0.626400	0.351900	0.605600
H221	H22	0.620200	0.355800	0.642200
C331	C33	0.609000	0.319200	0.578900
C341	C34	0.616400	0.312800	0.526000
H231	H23	0.603500	0.290100	0.507700
C351	C35	0.643800	0.340900	0.498800
H241	H24	0.651100	0.335800	0.462700
C361	C36	0.575600	0.292800	0.605300
O51	O5	0.568600	0.296400	0.655500
O61	O6	0.554200	0.267600	0.578600
N41	N4	0.795900	0.958200	0.858000
C371	C37	0.818400	0.930000	0.883000
H251	H25	0.813100	0.925000	0.919700
C381	C38	0.848600	0.908000	0.858600
H261	H26	0.865100	0.889000	0.879000
C391	C39	0.856700	0.911900	0.804700
C401	C40	0.832800	0.939400	0.778400
H271	H27	0.836300	0.943100	0.741100
C411	C41	0.801500	0.963700	0.806700
H281	H28	0.785000	0.983800	0.788100
C421	C42	0.888300	0.887700	0.774600
C431	C43	0.906000	0.900900	0.729200
H291	H29	0.899200	0.927900	0.715400
C441	C44	0.934800	0.874500	0.701800
H301	H30	0.949800	0.885600	0.672300
C451	C45	0.941400	0.834400	0.716400
C461	C46	0.923000	0.820200	0.764900
H311	H31	0.930200	0.793300	0.778600
C471	C47	0.895200	0.844700	0.791700
H321	H32	0.880500	0.833800	0.821500
C481	C48	0.969100	0.805200	0.684100
O71	O7	0.980600	0.815300	0.638900
O81	O8	0.979200	0.770400	0.704000
N51	N5	0.227200	0.968800	0.434900
C491	C49	0.223900	0.929000	0.416000
H331	H33	0.236100	0.923100	0.382300
C501	C50	0.204000	0.896100	0.442900
H341	H34	0.201900	0.869000	0.427200
C511	C51	0.187100	0.904000	0.493600
C521	C52	0.192400	0.946200	0.512800
H351	H35	0.182600	0.953400	0.547300
C531	C53	0.211100	0.975500	0.482800
H361	H36	0.213000	0.003200	0.496900
C541	C54	0.163700	0.871900	0.523600
C551	C55	0.158700	0.874900	0.577800
H371	H37	0.173700	0.895700	0.597200
C561	C56	0.131000	0.846900	0.605300
H381	H38	0.126500	0.850200	0.642500
C571	C57	0.110900	0.815600	0.578500
C581	C58	0.117600	0.811500	0.524300
H391	H39	0.103200	0.790200	0.505100
C591	C59	0.145300	0.838200	0.497000
H401	H40	0.151500	0.833200	0.460500
C601	C60	0.078200	0.790200	0.607000
O91	O9	0.055700	0.765500	0.579300
O101	O10	0.071400	0.794300	0.654900
N61	N6	0.459000	0.796900	0.173400
C611	C61	0.436100	0.825400	0.146700
H411	H41	0.434600	0.822900	0.109000
C621	C62	0.414400	0.858000	0.170300
H421	H42	0.399500	0.878000	0.149400
C631	C63	0.415200	0.861000	0.226900
C641	C64	0.440300	0.834500	0.251500
H431	H43	0.443700	0.837100	0.289000
C651	C65	0.461900	0.803300	0.225200
H441	H44	0.479700	0.785400	0.245400
C661	C66	0.390000	0.893100	0.254900
C671	C67	0.349900	0.901800	0.236900
H451	H45	0.340600	0.890600	0.203800
C681	C68	0.322600	0.927400	0.267400
H461	H46	0.294700	0.932800	0.255800
C691	C69	0.337100	0.944100	0.313800
C701	C70	0.378700	0.938200	0.330100
H471	H47	0.389200	0.952000	0.360900
C711	C71	0.404300	0.911800	0.300600
H481	H48	0.432200	0.906700	0.312100
C721	C72	0.307600	0.970200	0.347100
O111	O11	0.272200	0.979700	0.328100
O121	O12	0.317900	0.982500	0.394000
N71	N7	0.468600	0.226600	0.599600
C731	C73	0.475500	0.210900	0.551100
H491	H49	0.503200	0.213000	0.537300
C741	C74	0.445300	0.191500	0.518800
H501	H50	0.452000	0.181400	0.484200
C751	C75	0.403600	0.187600	0.540600
C761	C76	0.395300	0.203500	0.589900
H511	H51	0.368000	0.201200	0.605000
C771	C77	0.428300	0.223600	0.618300
H521	H52	0.422000	0.235500	0.652100
C781	C78	0.371200	0.164200	0.509700
C791	C79	0.374700	0.160400	0.454700
H531	H53	0.395600	0.175400	0.435500
C801	C80	0.346200	0.133700	0.428400
H541	H54	0.347800	0.131400	0.390800
C811	C81	0.316000	0.110800	0.455100
C821	C82	0.311600	0.117000	0.508600
H551	H55	0.290400	0.102200	0.527500
C831	C83	0.338500	0.145400	0.536500
H561	H56	0.333900	0.151100	0.573200
C841	C84	0.289900	0.077500	0.427300
O131	O13	0.294300	0.072200	0.377900
O141	O14	0.266200	0.055800	0.455400
N81	N8	0.296000	0.459500	0.861400
C851	C85	0.300500	0.463000	0.807700
H571	H57	0.282000	0.480400	0.787900
C861	C86	0.333000	0.440400	0.781400
H581	H58	0.335800	0.442700	0.743900
C871	C87	0.359400	0.416200	0.808000
C881	C88	0.358300	0.414700	0.863800
H591	H59	0.378300	0.399400	0.884100
C891	C89	0.324100	0.438100	0.888000
H601	H60	0.322100	0.437900	0.925700
C901	C90	0.392900	0.391200	0.780400
C911	C91	0.410300	0.403200	0.732000
H611	H61	0.405100	0.430800	0.719400
C921	C92	0.433900	0.377900	0.702400
H621	H62	0.444000	0.387700	0.669000
C931	C93	0.429300	0.324200	0.770100
H631	H63	0.437800	0.297900	0.784600
C941	C94	0.402000	0.350400	0.799200
H641	H64	0.389800	0.340600	0.831400
C951	C95	0.468600	0.307800	0.686300
O151	O15	0.478300	0.272000	0.707000
O161	O16	0.479100	0.318100	0.640200
C961	C96	0.444300	0.336800	0.719200
Ni51	Ni5	0.986700	0.242450	0.140400
Ni61	Ni6	0.243290	0.485250	0.892970
Ni71	Ni7	0.484930	0.744180	0.140290
Ni81	Ni8	0.756620	0.513770	0.391180
N91	N9	0.970500	0.725200	0.598600
C971	C97	0.929600	0.723000	0.615500
H651	H65	0.923000	0.735300	0.648900
C981	C98	0.896700	0.703700	0.587100
H661	H66	0.868600	0.703700	0.599700
C991	C99	0.908500	0.683800	0.537200
C1001	C100	0.949000	0.685400	0.520200
H671	H67	0.957200	0.672400	0.487800
C1011	C101	0.978300	0.706700	0.551600
H681	H68	0.006300	0.708300	0.538500
C1021	C102	0.876600	0.659300	0.506900
C1031	C103	0.840900	0.642500	0.532600
H691	H69	0.835500	0.650000	0.568500
C1041	C104	0.813400	0.615300	0.506700
H701	H70	0.791200	0.601800	0.525500
C1051	C105	0.819400	0.608300	0.452400
C1061	C106	0.851500	0.625700	0.425600
H711	H71	0.854900	0.620300	0.388600
C1071	C107	0.881000	0.652800	0.453000
H721	H72	0.903200	0.665900	0.434000
C1081	C108	0.792200	0.575400	0.426200
O171	O17	0.767000	0.554400	0.453100
O181	O18	0.796600	0.568900	0.376300
N101	N10	0.958800	0.295200	0.172500
C1091	C109	0.965000	0.300900	0.225900
H731	H73	0.985100	0.284800	0.244900
C1101	C110	0.940300	0.331700	0.251600
H741	H74	0.943400	0.335200	0.289000
C1111	C111	0.912300	0.356500	0.225700
C1121	C112	0.909000	0.351000	0.172000
H751	H75	0.890400	0.368300	0.152100
C1131	C113	0.932500	0.320400	0.146100
H761	H76	0.929800	0.317300	0.108700
C1141	C114	0.889200	0.387700	0.255900
C1151	C115	0.899800	0.404100	0.303800
H771	H77	0.926700	0.397600	0.317900
C1161	C116	0.874200	0.429300	0.332600
H781	H78	0.883600	0.439300	0.366300
C1171	C117	0.834700	0.440900	0.314300
C1181	C118	0.821800	0.425800	0.265000
H791	H79	0.795700	0.434400	0.250200
C1191	C119	0.847700	0.397600	0.237300
H801	H80	0.837600	0.384900	0.205500
C1201	C120	0.806200	0.468300	0.346900
O191	O19	0.814600	0.478300	0.394800
O201	O20	0.770700	0.478100	0.326900
N111	N11	0.774700	0.031100	0.933000
C1211	C121	0.792600	0.022500	0.979800
H811	H81	0.791500	0.994400	0.992200
C1221	C122	0.813200	0.052600	0.012200
H821	H82	0.824600	0.045000	0.045800
C1231	C123	0.816000	0.092800	0.993900
C1241	C124	0.797300	0.104200	0.945100
H831	H83	0.797900	0.132200	0.932200
C1251	C125	0.777200	0.070700	0.916300
H841	H84	0.764800	0.077300	0.882900
C1261	C126	0.840300	0.124300	0.025100
C1271	C127	0.845800	0.119700	0.079100
H851	H85	0.831600	0.098200	0.098300
C1281	C128	0.873600	0.148100	0.105600
H861	H86	0.879800	0.144200	0.142200
C1291	C129	0.891000	0.180800	0.078900
C1301	C130	0.883600	0.187200	0.026000
H871	H87	0.896500	0.209900	0.007700
C1311	C131	0.856200	0.159100	0.998800
H881	H88	0.848900	0.164200	0.962700
C1321	C132	0.924400	0.207200	0.105300
O211	O21	0.931400	0.203600	0.155500
O221	O22	0.945800	0.232400	0.078600
N121	N12	0.704100	0.541800	0.358000
C1331	C133	0.681600	0.570000	0.383000
H891	H89	0.686900	0.575000	0.419700
C1341	C134	0.651400	0.592000	0.358600
H901	H90	0.634900	0.611000	0.379000
C1351	C135	0.643300	0.588100	0.304700
C1361	C136	0.667200	0.560600	0.278400
H911	H91	0.663700	0.556900	0.241100
C1371	C137	0.698500	0.536300	0.306700
H921	H92	0.715000	0.516200	0.288100
C1381	C138	0.611700	0.612300	0.274600
C1391	C139	0.594000	0.599100	0.229200
H931	H93	0.600800	0.572100	0.215400
C1401	C140	0.565200	0.625500	0.201800
H941	H94	0.550200	0.614400	0.172300
C1411	C141	0.558600	0.665600	0.216400
C1421	C142	0.577000	0.679800	0.264900
H951	H95	0.569800	0.706700	0.278600
C1431	C143	0.604800	0.655300	0.291700
H961	H96	0.619500	0.666200	0.321500
C1441	C144	0.530900	0.694800	0.184100
O231	O23	0.519400	0.684700	0.138900
O241	O24	0.520800	0.729600	0.204000
N131	N13	0.272800	0.531200	0.934900
C1451	C145	0.276100	0.571000	0.916000
H971	H97	0.263900	0.576900	0.882300
C1461	C146	0.296000	0.603900	0.942900
H981	H98	0.298100	0.631000	0.927200
C1471	C147	0.312900	0.596000	0.993600
C1481	C148	0.307600	0.553800	0.012800
H991	H99	0.317400	0.546600	0.047300
C1491	C149	0.288900	0.524500	0.982800
H1001	H100	0.287000	0.496800	0.996900
C1501	C150	0.336300	0.628100	0.023600
C1511	C151	0.341300	0.625100	0.077800
H1011	H101	0.326300	0.604300	0.097200
C1521	C152	0.369000	0.653100	0.105300
H1021	H102	0.373500	0.649800	0.142500
C1531	C153	0.389100	0.684400	0.078500
C1541	C154	0.382400	0.688500	0.024300
H1031	H103	0.396800	0.709800	0.005100
C1551	C155	0.354700	0.661800	0.997000
H1041	H104	0.348500	0.666800	0.960500
C1561	C156	0.421800	0.709800	0.107000
O251	O25	0.444300	0.734500	0.079300
O261	O26	0.428600	0.705700	0.154900
N141	N14	0.041000	0.703100	0.673400
C1571	C157	0.063900	0.674600	0.646700
H1051	H105	0.065400	0.677100	0.609000
C1581	C158	0.085600	0.642000	0.670300
H1061	H106	0.100500	0.622000	0.649400
C1591	C159	0.084800	0.639000	0.726900
C1601	C160	0.059700	0.665500	0.751500
H1071	H107	0.056300	0.662900	0.789000
C1611	C161	0.038100	0.696700	0.725200
H1081	H108	0.020300	0.714600	0.745400
C1621	C162	0.110000	0.606900	0.754900
C1631	C163	0.150100	0.598200	0.736900
H1091	H109	0.159400	0.609400	0.703800
C1641	C164	0.177400	0.572600	0.767400
H1101	H110	0.205300	0.567200	0.755800
C1651	C165	0.162900	0.555900	0.813800
C1661	C166	0.121300	0.561800	0.830100
H1111	H111	0.110800	0.548000	0.860900
C1671	C167	0.095700	0.588200	0.800600
H1121	H112	0.067800	0.593300	0.812100
C1681	C168	0.192400	0.529800	0.847100
O271	O27	0.227800	0.520300	0.828100
O281	O28	0.182100	0.517500	0.894000
N151	N15	0.031400	0.273400	0.099600
C1691	C169	0.024500	0.289100	0.051100
H1131	H113	0.996800	0.287000	0.037300
C1701	C170	0.054700	0.308500	0.018800
H1141	H114	0.048000	0.318600	0.984200
C1711	C171	0.096400	0.312400	0.040600
C1721	C172	0.104700	0.296500	0.089900
H1151	H115	0.132000	0.298800	0.105000
C1731	C173	0.071700	0.276400	0.118300
H1161	H116	0.078000	0.264500	0.152100
C1741	C174	0.128800	0.335800	0.009700
C1751	C175	0.125300	0.339600	0.954700
H1171	H117	0.104400	0.324600	0.935500
C1761	C176	0.153800	0.366300	0.928400
H1181	H118	0.152200	0.368600	0.890800
C1771	C177	0.184000	0.389200	0.955100
C1781	C178	0.188400	0.383000	0.008600
H1191	H119	0.209600	0.397800	0.027500
C1791	C179	0.161500	0.354600	0.036500
H1201	H120	0.166100	0.348900	0.073200
C1801	C180	0.210100	0.422500	0.927300
O291	O29	0.205700	0.427800	0.877900
O301	O30	0.233800	0.444200	0.955400
N161	N16	0.204000	0.040500	0.361400
C1811	C181	0.199500	0.037000	0.307700
H1211	H121	0.218000	0.019600	0.287900
C1821	C182	0.167000	0.059600	0.281400
H1221	H122	0.164200	0.057300	0.243900
C1831	C183	0.140600	0.083800	0.308000
C1841	C184	0.141700	0.085300	0.363800
H1231	H123	0.121700	0.100600	0.384100
C1851	C185	0.175900	0.061900	0.388000
H1241	H124	0.177900	0.062100	0.425700
C1861	C186	0.107100	0.108800	0.280400
C1871	C187	0.089700	0.096800	0.232000
H1251	H125	0.094900	0.069200	0.219400
C1881	C188	0.066100	0.122100	0.202400
H1261	H126	0.056000	0.112300	0.169000
C1891	C189	0.070700	0.175800	0.270100
H1271	H127	0.062200	0.202100	0.284600
C1901	C190	0.098000	0.149600	0.299200
H1281	H128	0.110200	0.159400	0.331400
C1911	C191	0.031400	0.192200	0.186300
O311	O31	0.021700	0.228000	0.207000
O321	O32	0.020900	0.181900	0.140200
C1921	C192	0.055700	0.163200	0.219200
Ni91	Ni9	0.013300	0.757550	0.140400
Ni101	Ni10	0.756710	0.514750	0.892970
Ni111	Ni11	0.515070	0.255820	0.140290
Ni121	Ni12	0.243380	0.486230	0.391180
N171	N17	0.029500	0.274800	0.598600
C1931	C193	0.070400	0.277000	0.615500
H1291	H129	0.077000	0.264700	0.648900
C1941	C194	0.103300	0.296300	0.587100
H1301	H130	0.131400	0.296300	0.599700
C1951	C195	0.091500	0.316200	0.537200
C1961	C196	0.051000	0.314600	0.520200
H1311	H131	0.042800	0.327600	0.487800
C1971	C197	0.021700	0.293300	0.551600
H1321	H132	0.993700	0.291700	0.538500
C1981	C198	0.123400	0.340700	0.506900
C1991	C199	0.159100	0.357500	0.532600
H1331	H133	0.164500	0.350000	0.568500
C2001	C200	0.186600	0.384700	0.506700
H1341	H134	0.208800	0.398200	0.525500
C2011	C201	0.180600	0.391700	0.452400
C2021	C202	0.148500	0.374300	0.425600
H1351	H135	0.145100	0.379700	0.388600
C2031	C203	0.119000	0.347200	0.453000
H1361	H136	0.096800	0.334100	0.434000
C2041	C204	0.207800	0.424600	0.426200
O331	O33	0.233000	0.445600	0.453100
O341	O34	0.203400	0.431100	0.376300
N181	N18	0.041200	0.704800	0.172500
C2051	C205	0.035000	0.699100	0.225900
H1371	H137	0.014900	0.715200	0.244900
C2061	C206	0.059700	0.668300	0.251600
H1381	H138	0.056600	0.664800	0.289000
C2071	C207	0.087700	0.643500	0.225700
C2081	C208	0.091000	0.649000	0.172000
H1391	H139	0.109600	0.631700	0.152100
C2091	C209	0.067500	0.679600	0.146100
H1401	H140	0.070200	0.682700	0.108700
C2101	C210	0.110800	0.612300	0.255900
C2111	C211	0.100200	0.595900	0.303800
H1411	H141	0.073300	0.602400	0.317900
C2121	C212	0.125800	0.570700	0.332600
H1421	H142	0.116400	0.560700	0.366300
C2131	C213	0.165300	0.559100	0.314300
C2141	C214	0.178200	0.574200	0.265000
H1431	H143	0.204300	0.565600	0.250200
C2151	C215	0.152300	0.602400	0.237300
H1441	H144	0.162400	0.615100	0.205500
C2161	C216	0.193800	0.531700	0.346900
O351	O35	0.185400	0.521700	0.394800
O361	O36	0.229300	0.521900	0.326900
N191	N19	0.225300	0.968900	0.933000
C2171	C217	0.207400	0.977500	0.979800
H1451	H145	0.208500	0.005600	0.992200
C2181	C218	0.186800	0.947400	0.012200
H1461	H146	0.175400	0.955000	0.045800
C2191	C219	0.184000	0.907200	0.993900
C2201	C220	0.202700	0.895800	0.945100
H1471	H147	0.202100	0.867800	0.932200
C2211	C221	0.222800	0.929300	0.916300
H1481	H148	0.235200	0.922700	0.882900
C2221	C222	0.159700	0.875700	0.025100
C2231	C223	0.154200	0.880300	0.079100
H1491	H149	0.168400	0.901800	0.098300
C2241	C224	0.126400	0.851900	0.105600
H1501	H150	0.120200	0.855800	0.142200
C2251	C225	0.109000	0.819200	0.078900
C2261	C226	0.116400	0.812800	0.026000
H1511	H151	0.103500	0.790100	0.007700
C2271	C227	0.143800	0.840900	0.998800
H1521	H152	0.151100	0.835800	0.962700
C2281	C228	0.075600	0.792800	0.105300
O371	O37	0.068600	0.796400	0.155500
O381	O38	0.054200	0.767600	0.078600
N201	N20	0.295900	0.458200	0.358000
C2291	C229	0.318400	0.430000	0.383000
H1531	H153	0.313100	0.425000	0.419700
C2301	C230	0.348600	0.408000	0.358600
H1541	H154	0.365100	0.389000	0.379000
C2311	C231	0.356700	0.411900	0.304700
C2321	C232	0.332800	0.439400	0.278400
H1551	H155	0.336300	0.443100	0.241100
C2331	C233	0.301500	0.463700	0.306700
H1561	H156	0.285000	0.483800	0.288100
C2341	C234	0.388300	0.387700	0.274600
C2351	C235	0.406000	0.400900	0.229200
H1571	H157	0.399200	0.427900	0.215400
C2361	C236	0.434800	0.374500	0.201800
H1581	H158	0.449800	0.385600	0.172300
C2371	C237	0.441400	0.334400	0.216400
C2381	C238	0.423000	0.320200	0.264900
H1591	H159	0.430200	0.293300	0.278600
C2391	C239	0.395200	0.344700	0.291700
H1601	H160	0.380500	0.333800	0.321500
C2401	C240	0.469100	0.305200	0.184100
O391	O39	0.480600	0.315300	0.138900
O401	O40	0.479200	0.270400	0.204000
N211	N21	0.727200	0.468800	0.934900
C2411	C241	0.723900	0.429000	0.916000
H1611	H161	0.736100	0.423100	0.882300
C2421	C242	0.704000	0.396100	0.942900
H1621	H162	0.701900	0.369000	0.927200
C2431	C243	0.687100	0.404000	0.993600
C2441	C244	0.692400	0.446200	0.012800
H1631	H163	0.682600	0.453400	0.047300
C2451	C245	0.711100	0.475500	0.982800
H1641	H164	0.713000	0.503200	0.996900
C2461	C246	0.663700	0.371900	0.023600
C2471	C247	0.658700	0.374900	0.077800
H1651	H165	0.673700	0.395700	0.097200
C2481	C248	0.631000	0.346900	0.105300
H1661	H166	0.626500	0.350200	0.142500
C2491	C249	0.610900	0.315600	0.078500
C2501	C250	0.617600	0.311500	0.024300
H1671	H167	0.603200	0.290200	0.005100
C2511	C251	0.645300	0.338200	0.997000
H1681	H168	0.651500	0.333200	0.960500
C2521	C252	0.578200	0.290200	0.107000
O411	O41	0.555700	0.265500	0.079300
O421	O42	0.571400	0.294300	0.154900
N221	N22	0.959000	0.296900	0.673400
C2531	C253	0.936100	0.325400	0.646700
H1691	H169	0.934600	0.322900	0.609000
C2541	C254	0.914400	0.358000	0.670300
H1701	H170	0.899500	0.378000	0.649400
C2551	C255	0.915200	0.361000	0.726900
C2561	C256	0.940300	0.334500	0.751500
H1711	H171	0.943700	0.337100	0.789000
C2571	C257	0.961900	0.303300	0.725200
H1721	H172	0.979700	0.285400	0.745400
C2581	C258	0.890000	0.393100	0.754900
C2591	C259	0.849900	0.401800	0.736900
H1731	H173	0.840600	0.390600	0.703800
C2601	C260	0.822600	0.427400	0.767400
H1741	H174	0.794700	0.432800	0.755800
C2611	C261	0.837100	0.444100	0.813800
C2621	C262	0.878700	0.438200	0.830100
H1751	H175	0.889200	0.452000	0.860900
C2631	C263	0.904300	0.411800	0.800600
H1761	H176	0.932200	0.406700	0.812100
C2641	C264	0.807600	0.470200	0.847100
O431	O43	0.772200	0.479700	0.828100
O441	O44	0.817900	0.482500	0.894000
N231	N23	0.968600	0.726600	0.099600
C2651	C265	0.975500	0.710900	0.051100
H1771	H177	0.003200	0.713000	0.037300
C2661	C266	0.945300	0.691500	0.018800
H1781	H178	0.952000	0.681400	0.984200
C2671	C267	0.903600	0.687600	0.040600
C2681	C268	0.895300	0.703500	0.089900
H1791	H179	0.868000	0.701200	0.105000
C2691	C269	0.928300	0.723600	0.118300
H1801	H180	0.922000	0.735500	0.152100
C2701	C270	0.871200	0.664200	0.009700
C2711	C271	0.874700	0.660400	0.954700
H1811	H181	0.895600	0.675400	0.935500
C2721	C272	0.846200	0.633700	0.928400
H1821	H182	0.847800	0.631400	0.890800
C2731	C273	0.816000	0.610800	0.955100
C2741	C274	0.811600	0.617000	0.008600
H1831	H183	0.790400	0.602200	0.027500
C2751	C275	0.838500	0.645400	0.036500
H1841	H184	0.833900	0.651100	0.073200
C2761	C276	0.789900	0.577500	0.927300
O451	O45	0.794300	0.572200	0.877900
O461	O46	0.766200	0.555800	0.955400
N241	N24	0.796000	0.959500	0.361400
C2771	C277	0.800500	0.963000	0.307700
H1851	H185	0.782000	0.980400	0.287900
C2781	C278	0.833000	0.940400	0.281400
H1861	H186	0.835800	0.942700	0.243900
C2791	C279	0.859400	0.916200	0.308000
C2801	C280	0.858300	0.914700	0.363800
H1871	H187	0.878300	0.899400	0.384100
C2811	C281	0.824100	0.938100	0.388000
H1881	H188	0.822100	0.937900	0.425700
C2821	C282	0.892900	0.891200	0.280400
C2831	C283	0.910300	0.903200	0.232000
H1891	H189	0.905100	0.930800	0.219400
C2841	C284	0.933900	0.877900	0.202400
H1901	H190	0.944000	0.887700	0.169000
C2851	C285	0.929300	0.824200	0.270100
H1911	H191	0.937800	0.797900	0.284600
C2861	C286	0.902000	0.850400	0.299200
H1921	H192	0.889800	0.840600	0.331400
C2871	C287	0.968600	0.807800	0.186300
O471	O47	0.978300	0.772000	0.207000
O481	O48	0.979100	0.818100	0.140200
C2881	C288	0.944300	0.836800	0.219200
Ni131	Ni13	0.486700	0.742450	0.640400
Ni141	Ni14	0.743290	0.985250	0.392970
Ni151	Ni15	0.984930	0.244180	0.640290
Ni161	Ni16	0.256620	0.013770	0.891180
N251	N25	0.470500	0.225200	0.098600
C2891	C289	0.429600	0.223000	0.115500
H1931	H193	0.423000	0.235300	0.148900
C2901	C290	0.396700	0.203700	0.087100
H1941	H194	0.368600	0.203700	0.099700
C2911	C291	0.408500	0.183800	0.037200
C2921	C292	0.449000	0.185400	0.020200
H1951	H195	0.457200	0.172400	0.987800
C2931	C293	0.478300	0.206700	0.051600
H1961	H196	0.506300	0.208300	0.038500
C2941	C294	0.376600	0.159300	0.006900
C2951	C295	0.340900	0.142500	0.032600
H1971	H197	0.335500	0.150000	0.068500
C2961	C296	0.313400	0.115300	0.006700
H1981	H198	0.291200	0.101800	0.025500
C2971	C297	0.319400	0.108300	0.952400
C2981	C298	0.351500	0.125700	0.925600
H1991	H199	0.354900	0.120300	0.888600
C2991	C299	0.381000	0.152800	0.953000
H2001	H200	0.403200	0.165900	0.934000
C3001	C300	0.292200	0.075400	0.926200
O491	O49	0.267000	0.054400	0.953100
O501	O50	0.296600	0.068900	0.876300
N261	N26	0.458800	0.795200	0.672500
C3011	C301	0.465000	0.800900	0.725900
H2011	H201	0.485100	0.784800	0.744900
C3021	C302	0.440300	0.831700	0.751600
H2021	H202	0.443400	0.835200	0.789000
C3031	C303	0.412300	0.856500	0.725700
C3041	C304	0.409000	0.851000	0.672000
H2031	H203	0.390400	0.868300	0.652100
C3051	C305	0.432500	0.820400	0.646100
H2041	H204	0.429800	0.817300	0.608700
C3061	C306	0.389200	0.887700	0.755900
C3071	C307	0.399800	0.904100	0.803800
H2051	H205	0.426700	0.897600	0.817900
C3081	C308	0.374200	0.929300	0.832600
H2061	H206	0.383600	0.939300	0.866300
C3091	C309	0.334700	0.940900	0.814300
C3101	C310	0.321800	0.925800	0.765000
H2071	H207	0.295700	0.934400	0.750200
C3111	C311	0.347700	0.897600	0.737300
H2081	H208	0.337600	0.884900	0.705500
C3121	C312	0.306200	0.968300	0.846900
O511	O51	0.314600	0.978300	0.894800
O521	O52	0.270700	0.978100	0.826900
N271	N27	0.274700	0.531100	0.433000
C3131	C313	0.292600	0.522500	0.479800
H2091	H209	0.291500	0.494400	0.492200
C3141	C314	0.313200	0.552600	0.512200
H2101	H210	0.324600	0.545000	0.545800
C3151	C315	0.316000	0.592800	0.493900
C3161	C316	0.297300	0.604200	0.445100
H2111	H211	0.297900	0.632200	0.432200
C3171	C317	0.277200	0.570700	0.416300
H2121	H212	0.264800	0.577300	0.382900
C3181	C318	0.340300	0.624300	0.525100
C3191	C319	0.345800	0.619700	0.579100
H2131	H213	0.331600	0.598200	0.598300
C3201	C320	0.373600	0.648100	0.605600
H2141	H214	0.379800	0.644200	0.642200
C3211	C321	0.391000	0.680800	0.578900
C3221	C322	0.383600	0.687200	0.526000
H2151	H215	0.396500	0.709900	0.507700
C3231	C323	0.356200	0.659100	0.498800
H2161	H216	0.348900	0.664200	0.462700
C3241	C324	0.424400	0.707200	0.605300
O531	O53	0.431400	0.703600	0.655500
O541	O54	0.445800	0.732400	0.578600
N281	N28	0.204100	0.041800	0.858000
C3251	C325	0.181600	0.070000	0.883000
H2171	H217	0.186900	0.075000	0.919700
C3261	C326	0.151400	0.092000	0.858600
H2181	H218	0.134900	0.111000	0.879000
C3271	C327	0.143300	0.088100	0.804700
C3281	C328	0.167200	0.060600	0.778400
H2191	H219	0.163700	0.056900	0.741100
C3291	C329	0.198500	0.036300	0.806700
H2201	H220	0.215000	0.016200	0.788100
C3301	C330	0.111700	0.112300	0.774600
C3311	C331	0.094000	0.099100	0.729200
H2211	H221	0.100800	0.072100	0.715400
C3321	C332	0.065200	0.125500	0.701800
H2221	H222	0.050200	0.114400	0.672300
C3331	C333	0.058600	0.165600	0.716400
C3341	C334	0.077000	0.179800	0.764900
H2231	H223	0.069800	0.206700	0.778600
C3351	C335	0.104800	0.155300	0.791700
H2241	H224	0.119500	0.166200	0.821500
C3361	C336	0.030900	0.194800	0.684100
O551	O55	0.019400	0.184700	0.638900
O561	O56	0.020800	0.229600	0.704000
N291	N29	0.772800	0.031200	0.434900
C3371	C337	0.776100	0.071000	0.416000
H2251	H225	0.763900	0.076900	0.382300
C3381	C338	0.796000	0.103900	0.442900
H2261	H226	0.798100	0.131000	0.427200
C3391	C339	0.812900	0.096000	0.493600
C3401	C340	0.807600	0.053800	0.512800
H2271	H227	0.817400	0.046600	0.547300
C3411	C341	0.788900	0.024500	0.482800
H2281	H228	0.787000	0.996800	0.496900
C3421	C342	0.836300	0.128100	0.523600
C3431	C343	0.841300	0.125100	0.577800
H2291	H229	0.826300	0.104300	0.597200
C3441	C344	0.869000	0.153100	0.605300
H2301	H230	0.873500	0.149800	0.642500
C3451	C345	0.889100	0.184400	0.578500
C3461	C346	0.882400	0.188500	0.524300
H2311	H231	0.896800	0.209800	0.505100
C3471	C347	0.854700	0.161800	0.497000
H2321	H232	0.848500	0.166800	0.460500
C3481	C348	0.921800	0.209800	0.607000
O571	O57	0.944300	0.234500	0.579300
O581	O58	0.928600	0.205700	0.654900
N301	N30	0.541000	0.203100	0.173400
C3491	C349	0.563900	0.174600	0.146700
H2331	H233	0.565400	0.177100	0.109000
C3501	C350	0.585600	0.142000	0.170300
H2341	H234	0.600500	0.122000	0.149400
C3511	C351	0.584800	0.139000	0.226900
C3521	C352	0.559700	0.165500	0.251500
H2351	H235	0.556300	0.162900	0.289000
C3531	C353	0.538100	0.196700	0.225200
H2361	H236	0.520300	0.214600	0.245400
C3541	C354	0.610000	0.106900	0.254900
C3551	C355	0.650100	0.098200	0.236900
H2371	H237	0.659400	0.109400	0.203800
C3561	C356	0.677400	0.072600	0.267400
H2381	H238	0.705300	0.067200	0.255800
C3571	C357	0.662900	0.055900	0.313800
C3581	C358	0.621300	0.061800	0.330100
H2391	H239	0.610800	0.048000	0.360900
C3591	C359	0.595700	0.088200	0.300600
H2401	H240	0.567800	0.093300	0.312100
C3601	C360	0.692400	0.029800	0.347100
O591	O59	0.727800	0.020300	0.328100
O601	O60	0.682100	0.017500	0.394000
N311	N31	0.531400	0.773400	0.599600
C3611	C361	0.524500	0.789100	0.551100
H2411	H241	0.496800	0.787000	0.537300
C3621	C362	0.554700	0.808500	0.518800
H2421	H242	0.548000	0.818600	0.484200
C3631	C363	0.596400	0.812400	0.540600
C3641	C364	0.604700	0.796500	0.589900
H2431	H243	0.632000	0.798800	0.605000
C3651	C365	0.571700	0.776400	0.618300
H2441	H244	0.578000	0.764500	0.652100
C3661	C366	0.628800	0.835800	0.509700
C3671	C367	0.625300	0.839600	0.454700
H2451	H245	0.604400	0.824600	0.435500
C3681	C368	0.653800	0.866300	0.428400
H2461	H246	0.652200	0.868600	0.390800
C3691	C369	0.684000	0.889200	0.455100
C3701	C370	0.688400	0.883000	0.508600
H2471	H247	0.709600	0.897800	0.527500
C3711	C371	0.661500	0.854600	0.536500
H2481	H248	0.666100	0.848900	0.573200
C3721	C372	0.710100	0.922500	0.427300
O611	O61	0.705700	0.927800	0.377900
O621	O62	0.733800	0.944200	0.455400
N321	N32	0.704000	0.540500	0.861400
C3731	C373	0.699500	0.537000	0.807700
H2491	H249	0.718000	0.519600	0.787900
C3741	C374	0.667000	0.559600	0.781400
H2501	H250	0.664200	0.557300	0.743900
C3751	C375	0.640600	0.583800	0.808000
C3761	C376	0.641700	0.585300	0.863800
H2511	H251	0.621700	0.600600	0.884100
C3771	C377	0.675900	0.561900	0.888000
H2521	H252	0.677900	0.562100	0.925700
C3781	C378	0.607100	0.608800	0.780400
C3791	C379	0.589700	0.596800	0.732000
H2531	H253	0.594900	0.569200	0.719400
C3801	C380	0.566100	0.622100	0.702400
H2541	H254	0.556000	0.612300	0.669000
C3811	C381	0.570700	0.675800	0.770100
H2551	H255	0.562200	0.702100	0.784600
C3821	C382	0.598000	0.649600	0.799200
H2561	H256	0.610200	0.659400	0.831400
C3831	C383	0.531400	0.692200	0.686300
O631	O63	0.521700	0.728000	0.707000
O641	O64	0.520900	0.681900	0.640200
C3841	C384	0.555700	0.663200	0.719200
Ni171	Ni17	0.742450	0.513300	0.640400
Ni181	Ni18	0.985250	0.256710	0.392970
Ni191	Ni19	0.244180	0.015070	0.640290
Ni201	Ni20	0.013770	0.743380	0.891180
N331	N33	0.225200	0.529500	0.098600
C3851	C385	0.223000	0.570400	0.115500
H2571	H257	0.235300	0.577000	0.148900
C3861	C386	0.203700	0.603300	0.087100
H2581	H258	0.203700	0.631400	0.099700
C3871	C387	0.183800	0.591500	0.037200
C3881	C388	0.185400	0.551000	0.020200
H2591	H259	0.172400	0.542800	0.987800
C3891	C389	0.206700	0.521700	0.051600
H2601	H260	0.208300	0.493700	0.038500
C3901	C390	0.159300	0.623400	0.006900
C3911	C391	0.142500	0.659100	0.032600
H2611	H261	0.150000	0.664500	0.068500
C3921	C392	0.115300	0.686600	0.006700
H2621	H262	0.101800	0.708800	0.025500
C3931	C393	0.108300	0.680600	0.952400
C3941	C394	0.125700	0.648500	0.925600
H2631	H263	0.120300	0.645100	0.888600
C3951	C395	0.152800	0.619000	0.953000
H2641	H264	0.165900	0.596800	0.934000
C3961	C396	0.075400	0.707800	0.926200
O651	O65	0.054400	0.733000	0.953100
O661	O66	0.068900	0.703400	0.876300
N341	N34	0.795200	0.541200	0.672500
C3971	C397	0.800900	0.535000	0.725900
H2651	H265	0.784800	0.514900	0.744900
C3981	C398	0.831700	0.559700	0.751600
H2661	H266	0.835200	0.556600	0.789000
C3991	C399	0.856500	0.587700	0.725700
C4001	C400	0.851000	0.591000	0.672000
H2671	H267	0.868300	0.609600	0.652100
C4011	C401	0.820400	0.567500	0.646100
H2681	H268	0.817300	0.570200	0.608700
C4021	C402	0.887700	0.610800	0.755900
C4031	C403	0.904100	0.600200	0.803800
H2691	H269	0.897600	0.573300	0.817900
C4041	C404	0.929300	0.625800	0.832600
H2701	H270	0.939300	0.616400	0.866300
C4051	C405	0.940900	0.665300	0.814300
C4061	C406	0.925800	0.678200	0.765000
H2711	H271	0.934400	0.704300	0.750200
C4071	C407	0.897600	0.652300	0.737300
H2721	H272	0.884900	0.662400	0.705500
C4081	C408	0.968300	0.693800	0.846900
O671	O67	0.978300	0.685400	0.894800
O681	O68	0.978100	0.729300	0.826900
N351	N35	0.531100	0.725300	0.433000
C4091	C409	0.522500	0.707400	0.479800
H2731	H273	0.494400	0.708500	0.492200
C4101	C410	0.552600	0.686800	0.512200
H2741	H274	0.545000	0.675400	0.545800
C4111	C411	0.592800	0.684000	0.493900
C4121	C412	0.604200	0.702700	0.445100
H2751	H275	0.632200	0.702100	0.432200
C4131	C413	0.570700	0.722800	0.416300
H2761	H276	0.577300	0.735200	0.382900
C4141	C414	0.624300	0.659700	0.525100
C4151	C415	0.619700	0.654200	0.579100
H2771	H277	0.598200	0.668400	0.598300
C4161	C416	0.648100	0.626400	0.605600
H2781	H278	0.644200	0.620200	0.642200
C4171	C417	0.680800	0.609000	0.578900
C4181	C418	0.687200	0.616400	0.526000
H2791	H279	0.709900	0.603500	0.507700
C4191	C419	0.659100	0.643800	0.498800
H2801	H280	0.664200	0.651100	0.462700
C4201	C420	0.707200	0.575600	0.605300
O691	O69	0.703600	0.568600	0.655500
O701	O70	0.732400	0.554200	0.578600
N361	N36	0.041800	0.795900	0.858000
C4211	C421	0.070000	0.818400	0.883000
H2811	H281	0.075000	0.813100	0.919700
C4221	C422	0.092000	0.848600	0.858600
H2821	H282	0.111000	0.865100	0.879000
C4231	C423	0.088100	0.856700	0.804700
C4241	C424	0.060600	0.832800	0.778400
H2831	H283	0.056900	0.836300	0.741100
C4251	C425	0.036300	0.801500	0.806700
H2841	H284	0.016200	0.785000	0.788100
C4261	C426	0.112300	0.888300	0.774600
C4271	C427	0.099100	0.906000	0.729200
H2851	H285	0.072100	0.899200	0.715400
C4281	C428	0.125500	0.934800	0.701800
H2861	H286	0.114400	0.949800	0.672300
C4291	C429	0.165600	0.941400	0.716400
C4301	C430	0.179800	0.923000	0.764900
H2871	H287	0.206700	0.930200	0.778600
C4311	C431	0.155300	0.895200	0.791700
H2881	H288	0.166200	0.880500	0.821500
C4321	C432	0.194800	0.969100	0.684100
O711	O71	0.184700	0.980600	0.638900
O721	O72	0.229600	0.979200	0.704000
N371	N37	0.031200	0.227200	0.434900
C4331	C433	0.071000	0.223900	0.416000
H2891	H289	0.076900	0.236100	0.382300
C4341	C434	0.103900	0.204000	0.442900
H2901	H290	0.131000	0.201900	0.427200
C4351	C435	0.096000	0.187100	0.493600
C4361	C436	0.053800	0.192400	0.512800
H2911	H291	0.046600	0.182600	0.547300
C4371	C437	0.024500	0.211100	0.482800
H2921	H292	0.996800	0.213000	0.496900
C4381	C438	0.128100	0.163700	0.523600
C4391	C439	0.125100	0.158700	0.577800
H2931	H293	0.104300	0.173700	0.597200
C4401	C440	0.153100	0.131000	0.605300
H2941	H294	0.149800	0.126500	0.642500
C4411	C441	0.184400	0.110900	0.578500
C4421	C442	0.188500	0.117600	0.524300
H2951	H295	0.209800	0.103200	0.505100
C4431	C443	0.161800	0.145300	0.497000
H2961	H296	0.166800	0.151500	0.460500
C4441	C444	0.209800	0.078200	0.607000
O731	O73	0.234500	0.055700	0.579300
O741	O74	0.205700	0.071400	0.654900
N381	N38	0.203100	0.459000	0.173400
C4451	C445	0.174600	0.436100	0.146700
H2971	H297	0.177100	0.434600	0.109000
C4461	C446	0.142000	0.414400	0.170300
H2981	H298	0.122000	0.399500	0.149400
C4471	C447	0.139000	0.415200	0.226900
C4481	C448	0.165500	0.440300	0.251500
H2991	H299	0.162900	0.443700	0.289000
C4491	C449	0.196700	0.461900	0.225200
H3001	H300	0.214600	0.479700	0.245400
C4501	C450	0.106900	0.390000	0.254900
C4511	C451	0.098200	0.349900	0.236900
H3011	H301	0.109400	0.340600	0.203800
C4521	C452	0.072600	0.322600	0.267400
H3021	H302	0.067200	0.294700	0.255800
C4531	C453	0.055900	0.337100	0.313800
C4541	C454	0.061800	0.378700	0.330100
H3031	H303	0.048000	0.389200	0.360900
C4551	C455	0.088200	0.404300	0.300600
H3041	H304	0.093300	0.432200	0.312100
C4561	C456	0.029800	0.307600	0.347100
O751	O75	0.020300	0.272200	0.328100
O761	O76	0.017500	0.317900	0.394000
N391	N39	0.773400	0.468600	0.599600
C4571	C457	0.789100	0.475500	0.551100
H3051	H305	0.787000	0.503200	0.537300
C4581	C458	0.808500	0.445300	0.518800
H3061	H306	0.818600	0.452000	0.484200
C4591	C459	0.812400	0.403600	0.540600
C4601	C460	0.796500	0.395300	0.589900
H3071	H307	0.798800	0.368000	0.605000
C4611	C461	0.776400	0.428300	0.618300
H3081	H308	0.764500	0.422000	0.652100
C4621	C462	0.835800	0.371200	0.509700
C4631	C463	0.839600	0.374700	0.454700
H3091	H309	0.824600	0.395600	0.435500
C4641	C464	0.866300	0.346200	0.428400
H3101	H310	0.868600	0.347800	0.390800
C4651	C465	0.889200	0.316000	0.455100
C4661	C466	0.883000	0.311600	0.508600
H3111	H311	0.897800	0.290400	0.527500
C4671	C467	0.854600	0.338500	0.536500
H3121	H312	0.848900	0.333900	0.573200
C4681	C468	0.922500	0.289900	0.427300
O771	O77	0.927800	0.294300	0.377900
O781	O78	0.944200	0.266200	0.455400
N401	N40	0.540500	0.296000	0.861400
C4691	C469	0.537000	0.300500	0.807700
H3131	H313	0.519600	0.282000	0.787900
C4701	C470	0.559600	0.333000	0.781400
H3141	H314	0.557300	0.335800	0.743900
C4711	C471	0.583800	0.359400	0.808000
C4721	C472	0.585300	0.358300	0.863800
H3151	H315	0.600600	0.378300	0.884100
C4731	C473	0.561900	0.324100	0.888000
H3161	H316	0.562100	0.322100	0.925700
C4741	C474	0.608800	0.392900	0.780400
C4751	C475	0.596800	0.410300	0.732000
H3171	H317	0.569200	0.405100	0.719400
C4761	C476	0.622100	0.433900	0.702400
H3181	H318	0.612300	0.444000	0.669000
C4771	C477	0.675800	0.429300	0.770100
H3191	H319	0.702100	0.437800	0.784600
C4781	C478	0.649600	0.402000	0.799200
H3201	H320	0.659400	0.389800	0.831400
C4791	C479	0.692200	0.468600	0.686300
O791	O79	0.728000	0.478300	0.707000
O801	O80	0.681900	0.479100	0.640200
C4801	C480	0.663200	0.444300	0.719200
Ni211	Ni21	0.757550	0.986700	0.140400
Ni221	Ni22	0.514750	0.243290	0.892970
Ni231	Ni23	0.255820	0.484930	0.140290
Ni241	Ni24	0.486230	0.756620	0.391180
N411	N41	0.274800	0.970500	0.598600
C4811	C481	0.277000	0.929600	0.615500
H3211	H321	0.264700	0.923000	0.648900
C4821	C482	0.296300	0.896700	0.587100
H3221	H322	0.296300	0.868600	0.599700
C4831	C483	0.316200	0.908500	0.537200
C4841	C484	0.314600	0.949000	0.520200
H3231	H323	0.327600	0.957200	0.487800
C4851	C485	0.293300	0.978300	0.551600
H3241	H324	0.291700	0.006300	0.538500
C4861	C486	0.340700	0.876600	0.506900
C4871	C487	0.357500	0.840900	0.532600
H3251	H325	0.350000	0.835500	0.568500
C4881	C488	0.384700	0.813400	0.506700
H3261	H326	0.398200	0.791200	0.525500
C4891	C489	0.391700	0.819400	0.452400
C4901	C490	0.374300	0.851500	0.425600
H3271	H327	0.379700	0.854900	0.388600
C4911	C491	0.347200	0.881000	0.453000
H3281	H328	0.334100	0.903200	0.434000
C4921	C492	0.424600	0.792200	0.426200
O811	O81	0.445600	0.767000	0.453100
O821	O82	0.431100	0.796600	0.376300
N421	N42	0.704800	0.958800	0.172500
C4931	C493	0.699100	0.965000	0.225900
H3291	H329	0.715200	0.985100	0.244900
C4941	C494	0.668300	0.940300	0.251600
H3301	H330	0.664800	0.943400	0.289000
C4951	C495	0.643500	0.912300	0.225700
C4961	C496	0.649000	0.909000	0.172000
H3311	H331	0.631700	0.890400	0.152100
C4971	C497	0.679600	0.932500	0.146100
H3321	H332	0.682700	0.929800	0.108700
C4981	C498	0.612300	0.889200	0.255900
C4991	C499	0.595900	0.899800	0.303800
H3331	H333	0.602400	0.926700	0.317900
C5001	C500	0.570700	0.874200	0.332600
H3341	H334	0.560700	0.883600	0.366300
C5011	C501	0.559100	0.834700	0.314300
C5021	C502	0.574200	0.821800	0.265000
H3351	H335	0.565600	0.795700	0.250200
C5031	C503	0.602400	0.847700	0.237300
H3361	H336	0.615100	0.837600	0.205500
C5041	C504	0.531700	0.806200	0.346900
O831	O83	0.521700	0.814600	0.394800
O841	O84	0.521900	0.770700	0.326900
N431	N43	0.968900	0.774700	0.933000
C5051	C505	0.977500	0.792600	0.979800
H3371	H337	0.005600	0.791500	0.992200
C5061	C506	0.947400	0.813200	0.012200
H3381	H338	0.955000	0.824600	0.045800
C5071	C507	0.907200	0.816000	0.993900
C5081	C508	0.895800	0.797300	0.945100
H3391	H339	0.867800	0.797900	0.932200
C5091	C509	0.929300	0.777200	0.916300
H3401	H340	0.922700	0.764800	0.882900
C5101	C510	0.875700	0.840300	0.025100
C5111	C511	0.880300	0.845800	0.079100
H3411	H341	0.901800	0.831600	0.098300
C5121	C512	0.851900	0.873600	0.105600
H3421	H342	0.855800	0.879800	0.142200
C5131	C513	0.819200	0.891000	0.078900
C5141	C514	0.812800	0.883600	0.026000
H3431	H343	0.790100	0.896500	0.007700
C5151	C515	0.840900	0.856200	0.998800
H3441	H344	0.835800	0.848900	0.962700
C5161	C516	0.792800	0.924400	0.105300
O851	O85	0.796400	0.931400	0.155500
O861	O86	0.767600	0.945800	0.078600
N441	N44	0.458200	0.704100	0.358000
C5171	C517	0.430000	0.681600	0.383000
H3451	H345	0.425000	0.686900	0.419700
C5181	C518	0.408000	0.651400	0.358600
H3461	H346	0.389000	0.634900	0.379000
C5191	C519	0.411900	0.643300	0.304700
C5201	C520	0.439400	0.667200	0.278400
H3471	H347	0.443100	0.663700	0.241100
C5211	C521	0.463700	0.698500	0.306700
H3481	H348	0.483800	0.715000	0.288100
C5221	C522	0.387700	0.611700	0.274600
C5231	C523	0.400900	0.594000	0.229200
H3491	H349	0.427900	0.600800	0.215400
C5241	C524	0.374500	0.565200	0.201800
H3501	H350	0.385600	0.550200	0.172300
C5251	C525	0.334400	0.558600	0.216400
C5261	C526	0.320200	0.577000	0.264900
H3511	H351	0.293300	0.569800	0.278600
C5271	C527	0.344700	0.604800	0.291700
H3521	H352	0.333800	0.619500	0.321500
C5281	C528	0.305200	0.530900	0.184100
O871	O87	0.315300	0.519400	0.138900
O881	O88	0.270400	0.520800	0.204000
N451	N45	0.468800	0.272800	0.934900
C5291	C529	0.429000	0.276100	0.916000
H3531	H353	0.423100	0.263900	0.882300
C5301	C530	0.396100	0.296000	0.942900
H3541	H354	0.369000	0.298100	0.927200
C5311	C531	0.404000	0.312900	0.993600
C5321	C532	0.446200	0.307600	0.012800
H3551	H355	0.453400	0.317400	0.047300
C5331	C533	0.475500	0.288900	0.982800
H3561	H356	0.503200	0.287000	0.996900
C5341	C534	0.371900	0.336300	0.023600
C5351	C535	0.374900	0.341300	0.077800
H3571	H357	0.395700	0.326300	0.097200
C5361	C536	0.346900	0.369000	0.105300
H3581	H358	0.350200	0.373500	0.142500
C5371	C537	0.315600	0.389100	0.078500
C5381	C538	0.311500	0.382400	0.024300
H3591	H359	0.290200	0.396800	0.005100
C5391	C539	0.338200	0.354700	0.997000
H3601	H360	0.333200	0.348500	0.960500
C5401	C540	0.290200	0.421800	0.107000
O891	O89	0.265500	0.444300	0.079300
O901	O90	0.294300	0.428600	0.154900
N461	N46	0.296900	0.041000	0.673400
C5411	C541	0.325400	0.063900	0.646700
H3611	H361	0.322900	0.065400	0.609000
C5421	C542	0.358000	0.085600	0.670300
H3621	H362	0.378000	0.100500	0.649400
C5431	C543	0.361000	0.084800	0.726900
C5441	C544	0.334500	0.059700	0.751500
H3631	H363	0.337100	0.056300	0.789000
C5451	C545	0.303300	0.038100	0.725200
H3641	H364	0.285400	0.020300	0.745400
C5461	C546	0.393100	0.110000	0.754900
C5471	C547	0.401800	0.150100	0.736900
H3651	H365	0.390600	0.159400	0.703800
C5481	C548	0.427400	0.177400	0.767400
H3661	H366	0.432800	0.205300	0.755800
C5491	C549	0.444100	0.162900	0.813800
C5501	C550	0.438200	0.121300	0.830100
H3671	H367	0.452000	0.110800	0.860900
C5511	C551	0.411800	0.095700	0.800600
H3681	H368	0.406700	0.067800	0.812100
C5521	C552	0.470200	0.192400	0.847100
O911	O91	0.479700	0.227800	0.828100
O921	O92	0.482500	0.182100	0.894000
N471	N47	0.726600	0.031400	0.099600
C5531	C553	0.710900	0.024500	0.051100
H3691	H369	0.713000	0.996800	0.037300
C5541	C554	0.691500	0.054700	0.018800
H3701	H370	0.681400	0.048000	0.984200
C5551	C555	0.687600	0.096400	0.040600
C5561	C556	0.703500	0.104700	0.089900
H3711	H371	0.701200	0.132000	0.105000
C5571	C557	0.723600	0.071700	0.118300
H3721	H372	0.735500	0.078000	0.152100
C5581	C558	0.664200	0.128800	0.009700
C5591	C559	0.660400	0.125300	0.954700
H3731	H373	0.675400	0.104400	0.935500
C5601	C560	0.633700	0.153800	0.928400
H3741	H374	0.631400	0.152200	0.890800
C5611	C561	0.610800	0.184000	0.955100
C5621	C562	0.617000	0.188400	0.008600
H3751	H375	0.602200	0.209600	0.027500
C5631	C563	0.645400	0.161500	0.036500
H3761	H376	0.651100	0.166100	0.073200
C5641	C564	0.577500	0.210100	0.927300
O931	O93	0.572200	0.205700	0.877900
O941	O94	0.555800	0.233800	0.955400
N481	N48	0.959500	0.204000	0.361400
C5651	C565	0.963000	0.199500	0.307700
H3771	H377	0.980400	0.218000	0.287900
C5661	C566	0.940400	0.167000	0.281400
H3781	H378	0.942700	0.164200	0.243900
C5671	C567	0.916200	0.140600	0.308000
C5681	C568	0.914700	0.141700	0.363800
H3791	H379	0.899400	0.121700	0.384100
C5691	C569	0.938100	0.175900	0.388000
H3801	H380	0.937900	0.177900	0.425700
C5701	C570	0.891200	0.107100	0.280400
C5711	C571	0.903200	0.089700	0.232000
H3811	H381	0.930800	0.094900	0.219400
C5721	C572	0.877900	0.066100	0.202400
H3821	H382	0.887700	0.056000	0.169000
C5731	C573	0.824200	0.070700	0.270100
H3831	H383	0.797900	0.062200	0.284600
C5741	C574	0.850400	0.098000	0.299200
H3841	H384	0.840600	0.110200	0.331400
C5751	C575	0.807800	0.031400	0.186300
O951	O95	0.772000	0.021700	0.207000
O961	O96	0.818100	0.020900	0.140200
C5761	C576	0.836800	0.055700	0.219200
Ni251	Ni25	0.242450	0.013300	0.140400
Ni261	Ni26	0.485250	0.756710	0.892970
Ni271	Ni27	0.744180	0.515070	0.140290
Ni281	Ni28	0.513770	0.243380	0.391180
N491	N49	0.725200	0.029500	0.598600
C5771	C577	0.723000	0.070400	0.615500
H3851	H385	0.735300	0.077000	0.648900
C5781	C578	0.703700	0.103300	0.587100
H3861	H386	0.703700	0.131400	0.599700
C5791	C579	0.683800	0.091500	0.537200
C5801	C580	0.685400	0.051000	0.520200
H3871	H387	0.672400	0.042800	0.487800
C5811	C581	0.706700	0.021700	0.551600
H3881	H388	0.708300	0.993700	0.538500
C5821	C582	0.659300	0.123400	0.506900
C5831	C583	0.642500	0.159100	0.532600
H3891	H389	0.650000	0.164500	0.568500
C5841	C584	0.615300	0.186600	0.506700
H3901	H390	0.601800	0.208800	0.525500
C5851	C585	0.608300	0.180600	0.452400
C5861	C586	0.625700	0.148500	0.425600
H3911	H391	0.620300	0.145100	0.388600
C5871	C587	0.652800	0.119000	0.453000
H3921	H392	0.665900	0.096800	0.434000
C5881	C588	0.575400	0.207800	0.426200
O971	O97	0.554400	0.233000	0.453100
O981	O98	0.568900	0.203400	0.376300
N501	N50	0.295200	0.041200	0.172500
C5891	C589	0.300900	0.035000	0.225900
H3931	H393	0.284800	0.014900	0.244900
C5901	C590	0.331700	0.059700	0.251600
H3941	H394	0.335200	0.056600	0.289000
C5911	C591	0.356500	0.087700	0.225700
C5921	C592	0.351000	0.091000	0.172000
H3951	H395	0.368300	0.109600	0.152100
C5931	C593	0.320400	0.067500	0.146100
H3961	H396	0.317300	0.070200	0.108700
C5941	C594	0.387700	0.110800	0.255900
C5951	C595	0.404100	0.100200	0.303800
H3971	H397	0.397600	0.073300	0.317900
C5961	C596	0.429300	0.125800	0.332600
H3981	H398	0.439300	0.116400	0.366300
C5971	C597	0.440900	0.165300	0.314300
C5981	C598	0.425800	0.178200	0.265000
H3991	H399	0.434400	0.204300	0.250200
C5991	C599	0.397600	0.152300	0.237300
H4001	H400	0.384900	0.162400	0.205500
C6001	C600	0.468300	0.193800	0.346900
O991	O99	0.478300	0.185400	0.394800
O1001	O100	0.478100	0.229300	0.326900
N511	N51	0.031100	0.225300	0.933000
C6011	C601	0.022500	0.207400	0.979800
H4011	H401	0.994400	0.208500	0.992200
C6021	C602	0.052600	0.186800	0.012200
H4021	H402	0.045000	0.175400	0.045800
C6031	C603	0.092800	0.184000	0.993900
C6041	C604	0.104200	0.202700	0.945100
H4031	H403	0.132200	0.202100	0.932200
C6051	C605	0.070700	0.222800	0.916300
H4041	H404	0.077300	0.235200	0.882900
C6061	C606	0.124300	0.159700	0.025100
C6071	C607	0.119700	0.154200	0.079100
H4051	H405	0.098200	0.168400	0.098300
C6081	C608	0.148100	0.126400	0.105600
H4061	H406	0.144200	0.120200	0.142200
C6091	C609	0.180800	0.109000	0.078900
C6101	C610	0.187200	0.116400	0.026000
H4071	H407	0.209900	0.103500	0.007700
C6111	C611	0.159100	0.143800	0.998800
H4081	H408	0.164200	0.151100	0.962700
C6121	C612	0.207200	0.075600	0.105300
O1011	O101	0.203600	0.068600	0.155500
O1021	O102	0.232400	0.054200	0.078600
N521	N52	0.541800	0.295900	0.358000
C6131	C613	0.570000	0.318400	0.383000
H4091	H409	0.575000	0.313100	0.419700
C6141	C614	0.592000	0.348600	0.358600
H4101	H410	0.611000	0.365100	0.379000
C6151	C615	0.588100	0.356700	0.304700
C6161	C616	0.560600	0.332800	0.278400
H4111	H411	0.556900	0.336300	0.241100
C6171	C617	0.536300	0.301500	0.306700
H4121	H412	0.516200	0.285000	0.288100
C6181	C618	0.612300	0.388300	0.274600
C6191	C619	0.599100	0.406000	0.229200
H4131	H413	0.572100	0.399200	0.215400
C6201	C620	0.625500	0.434800	0.201800
H4141	H414	0.614400	0.449800	0.172300
C6211	C621	0.665600	0.441400	0.216400
C6221	C622	0.679800	0.423000	0.264900
H4151	H415	0.706700	0.430200	0.278600
C6231	C623	0.655300	0.395200	0.291700
H4161	H416	0.666200	0.380500	0.321500
C6241	C624	0.694800	0.469100	0.184100
O1031	O103	0.684700	0.480600	0.138900
O1041	O104	0.729600	0.479200	0.204000
N531	N53	0.531200	0.727200	0.934900
C6251	C625	0.571000	0.723900	0.916000
H4171	H417	0.576900	0.736100	0.882300
C6261	C626	0.603900	0.704000	0.942900
H4181	H418	0.631000	0.701900	0.927200
C6271	C627	0.596000	0.687100	0.993600
C6281	C628	0.553800	0.692400	0.012800
H4191	H419	0.546600	0.682600	0.047300
C6291	C629	0.524500	0.711100	0.982800
H4201	H420	0.496800	0.713000	0.996900
C6301	C630	0.628100	0.663700	0.023600
C6311	C631	0.625100	0.658700	0.077800
H4211	H421	0.604300	0.673700	0.097200
C6321	C632	0.653100	0.631000	0.105300
H4221	H422	0.649800	0.626500	0.142500
C6331	C633	0.684400	0.610900	0.078500
C6341	C634	0.688500	0.617600	0.024300
H4231	H423	0.709800	0.603200	0.005100
C6351	C635	0.661800	0.645300	0.997000
H4241	H424	0.666800	0.651500	0.960500
C6361	C636	0.709800	0.578200	0.107000
O1051	O105	0.734500	0.555700	0.079300
O1061	O106	0.705700	0.571400	0.154900
N541	N54	0.703100	0.959000	0.673400
C6371	C637	0.674600	0.936100	0.646700
H4251	H425	0.677100	0.934600	0.609000
C6381	C638	0.642000	0.914400	0.670300
H4261	H426	0.622000	0.899500	0.649400
C6391	C639	0.639000	0.915200	0.726900
C6401	C640	0.665500	0.940300	0.751500
H4271	H427	0.662900	0.943700	0.789000
C6411	C641	0.696700	0.961900	0.725200
H4281	H428	0.714600	0.979700	0.745400
C6421	C642	0.606900	0.890000	0.754900
C6431	C643	0.598200	0.849900	0.736900
H4291	H429	0.609400	0.840600	0.703800
C6441	C644	0.572600	0.822600	0.767400
H4301	H430	0.567200	0.794700	0.755800
C6451	C645	0.555900	0.837100	0.813800
C6461	C646	0.561800	0.878700	0.830100
H4311	H431	0.548000	0.889200	0.860900
C6471	C647	0.588200	0.904300	0.800600
H4321	H432	0.593300	0.932200	0.812100
C6481	C648	0.529800	0.807600	0.847100
O1071	O107	0.520300	0.772200	0.828100
O1081	O108	0.517500	0.817900	0.894000
N551	N55	0.273400	0.968600	0.099600
C6491	C649	0.289100	0.975500	0.051100
H4331	H433	0.287000	0.003200	0.037300
C6501	C650	0.308500	0.945300	0.018800
H4341	H434	0.318600	0.952000	0.984200
C6511	C651	0.312400	0.903600	0.040600
C6521	C652	0.296500	0.895300	0.089900
H4351	H435	0.298800	0.868000	0.105000
C6531	C653	0.276400	0.928300	0.118300
H4361	H436	0.264500	0.922000	0.152100
C6541	C654	0.335800	0.871200	0.009700
C6551	C655	0.339600	0.874700	0.954700
H4371	H437	0.324600	0.895600	0.935500
C6561	C656	0.366300	0.846200	0.928400
H4381	H438	0.368600	0.847800	0.890800
C6571	C657	0.389200	0.816000	0.955100
C6581	C658	0.383000	0.811600	0.008600
H4391	H439	0.397800	0.790400	0.027500
C6591	C659	0.354600	0.838500	0.036500
H4401	H440	0.348900	0.833900	0.073200
C6601	C660	0.422500	0.789900	0.927300
O1091	O109	0.427800	0.794300	0.877900
O1101	O110	0.444200	0.766200	0.955400
N561	N56	0.040500	0.796000	0.361400
C6611	C661	0.037000	0.800500	0.307700
H4411	H441	0.019600	0.782000	0.287900
C6621	C662	0.059600	0.833000	0.281400
H4421	H442	0.057300	0.835800	0.243900
C6631	C663	0.083800	0.859400	0.308000
C6641	C664	0.085300	0.858300	0.363800
H4431	H443	0.100600	0.878300	0.384100
C6651	C665	0.061900	0.824100	0.388000
H4441	H444	0.062100	0.822100	0.425700
C6661	C666	0.108800	0.892900	0.280400
C6671	C667	0.096800	0.910300	0.232000
H4451	H445	0.069200	0.905100	0.219400
C6681	C668	0.122100	0.933900	0.202400
H4461	H446	0.112300	0.944000	0.169000
C6691	C669	0.175800	0.929300	0.270100
H4471	H447	0.202100	0.937800	0.284600
C6701	C670	0.149600	0.902000	0.299200
H4481	H448	0.159400	0.889800	0.331400
C6711	C671	0.192200	0.968600	0.186300
O1111	O111	0.228000	0.978300	0.207000
O1121	O112	0.181900	0.979100	0.140200
C6721	C672	0.163200	0.944300	0.219200
Ni291	Ni29	0.257550	0.486700	0.640400
Ni301	Ni30	0.014750	0.743290	0.392970
Ni311	Ni31	0.755820	0.984930	0.640290
Ni321	Ni32	0.986230	0.256620	0.891180
N571	N57	0.774800	0.470500	0.098600
C6731	C673	0.777000	0.429600	0.115500
H4491	H449	0.764700	0.423000	0.148900
C6741	C674	0.796300	0.396700	0.087100
H4501	H450	0.796300	0.368600	0.099700
C6751	C675	0.816200	0.408500	0.037200
C6761	C676	0.814600	0.449000	0.020200
H4511	H451	0.827600	0.457200	0.987800
C6771	C677	0.793300	0.478300	0.051600
H4521	H452	0.791700	0.506300	0.038500
C6781	C678	0.840700	0.376600	0.006900
C6791	C679	0.857500	0.340900	0.032600
H4531	H453	0.850000	0.335500	0.068500
C6801	C680	0.884700	0.313400	0.006700
H4541	H454	0.898200	0.291200	0.025500
C6811	C681	0.891700	0.319400	0.952400
C6821	C682	0.874300	0.351500	0.925600
H4551	H455	0.879700	0.354900	0.888600
C6831	C683	0.847200	0.381000	0.953000
H4561	H456	0.834100	0.403200	0.934000
C6841	C684	0.924600	0.292200	0.926200
O1131	O113	0.945600	0.267000	0.953100
O1141	O114	0.931100	0.296600	0.876300
N581	N58	0.204800	0.458800	0.672500
C6851	C685	0.199100	0.465000	0.725900
H4571	H457	0.215200	0.485100	0.744900
C6861	C686	0.168300	0.440300	0.751600
H4581	H458	0.164800	0.443400	0.789000
C6871	C687	0.143500	0.412300	0.725700
C6881	C688	0.149000	0.409000	0.672000
H4591	H459	0.131700	0.390400	0.652100
C6891	C689	0.179600	0.432500	0.646100
H4601	H460	0.182700	0.429800	0.608700
C6901	C690	0.112300	0.389200	0.755900
C6911	C691	0.095900	0.399800	0.803800
H4611	H461	0.102400	0.426700	0.817900
C6921	C692	0.070700	0.374200	0.832600
H4621	H462	0.060700	0.383600	0.866300
C6931	C693	0.059100	0.334700	0.814300
C6941	C694	0.074200	0.321800	0.765000
H4631	H463	0.065600	0.295700	0.750200
C6951	C695	0.102400	0.347700	0.737300
H4641	H464	0.115100	0.337600	0.705500
C6961	C696	0.031700	0.306200	0.846900
O1151	O115	0.021700	0.314600	0.894800
O1161	O116	0.021900	0.270700	0.826900
N591	N59	0.468900	0.274700	0.433000
C6971	C697	0.477500	0.292600	0.479800
H4651	H465	0.505600	0.291500	0.492200
C6981	C698	0.447400	0.313200	0.512200
H4661	H466	0.455000	0.324600	0.545800
C6991	C699	0.407200	0.316000	0.493900
C7001	C700	0.395800	0.297300	0.445100
H4671	H467	0.367800	0.297900	0.432200
C7011	C701	0.429300	0.277200	0.416300
H4681	H468	0.422700	0.264800	0.382900
C7021	C702	0.375700	0.340300	0.525100
C7031	C703	0.380300	0.345800	0.579100
H4691	H469	0.401800	0.331600	0.598300
C7041	C704	0.351900	0.373600	0.605600
H4701	H470	0.355800	0.379800	0.642200
C7051	C705	0.319200	0.391000	0.578900
C7061	C706	0.312800	0.383600	0.526000
H4711	H471	0.290100	0.396500	0.507700
C7071	C707	0.340900	0.356200	0.498800
H4721	H472	0.335800	0.348900	0.462700
C7081	C708	0.292800	0.424400	0.605300
O1171	O117	0.296400	0.431400	0.655500
O1181	O118	0.267600	0.445800	0.578600
N601	N60	0.958200	0.204100	0.858000
C7091	C709	0.930000	0.181600	0.883000
H4731	H473	0.925000	0.186900	0.919700
C7101	C710	0.908000	0.151400	0.858600
H4741	H474	0.889000	0.134900	0.879000
C7111	C711	0.911900	0.143300	0.804700
C7121	C712	0.939400	0.167200	0.778400
H4751	H475	0.943100	0.163700	0.741100
C7131	C713	0.963700	0.198500	0.806700
H4761	H476	0.983800	0.215000	0.788100
C7141	C714	0.887700	0.111700	0.774600
C7151	C715	0.900900	0.094000	0.729200
H4771	H477	0.927900	0.100800	0.715400
C7161	C716	0.874500	0.065200	0.701800
H4781	H478	0.885600	0.050200	0.672300
C7171	C717	0.834400	0.058600	0.716400
C7181	C718	0.820200	0.077000	0.764900
H4791	H479	0.793300	0.069800	0.778600
C7191	C719	0.844700	0.104800	0.791700
H4801	H480	0.833800	0.119500	0.821500
C7201	C720	0.805200	0.030900	0.684100
O1191	O119	0.815300	0.019400	0.638900
O1201	O120	0.770400	0.020800	0.704000
N611	N61	0.968800	0.772800	0.434900
C7211	C721	0.929000	0.776100	0.416000
H4811	H481	0.923100	0.763900	0.382300
C7221	C722	0.896100	0.796000	0.442900
H4821	H482	0.869000	0.798100	0.427200
C7231	C723	0.904000	0.812900	0.493600
C7241	C724	0.946200	0.807600	0.512800
H4831	H483	0.953400	0.817400	0.547300
C7251	C725	0.975500	0.788900	0.482800
H4841	H484	0.003200	0.787000	0.496900
C7261	C726	0.871900	0.836300	0.523600
C7271	C727	0.874900	0.841300	0.577800
H4851	H485	0.895700	0.826300	0.597200
C7281	C728	0.846900	0.869000	0.605300
H4861	H486	0.850200	0.873500	0.642500
C7291	C729	0.815600	0.889100	0.578500
C7301	C730	0.811500	0.882400	0.524300
H4871	H487	0.790200	0.896800	0.505100
C7311	C731	0.838200	0.854700	0.497000
H4881	H488	0.833200	0.848500	0.460500
C7321	C732	0.790200	0.921800	0.607000
O1211	O121	0.765500	0.944300	0.579300
O1221	O122	0.794300	0.928600	0.654900
N621	N62	0.796900	0.541000	0.173400
C7331	C733	0.825400	0.563900	0.146700
H4891	H489	0.822900	0.565400	0.109000
C7341	C734	0.858000	0.585600	0.170300
H4901	H490	0.878000	0.600500	0.149400
C7351	C735	0.861000	0.584800	0.226900
C7361	C736	0.834500	0.559700	0.251500
H4911	H491	0.837100	0.556300	0.289000
C7371	C737	0.803300	0.538100	0.225200
H4921	H492	0.785400	0.520300	0.245400
C7381	C738	0.893100	0.610000	0.254900
C7391	C739	0.901800	0.650100	0.236900
H4931	H493	0.890600	0.659400	0.203800
C7401	C740	0.927400	0.677400	0.267400
H4941	H494	0.932800	0.705300	0.255800
C7411	C741	0.944100	0.662900	0.313800
C7421	C742	0.938200	0.621300	0.330100
H4951	H495	0.952000	0.610800	0.360900
C7431	C743	0.911800	0.595700	0.300600
H4961	H496	0.906700	0.567800	0.312100
C7441	C744	0.970200	0.692400	0.347100
O1231	O123	0.979700	0.727800	0.328100
O1241	O124	0.982500	0.682100	0.394000
N631	N63	0.226600	0.531400	0.599600
C7451	C745	0.210900	0.524500	0.551100
H4971	H497	0.213000	0.496800	0.537300
C7461	C746	0.191500	0.554700	0.518800
H4981	H498	0.181400	0.548000	0.484200
C7471	C747	0.187600	0.596400	0.540600
C7481	C748	0.203500	0.604700	0.589900
H4991	H499	0.201200	0.632000	0.605000
C7491	C749	0.223600	0.571700	0.618300
H5001	H500	0.235500	0.578000	0.652100
C7501	C750	0.164200	0.628800	0.509700
C7511	C751	0.160400	0.625300	0.454700
H5011	H501	0.175400	0.604400	0.435500
C7521	C752	0.133700	0.653800	0.428400
H5021	H502	0.131400	0.652200	0.390800
C7531	C753	0.110800	0.684000	0.455100
C7541	C754	0.117000	0.688400	0.508600
H5031	H503	0.102200	0.709600	0.527500
C7551	C755	0.145400	0.661500	0.536500
H5041	H504	0.151100	0.666100	0.573200
C7561	C756	0.077500	0.710100	0.427300
O1251	O125	0.072200	0.705700	0.377900
O1261	O126	0.055800	0.733800	0.455400
N641	N64	0.459500	0.704000	0.861400
C7571	C757	0.463000	0.699500	0.807700
H5051	H505	0.480400	0.718000	0.787900
C7581	C758	0.440400	0.667000	0.781400
H5061	H506	0.442700	0.664200	0.743900
C7591	C759	0.416200	0.640600	0.808000
C7601	C760	0.414700	0.641700	0.863800
H5071	H507	0.399400	0.621700	0.884100
C7611	C761	0.438100	0.675900	0.888000
H5081	H508	0.437900	0.677900	0.925700
C7621	C762	0.391200	0.607100	0.780400
C7631	C763	0.403200	0.589700	0.732000
H5091	H509	0.430800	0.594900	0.719400
C7641	C764	0.377900	0.566100	0.702400
H5101	H510	0.387700	0.556000	0.669000
C7651	C765	0.324200	0.570700	0.770100
H5111	H511	0.297900	0.562200	0.784600
C7661	C766	0.350400	0.598000	0.799200
H5121	H512	0.340600	0.610200	0.831400
C7671	C767	0.307800	0.531400	0.686300
O1271	O127	0.272000	0.521700	0.707000
O1281	O128	0.318100	0.520900	0.640200
C7681	C768	0.336800	0.555700	0.719200
