data_CAYDIR_freeONLY_PM
_symmetry_space_group_name_H-M	'P1'
_cell_length_a	7.902500
_cell_length_b	12.355000
_cell_length_c	12.355000
_cell_angle_alpha	90.000000
_cell_angle_beta	90.000000
_cell_angle_gamma	90.000000
_symmetry_Int_Tables_number 1

loop_
_symmetry_equiv_pos_as_xyz
'x,y,z'

loop_
_atom_site_label
_atom_site_type_symbol
_atom_site_fract_x
_atom_site_fract_y
_atom_site_fract_z
Cu11	Cu1	0.966480	0.323180	0.015250
Cu21	Cu2	0.466480	0.676820	0.984750
Cu31	Cu3	0.216480	0.984750	0.323180
Cu41	Cu4	0.716480	0.015250	0.676820
H11	H1	0.818100	0.098100	0.106700
H21	H2	0.852800	0.055400	0.224000
H31	H3	0.798400	0.228100	0.294000
H41	H4	0.640400	0.184600	0.230200
H51	H5	0.534100	0.365300	0.158400
H61	H6	0.645000	0.391200	0.260800
H71	H7	0.810700	0.509500	0.158800
H81	H8	0.621100	0.546500	0.157000
H91	H9	0.318100	0.901900	0.893300
H101	H10	0.352800	0.944600	0.776000
H111	H11	0.298400	0.771900	0.706000
H121	H12	0.140400	0.815400	0.769800
H131	H13	0.034100	0.634700	0.841600
H141	H14	0.145000	0.608800	0.739200
H151	H15	0.310700	0.490500	0.841200
H161	H16	0.121100	0.453500	0.843000
H171	H17	0.068100	0.893300	0.098100
H181	H18	0.102800	0.776000	0.055400
H191	H19	0.048400	0.706000	0.228100
H201	H20	0.890400	0.769800	0.184600
H211	H21	0.784100	0.841600	0.365300
H221	H22	0.895000	0.739200	0.391200
H231	H23	0.060700	0.841200	0.509500
H241	H24	0.871100	0.843000	0.546500
H251	H25	0.568100	0.106700	0.901900
H261	H26	0.602800	0.224000	0.944600
H271	H27	0.548400	0.294000	0.771900
H281	H28	0.390400	0.230200	0.815400
H291	H29	0.284100	0.158400	0.634700
H301	H30	0.395000	0.260800	0.608800
H311	H31	0.560700	0.158800	0.490500
H321	H32	0.371100	0.157000	0.453500
C11	C1	0.045900	0.145800	0.165000
C21	C2	0.862800	0.118000	0.177100
C31	C3	0.756800	0.208300	0.222900
C41	C4	0.647000	0.384500	0.182500
C51	C5	0.698700	0.490700	0.132800
C61	C6	0.700900	0.489300	0.012300
C71	C7	0.545900	0.854200	0.835000
C81	C8	0.362800	0.882000	0.822900
C91	C9	0.256800	0.791700	0.777100
C101	C10	0.147000	0.615500	0.817500
C111	C11	0.198700	0.509300	0.867200
C121	C12	0.200900	0.510700	0.987700
C131	C13	0.295900	0.835000	0.145800
C141	C14	0.112800	0.822900	0.118000
C151	C15	0.006800	0.777100	0.208300
C161	C16	0.897000	0.817500	0.384500
C171	C17	0.948700	0.867200	0.490700
C181	C18	0.950900	0.987700	0.489300
C191	C19	0.795900	0.165000	0.854200
C201	C20	0.612800	0.177100	0.882000
C211	C21	0.506800	0.222900	0.791700
C221	C22	0.397000	0.182500	0.615500
C231	C23	0.448700	0.132800	0.509300
C241	C24	0.450900	0.012300	0.510700
N11	N1	0.103700	0.225400	0.100700
N21	N2	0.275100	0.225000	0.108100
N31	N3	0.320200	0.146000	0.172600
N41	N4	0.177500	0.095200	0.210400
N51	N5	0.797400	0.422200	0.954300
N61	N6	0.766600	0.444000	0.849100
N71	N7	0.657800	0.522400	0.843200
N81	N8	0.614000	0.551800	0.946500
N91	N9	0.603700	0.774600	0.899300
N101	N10	0.775100	0.775000	0.891900
N111	N11	0.820200	0.854000	0.827400
N121	N12	0.677500	0.904800	0.789600
N131	N13	0.297400	0.577800	0.045700
N141	N14	0.266600	0.556000	0.150900
N151	N15	0.157800	0.477600	0.156800
N161	N16	0.114000	0.448200	0.053500
N171	N17	0.353700	0.899300	0.225400
N181	N18	0.525100	0.891900	0.225000
N191	N19	0.570200	0.827400	0.146000
N201	N20	0.427500	0.789600	0.095200
N211	N21	0.047400	0.045700	0.422200
N221	N22	0.016600	0.150900	0.444000
N231	N23	0.907800	0.156800	0.522400
N241	N24	0.864000	0.053500	0.551800
N251	N25	0.853700	0.100700	0.774600
N261	N26	0.025100	0.108100	0.775000
N271	N27	0.070200	0.172600	0.854000
N281	N28	0.927500	0.210400	0.904800
N291	N29	0.547400	0.954300	0.577800
N301	N30	0.516600	0.849100	0.556000
N311	N31	0.407800	0.843200	0.477600
N321	N32	0.364000	0.946500	0.448200
O11	O1	0.765000	0.301000	0.151300
O21	O2	0.265000	0.699000	0.848700
O31	O3	0.015000	0.848700	0.301000
O41	O4	0.515000	0.151300	0.699000
