data_CAYDEN_freeONLY_PM
_symmetry_space_group_name_H-M	'P1'
_cell_length_a	7.907300
_cell_length_b	12.299600
_cell_length_c	12.299600
_cell_angle_alpha	90.000000
_cell_angle_beta	90.000000
_cell_angle_gamma	90.000000
_symmetry_Int_Tables_number 1

loop_
_symmetry_equiv_pos_as_xyz
'x,y,z'

loop_
_atom_site_label
_atom_site_type_symbol
_atom_site_fract_x
_atom_site_fract_y
_atom_site_fract_z
Cu11	Cu1	0.347570	0.323550	0.015400
Cu21	Cu2	0.847570	0.676450	0.984600
Cu31	Cu3	0.097570	0.984600	0.323550
Cu41	Cu4	0.597570	0.015400	0.676450
H11	H1	0.460200	0.054100	0.223800
H21	H2	0.493300	0.096500	0.105600
H31	H3	0.673000	0.185400	0.229400
H41	H4	0.515200	0.229300	0.293400
H51	H5	0.664700	0.390300	0.262700
H61	H6	0.778900	0.364100	0.161600
H71	H7	0.695000	0.546700	0.158300
H81	H8	0.504800	0.511400	0.158800
H91	H9	0.960200	0.945900	0.776200
H101	H10	0.993300	0.903500	0.894400
H111	H11	0.173000	0.814600	0.770600
H121	H12	0.015200	0.770700	0.706600
H131	H13	0.164700	0.609700	0.737300
H141	H14	0.278900	0.635900	0.838400
H151	H15	0.195000	0.453300	0.841700
H161	H16	0.004800	0.488600	0.841200
H171	H17	0.210200	0.776200	0.054100
H181	H18	0.243300	0.894400	0.096500
H191	H19	0.423000	0.770600	0.185400
H201	H20	0.265200	0.706600	0.229300
H211	H21	0.414700	0.737300	0.390300
H221	H22	0.528900	0.838400	0.364100
H231	H23	0.445000	0.841700	0.546700
H241	H24	0.254800	0.841200	0.511400
H251	H25	0.710200	0.223800	0.945900
H261	H26	0.743300	0.105600	0.903500
H271	H27	0.923000	0.229400	0.814600
H281	H28	0.765200	0.293400	0.770700
H291	H29	0.914700	0.262700	0.609700
H301	H30	0.028900	0.161600	0.635900
H311	H31	0.945000	0.158300	0.453300
H321	H32	0.754800	0.158800	0.488600
C11	C1	0.266700	0.145500	0.165600
C21	C2	0.449700	0.116800	0.176400
C31	C3	0.556600	0.209200	0.222000
C41	C4	0.665400	0.383800	0.184100
C51	C5	0.616700	0.491400	0.133400
C61	C6	0.616200	0.490500	0.011400
C71	C7	0.766700	0.854500	0.834400
C81	C8	0.949700	0.883200	0.823600
C91	C9	0.056600	0.790800	0.778000
C101	C10	0.165400	0.616200	0.815900
C111	C11	0.116700	0.508600	0.866600
C121	C12	0.116200	0.509500	0.988600
C131	C13	0.016700	0.834400	0.145500
C141	C14	0.199700	0.823600	0.116800
C151	C15	0.306600	0.778000	0.209200
C161	C16	0.415400	0.815900	0.383800
C171	C17	0.366700	0.866600	0.491400
C181	C18	0.366200	0.988600	0.490500
C191	C19	0.516700	0.165600	0.854500
C201	C20	0.699700	0.176400	0.883200
C211	C21	0.806600	0.222000	0.790800
C221	C22	0.915400	0.184100	0.616200
C231	C23	0.866700	0.133400	0.508600
C241	C24	0.866200	0.011400	0.509500
N11	N1	0.210600	0.225400	0.101100
N21	N2	0.038700	0.225900	0.108700
N31	N3	0.993900	0.147000	0.172900
N41	N4	0.136400	0.095300	0.211400
N51	N5	0.516000	0.421800	0.953200
N61	N6	0.545700	0.443500	0.847700
N71	N7	0.657100	0.521600	0.842700
N81	N8	0.701300	0.551000	0.945300
N91	N9	0.710600	0.774600	0.898900
N101	N10	0.538700	0.774100	0.891300
N111	N11	0.493900	0.853000	0.827100
N121	N12	0.636400	0.904700	0.788600
N131	N13	0.016000	0.578200	0.046800
N141	N14	0.045700	0.556500	0.152300
N151	N15	0.157100	0.478400	0.157300
N161	N16	0.201300	0.449000	0.054700
N171	N17	0.960600	0.898900	0.225400
N181	N18	0.788700	0.891300	0.225900
N191	N19	0.743900	0.827100	0.147000
N201	N20	0.886400	0.788600	0.095300
N211	N21	0.266000	0.046800	0.421800
N221	N22	0.295700	0.152300	0.443500
N231	N23	0.407100	0.157300	0.521600
N241	N24	0.451300	0.054700	0.551000
N251	N25	0.460600	0.101100	0.774600
N261	N26	0.288700	0.108700	0.774100
N271	N27	0.243900	0.172900	0.853000
N281	N28	0.386400	0.211400	0.904700
N291	N29	0.766000	0.953200	0.578200
N301	N30	0.795700	0.847700	0.556500
N311	N31	0.907100	0.842700	0.478400
N321	N32	0.951300	0.945300	0.449000
O11	O1	0.549100	0.300900	0.151300
O21	O2	0.049100	0.699100	0.848700
O31	O3	0.299100	0.848700	0.300900
O41	O4	0.799100	0.151300	0.699100
