data_CAYSOL_freeONLY_PM
_symmetry_space_group_name_H-M	'P1'
_cell_length_a	14.754000
_cell_length_b	23.596000
_cell_length_c	9.273000
_cell_angle_alpha	90.000000
_cell_angle_beta	90.000000
_cell_angle_gamma	90.000000
_symmetry_Int_Tables_number 1

loop_
_symmetry_equiv_pos_as_xyz
'x,y,z'

loop_
_atom_site_label
_atom_site_type_symbol
_atom_site_fract_x
_atom_site_fract_y
_atom_site_fract_z
Fe11	Fe1	0.175430	0.804490	0.663870
Cl11	Cl1	0.065540	0.745280	0.566700
O11	O1	0.336800	0.875690	0.358500
O21	O2	0.366800	0.928080	0.610100
O31	O3	0.982400	0.930450	0.715700
O41	O4	0.268300	0.869780	0.717500
C11	C1	0.043200	0.890900	0.717500
C21	C2	0.310400	0.887600	0.609400
Fe21	Fe2	0.175430	0.304490	0.163870
Cl21	Cl2	0.065540	0.245280	0.066700
O51	O5	0.336800	0.375690	0.858500
O61	O6	0.366800	0.428080	0.110100
O71	O7	0.982400	0.430450	0.215700
O81	O8	0.268300	0.369780	0.217500
C31	C3	0.043200	0.390900	0.217500
C41	C4	0.310400	0.387600	0.109400
Fe31	Fe3	0.675430	0.804490	0.163870
Cl31	Cl3	0.565540	0.745280	0.066700
O91	O9	0.836800	0.875690	0.858500
O101	O10	0.866800	0.928080	0.110100
O111	O11	0.482400	0.930450	0.215700
O121	O12	0.768300	0.869780	0.217500
C51	C5	0.543200	0.890900	0.217500
C61	C6	0.810400	0.887600	0.109400
Fe41	Fe4	0.675430	0.304490	0.663870
Cl41	Cl4	0.565540	0.245280	0.566700
O131	O13	0.836800	0.375690	0.358500
O141	O14	0.866800	0.428080	0.610100
O151	O15	0.482400	0.430450	0.715700
O161	O16	0.768300	0.369780	0.717500
C71	C7	0.543200	0.390900	0.717500
C81	C8	0.810400	0.387600	0.609400
Fe51	Fe5	0.824570	0.195510	0.663870
Cl51	Cl5	0.934460	0.254720	0.566700
O171	O17	0.663200	0.124310	0.358500
O181	O18	0.633200	0.071920	0.610100
O191	O19	0.017600	0.069550	0.715700
O201	O20	0.731700	0.130220	0.717500
C91	C9	0.956800	0.109100	0.717500
C101	C10	0.689600	0.112400	0.609400
Fe61	Fe6	0.824570	0.695510	0.163870
Cl61	Cl6	0.934460	0.754720	0.066700
O211	O21	0.663200	0.624310	0.858500
O221	O22	0.633200	0.571920	0.110100
O231	O23	0.017600	0.569550	0.215700
O241	O24	0.731700	0.630220	0.217500
C111	C11	0.956800	0.609100	0.217500
C121	C12	0.689600	0.612400	0.109400
Fe71	Fe7	0.324570	0.195510	0.163870
Cl71	Cl7	0.434460	0.254720	0.066700
O251	O25	0.163200	0.124310	0.858500
O261	O26	0.133200	0.071920	0.110100
O271	O27	0.517600	0.069550	0.215700
O281	O28	0.231700	0.130220	0.217500
C131	C13	0.456800	0.109100	0.217500
C141	C14	0.189600	0.112400	0.109400
Fe81	Fe8	0.324570	0.695510	0.663870
Cl81	Cl8	0.434460	0.754720	0.566700
O291	O29	0.163200	0.624310	0.358500
O301	O30	0.133200	0.571920	0.610100
O311	O31	0.517600	0.569550	0.715700
O321	O32	0.231700	0.630220	0.717500
C151	C15	0.456800	0.609100	0.717500
C161	C16	0.189600	0.612400	0.609400
Fe91	Fe9	0.425430	0.445510	0.913870
Cl91	Cl9	0.315540	0.504720	0.816700
O331	O33	0.586800	0.374310	0.608500
O341	O34	0.616800	0.321920	0.860100
O351	O35	0.232400	0.319550	0.965700
O361	O36	0.518300	0.380220	0.967500
C171	C17	0.293200	0.359100	0.967500
C181	C18	0.560400	0.362400	0.859400
Fe101	Fe10	0.425430	0.945510	0.413870
Cl101	Cl10	0.315540	0.004720	0.316700
O371	O37	0.586800	0.874310	0.108500
O381	O38	0.616800	0.821920	0.360100
O391	O39	0.232400	0.819550	0.465700
O401	O40	0.518300	0.880220	0.467500
C191	C19	0.293200	0.859100	0.467500
C201	C20	0.560400	0.862400	0.359400
Fe111	Fe11	0.925430	0.445510	0.413870
Cl111	Cl11	0.815540	0.504720	0.316700
O411	O41	0.086800	0.374310	0.108500
O421	O42	0.116800	0.321920	0.360100
O431	O43	0.732400	0.319550	0.465700
O441	O44	0.018300	0.380220	0.467500
C211	C21	0.793200	0.359100	0.467500
C221	C22	0.060400	0.362400	0.359400
Fe121	Fe12	0.925430	0.945510	0.913870
Cl121	Cl12	0.815540	0.004720	0.816700
O451	O45	0.086800	0.874310	0.608500
O461	O46	0.116800	0.821920	0.860100
O471	O47	0.732400	0.819550	0.965700
O481	O48	0.018300	0.880220	0.967500
C231	C23	0.793200	0.859100	0.967500
C241	C24	0.060400	0.862400	0.859400
Fe131	Fe13	0.074570	0.054490	0.913870
Cl131	Cl13	0.184460	0.995280	0.816700
O491	O49	0.913200	0.125690	0.608500
O501	O50	0.883200	0.178080	0.860100
O511	O51	0.267600	0.180450	0.965700
O521	O52	0.981700	0.119780	0.967500
C251	C25	0.206800	0.140900	0.967500
C261	C26	0.939600	0.137600	0.859400
Fe141	Fe14	0.074570	0.554490	0.413870
Cl141	Cl14	0.184460	0.495280	0.316700
O531	O53	0.913200	0.625690	0.108500
O541	O54	0.883200	0.678080	0.360100
O551	O55	0.267600	0.680450	0.465700
O561	O56	0.981700	0.619780	0.467500
C271	C27	0.206800	0.640900	0.467500
C281	C28	0.939600	0.637600	0.359400
Fe151	Fe15	0.574570	0.054490	0.413870
Cl151	Cl15	0.684460	0.995280	0.316700
O571	O57	0.413200	0.125690	0.108500
O581	O58	0.383200	0.178080	0.360100
O591	O59	0.767600	0.180450	0.465700
O601	O60	0.481700	0.119780	0.467500
C291	C29	0.706800	0.140900	0.467500
C301	C30	0.439600	0.137600	0.359400
Fe161	Fe16	0.574570	0.554490	0.913870
Cl161	Cl16	0.684460	0.495280	0.816700
O611	O61	0.413200	0.625690	0.608500
O621	O62	0.383200	0.678080	0.860100
O631	O63	0.767600	0.680450	0.965700
O641	O64	0.481700	0.619780	0.967500
C311	C31	0.706800	0.640900	0.967500
C321	C32	0.439600	0.637600	0.859400
O651	O65	0.250000	0.750000	0.737600
O661	O66	0.250000	0.250000	0.237600
O671	O67	0.750000	0.250000	0.737600
O681	O68	0.750000	0.750000	0.237600
O691	O69	0.500000	0.500000	0.987600
O701	O70	0.500000	0.000000	0.487600
O711	O71	0.000000	0.000000	0.987600
O721	O72	0.000000	0.500000	0.487600
