data_CAYSOK_freeONLY_PM
_symmetry_space_group_name_H-M	'P1'
_cell_length_a	9.340970
_cell_length_b	19.169900
_cell_length_c	19.169900
_cell_angle_alpha	62.585300
_cell_angle_beta	80.652400
_cell_angle_gamma	99.347600
_symmetry_Int_Tables_number 1

loop_
_symmetry_equiv_pos_as_xyz
'x,y,z'

loop_
_atom_site_label
_atom_site_type_symbol
_atom_site_fract_x
_atom_site_fract_y
_atom_site_fract_z
Mn11	Mn1	0.000000	0.500000	0.000000
Mn21	Mn2	0.000000	0.000000	0.500000
Mn31	Mn3	0.500000	0.500000	0.500000
H11	H1	0.746400	0.647200	0.780100
H21	H2	0.581400	0.506800	0.857200
H31	H3	0.413400	0.764000	0.885200
H41	H4	0.243300	0.804000	0.798000
H51	H5	0.616300	0.592800	0.984600
H61	H6	0.824200	0.668800	0.989200
H71	H7	0.596400	0.786200	0.055600
H81	H8	0.381200	0.716500	0.054000
H91	H9	0.161500	0.742200	0.683400
H101	H10	0.833500	0.141800	0.431500
H111	H11	0.127800	0.091100	0.309700
H121	H12	0.850200	0.791800	0.809500
H131	H13	0.526500	0.780100	0.572700
H141	H14	0.438600	0.857200	0.636000
H151	H15	0.298600	0.885200	0.350800
H161	H16	0.041300	0.798000	0.398000
H171	H17	0.600900	0.984600	0.422600
H181	H18	0.813400	0.989200	0.342000
H191	H19	0.652000	0.055600	0.158200
H201	H20	0.435200	0.054000	0.229500
H211	H21	0.844900	0.683400	0.574400
H221	H22	0.265000	0.431500	0.426700
H231	H23	0.437500	0.309700	0.599200
H241	H24	0.659700	0.809500	0.398700
H251	H25	0.099200	0.572700	0.647200
H261	H26	0.074600	0.636000	0.506800
H271	H27	0.649400	0.350800	0.764000
H281	H28	0.439300	0.398000	0.804000
H291	H29	0.023500	0.422600	0.592800
H301	H30	0.155400	0.342000	0.668800
H311	H31	0.810200	0.158200	0.786200
H321	H32	0.664700	0.229500	0.716500
H331	H33	0.419300	0.574400	0.742200
H341	H34	0.691700	0.426700	0.141800
H351	H35	0.036700	0.599200	0.091100
H361	H36	0.058400	0.398700	0.791800
H371	H37	0.253600	0.352800	0.219900
H381	H38	0.418600	0.493200	0.142800
H391	H39	0.586600	0.236000	0.114800
H401	H40	0.756700	0.196000	0.202000
H411	H41	0.383700	0.407200	0.015400
H421	H42	0.175800	0.331200	0.010800
H431	H43	0.403600	0.213800	0.944400
H441	H44	0.618800	0.283500	0.946000
H451	H45	0.838500	0.257800	0.316600
H461	H46	0.166500	0.858200	0.568500
H471	H47	0.872200	0.908900	0.690300
H481	H48	0.149800	0.208200	0.190500
H491	H49	0.473500	0.219900	0.427300
H501	H50	0.561400	0.142800	0.364000
H511	H51	0.701400	0.114800	0.649200
H521	H52	0.958700	0.202000	0.602000
H531	H53	0.399100	0.015400	0.577400
H541	H54	0.186600	0.010800	0.658000
H551	H55	0.348000	0.944400	0.841800
H561	H56	0.564800	0.946000	0.770500
H571	H57	0.155100	0.316600	0.425600
H581	H58	0.735000	0.568500	0.573300
H591	H59	0.562500	0.690300	0.400800
H601	H60	0.340300	0.190500	0.601300
H611	H61	0.900800	0.427300	0.352800
H621	H62	0.925400	0.364000	0.493200
H631	H63	0.350600	0.649200	0.236000
H641	H64	0.560700	0.602000	0.196000
H651	H65	0.976500	0.577400	0.407200
H661	H66	0.844600	0.658000	0.331200
H671	H67	0.189800	0.841800	0.213800
H681	H68	0.335300	0.770500	0.283500
H691	H69	0.580700	0.425600	0.257800
H701	H70	0.308300	0.573300	0.858200
H711	H71	0.963300	0.400800	0.908900
H721	H72	0.941600	0.601300	0.208200
C11	C1	0.125400	0.393300	0.135500
C21	C2	0.758300	0.604000	0.826000
C31	C3	0.667400	0.526800	0.868200
C41	C4	0.730000	0.482100	0.933000
C51	C5	0.672500	0.399300	0.988500
C61	C6	0.739200	0.354900	0.048200
C71	C7	0.324000	0.730400	0.890300
C81	C8	0.231900	0.752500	0.841900
C91	C9	0.110700	0.679300	0.872500
C101	C10	0.005300	0.324100	0.163200
C111	C11	0.470400	0.646100	0.017200
C121	C12	0.607800	0.632400	0.999000
C131	C13	0.732100	0.678500	0.002200
C141	C14	0.600200	0.746500	0.040800
C151	C15	0.471000	0.705200	0.039700
C161	C16	0.997100	0.247700	0.239500
C171	C17	0.900600	0.225600	0.313100
C181	C18	0.896700	0.154900	0.381900
C191	C19	0.068800	0.125300	0.311500
C201	C20	0.916800	0.803900	0.761300
C211	C21	0.260900	0.135500	0.471200
C221	C22	0.584300	0.826000	0.570000
C231	C23	0.535600	0.868200	0.605000
C241	C24	0.663000	0.933000	0.584900
C251	C25	0.661000	0.988500	0.612200
C261	C26	0.787400	0.048200	0.596900
C271	C27	0.214300	0.890300	0.379300
C281	C28	0.073800	0.841900	0.405600
C291	C29	0.983200	0.872500	0.448200
C301	C30	0.168500	0.163200	0.512700
C311	C31	0.487600	0.017200	0.336700
C321	C32	0.606800	0.999000	0.368600
C331	C33	0.734300	0.002200	0.319300
C341	C34	0.641000	0.040800	0.212700
C351	C35	0.510700	0.039700	0.255100
C361	C36	0.236600	0.239500	0.512800
C371	C37	0.213700	0.313100	0.461300
C381	C38	0.278600	0.381900	0.463200
C391	C39	0.380300	0.311500	0.563200
C401	C40	0.678100	0.761300	0.434800
C411	C41	0.732100	0.471200	0.393300
C421	C42	0.154300	0.570000	0.604000
C431	C43	0.140600	0.605000	0.526800
C441	C44	0.247900	0.584900	0.482100
C451	C45	0.273200	0.612200	0.399300
C461	C46	0.384300	0.596900	0.354900
C471	C47	0.593600	0.379300	0.730400
C481	C48	0.479400	0.405600	0.752500
C491	C49	0.431400	0.448200	0.679300
C501	C50	0.681200	0.512700	0.324100
C511	C51	0.824300	0.336700	0.646100
C521	C52	0.975400	0.368600	0.632400
C531	C53	0.053600	0.319300	0.678500
C541	C54	0.853700	0.212700	0.746500
C551	C55	0.765800	0.255100	0.705200
C561	C56	0.749400	0.512800	0.247700
C571	C57	0.675000	0.461300	0.225600
C581	C58	0.741800	0.463200	0.154900
C591	C59	0.943500	0.563200	0.125300
C601	C60	0.112900	0.434800	0.803900
C611	C61	0.874600	0.606700	0.864500
C621	C62	0.241700	0.396000	0.174000
C631	C63	0.332600	0.473200	0.131800
C641	C64	0.270000	0.517900	0.067000
C651	C65	0.327500	0.600700	0.011500
C661	C66	0.260800	0.645100	0.951800
C671	C67	0.676000	0.269600	0.109700
C681	C68	0.768100	0.247500	0.158100
C691	C69	0.889300	0.320700	0.127500
C701	C70	0.994700	0.675900	0.836800
C711	C71	0.529600	0.353900	0.982800
C721	C72	0.392200	0.367600	0.001000
C731	C73	0.267900	0.321500	0.997800
C741	C74	0.399800	0.253500	0.959200
C751	C75	0.529000	0.294800	0.960300
C761	C76	0.002900	0.752300	0.760500
C771	C77	0.099400	0.774400	0.686900
C781	C78	0.103300	0.845100	0.618100
C791	C79	0.931200	0.874700	0.688500
C801	C80	0.083200	0.196100	0.238700
C811	C81	0.739100	0.864500	0.528800
C821	C82	0.415700	0.174000	0.430000
C831	C83	0.464400	0.131800	0.395000
C841	C84	0.337000	0.067000	0.415100
C851	C85	0.339000	0.011500	0.387800
C861	C86	0.212600	0.951800	0.403100
C871	C87	0.785700	0.109700	0.620700
C881	C88	0.926200	0.158100	0.594400
C891	C89	0.016800	0.127500	0.551800
C901	C90	0.831500	0.836800	0.487300
C911	C91	0.512400	0.982800	0.663300
C921	C92	0.393200	0.001000	0.631400
C931	C93	0.265700	0.997800	0.680700
C941	C94	0.359000	0.959200	0.787300
C951	C95	0.489300	0.960300	0.744900
C961	C96	0.763400	0.760500	0.487200
C971	C97	0.786300	0.686900	0.538700
C981	C98	0.721400	0.618100	0.536800
C991	C99	0.619700	0.688500	0.436800
C1001	C100	0.321900	0.238700	0.565200
C1011	C101	0.267900	0.528800	0.606700
C1021	C102	0.845700	0.430000	0.396000
C1031	C103	0.859400	0.395000	0.473200
C1041	C104	0.752100	0.415100	0.517900
C1051	C105	0.726800	0.387800	0.600700
C1061	C106	0.615700	0.403100	0.645100
C1071	C107	0.406400	0.620700	0.269600
C1081	C108	0.520600	0.594400	0.247500
C1091	C109	0.568600	0.551800	0.320700
C1101	C110	0.318800	0.487300	0.675900
C1111	C111	0.175700	0.663300	0.353900
C1121	C112	0.024600	0.631400	0.367600
C1131	C113	0.946400	0.680700	0.321500
C1141	C114	0.146300	0.787300	0.253500
C1151	C115	0.234200	0.744900	0.294800
C1161	C116	0.250600	0.487200	0.752300
C1171	C117	0.325000	0.538700	0.774400
C1181	C118	0.258200	0.536800	0.845100
C1191	C119	0.056500	0.436800	0.874700
C1201	C120	0.887100	0.565200	0.196100
N11	N1	0.144670	0.468940	0.068130
N21	N2	0.871070	0.386140	0.058830
N31	N3	0.731900	0.734000	0.022300
N41	N4	0.979200	0.103600	0.381300
N51	N5	0.212800	0.068130	0.462930
N61	N6	0.929900	0.058830	0.555030
N71	N7	0.754200	0.022300	0.243700
N81	N8	0.360500	0.381300	0.515100
N91	N9	0.675730	0.462930	0.468940
N101	N10	0.484930	0.555030	0.386140
N111	N11	0.997900	0.243700	0.734000
N121	N12	0.875600	0.515100	0.103600
N131	N13	0.855330	0.531060	0.931870
N141	N14	0.128930	0.613860	0.941170
N151	N15	0.268100	0.266000	0.977700
N161	N16	0.020800	0.896400	0.618700
N171	N17	0.787200	0.931870	0.537070
N181	N18	0.070100	0.941170	0.444970
N191	N19	0.245800	0.977700	0.756300
N201	N20	0.639500	0.618700	0.484900
N211	N21	0.324270	0.537070	0.531060
N221	N22	0.515070	0.444970	0.613860
N231	N23	0.002100	0.756300	0.266000
N241	N24	0.124400	0.484900	0.896400
