data_CAZFOA_freeONLY_PM
_symmetry_space_group_name_H-M	'P1'
_cell_length_a	10.354700
_cell_length_b	10.517200
_cell_length_c	12.390000
_cell_angle_alpha	70.646000
_cell_angle_beta	89.451000
_cell_angle_gamma	63.849000
_symmetry_Int_Tables_number 1

loop_
_symmetry_equiv_pos_as_xyz
'x,y,z'

loop_
_atom_site_label
_atom_site_type_symbol
_atom_site_fract_x
_atom_site_fract_y
_atom_site_fract_z
Co11	Co1	0.000000	0.000000	0.000000
Co21	Co2	0.000000	0.500000	0.000000
H11	H1	0.893300	0.731600	0.061900
H21	H2	0.806800	0.670700	0.117100
H31	H3	0.386700	0.462900	0.775200
H41	H4	0.717300	0.452100	0.019300
H51	H5	0.841500	0.659800	0.751800
H61	H6	0.665800	0.678700	0.629400
H71	H7	0.538400	0.463500	0.904300
H81	H8	0.401100	0.779500	0.334000
H91	H9	0.284800	0.893700	0.147600
H101	H10	0.989200	0.761600	0.233800
H111	H11	0.095600	0.647900	0.425000
H121	H12	0.689100	0.012400	0.321300
H131	H13	0.813700	0.945700	0.498400
H141	H14	0.061100	0.130000	0.344100
H151	H15	0.106700	0.268400	0.938100
H161	H16	0.193200	0.329300	0.882900
H171	H17	0.613300	0.537100	0.224800
H181	H18	0.282700	0.547900	0.980700
H191	H19	0.158500	0.340200	0.248200
H201	H20	0.334200	0.321300	0.370600
H211	H21	0.461600	0.536500	0.095700
H221	H22	0.598900	0.220500	0.666000
H231	H23	0.715200	0.106300	0.852400
H241	H24	0.010800	0.238400	0.766200
H251	H25	0.904400	0.352100	0.575000
H261	H26	0.310900	0.987600	0.678700
H271	H27	0.186300	0.054300	0.501600
H281	H28	0.938900	0.870000	0.655900
C11	C1	0.708600	0.496000	0.939300
C21	C2	0.781200	0.617500	0.783200
C31	C3	0.674300	0.631100	0.708900
C41	C4	0.580400	0.574500	0.751700
C51	C5	0.599100	0.504300	0.871000
C61	C6	0.467500	0.585500	0.673400
C71	C7	0.330300	0.639500	0.523500
C81	C8	0.259500	0.704900	0.401700
C91	C9	0.315600	0.776800	0.316000
C101	C10	0.245500	0.844500	0.204200
C111	C11	0.071700	0.767800	0.254800
C121	C12	0.135300	0.698300	0.369800
C131	C13	0.731800	0.111300	0.112500
C141	C14	0.809700	0.094900	0.222900
C151	C15	0.768700	0.030600	0.325000
C161	C16	0.842000	0.992800	0.431800
C171	C17	0.957600	0.023800	0.441900
C181	C18	0.989900	0.099900	0.339800
C191	C19	0.921000	0.133600	0.230900
C201	C20	0.967800	0.218200	0.127700
C211	C21	0.291400	0.504000	0.060700
C221	C22	0.218800	0.382500	0.216800
C231	C23	0.325700	0.368900	0.291100
C241	C24	0.419600	0.425500	0.248300
C251	C25	0.400900	0.495700	0.129000
C261	C26	0.532500	0.414500	0.326600
C271	C27	0.669700	0.360500	0.476500
C281	C28	0.740500	0.295100	0.598300
C291	C29	0.684400	0.223200	0.684000
C301	C30	0.754500	0.155500	0.795800
C311	C31	0.928300	0.232200	0.745200
C321	C32	0.864700	0.301700	0.630200
C331	C33	0.268200	0.888700	0.887500
C341	C34	0.190300	0.905100	0.777100
C351	C35	0.231300	0.969400	0.675000
C361	C36	0.158000	0.007200	0.568200
C371	C37	0.042400	0.976200	0.558100
C381	C38	0.010100	0.900100	0.660200
C391	C39	0.079000	0.866400	0.769100
C401	C40	0.032200	0.781800	0.872300
N11	N1	0.384800	0.517800	0.705500
N21	N2	0.296000	0.549900	0.610100
N31	N3	0.436400	0.663700	0.558900
N41	N4	0.803400	0.547300	0.897700
N51	N5	0.122900	0.843500	0.171900
N61	N6	0.615200	0.482200	0.294500
N71	N7	0.704000	0.450100	0.389900
N81	N8	0.563600	0.336300	0.441100
N91	N9	0.196600	0.452700	0.102300
N101	N10	0.877100	0.156500	0.828100
O11	O1	0.979300	0.330000	0.133000
O21	O2	0.994100	0.177200	0.041500
O31	O3	0.596200	0.188900	0.092100
O41	O4	0.804200	0.035400	0.053700
O51	O5	0.881300	0.652500	0.083500
O61	O6	0.020700	0.670000	0.867000
O71	O7	0.005900	0.822800	0.958500
O81	O8	0.403800	0.811100	0.907900
O91	O9	0.195800	0.964600	0.946300
O101	O10	0.118700	0.347500	0.916500
