data_CAZGOZ_freeONLY_PM
_symmetry_space_group_name_H-M	'P1'
_cell_length_a	19.666000
_cell_length_b	19.666000
_cell_length_c	19.666000
_cell_angle_alpha	90.000000
_cell_angle_beta	90.000000
_cell_angle_gamma	90.000000
_symmetry_Int_Tables_number 1

loop_
_symmetry_equiv_pos_as_xyz
'x,y,z'

loop_
_atom_site_label
_atom_site_type_symbol
_atom_site_fract_x
_atom_site_fract_y
_atom_site_fract_z
N11	N1	0.249800	0.679600	0.322400
C11	C1	0.193900	0.744100	0.609700
H11	H1	0.152700	0.740800	0.632800
C21	C2	0.192700	0.742400	0.539100
H21	H2	0.151500	0.735900	0.516700
C31	C3	0.248400	0.687800	0.392500
C41	C4	0.247600	0.622800	0.426100
H31	H3	0.246800	0.615300	0.472800
C51	C5	0.248400	0.575500	0.377600
H41	H4	0.247400	0.528700	0.384400
C61	C6	0.251100	0.609700	0.312600
C71	C7	0.306800	0.466700	0.245700
H51	H5	0.348100	0.489400	0.241100
C81	C8	0.306400	0.396900	0.247900
H61	H6	0.347900	0.374300	0.247900
N21	N2	0.250200	0.820400	0.322400
C91	C9	0.306100	0.755900	0.609700
H71	H7	0.347300	0.759200	0.632800
C101	C10	0.307300	0.757600	0.539100
H81	H8	0.348500	0.764100	0.516700
C111	C11	0.251600	0.812200	0.392500
C121	C12	0.252400	0.877200	0.426100
H91	H9	0.253200	0.884700	0.472800
C131	C13	0.251600	0.924500	0.377600
H101	H10	0.252600	0.971300	0.384400
C141	C14	0.248900	0.890300	0.312600
C151	C15	0.193200	0.033300	0.245700
H111	H11	0.151900	0.010600	0.241100
C161	C16	0.193600	0.103100	0.247900
H121	H12	0.152100	0.125700	0.247900
N31	N3	0.250200	0.679600	0.177600
C171	C17	0.306100	0.744100	0.890300
H131	H13	0.347300	0.740800	0.867200
C181	C18	0.307300	0.742400	0.960900
H141	H14	0.348500	0.735900	0.983300
C191	C19	0.251600	0.687800	0.107500
C201	C20	0.252400	0.622800	0.073900
H151	H15	0.253200	0.615300	0.027200
C211	C21	0.251600	0.575500	0.122400
H161	H16	0.252600	0.528700	0.115600
C221	C22	0.248900	0.609700	0.187400
C231	C23	0.193200	0.466700	0.254300
H171	H17	0.151900	0.489400	0.258900
C241	C24	0.193600	0.396900	0.252100
H181	H18	0.152100	0.374300	0.252100
N41	N4	0.249800	0.820400	0.177600
C251	C25	0.193900	0.755900	0.890300
H191	H19	0.152700	0.759200	0.867200
C261	C26	0.192700	0.757600	0.960900
H201	H20	0.151500	0.764100	0.983300
C271	C27	0.248400	0.812200	0.107500
C281	C28	0.247600	0.877200	0.073900
H211	H21	0.246800	0.884700	0.027200
C291	C29	0.248400	0.924500	0.122400
H221	H22	0.247400	0.971300	0.115600
C301	C30	0.251100	0.890300	0.187400
C311	C31	0.306800	0.033300	0.254300
H231	H23	0.348100	0.010600	0.258900
C321	C32	0.306400	0.103100	0.252100
H241	H24	0.347900	0.125700	0.252100
N51	N5	0.322400	0.249800	0.679600
C331	C33	0.609700	0.193900	0.744100
H251	H25	0.632800	0.152700	0.740800
C341	C34	0.539100	0.192700	0.742400
H261	H26	0.516700	0.151500	0.735900
C351	C35	0.392500	0.248400	0.687800
C361	C36	0.426100	0.247600	0.622800
H271	H27	0.472800	0.246800	0.615300
C371	C37	0.377600	0.248400	0.575500
H281	H28	0.384400	0.247400	0.528700
C381	C38	0.312600	0.251100	0.609700
C391	C39	0.245700	0.306800	0.466700
H291	H29	0.241100	0.348100	0.489400
C401	C40	0.247900	0.306400	0.396900
H301	H30	0.247900	0.347900	0.374300
N61	N6	0.322400	0.250200	0.820400
C411	C41	0.609700	0.306100	0.755900
H311	H31	0.632800	0.347300	0.759200
C421	C42	0.539100	0.307300	0.757600
H321	H32	0.516700	0.348500	0.764100
C431	C43	0.392500	0.251600	0.812200
C441	C44	0.426100	0.252400	0.877200
H331	H33	0.472800	0.253200	0.884700
C451	C45	0.377600	0.251600	0.924500
H341	H34	0.384400	0.252600	0.971300
C461	C46	0.312600	0.248900	0.890300
C471	C47	0.245700	0.193200	0.033300
H351	H35	0.241100	0.151900	0.010600
C481	C48	0.247900	0.193600	0.103100
H361	H36	0.247900	0.152100	0.125700
N71	N7	0.177600	0.250200	0.679600
C491	C49	0.890300	0.306100	0.744100
H371	H37	0.867200	0.347300	0.740800
C501	C50	0.960900	0.307300	0.742400
H381	H38	0.983300	0.348500	0.735900
C511	C51	0.107500	0.251600	0.687800
C521	C52	0.073900	0.252400	0.622800
H391	H39	0.027200	0.253200	0.615300
C531	C53	0.122400	0.251600	0.575500
H401	H40	0.115600	0.252600	0.528700
C541	C54	0.187400	0.248900	0.609700
C551	C55	0.254300	0.193200	0.466700
H411	H41	0.258900	0.151900	0.489400
C561	C56	0.252100	0.193600	0.396900
H421	H42	0.252100	0.152100	0.374300
N81	N8	0.177600	0.249800	0.820400
C571	C57	0.890300	0.193900	0.755900
H431	H43	0.867200	0.152700	0.759200
C581	C58	0.960900	0.192700	0.757600
H441	H44	0.983300	0.151500	0.764100
C591	C59	0.107500	0.248400	0.812200
C601	C60	0.073900	0.247600	0.877200
H451	H45	0.027200	0.246800	0.884700
C611	C61	0.122400	0.248400	0.924500
H461	H46	0.115600	0.247400	0.971300
C621	C62	0.187400	0.251100	0.890300
C631	C63	0.254300	0.306800	0.033300
H471	H47	0.258900	0.348100	0.010600
C641	C64	0.252100	0.306400	0.103100
H481	H48	0.252100	0.347900	0.125700
N91	N9	0.679600	0.322400	0.249800
C651	C65	0.744100	0.609700	0.193900
H491	H49	0.740800	0.632800	0.152700
C661	C66	0.742400	0.539100	0.192700
H501	H50	0.735900	0.516700	0.151500
C671	C67	0.687800	0.392500	0.248400
C681	C68	0.622800	0.426100	0.247600
H511	H51	0.615300	0.472800	0.246800
C691	C69	0.575500	0.377600	0.248400
H521	H52	0.528700	0.384400	0.247400
C701	C70	0.609700	0.312600	0.251100
C711	C71	0.466700	0.245700	0.306800
H531	H53	0.489400	0.241100	0.348100
C721	C72	0.396900	0.247900	0.306400
H541	H54	0.374300	0.247900	0.347900
N101	N10	0.820400	0.322400	0.250200
C731	C73	0.755900	0.609700	0.306100
H551	H55	0.759200	0.632800	0.347300
C741	C74	0.757600	0.539100	0.307300
H561	H56	0.764100	0.516700	0.348500
C751	C75	0.812200	0.392500	0.251600
C761	C76	0.877200	0.426100	0.252400
H571	H57	0.884700	0.472800	0.253200
C771	C77	0.924500	0.377600	0.251600
H581	H58	0.971300	0.384400	0.252600
C781	C78	0.890300	0.312600	0.248900
C791	C79	0.033300	0.245700	0.193200
H591	H59	0.010600	0.241100	0.151900
C801	C80	0.103100	0.247900	0.193600
H601	H60	0.125700	0.247900	0.152100
N111	N11	0.679600	0.177600	0.250200
C811	C81	0.744100	0.890300	0.306100
H611	H61	0.740800	0.867200	0.347300
C821	C82	0.742400	0.960900	0.307300
H621	H62	0.735900	0.983300	0.348500
C831	C83	0.687800	0.107500	0.251600
C841	C84	0.622800	0.073900	0.252400
H631	H63	0.615300	0.027200	0.253200
C851	C85	0.575500	0.122400	0.251600
H641	H64	0.528700	0.115600	0.252600
C861	C86	0.609700	0.187400	0.248900
C871	C87	0.466700	0.254300	0.193200
H651	H65	0.489400	0.258900	0.151900
C881	C88	0.396900	0.252100	0.193600
H661	H66	0.374300	0.252100	0.152100
N121	N12	0.820400	0.177600	0.249800
C891	C89	0.755900	0.890300	0.193900
H671	H67	0.759200	0.867200	0.152700
C901	C90	0.757600	0.960900	0.192700
H681	H68	0.764100	0.983300	0.151500
C911	C91	0.812200	0.107500	0.248400
C921	C92	0.877200	0.073900	0.247600
H691	H69	0.884700	0.027200	0.246800
C931	C93	0.924500	0.122400	0.248400
H701	H70	0.971300	0.115600	0.247400
C941	C94	0.890300	0.187400	0.251100
C951	C95	0.033300	0.254300	0.306800
H711	H71	0.010600	0.258900	0.348100
C961	C96	0.103100	0.252100	0.306400
H721	H72	0.125700	0.252100	0.347900
N131	N13	0.750200	0.320400	0.677600
C971	C97	0.806100	0.255900	0.390300
H731	H73	0.847300	0.259200	0.367200
C981	C98	0.807300	0.257600	0.460900
H741	H74	0.848500	0.264100	0.483300
C991	C99	0.751600	0.312200	0.607500
C1001	C100	0.752400	0.377200	0.573900
H751	H75	0.753200	0.384700	0.527200
C1011	C101	0.751600	0.424500	0.622400
H761	H76	0.752600	0.471300	0.615600
C1021	C102	0.748900	0.390300	0.687400
C1031	C103	0.693200	0.533300	0.754300
H771	H77	0.651900	0.510600	0.758900
C1041	C104	0.693600	0.603100	0.752100
H781	H78	0.652100	0.625700	0.752100
N141	N14	0.749800	0.179600	0.677600
C1051	C105	0.693900	0.244100	0.390300
H791	H79	0.652700	0.240800	0.367200
C1061	C106	0.692700	0.242400	0.460900
H801	H80	0.651500	0.235900	0.483300
C1071	C107	0.748400	0.187800	0.607500
C1081	C108	0.747600	0.122800	0.573900
H811	H81	0.746800	0.115300	0.527200
C1091	C109	0.748400	0.075500	0.622400
H821	H82	0.747400	0.028700	0.615600
C1101	C110	0.751100	0.109700	0.687400
C1111	C111	0.806800	0.966700	0.754300
H831	H83	0.848100	0.989400	0.758900
C1121	C112	0.806400	0.896900	0.752100
H841	H84	0.847900	0.874300	0.752100
N151	N15	0.749800	0.320400	0.822400
C1131	C113	0.693900	0.255900	0.109700
H851	H85	0.652700	0.259200	0.132800
C1141	C114	0.692700	0.257600	0.039100
H861	H86	0.651500	0.264100	0.016700
C1151	C115	0.748400	0.312200	0.892500
C1161	C116	0.747600	0.377200	0.926100
H871	H87	0.746800	0.384700	0.972800
C1171	C117	0.748400	0.424500	0.877600
H881	H88	0.747400	0.471300	0.884400
C1181	C118	0.751100	0.390300	0.812600
C1191	C119	0.806800	0.533300	0.745700
H891	H89	0.848100	0.510600	0.741100
C1201	C120	0.806400	0.603100	0.747900
H901	H90	0.847900	0.625700	0.747900
N161	N16	0.750200	0.179600	0.822400
C1211	C121	0.806100	0.244100	0.109700
H911	H91	0.847300	0.240800	0.132800
C1221	C122	0.807300	0.242400	0.039100
H921	H92	0.848500	0.235900	0.016700
C1231	C123	0.751600	0.187800	0.892500
C1241	C124	0.752400	0.122800	0.926100
H931	H93	0.753200	0.115300	0.972800
C1251	C125	0.751600	0.075500	0.877600
H941	H94	0.752600	0.028700	0.884400
C1261	C126	0.748900	0.109700	0.812600
C1271	C127	0.693200	0.966700	0.745700
H951	H95	0.651900	0.989400	0.741100
C1281	C128	0.693600	0.896900	0.747900
H961	H96	0.652100	0.874300	0.747900
N171	N17	0.677600	0.750200	0.320400
C1291	C129	0.390300	0.806100	0.255900
H971	H97	0.367200	0.847300	0.259200
C1301	C130	0.460900	0.807300	0.257600
H981	H98	0.483300	0.848500	0.264100
C1311	C131	0.607500	0.751600	0.312200
C1321	C132	0.573900	0.752400	0.377200
H991	H99	0.527200	0.753200	0.384700
C1331	C133	0.622400	0.751600	0.424500
H1001	H100	0.615600	0.752600	0.471300
C1341	C134	0.687400	0.748900	0.390300
C1351	C135	0.754300	0.693200	0.533300
H1011	H101	0.758900	0.651900	0.510600
C1361	C136	0.752100	0.693600	0.603100
H1021	H102	0.752100	0.652100	0.625700
N181	N18	0.677600	0.749800	0.179600
C1371	C137	0.390300	0.693900	0.244100
H1031	H103	0.367200	0.652700	0.240800
C1381	C138	0.460900	0.692700	0.242400
H1041	H104	0.483300	0.651500	0.235900
C1391	C139	0.607500	0.748400	0.187800
C1401	C140	0.573900	0.747600	0.122800
H1051	H105	0.527200	0.746800	0.115300
C1411	C141	0.622400	0.748400	0.075500
H1061	H106	0.615600	0.747400	0.028700
C1421	C142	0.687400	0.751100	0.109700
C1431	C143	0.754300	0.806800	0.966700
H1071	H107	0.758900	0.848100	0.989400
C1441	C144	0.752100	0.806400	0.896900
H1081	H108	0.752100	0.847900	0.874300
N191	N19	0.822400	0.749800	0.320400
C1451	C145	0.109700	0.693900	0.255900
H1091	H109	0.132800	0.652700	0.259200
C1461	C146	0.039100	0.692700	0.257600
H1101	H110	0.016700	0.651500	0.264100
C1471	C147	0.892500	0.748400	0.312200
C1481	C148	0.926100	0.747600	0.377200
H1111	H111	0.972800	0.746800	0.384700
C1491	C149	0.877600	0.748400	0.424500
H1121	H112	0.884400	0.747400	0.471300
C1501	C150	0.812600	0.751100	0.390300
C1511	C151	0.745700	0.806800	0.533300
H1131	H113	0.741100	0.848100	0.510600
C1521	C152	0.747900	0.806400	0.603100
H1141	H114	0.747900	0.847900	0.625700
N201	N20	0.822400	0.750200	0.179600
C1531	C153	0.109700	0.806100	0.244100
H1151	H115	0.132800	0.847300	0.240800
C1541	C154	0.039100	0.807300	0.242400
H1161	H116	0.016700	0.848500	0.235900
C1551	C155	0.892500	0.751600	0.187800
C1561	C156	0.926100	0.752400	0.122800
H1171	H117	0.972800	0.753200	0.115300
C1571	C157	0.877600	0.751600	0.075500
H1181	H118	0.884400	0.752600	0.028700
C1581	C158	0.812600	0.748900	0.109700
C1591	C159	0.745700	0.693200	0.966700
H1191	H119	0.741100	0.651900	0.989400
C1601	C160	0.747900	0.693600	0.896900
H1201	H120	0.747900	0.652100	0.874300
N211	N21	0.320400	0.677600	0.750200
C1611	C161	0.255900	0.390300	0.806100
H1211	H121	0.259200	0.367200	0.847300
C1621	C162	0.257600	0.460900	0.807300
H1221	H122	0.264100	0.483300	0.848500
C1631	C163	0.312200	0.607500	0.751600
C1641	C164	0.377200	0.573900	0.752400
H1231	H123	0.384700	0.527200	0.753200
C1651	C165	0.424500	0.622400	0.751600
H1241	H124	0.471300	0.615600	0.752600
C1661	C166	0.390300	0.687400	0.748900
C1671	C167	0.533300	0.754300	0.693200
H1251	H125	0.510600	0.758900	0.651900
C1681	C168	0.603100	0.752100	0.693600
H1261	H126	0.625700	0.752100	0.652100
N221	N22	0.179600	0.677600	0.749800
C1691	C169	0.244100	0.390300	0.693900
H1271	H127	0.240800	0.367200	0.652700
C1701	C170	0.242400	0.460900	0.692700
H1281	H128	0.235900	0.483300	0.651500
C1711	C171	0.187800	0.607500	0.748400
C1721	C172	0.122800	0.573900	0.747600
H1291	H129	0.115300	0.527200	0.746800
C1731	C173	0.075500	0.622400	0.748400
H1301	H130	0.028700	0.615600	0.747400
C1741	C174	0.109700	0.687400	0.751100
C1751	C175	0.966700	0.754300	0.806800
H1311	H131	0.989400	0.758900	0.848100
C1761	C176	0.896900	0.752100	0.806400
H1321	H132	0.874300	0.752100	0.847900
N231	N23	0.320400	0.822400	0.749800
C1771	C177	0.255900	0.109700	0.693900
H1331	H133	0.259200	0.132800	0.652700
C1781	C178	0.257600	0.039100	0.692700
H1341	H134	0.264100	0.016700	0.651500
C1791	C179	0.312200	0.892500	0.748400
C1801	C180	0.377200	0.926100	0.747600
H1351	H135	0.384700	0.972800	0.746800
C1811	C181	0.424500	0.877600	0.748400
H1361	H136	0.471300	0.884400	0.747400
C1821	C182	0.390300	0.812600	0.751100
C1831	C183	0.533300	0.745700	0.806800
H1371	H137	0.510600	0.741100	0.848100
C1841	C184	0.603100	0.747900	0.806400
H1381	H138	0.625700	0.747900	0.847900
N241	N24	0.179600	0.822400	0.750200
C1851	C185	0.244100	0.109700	0.806100
H1391	H139	0.240800	0.132800	0.847300
C1861	C186	0.242400	0.039100	0.807300
H1401	H140	0.235900	0.016700	0.848500
C1871	C187	0.187800	0.892500	0.751600
C1881	C188	0.122800	0.926100	0.752400
H1411	H141	0.115300	0.972800	0.753200
C1891	C189	0.075500	0.877600	0.751600
H1421	H142	0.028700	0.884400	0.752600
C1901	C190	0.109700	0.812600	0.748900
C1911	C191	0.966700	0.745700	0.693200
H1431	H143	0.989400	0.741100	0.651900
C1921	C192	0.896900	0.747900	0.693600
H1441	H144	0.874300	0.747900	0.652100
Fe11	Fe1	0.250000	0.750000	0.250000
Fe21	Fe2	0.250000	0.250000	0.750000
Fe31	Fe3	0.750000	0.250000	0.250000
Fe41	Fe4	0.750000	0.250000	0.750000
Fe51	Fe5	0.750000	0.750000	0.250000
Fe61	Fe6	0.250000	0.750000	0.750000
Fe71	Fe7	0.250000	0.250000	0.250000
Fe81	Fe8	0.750000	0.750000	0.750000
N251	N25	0.250000	0.750000	0.645800
C1931	C193	0.250000	0.750000	0.502500
C1941	C194	0.250000	0.750000	0.426500
N261	N26	0.250000	0.750000	0.854200
C1951	C195	0.250000	0.750000	0.997500
C1961	C196	0.250000	0.750000	0.073500
N271	N27	0.645800	0.250000	0.750000
C1971	C197	0.502500	0.250000	0.750000
C1981	C198	0.426500	0.250000	0.750000
N281	N28	0.854200	0.250000	0.750000
C1991	C199	0.997500	0.250000	0.750000
C2001	C200	0.073500	0.250000	0.750000
N291	N29	0.750000	0.645800	0.250000
C2011	C201	0.750000	0.502500	0.250000
C2021	C202	0.750000	0.426500	0.250000
N301	N30	0.750000	0.854200	0.250000
C2031	C203	0.750000	0.997500	0.250000
C2041	C204	0.750000	0.073500	0.250000
N311	N31	0.750000	0.250000	0.354200
C2051	C205	0.750000	0.250000	0.497500
C2061	C206	0.750000	0.250000	0.573500
N321	N32	0.750000	0.250000	0.145800
C2071	C207	0.750000	0.250000	0.002500
C2081	C208	0.750000	0.250000	0.926500
N331	N33	0.354200	0.750000	0.250000
C2091	C209	0.497500	0.750000	0.250000
C2101	C210	0.573500	0.750000	0.250000
N341	N34	0.145800	0.750000	0.250000
C2111	C211	0.002500	0.750000	0.250000
C2121	C212	0.926500	0.750000	0.250000
N351	N35	0.250000	0.354200	0.750000
C2131	C213	0.250000	0.497500	0.750000
C2141	C214	0.250000	0.573500	0.750000
N361	N36	0.250000	0.145800	0.750000
C2151	C215	0.250000	0.002500	0.750000
C2161	C216	0.250000	0.926500	0.750000
N371	N37	0.250000	0.360100	0.250000
C2171	C217	0.250000	0.577500	0.250000
C2181	C218	0.250000	0.502500	0.250000
N381	N38	0.250000	0.139900	0.250000
C2191	C219	0.250000	0.922500	0.250000
C2201	C220	0.250000	0.997500	0.250000
N391	N39	0.250000	0.250000	0.360100
C2211	C221	0.250000	0.250000	0.577500
C2221	C222	0.250000	0.250000	0.502500
N401	N40	0.250000	0.250000	0.139900
C2231	C223	0.250000	0.250000	0.922500
C2241	C224	0.250000	0.250000	0.997500
N411	N41	0.360100	0.250000	0.250000
C2251	C225	0.577500	0.250000	0.250000
C2261	C226	0.502500	0.250000	0.250000
N421	N42	0.139900	0.250000	0.250000
C2271	C227	0.922500	0.250000	0.250000
C2281	C228	0.997500	0.250000	0.250000
N431	N43	0.750000	0.639900	0.750000
C2291	C229	0.750000	0.422500	0.750000
C2301	C230	0.750000	0.497500	0.750000
N441	N44	0.750000	0.860100	0.750000
C2311	C231	0.750000	0.077500	0.750000
C2321	C232	0.750000	0.002500	0.750000
N451	N45	0.750000	0.750000	0.639900
C2331	C233	0.750000	0.750000	0.422500
C2341	C234	0.750000	0.750000	0.497500
N461	N46	0.750000	0.750000	0.860100
C2351	C235	0.750000	0.750000	0.077500
C2361	C236	0.750000	0.750000	0.002500
N471	N47	0.639900	0.750000	0.750000
C2371	C237	0.422500	0.750000	0.750000
C2381	C238	0.497500	0.750000	0.750000
N481	N48	0.860100	0.750000	0.750000
C2391	C239	0.077500	0.750000	0.750000
C2401	C240	0.002500	0.750000	0.750000
