data_CAZNUO_charged_PM
_symmetry_space_group_name_H-M	'P1'
_cell_length_a	14.825000
_cell_length_b	16.672200
_cell_length_c	16.672200
_cell_angle_alpha	118.835000
_cell_angle_beta	96.317300
_cell_angle_gamma	96.317300
_symmetry_Int_Tables_number 1

loop_
_symmetry_equiv_pos_as_xyz
'x,y,z'

loop_
_atom_site_label
_atom_site_type_symbol
_atom_site_fract_x
_atom_site_fract_y
_atom_site_fract_z
Co11	Co1	0.009390	0.010890	0.200950
Co21	Co2	0.990610	0.799050	0.989110
Co31	Co3	0.000000	0.802030	0.197970
H11	H1	0.722000	0.154600	0.695200
H21	H2	0.647100	0.146500	0.615500
H31	H3	0.455300	0.038500	0.663100
H41	H4	0.511100	0.989600	0.582800
H51	H5	0.561600	0.233200	0.738400
H61	H6	0.630000	0.231800	0.816400
H71	H7	0.629200	0.988400	0.699800
H81	H8	0.565200	0.035600	0.772400
H91	H9	0.358100	0.942300	0.514100
H101	H10	0.703500	0.931700	0.765700
H111	H11	0.772300	0.178400	0.979800
H121	H12	0.772500	0.144000	0.546200
H131	H13	0.845700	0.106000	0.424400
H141	H14	0.800300	0.842400	0.358600
H151	H15	0.710700	0.873900	0.471300
H161	H16	0.998600	0.835400	0.397000
H171	H17	0.996300	0.757100	0.476700
H181	H18	0.262700	0.139000	0.418800
H191	H19	0.398400	0.185000	0.521400
H201	H20	0.216900	0.901100	0.418300
H211	H21	0.988700	0.831800	0.823000
H221	H22	0.992300	0.754100	0.666300
H231	H23	0.986300	0.518200	0.675000
H241	H24	0.980300	0.599200	0.828200
H251	H25	0.841600	0.122000	0.063600
H261	H26	0.798700	0.877300	0.843300
H271	H27	0.278000	0.304800	0.845400
H281	H28	0.352900	0.384500	0.853500
H291	H29	0.544700	0.336900	0.961500
H301	H30	0.488900	0.417200	0.010400
H311	H31	0.438400	0.261600	0.766800
H321	H32	0.370000	0.183600	0.768200
H331	H33	0.370800	0.300200	0.011600
H341	H34	0.434800	0.227600	0.964400
H351	H35	0.641900	0.485900	0.057700
H361	H36	0.296500	0.234300	0.068300
H371	H37	0.227700	0.020200	0.821600
H381	H38	0.227500	0.453800	0.856000
H391	H39	0.154300	0.575600	0.894000
H401	H40	0.199700	0.641400	0.157600
H411	H41	0.289300	0.528700	0.126100
H421	H42	0.001400	0.603000	0.164600
H431	H43	0.003700	0.523300	0.242900
H441	H44	0.737300	0.581200	0.861000
H451	H45	0.601600	0.478600	0.815000
H461	H46	0.783100	0.581700	0.098900
H471	H47	0.011300	0.177000	0.168200
H481	H48	0.007700	0.333700	0.245900
H491	H49	0.013700	0.325000	0.481800
H501	H50	0.019700	0.171800	0.400800
H511	H51	0.158400	0.936400	0.878000
H521	H52	0.201300	0.156700	0.122700
C11	C1	0.590200	0.102500	0.698500
C21	C2	0.666200	0.116400	0.650000
C31	C3	0.502000	0.049400	0.631200
C41	C4	0.574600	0.198000	0.769200
C51	C5	0.615700	0.047600	0.745000
C61	C6	0.388500	0.069300	0.530700
C71	C7	0.337400	0.983600	0.497000
C81	C8	0.736200	0.061000	0.862400
C91	C9	0.737600	0.973000	0.825000
C101	C10	0.775000	0.115300	0.950900
C111	C11	0.731700	0.014000	0.521000
C121	C12	0.775000	0.081900	0.506500
C131	C13	0.820600	0.059700	0.435900
C141	C14	0.830900	0.969500	0.380300
C151	C15	0.791900	0.903200	0.395400
C161	C16	0.739700	0.921600	0.463600
C171	C17	0.998900	0.771700	0.365500
C181	C18	0.998200	0.725200	0.413400
C191	C19	0.996300	0.577700	0.554100
C201	C20	0.139200	0.980600	0.333200
C211	C21	0.226300	0.013100	0.404700
C221	C22	0.281300	0.099000	0.438800
C231	C23	0.361900	0.127100	0.500300
C241	C24	0.254500	0.957900	0.437100
C251	C25	0.988300	0.768100	0.792700
C261	C26	0.991100	0.721800	0.698800
C271	C27	0.992200	0.627900	0.653300
C281	C28	0.987300	0.582000	0.703800
C291	C29	0.983700	0.631200	0.795400
C301	C30	0.880800	0.954600	0.014600
C311	C31	0.883700	0.943600	0.302400
C321	C32	0.829300	0.993200	0.962200
C331	C33	0.818400	0.081900	0.000500
C341	C34	0.790900	0.939100	0.874100
C351	C35	0.409800	0.301500	0.897500
C361	C36	0.333800	0.350000	0.883600
C371	C37	0.498000	0.368800	0.950600
C381	C38	0.425400	0.230800	0.802000
C391	C39	0.384300	0.255000	0.952400
C401	C40	0.611500	0.469300	0.930700
C411	C41	0.662600	0.503000	0.016400
C421	C42	0.263800	0.137600	0.939000
C431	C43	0.262400	0.175000	0.027000
C441	C44	0.225000	0.049100	0.884700
C451	C45	0.268300	0.479000	0.986000
C461	C46	0.225000	0.493500	0.918100
C471	C47	0.179400	0.564100	0.940300
C481	C48	0.169100	0.619700	0.030500
C491	C49	0.208100	0.604600	0.096800
C501	C50	0.260300	0.536400	0.078400
C511	C51	0.001100	0.634500	0.228300
C521	C52	0.001800	0.586600	0.274800
C531	C53	0.003700	0.445900	0.422300
C541	C54	0.860800	0.666800	0.019400
C551	C55	0.773700	0.595300	0.986900
C561	C56	0.718700	0.561200	0.901000
C571	C57	0.638100	0.499700	0.872900
C581	C58	0.745500	0.562900	0.042100
C591	C59	0.011700	0.207300	0.231900
C601	C60	0.008900	0.301200	0.278200
C611	C61	0.007800	0.346700	0.372100
C621	C62	0.012700	0.296200	0.418000
C631	C63	0.016300	0.204600	0.368800
C641	C64	0.119200	0.985400	0.045400
C651	C65	0.116300	0.697600	0.056400
C661	C66	0.170700	0.037800	0.006800
C671	C67	0.181600	0.999500	0.918100
C681	C68	0.209100	0.125900	0.060900
C691	C69	0.000000	0.630900	0.369100
C701	C70	0.000000	0.580300	0.419700
N11	N1	0.996700	0.627600	0.510600
N21	N2	0.984900	0.723400	0.842000
N31	N3	0.003300	0.489400	0.372400
N41	N4	0.015100	0.158000	0.276600
N51	N5	0.000000	0.728000	0.272000
N61	N6	0.000000	0.487300	0.512700
O11	O1	0.473100	0.102400	0.591400
O21	O2	0.696200	0.103200	0.816200
O31	O3	0.681500	0.026300	0.589100
O41	O4	0.093200	0.905220	0.312980
O51	O5	0.120500	0.031870	0.301330
O61	O6	0.915900	0.006530	0.285670
O71	O7	0.893100	0.861200	0.259400
O81	O8	0.904200	0.006800	0.100000
O91	O9	0.897200	0.875800	0.968400
O101	O10	0.526900	0.408600	0.897600
O111	O11	0.303800	0.183800	0.896800
O121	O12	0.318500	0.410900	0.973700
O131	O13	0.906800	0.687020	0.094780
O141	O14	0.879500	0.698670	0.968130
O151	O15	0.084100	0.714330	0.993470
O161	O16	0.106900	0.740600	0.138800
O171	O17	0.095800	0.900000	0.993200
O181	O18	0.102800	0.031600	0.124200
O191	O19	0.000000	0.872200	0.127800
O201	O20	0.500000	0.188600	0.811400
