data_CECVAI_freeONLY_PM
_symmetry_space_group_name_H-M	'P1'
_cell_length_a	22.386900
_cell_length_b	22.386900
_cell_length_c	22.386900
_cell_angle_alpha	90.000000
_cell_angle_beta	90.000000
_cell_angle_gamma	90.000000
_symmetry_Int_Tables_number 1

loop_
_symmetry_equiv_pos_as_xyz
'x,y,z'

loop_
_atom_site_label
_atom_site_type_symbol
_atom_site_fract_x
_atom_site_fract_y
_atom_site_fract_z
Cu11	Cu1	0.337540	0.082620	0.744080
Cu21	Cu2	0.330010	0.959190	0.705320
Cu31	Cu3	0.162460	0.917380	0.244080
Cu41	Cu4	0.169990	0.040810	0.205320
Cu51	Cu5	0.662460	0.582620	0.755920
Cu61	Cu6	0.669990	0.459190	0.794680
Cu71	Cu7	0.837540	0.417380	0.255920
Cu81	Cu8	0.830010	0.540810	0.294680
Cu91	Cu9	0.744080	0.337540	0.082620
Cu101	Cu10	0.705320	0.330010	0.959190
Cu111	Cu11	0.244080	0.162460	0.917380
Cu121	Cu12	0.205320	0.169990	0.040810
Cu131	Cu13	0.755920	0.662460	0.582620
Cu141	Cu14	0.794680	0.669990	0.459190
Cu151	Cu15	0.255920	0.837540	0.417380
Cu161	Cu16	0.294680	0.830010	0.540810
Cu171	Cu17	0.082620	0.744080	0.337540
Cu181	Cu18	0.959190	0.705320	0.330010
Cu191	Cu19	0.917380	0.244080	0.162460
Cu201	Cu20	0.040810	0.205320	0.169990
Cu211	Cu21	0.582620	0.755920	0.662460
Cu221	Cu22	0.459190	0.794680	0.669990
Cu231	Cu23	0.417380	0.255920	0.837540
Cu241	Cu24	0.540810	0.294680	0.830010
H11	H1	0.624800	0.068000	0.589200
H21	H2	0.469700	0.186700	0.739000
H31	H3	0.445700	0.989100	0.609900
H41	H4	0.541100	0.010100	0.574500
H51	H5	0.545100	0.159100	0.673000
H61	H6	0.091800	0.079300	0.539000
H71	H7	0.236800	0.945900	0.565700
H81	H8	0.206800	0.114700	0.730200
H91	H9	0.130200	0.149000	0.669000
H101	H10	0.160500	0.012900	0.553600
H111	H11	0.875200	0.932000	0.089200
H121	H12	0.030300	0.813300	0.239000
H131	H13	0.054300	0.010900	0.109900
H141	H14	0.958900	0.989900	0.074500
H151	H15	0.954900	0.840900	0.173000
H161	H16	0.408200	0.920700	0.039000
H171	H17	0.263200	0.054100	0.065700
H181	H18	0.293200	0.885300	0.230200
H191	H19	0.369800	0.851000	0.169000
H201	H20	0.339500	0.987100	0.053600
H211	H21	0.375200	0.568000	0.910800
H221	H22	0.530300	0.686700	0.761000
H231	H23	0.554300	0.489100	0.890100
H241	H24	0.458900	0.510100	0.925500
H251	H25	0.454900	0.659100	0.827000
H261	H26	0.908200	0.579300	0.961000
H271	H27	0.763200	0.445900	0.934300
H281	H28	0.793200	0.614700	0.769800
H291	H29	0.869800	0.649000	0.831000
H301	H30	0.839500	0.512900	0.946400
H311	H31	0.124800	0.432000	0.410800
H321	H32	0.969700	0.313300	0.261000
H331	H33	0.945700	0.510900	0.390100
H341	H34	0.041100	0.489900	0.425500
H351	H35	0.045100	0.340900	0.327000
H361	H36	0.591800	0.420700	0.461000
H371	H37	0.736800	0.554100	0.434300
H381	H38	0.706800	0.385300	0.269800
H391	H39	0.630200	0.351000	0.331000
H401	H40	0.660500	0.487100	0.446400
H411	H41	0.589200	0.624800	0.068000
H421	H42	0.739000	0.469700	0.186700
H431	H43	0.609900	0.445700	0.989100
H441	H44	0.574500	0.541100	0.010100
H451	H45	0.673000	0.545100	0.159100
H461	H46	0.539000	0.091800	0.079300
H471	H47	0.565700	0.236800	0.945900
H481	H48	0.730200	0.206800	0.114700
H491	H49	0.669000	0.130200	0.149000
H501	H50	0.553600	0.160500	0.012900
H511	H51	0.089200	0.875200	0.932000
H521	H52	0.239000	0.030300	0.813300
H531	H53	0.109900	0.054300	0.010900
H541	H54	0.074500	0.958900	0.989900
H551	H55	0.173000	0.954900	0.840900
H561	H56	0.039000	0.408200	0.920700
H571	H57	0.065700	0.263200	0.054100
H581	H58	0.230200	0.293200	0.885300
H591	H59	0.169000	0.369800	0.851000
H601	H60	0.053600	0.339500	0.987100
H611	H61	0.910800	0.375200	0.568000
H621	H62	0.761000	0.530300	0.686700
H631	H63	0.890100	0.554300	0.489100
H641	H64	0.925500	0.458900	0.510100
H651	H65	0.827000	0.454900	0.659100
H661	H66	0.961000	0.908200	0.579300
H671	H67	0.934300	0.763200	0.445900
H681	H68	0.769800	0.793200	0.614700
H691	H69	0.831000	0.869800	0.649000
H701	H70	0.946400	0.839500	0.512900
H711	H71	0.410800	0.124800	0.432000
H721	H72	0.261000	0.969700	0.313300
H731	H73	0.390100	0.945700	0.510900
H741	H74	0.425500	0.041100	0.489900
H751	H75	0.327000	0.045100	0.340900
H761	H76	0.461000	0.591800	0.420700
H771	H77	0.434300	0.736800	0.554100
H781	H78	0.269800	0.706800	0.385300
H791	H79	0.331000	0.630200	0.351000
H801	H80	0.446400	0.660500	0.487100
H811	H81	0.068000	0.589200	0.624800
H821	H82	0.186700	0.739000	0.469700
H831	H83	0.989100	0.609900	0.445700
H841	H84	0.010100	0.574500	0.541100
H851	H85	0.159100	0.673000	0.545100
H861	H86	0.079300	0.539000	0.091800
H871	H87	0.945900	0.565700	0.236800
H881	H88	0.114700	0.730200	0.206800
H891	H89	0.149000	0.669000	0.130200
H901	H90	0.012900	0.553600	0.160500
H911	H91	0.932000	0.089200	0.875200
H921	H92	0.813300	0.239000	0.030300
H931	H93	0.010900	0.109900	0.054300
H941	H94	0.989900	0.074500	0.958900
H951	H95	0.840900	0.173000	0.954900
H961	H96	0.920700	0.039000	0.408200
H971	H97	0.054100	0.065700	0.263200
H981	H98	0.885300	0.230200	0.293200
H991	H99	0.851000	0.169000	0.369800
H1001	H100	0.987100	0.053600	0.339500
H1011	H101	0.568000	0.910800	0.375200
H1021	H102	0.686700	0.761000	0.530300
H1031	H103	0.489100	0.890100	0.554300
H1041	H104	0.510100	0.925500	0.458900
H1051	H105	0.659100	0.827000	0.454900
H1061	H106	0.579300	0.961000	0.908200
H1071	H107	0.445900	0.934300	0.763200
H1081	H108	0.614700	0.769800	0.793200
H1091	H109	0.649000	0.831000	0.869800
H1101	H110	0.512900	0.946400	0.839500
H1111	H111	0.432000	0.410800	0.124800
H1121	H112	0.313300	0.261000	0.969700
H1131	H113	0.510900	0.390100	0.945700
H1141	H114	0.489900	0.425500	0.041100
H1151	H115	0.340900	0.327000	0.045100
H1161	H116	0.420700	0.461000	0.591800
H1171	H117	0.554100	0.434300	0.736800
H1181	H118	0.385300	0.269800	0.706800
H1191	H119	0.351000	0.331000	0.630200
H1201	H120	0.487100	0.446400	0.660500
C11	C1	0.446000	0.153000	0.729100
C21	C2	0.467800	0.113100	0.684800
C31	C3	0.437600	0.059600	0.665700
C41	C4	0.465800	0.023700	0.624000
C51	C5	0.522300	0.036300	0.602100
C61	C6	0.550900	0.087800	0.621200
C71	C7	0.524400	0.124100	0.660700
C81	C8	0.249600	0.962000	0.602800
C91	C9	0.219100	0.013800	0.625100
C101	C10	0.232100	0.042800	0.679800
C111	C11	0.198100	0.093800	0.694300
C121	C12	0.152200	0.114500	0.657900
C131	C13	0.138600	0.084600	0.605200
C141	C14	0.170800	0.034100	0.588900
C151	C15	0.322600	0.941800	0.824300
C161	C16	0.054000	0.847000	0.229100
C171	C17	0.032200	0.886900	0.184800
C181	C18	0.062400	0.940400	0.165700
C191	C19	0.034200	0.976300	0.124000
C201	C20	0.977700	0.963700	0.102100
C211	C21	0.949100	0.912200	0.121200
C221	C22	0.975600	0.875900	0.160700
C231	C23	0.250400	0.038000	0.102800
C241	C24	0.280900	0.986200	0.125100
C251	C25	0.267900	0.957200	0.179800
C261	C26	0.301900	0.906200	0.194300
C271	C27	0.347800	0.885500	0.157900
C281	C28	0.361400	0.915400	0.105200
C291	C29	0.329200	0.965900	0.088900
C301	C30	0.177400	0.058200	0.324300
C311	C31	0.554000	0.653000	0.770900
C321	C32	0.532200	0.613100	0.815200
C331	C33	0.562400	0.559600	0.834300
C341	C34	0.534200	0.523700	0.876000
C351	C35	0.477700	0.536300	0.897900
C361	C36	0.449100	0.587800	0.878800
C371	C37	0.475600	0.624100	0.839300
C381	C38	0.750400	0.462000	0.897200
C391	C39	0.780900	0.513800	0.874900
C401	C40	0.767900	0.542800	0.820200
C411	C41	0.801900	0.593800	0.805700
C421	C42	0.847800	0.614500	0.842100
C431	C43	0.861400	0.584600	0.894800
C441	C44	0.829200	0.534100	0.911100
C451	C45	0.677400	0.441800	0.675700
C461	C46	0.946000	0.347000	0.270900
C471	C47	0.967800	0.386900	0.315200
C481	C48	0.937600	0.440400	0.334300
C491	C49	0.965800	0.476300	0.376000
C501	C50	0.022300	0.463700	0.397900
C511	C51	0.050900	0.412200	0.378800
C521	C52	0.024400	0.375900	0.339300
C531	C53	0.749600	0.538000	0.397200
C541	C54	0.719100	0.486200	0.374900
C551	C55	0.732100	0.457200	0.320200
C561	C56	0.698100	0.406200	0.305700
C571	C57	0.652200	0.385500	0.342100
C581	C58	0.638600	0.415400	0.394800
C591	C59	0.670800	0.465900	0.411100
C601	C60	0.822600	0.558200	0.175700
C611	C61	0.729100	0.446000	0.153000
C621	C62	0.684800	0.467800	0.113100
C631	C63	0.665700	0.437600	0.059600
C641	C64	0.624000	0.465800	0.023700
C651	C65	0.602100	0.522300	0.036300
C661	C66	0.621200	0.550900	0.087800
C671	C67	0.660700	0.524400	0.124100
C681	C68	0.602800	0.249600	0.962000
C691	C69	0.625100	0.219100	0.013800
C701	C70	0.679800	0.232100	0.042800
C711	C71	0.694300	0.198100	0.093800
C721	C72	0.657900	0.152200	0.114500
C731	C73	0.605200	0.138600	0.084600
C741	C74	0.588900	0.170800	0.034100
C751	C75	0.824300	0.322600	0.941800
C761	C76	0.229100	0.054000	0.847000
C771	C77	0.184800	0.032200	0.886900
C781	C78	0.165700	0.062400	0.940400
C791	C79	0.124000	0.034200	0.976300
C801	C80	0.102100	0.977700	0.963700
C811	C81	0.121200	0.949100	0.912200
C821	C82	0.160700	0.975600	0.875900
C831	C83	0.102800	0.250400	0.038000
C841	C84	0.125100	0.280900	0.986200
C851	C85	0.179800	0.267900	0.957200
C861	C86	0.194300	0.301900	0.906200
C871	C87	0.157900	0.347800	0.885500
C881	C88	0.105200	0.361400	0.915400
C891	C89	0.088900	0.329200	0.965900
C901	C90	0.324300	0.177400	0.058200
C911	C91	0.770900	0.554000	0.653000
C921	C92	0.815200	0.532200	0.613100
C931	C93	0.834300	0.562400	0.559600
C941	C94	0.876000	0.534200	0.523700
C951	C95	0.897900	0.477700	0.536300
C961	C96	0.878800	0.449100	0.587800
C971	C97	0.839300	0.475600	0.624100
C981	C98	0.897200	0.750400	0.462000
C991	C99	0.874900	0.780900	0.513800
C1001	C100	0.820200	0.767900	0.542800
C1011	C101	0.805700	0.801900	0.593800
C1021	C102	0.842100	0.847800	0.614500
C1031	C103	0.894800	0.861400	0.584600
C1041	C104	0.911100	0.829200	0.534100
C1051	C105	0.675700	0.677400	0.441800
C1061	C106	0.270900	0.946000	0.347000
C1071	C107	0.315200	0.967800	0.386900
C1081	C108	0.334300	0.937600	0.440400
C1091	C109	0.376000	0.965800	0.476300
C1101	C110	0.397900	0.022300	0.463700
C1111	C111	0.378800	0.050900	0.412200
C1121	C112	0.339300	0.024400	0.375900
C1131	C113	0.397200	0.749600	0.538000
C1141	C114	0.374900	0.719100	0.486200
C1151	C115	0.320200	0.732100	0.457200
C1161	C116	0.305700	0.698100	0.406200
C1171	C117	0.342100	0.652200	0.385500
C1181	C118	0.394800	0.638600	0.415400
C1191	C119	0.411100	0.670800	0.465900
C1201	C120	0.175700	0.822600	0.558200
C1211	C121	0.153000	0.729100	0.446000
C1221	C122	0.113100	0.684800	0.467800
C1231	C123	0.059600	0.665700	0.437600
C1241	C124	0.023700	0.624000	0.465800
C1251	C125	0.036300	0.602100	0.522300
C1261	C126	0.087800	0.621200	0.550900
C1271	C127	0.124100	0.660700	0.524400
C1281	C128	0.962000	0.602800	0.249600
C1291	C129	0.013800	0.625100	0.219100
C1301	C130	0.042800	0.679800	0.232100
C1311	C131	0.093800	0.694300	0.198100
C1321	C132	0.114500	0.657900	0.152200
C1331	C133	0.084600	0.605200	0.138600
C1341	C134	0.034100	0.588900	0.170800
C1351	C135	0.941800	0.824300	0.322600
C1361	C136	0.847000	0.229100	0.054000
C1371	C137	0.886900	0.184800	0.032200
C1381	C138	0.940400	0.165700	0.062400
C1391	C139	0.976300	0.124000	0.034200
C1401	C140	0.963700	0.102100	0.977700
C1411	C141	0.912200	0.121200	0.949100
C1421	C142	0.875900	0.160700	0.975600
C1431	C143	0.038000	0.102800	0.250400
C1441	C144	0.986200	0.125100	0.280900
C1451	C145	0.957200	0.179800	0.267900
C1461	C146	0.906200	0.194300	0.301900
C1471	C147	0.885500	0.157900	0.347800
C1481	C148	0.915400	0.105200	0.361400
C1491	C149	0.965900	0.088900	0.329200
C1501	C150	0.058200	0.324300	0.177400
C1511	C151	0.653000	0.770900	0.554000
C1521	C152	0.613100	0.815200	0.532200
C1531	C153	0.559600	0.834300	0.562400
C1541	C154	0.523700	0.876000	0.534200
C1551	C155	0.536300	0.897900	0.477700
C1561	C156	0.587800	0.878800	0.449100
C1571	C157	0.624100	0.839300	0.475600
C1581	C158	0.462000	0.897200	0.750400
C1591	C159	0.513800	0.874900	0.780900
C1601	C160	0.542800	0.820200	0.767900
C1611	C161	0.593800	0.805700	0.801900
C1621	C162	0.614500	0.842100	0.847800
C1631	C163	0.584600	0.894800	0.861400
C1641	C164	0.534100	0.911100	0.829200
C1651	C165	0.441800	0.675700	0.677400
C1661	C166	0.347000	0.270900	0.946000
C1671	C167	0.386900	0.315200	0.967800
C1681	C168	0.440400	0.334300	0.937600
C1691	C169	0.476300	0.376000	0.965800
C1701	C170	0.463700	0.397900	0.022300
C1711	C171	0.412200	0.378800	0.050900
C1721	C172	0.375900	0.339300	0.024400
C1731	C173	0.538000	0.397200	0.749600
C1741	C174	0.486200	0.374900	0.719100
C1751	C175	0.457200	0.320200	0.732100
C1761	C176	0.406200	0.305700	0.698100
C1771	C177	0.385500	0.342100	0.652200
C1781	C178	0.415400	0.394800	0.638600
C1791	C179	0.465900	0.411100	0.670800
C1801	C180	0.558200	0.175700	0.822600
C1811	C181	0.329700	0.170300	0.829700
C1821	C182	0.170300	0.829700	0.329700
C1831	C183	0.670300	0.670300	0.670300
C1841	C184	0.829700	0.329700	0.170300
C1851	C185	0.366300	0.866300	0.633700
C1861	C186	0.133700	0.133700	0.133700
C1871	C187	0.633700	0.366300	0.866300
C1881	C188	0.866300	0.633700	0.366300
N11	N1	0.379000	0.187000	0.800800
N21	N2	0.394500	0.145900	0.757300
N31	N3	0.318600	0.885500	0.603700
N41	N4	0.293300	0.935900	0.630000
N51	N5	0.121000	0.813000	0.300800
N61	N6	0.105500	0.854100	0.257300
N71	N7	0.181400	0.114500	0.103700
N81	N8	0.206700	0.064100	0.130000
N91	N9	0.621000	0.687000	0.699200
N101	N10	0.605500	0.645900	0.742700
N111	N11	0.681400	0.385500	0.896300
N121	N12	0.706700	0.435900	0.870000
N131	N13	0.879000	0.313000	0.199200
N141	N14	0.894500	0.354100	0.242700
N151	N15	0.818600	0.614500	0.396300
N161	N16	0.793300	0.564100	0.370000
N171	N17	0.800800	0.379000	0.187000
N181	N18	0.757300	0.394500	0.145900
N191	N19	0.603700	0.318600	0.885500
N201	N20	0.630000	0.293300	0.935900
N211	N21	0.300800	0.121000	0.813000
N221	N22	0.257300	0.105500	0.854100
N231	N23	0.103700	0.181400	0.114500
N241	N24	0.130000	0.206700	0.064100
N251	N25	0.699200	0.621000	0.687000
N261	N26	0.742700	0.605500	0.645900
N271	N27	0.896300	0.681400	0.385500
N281	N28	0.870000	0.706700	0.435900
N291	N29	0.199200	0.879000	0.313000
N301	N30	0.242700	0.894500	0.354100
N311	N31	0.396300	0.818600	0.614500
N321	N32	0.370000	0.793300	0.564100
N331	N33	0.187000	0.800800	0.379000
N341	N34	0.145900	0.757300	0.394500
N351	N35	0.885500	0.603700	0.318600
N361	N36	0.935900	0.630000	0.293300
N371	N37	0.813000	0.300800	0.121000
N381	N38	0.854100	0.257300	0.105500
N391	N39	0.114500	0.103700	0.181400
N401	N40	0.064100	0.130000	0.206700
N411	N41	0.687000	0.699200	0.621000
N421	N42	0.645900	0.742700	0.605500
N431	N43	0.385500	0.896300	0.681400
N441	N44	0.435900	0.870000	0.706700
N451	N45	0.313000	0.199200	0.879000
N461	N46	0.354100	0.242700	0.894500
N471	N47	0.614500	0.396300	0.818600
N481	N48	0.564100	0.370000	0.793300
O11	O1	0.383000	0.045800	0.683300
O21	O2	0.607000	0.100200	0.596600
O31	O3	0.274500	0.025500	0.716100
O41	O4	0.096900	0.104700	0.566100
O51	O5	0.349100	0.968900	0.795000
O61	O6	0.290300	0.906100	0.800700
O71	O7	0.117000	0.954200	0.183300
O81	O8	0.893000	0.899800	0.096600
O91	O9	0.225500	0.974500	0.216100
O101	O10	0.403100	0.895300	0.066100
O111	O11	0.150900	0.031100	0.295000
O121	O12	0.209700	0.093900	0.300700
O131	O13	0.617000	0.545800	0.816700
O141	O14	0.393000	0.600200	0.903400
O151	O15	0.725500	0.525500	0.783900
O161	O16	0.903100	0.604700	0.933900
O171	O17	0.650900	0.468900	0.705000
O181	O18	0.709700	0.406100	0.699300
O191	O19	0.883000	0.454200	0.316700
O201	O20	0.107000	0.399800	0.403400
O211	O21	0.774500	0.474500	0.283900
O221	O22	0.596900	0.395300	0.433900
O231	O23	0.849100	0.531100	0.205000
O241	O24	0.790300	0.593900	0.199300
O251	O25	0.683300	0.383000	0.045800
O261	O26	0.596600	0.607000	0.100200
O271	O27	0.716100	0.274500	0.025500
O281	O28	0.566100	0.096900	0.104700
O291	O29	0.795000	0.349100	0.968900
O301	O30	0.800700	0.290300	0.906100
O311	O31	0.183300	0.117000	0.954200
O321	O32	0.096600	0.893000	0.899800
O331	O33	0.216100	0.225500	0.974500
O341	O34	0.066100	0.403100	0.895300
O351	O35	0.295000	0.150900	0.031100
O361	O36	0.300700	0.209700	0.093900
O371	O37	0.816700	0.617000	0.545800
O381	O38	0.903400	0.393000	0.600200
O391	O39	0.783900	0.725500	0.525500
O401	O40	0.933900	0.903100	0.604700
O411	O41	0.705000	0.650900	0.468900
O421	O42	0.699300	0.709700	0.406100
O431	O43	0.316700	0.883000	0.454200
O441	O44	0.403400	0.107000	0.399800
O451	O45	0.283900	0.774500	0.474500
O461	O46	0.433900	0.596900	0.395300
O471	O47	0.205000	0.849100	0.531100
O481	O48	0.199300	0.790300	0.593900
O491	O49	0.045800	0.683300	0.383000
O501	O50	0.100200	0.596600	0.607000
O511	O51	0.025500	0.716100	0.274500
O521	O52	0.104700	0.566100	0.096900
O531	O53	0.968900	0.795000	0.349100
O541	O54	0.906100	0.800700	0.290300
O551	O55	0.954200	0.183300	0.117000
O561	O56	0.899800	0.096600	0.893000
O571	O57	0.974500	0.216100	0.225500
O581	O58	0.895300	0.066100	0.403100
O591	O59	0.031100	0.295000	0.150900
O601	O60	0.093900	0.300700	0.209700
O611	O61	0.545800	0.816700	0.617000
O621	O62	0.600200	0.903400	0.393000
O631	O63	0.525500	0.783900	0.725500
O641	O64	0.604700	0.933900	0.903100
O651	O65	0.468900	0.705000	0.650900
O661	O66	0.406100	0.699300	0.709700
O671	O67	0.454200	0.316700	0.883000
O681	O68	0.399800	0.403400	0.107000
O691	O69	0.474500	0.283900	0.774500
O701	O70	0.395300	0.433900	0.596900
O711	O71	0.531100	0.205000	0.849100
O721	O72	0.593900	0.199300	0.790300
