data_CEHLAD_freeONLY_PM
_symmetry_space_group_name_H-M	'P1'
_cell_length_a	13.692900
_cell_length_b	13.692900
_cell_length_c	50.664000
_cell_angle_alpha	90.000000
_cell_angle_beta	90.000000
_cell_angle_gamma	90.000000
_symmetry_Int_Tables_number 1

loop_
_symmetry_equiv_pos_as_xyz
'x,y,z'

loop_
_atom_site_label
_atom_site_type_symbol
_atom_site_fract_x
_atom_site_fract_y
_atom_site_fract_z
Zn11	Zn1	0.995250	0.584510	0.882330
Zn21	Zn2	0.361980	0.487990	0.755320
Zn31	Zn3	0.946030	0.731030	0.831890
Zn41	Zn4	0.004750	0.415490	0.382330
Zn51	Zn5	0.638020	0.512010	0.255320
Zn61	Zn6	0.053970	0.268970	0.331890
Zn71	Zn7	0.915490	0.495250	0.632330
Zn81	Zn8	0.012010	0.861980	0.505320
Zn91	Zn9	0.768970	0.446030	0.581890
Zn101	Zn10	0.084510	0.504750	0.132330
Zn111	Zn11	0.987990	0.138020	0.005320
Zn121	Zn12	0.231030	0.553970	0.081890
Zn131	Zn13	0.504750	0.084510	0.867670
Zn141	Zn14	0.138020	0.987990	0.994680
Zn151	Zn15	0.553970	0.231030	0.918110
Zn161	Zn16	0.495250	0.915490	0.367670
Zn171	Zn17	0.861980	0.012010	0.494680
Zn181	Zn18	0.446030	0.768970	0.418110
Zn191	Zn19	0.584510	0.995250	0.117670
Zn201	Zn20	0.487990	0.361980	0.244680
Zn211	Zn21	0.731030	0.946030	0.168110
Zn221	Zn22	0.415490	0.004750	0.617670
Zn231	Zn23	0.512010	0.638020	0.744680
Zn241	Zn24	0.268970	0.053970	0.668110
H11	H1	0.256800	0.836200	0.874400
H21	H2	0.427100	0.836900	0.810100
H31	H3	0.212700	0.639200	0.816700
H41	H4	0.962100	0.839600	0.934700
H51	H5	0.779300	0.061400	0.946300
H61	H6	0.733500	0.874500	0.886300
H71	H7	0.021000	0.880300	0.873400
H81	H8	0.124600	0.007600	0.823000
H91	H9	0.123100	0.103900	0.839700
H101	H10	0.213500	0.033800	0.841100
H111	H11	0.091700	0.984700	0.899000
H121	H12	0.192900	0.020900	0.888300
H131	H13	0.101700	0.089900	0.887100
H141	H14	0.825700	0.912000	0.829900
H151	H15	0.703500	0.795000	0.783900
H161	H16	0.604700	0.841000	0.793400
H171	H17	0.663600	0.889700	0.770300
H181	H18	0.720900	0.036500	0.825700
H191	H19	0.673900	0.047700	0.797600
H201	H20	0.615500	0.996500	0.820400
H211	H21	0.162900	0.493500	0.770000
H221	H22	0.228600	0.296600	0.802600
H231	H23	0.186000	0.336000	0.829200
H241	H24	0.122800	0.267400	0.811300
H251	H25	0.025200	0.504300	0.793900
H261	H26	0.989500	0.405700	0.806300
H271	H27	0.050700	0.479100	0.823300
H281	H28	0.743200	0.163800	0.374400
H291	H29	0.572900	0.163100	0.310100
H301	H30	0.787300	0.360800	0.316700
H311	H31	0.037900	0.160400	0.434700
H321	H32	0.220700	0.938600	0.446300
H331	H33	0.266500	0.125500	0.386300
H341	H34	0.979000	0.119700	0.373400
H351	H35	0.875400	0.992400	0.323000
H361	H36	0.876900	0.896100	0.339700
H371	H37	0.786500	0.966200	0.341100
H381	H38	0.908300	0.015300	0.399000
H391	H39	0.807100	0.979100	0.388300
H401	H40	0.898300	0.910100	0.387100
H411	H41	0.174300	0.088000	0.329900
H421	H42	0.296500	0.205000	0.283900
H431	H43	0.395300	0.159000	0.293400
H441	H44	0.336400	0.110300	0.270300
H451	H45	0.279100	0.963500	0.325700
H461	H46	0.326100	0.952300	0.297600
H471	H47	0.384500	0.003500	0.320400
H481	H48	0.837100	0.506500	0.270000
H491	H49	0.771400	0.703400	0.302600
H501	H50	0.814000	0.664000	0.329200
H511	H51	0.877200	0.732600	0.311300
H521	H52	0.974800	0.495700	0.293900
H531	H53	0.010500	0.594300	0.306300
H541	H54	0.949300	0.520900	0.323300
H551	H55	0.663800	0.756800	0.624400
H561	H56	0.663100	0.927100	0.560100
H571	H57	0.860800	0.712700	0.566700
H581	H58	0.660400	0.462100	0.684700
H591	H59	0.438600	0.279300	0.696300
H601	H60	0.625500	0.233500	0.636300
H611	H61	0.619700	0.521000	0.623400
H621	H62	0.492400	0.624600	0.573000
H631	H63	0.396100	0.623100	0.589700
H641	H64	0.466200	0.713500	0.591100
H651	H65	0.515300	0.591700	0.649000
H661	H66	0.479100	0.692900	0.638300
H671	H67	0.410100	0.601700	0.637100
H681	H68	0.588000	0.325700	0.579900
H691	H69	0.705000	0.203500	0.533900
H701	H70	0.659000	0.104700	0.543400
H711	H71	0.610300	0.163600	0.520300
H721	H72	0.463500	0.220900	0.575700
H731	H73	0.452300	0.173900	0.547600
H741	H74	0.503500	0.115500	0.570400
H751	H75	0.006500	0.662900	0.520000
H761	H76	0.203400	0.728600	0.552600
H771	H77	0.164000	0.686000	0.579200
H781	H78	0.232600	0.622800	0.561300
H791	H79	0.995700	0.525200	0.543900
H801	H80	0.094300	0.489500	0.556300
H811	H81	0.020900	0.550700	0.573300
H821	H82	0.336200	0.243200	0.124400
H831	H83	0.336900	0.072900	0.060100
H841	H84	0.139200	0.287300	0.066700
H851	H85	0.339600	0.537900	0.184700
H861	H86	0.561400	0.720700	0.196300
H871	H87	0.374500	0.766500	0.136300
H881	H88	0.380300	0.479000	0.123400
H891	H89	0.507600	0.375400	0.073000
H901	H90	0.603900	0.376900	0.089700
H911	H91	0.533800	0.286500	0.091100
H921	H92	0.484700	0.408300	0.149000
H931	H93	0.520900	0.307100	0.138300
H941	H94	0.589900	0.398300	0.137100
H951	H95	0.412000	0.674300	0.079900
H961	H96	0.295000	0.796500	0.033900
H971	H97	0.341000	0.895300	0.043400
H981	H98	0.389700	0.836400	0.020300
H991	H99	0.536500	0.779100	0.075700
H1001	H100	0.547700	0.826100	0.047600
H1011	H101	0.496500	0.884500	0.070400
H1021	H102	0.993500	0.337100	0.020000
H1031	H103	0.796600	0.271400	0.052600
H1041	H104	0.836000	0.314000	0.079200
H1051	H105	0.767400	0.377200	0.061300
H1061	H106	0.004300	0.474800	0.043900
H1071	H107	0.905700	0.510500	0.056300
H1081	H108	0.979100	0.449300	0.073300
H1091	H109	0.243200	0.336200	0.875600
H1101	H110	0.072900	0.336900	0.939900
H1111	H111	0.287300	0.139200	0.933300
H1121	H112	0.537900	0.339600	0.815300
H1131	H113	0.720700	0.561400	0.803700
H1141	H114	0.766500	0.374500	0.863700
H1151	H115	0.479000	0.380300	0.876600
H1161	H116	0.375400	0.507600	0.927000
H1171	H117	0.376900	0.603900	0.910300
H1181	H118	0.286500	0.533800	0.908900
H1191	H119	0.408300	0.484700	0.851000
H1201	H120	0.307100	0.520900	0.861700
H1211	H121	0.398300	0.589900	0.862900
H1221	H122	0.674300	0.412000	0.920100
H1231	H123	0.796500	0.295000	0.966100
H1241	H124	0.895300	0.341000	0.956600
H1251	H125	0.836400	0.389700	0.979700
H1261	H126	0.779100	0.536500	0.924300
H1271	H127	0.826100	0.547700	0.952400
H1281	H128	0.884500	0.496500	0.929600
H1291	H129	0.337100	0.993500	0.980000
H1301	H130	0.271400	0.796600	0.947400
H1311	H131	0.314000	0.836000	0.920800
H1321	H132	0.377200	0.767400	0.938700
H1331	H133	0.474800	0.004300	0.956100
H1341	H134	0.510500	0.905700	0.943700
H1351	H135	0.449300	0.979100	0.926700
H1361	H136	0.756800	0.663800	0.375600
H1371	H137	0.927100	0.663100	0.439900
H1381	H138	0.712700	0.860800	0.433300
H1391	H139	0.462100	0.660400	0.315300
H1401	H140	0.279300	0.438600	0.303700
H1411	H141	0.233500	0.625500	0.363700
H1421	H142	0.521000	0.619700	0.376600
H1431	H143	0.624600	0.492400	0.427000
H1441	H144	0.623100	0.396100	0.410300
H1451	H145	0.713500	0.466200	0.408900
H1461	H146	0.591700	0.515300	0.351000
H1471	H147	0.692900	0.479100	0.361700
H1481	H148	0.601700	0.410100	0.362900
H1491	H149	0.325700	0.588000	0.420100
H1501	H150	0.203500	0.705000	0.466100
H1511	H151	0.104700	0.659000	0.456600
H1521	H152	0.163600	0.610300	0.479700
H1531	H153	0.220900	0.463500	0.424300
H1541	H154	0.173900	0.452300	0.452400
H1551	H155	0.115500	0.503500	0.429600
H1561	H156	0.662900	0.006500	0.480000
H1571	H157	0.728600	0.203400	0.447400
H1581	H158	0.686000	0.164000	0.420800
H1591	H159	0.622800	0.232600	0.438700
H1601	H160	0.525200	0.995700	0.456100
H1611	H161	0.489500	0.094300	0.443700
H1621	H162	0.550700	0.020900	0.426700
H1631	H163	0.836200	0.256800	0.125600
H1641	H164	0.836900	0.427100	0.189900
H1651	H165	0.639200	0.212700	0.183300
H1661	H166	0.839600	0.962100	0.065300
H1671	H167	0.061400	0.779300	0.053700
H1681	H168	0.874500	0.733500	0.113700
H1691	H169	0.880300	0.021000	0.126600
H1701	H170	0.007600	0.124600	0.177000
H1711	H171	0.103900	0.123100	0.160300
H1721	H172	0.033800	0.213500	0.158900
H1731	H173	0.984700	0.091700	0.101000
H1741	H174	0.020900	0.192900	0.111700
H1751	H175	0.089900	0.101700	0.112900
H1761	H176	0.912000	0.825700	0.170100
H1771	H177	0.795000	0.703500	0.216100
H1781	H178	0.841000	0.604700	0.206600
H1791	H179	0.889700	0.663600	0.229700
H1801	H180	0.036500	0.720900	0.174300
H1811	H181	0.047700	0.673900	0.202400
H1821	H182	0.996500	0.615500	0.179600
H1831	H183	0.493500	0.162900	0.230000
H1841	H184	0.296600	0.228600	0.197400
H1851	H185	0.336000	0.186000	0.170800
H1861	H186	0.267400	0.122800	0.188700
H1871	H187	0.504300	0.025200	0.206100
H1881	H188	0.405700	0.989500	0.193700
H1891	H189	0.479100	0.050700	0.176700
H1901	H190	0.163800	0.743200	0.625600
H1911	H191	0.163100	0.572900	0.689900
H1921	H192	0.360800	0.787300	0.683300
H1931	H193	0.160400	0.037900	0.565300
H1941	H194	0.938600	0.220700	0.553700
H1951	H195	0.125500	0.266500	0.613700
H1961	H196	0.119700	0.979000	0.626600
H1971	H197	0.992400	0.875400	0.677000
H1981	H198	0.896100	0.876900	0.660300
H1991	H199	0.966200	0.786500	0.658900
H2001	H200	0.015300	0.908300	0.601000
H2011	H201	0.979100	0.807100	0.611700
H2021	H202	0.910100	0.898300	0.612900
H2031	H203	0.088000	0.174300	0.670100
H2041	H204	0.205000	0.296500	0.716100
H2051	H205	0.159000	0.395300	0.706600
H2061	H206	0.110300	0.336400	0.729700
H2071	H207	0.963500	0.279100	0.674300
H2081	H208	0.952300	0.326100	0.702400
H2091	H209	0.003500	0.384500	0.679600
H2101	H210	0.506500	0.837100	0.730000
H2111	H211	0.703400	0.771400	0.697400
H2121	H212	0.664000	0.814000	0.670800
H2131	H213	0.732600	0.877200	0.688700
H2141	H214	0.495700	0.974800	0.706100
H2151	H215	0.594300	0.010500	0.693700
H2161	H216	0.520900	0.949300	0.676700
C11	C1	0.138700	0.692000	0.864330
C21	C2	0.220300	0.733900	0.847620
C31	C3	0.272900	0.811400	0.857910
C41	C4	0.349700	0.852400	0.843700
C51	C5	0.376300	0.809900	0.819830
C61	C6	0.328600	0.728200	0.810340
C71	C7	0.247900	0.691300	0.823650
C81	C8	0.403700	0.937200	0.854740
C91	C9	0.365400	0.675300	0.786440
C101	C10	0.886400	0.755700	0.891890
C111	C11	0.852000	0.841700	0.908060
C121	C12	0.907100	0.874500	0.929550
C131	C13	0.881700	0.956100	0.942900
C141	C14	0.797700	0.006800	0.936520
C151	C15	0.740200	0.975100	0.915140
C161	C16	0.769600	0.894100	0.900890
C171	C17	0.946000	0.995700	0.965400
C181	C18	0.651400	0.035700	0.907610
C191	C19	0.043800	0.908500	0.857890
C201	C20	0.143800	0.036900	0.839370
C211	C21	0.123500	0.023500	0.885770
C221	C22	0.796700	0.874700	0.816770
C231	C23	0.668900	0.855000	0.786700
C241	C24	0.679100	0.006300	0.812900
C251	C25	0.184000	0.436300	0.778090
C261	C26	0.170600	0.318700	0.811400
C271	C27	0.041500	0.452700	0.805950
C281	C28	0.861300	0.308000	0.364330
C291	C29	0.779700	0.266100	0.347620
C301	C30	0.727100	0.188600	0.357910
C311	C31	0.650300	0.147600	0.343700
C321	C32	0.623700	0.190100	0.319830
C331	C33	0.671400	0.271800	0.310340
C341	C34	0.752100	0.308700	0.323650
C351	C35	0.596300	0.062800	0.354740
C361	C36	0.634600	0.324700	0.286440
C371	C37	0.113600	0.244300	0.391890
C381	C38	0.148000	0.158300	0.408060
C391	C39	0.092900	0.125500	0.429550
C401	C40	0.118300	0.043900	0.442900
C411	C41	0.202300	0.993200	0.436520
C421	C42	0.259800	0.024900	0.415140
C431	C43	0.230400	0.105900	0.400890
C441	C44	0.054000	0.004300	0.465400
C451	C45	0.348600	0.964300	0.407610
C461	C46	0.956200	0.091500	0.357890
C471	C47	0.856200	0.963100	0.339370
C481	C48	0.876500	0.976500	0.385770
C491	C49	0.203300	0.125300	0.316770
C501	C50	0.331100	0.145000	0.286700
C511	C51	0.320900	0.993700	0.312900
C521	C52	0.816000	0.563700	0.278090
C531	C53	0.829400	0.681300	0.311400
C541	C54	0.958500	0.547300	0.305950
C551	C55	0.808000	0.638700	0.614330
C561	C56	0.766100	0.720300	0.597620
C571	C57	0.688600	0.772900	0.607910
C581	C58	0.647600	0.849700	0.593700
C591	C59	0.690100	0.876300	0.569830
C601	C60	0.771800	0.828600	0.560340
C611	C61	0.808700	0.747900	0.573650
C621	C62	0.562800	0.903700	0.604740
C631	C63	0.824700	0.865400	0.536440
C641	C64	0.744300	0.386400	0.641890
C651	C65	0.658300	0.352000	0.658060
C661	C66	0.625500	0.407100	0.679550
C671	C67	0.543900	0.381700	0.692900
C681	C68	0.493200	0.297700	0.686520
C691	C69	0.524900	0.240200	0.665140
C701	C70	0.605900	0.269600	0.650890
C711	C71	0.504300	0.446000	0.715400
C721	C72	0.464300	0.151400	0.657610
C731	C73	0.591500	0.543800	0.607890
C741	C74	0.463100	0.643800	0.589370
C751	C75	0.476500	0.623500	0.635770
C761	C76	0.625300	0.296700	0.566770
C771	C77	0.645000	0.168900	0.536700
C781	C78	0.493700	0.179100	0.562900
C791	C79	0.063700	0.684000	0.528090
C801	C80	0.181300	0.670600	0.561400
C811	C81	0.047300	0.541500	0.555950
C821	C82	0.192000	0.361300	0.114330
C831	C83	0.233900	0.279700	0.097620
C841	C84	0.311400	0.227100	0.107910
C851	C85	0.352400	0.150300	0.093700
C861	C86	0.309900	0.123700	0.069830
C871	C87	0.228200	0.171400	0.060340
C881	C88	0.191300	0.252100	0.073650
C891	C89	0.437200	0.096300	0.104740
C901	C90	0.175300	0.134600	0.036440
C911	C91	0.255700	0.613600	0.141890
C921	C92	0.341700	0.648000	0.158060
C931	C93	0.374500	0.592900	0.179550
C941	C94	0.456100	0.618300	0.192900
C951	C95	0.506800	0.702300	0.186520
C961	C96	0.475100	0.759800	0.165140
C971	C97	0.394100	0.730400	0.150890
C981	C98	0.495700	0.554000	0.215400
C991	C99	0.535700	0.848600	0.157610
C1001	C100	0.408500	0.456200	0.107890
C1011	C101	0.536900	0.356200	0.089370
C1021	C102	0.523500	0.376500	0.135770
C1031	C103	0.374700	0.703300	0.066770
C1041	C104	0.355000	0.831100	0.036700
C1051	C105	0.506300	0.820900	0.062900
C1061	C106	0.936300	0.316000	0.028090
C1071	C107	0.818700	0.329400	0.061400
C1081	C108	0.952700	0.458500	0.055950
C1091	C109	0.361300	0.192000	0.885670
C1101	C110	0.279700	0.233900	0.902380
C1111	C111	0.227100	0.311400	0.892090
C1121	C112	0.150300	0.352400	0.906300
C1131	C113	0.123700	0.309900	0.930170
C1141	C114	0.171400	0.228200	0.939660
C1151	C115	0.252100	0.191300	0.926350
C1161	C116	0.096300	0.437200	0.895260
C1171	C117	0.134600	0.175300	0.963560
C1181	C118	0.613600	0.255700	0.858110
C1191	C119	0.648000	0.341700	0.841940
C1201	C120	0.592900	0.374500	0.820450
C1211	C121	0.618300	0.456100	0.807100
C1221	C122	0.702300	0.506800	0.813480
C1231	C123	0.759800	0.475100	0.834860
C1241	C124	0.730400	0.394100	0.849110
C1251	C125	0.554000	0.495700	0.784600
C1261	C126	0.848600	0.535700	0.842390
C1271	C127	0.456200	0.408500	0.892110
C1281	C128	0.356200	0.536900	0.910630
C1291	C129	0.376500	0.523500	0.864230
C1301	C130	0.703300	0.374700	0.933230
C1311	C131	0.831100	0.355000	0.963300
C1321	C132	0.820900	0.506300	0.937100
C1331	C133	0.316000	0.936300	0.971910
C1341	C134	0.329400	0.818700	0.938600
C1351	C135	0.458500	0.952700	0.944050
C1361	C136	0.638700	0.808000	0.385670
C1371	C137	0.720300	0.766100	0.402380
C1381	C138	0.772900	0.688600	0.392090
C1391	C139	0.849700	0.647600	0.406300
C1401	C140	0.876300	0.690100	0.430170
C1411	C141	0.828600	0.771800	0.439660
C1421	C142	0.747900	0.808700	0.426350
C1431	C143	0.903700	0.562800	0.395260
C1441	C144	0.865400	0.824700	0.463560
C1451	C145	0.386400	0.744300	0.358110
C1461	C146	0.352000	0.658300	0.341940
C1471	C147	0.407100	0.625500	0.320450
C1481	C148	0.381700	0.543900	0.307100
C1491	C149	0.297700	0.493200	0.313480
C1501	C150	0.240200	0.524900	0.334860
C1511	C151	0.269600	0.605900	0.349110
C1521	C152	0.446000	0.504300	0.284600
C1531	C153	0.151400	0.464300	0.342390
C1541	C154	0.543800	0.591500	0.392110
C1551	C155	0.643800	0.463100	0.410630
C1561	C156	0.623500	0.476500	0.364230
C1571	C157	0.296700	0.625300	0.433230
C1581	C158	0.168900	0.645000	0.463300
C1591	C159	0.179100	0.493700	0.437100
C1601	C160	0.684000	0.063700	0.471910
C1611	C161	0.670600	0.181300	0.438600
C1621	C162	0.541500	0.047300	0.444050
C1631	C163	0.692000	0.138700	0.135670
C1641	C164	0.733900	0.220300	0.152380
C1651	C165	0.811400	0.272900	0.142090
C1661	C166	0.852400	0.349700	0.156300
C1671	C167	0.809900	0.376300	0.180170
C1681	C168	0.728200	0.328600	0.189660
C1691	C169	0.691300	0.247900	0.176350
C1701	C170	0.937200	0.403700	0.145260
C1711	C171	0.675300	0.365400	0.213560
C1721	C172	0.755700	0.886400	0.108110
C1731	C173	0.841700	0.852000	0.091940
C1741	C174	0.874500	0.907100	0.070450
C1751	C175	0.956100	0.881700	0.057100
C1761	C176	0.006800	0.797700	0.063480
C1771	C177	0.975100	0.740200	0.084860
C1781	C178	0.894100	0.769600	0.099110
C1791	C179	0.995700	0.946000	0.034600
C1801	C180	0.035700	0.651400	0.092390
C1811	C181	0.908500	0.043800	0.142110
C1821	C182	0.036900	0.143800	0.160630
C1831	C183	0.023500	0.123500	0.114230
C1841	C184	0.874700	0.796700	0.183230
C1851	C185	0.855000	0.668900	0.213300
C1861	C186	0.006300	0.679100	0.187100
C1871	C187	0.436300	0.184000	0.221910
C1881	C188	0.318700	0.170600	0.188600
C1891	C189	0.452700	0.041500	0.194050
C1901	C190	0.308000	0.861300	0.635670
C1911	C191	0.266100	0.779700	0.652380
C1921	C192	0.188600	0.727100	0.642090
C1931	C193	0.147600	0.650300	0.656300
C1941	C194	0.190100	0.623700	0.680170
C1951	C195	0.271800	0.671400	0.689660
C1961	C196	0.308700	0.752100	0.676350
C1971	C197	0.062800	0.596300	0.645260
C1981	C198	0.324700	0.634600	0.713560
C1991	C199	0.244300	0.113600	0.608110
C2001	C200	0.158300	0.148000	0.591940
C2011	C201	0.125500	0.092900	0.570450
C2021	C202	0.043900	0.118300	0.557100
C2031	C203	0.993200	0.202300	0.563480
C2041	C204	0.024900	0.259800	0.584860
C2051	C205	0.105900	0.230400	0.599110
C2061	C206	0.004300	0.054000	0.534600
C2071	C207	0.964300	0.348600	0.592390
C2081	C208	0.091500	0.956200	0.642110
C2091	C209	0.963100	0.856200	0.660630
C2101	C210	0.976500	0.876500	0.614230
C2111	C211	0.125300	0.203300	0.683230
C2121	C212	0.145000	0.331100	0.713300
C2131	C213	0.993700	0.320900	0.687100
C2141	C214	0.563700	0.816000	0.721910
C2151	C215	0.681300	0.829400	0.688600
C2161	C216	0.547300	0.958500	0.694050
N11	N1	0.100000	0.986300	0.860390
N21	N2	0.720000	0.912700	0.805150
N31	N3	0.130800	0.405500	0.797350
N41	N4	0.900000	0.013700	0.360390
N51	N5	0.280000	0.087300	0.305150
N61	N6	0.869200	0.594500	0.297350
N71	N7	0.513700	0.600000	0.610390
N81	N8	0.587300	0.220000	0.555150
N91	N9	0.094500	0.630800	0.547350
N101	N10	0.486300	0.400000	0.110390
N111	N11	0.412700	0.780000	0.055150
N121	N12	0.905500	0.369200	0.047350
N131	N13	0.400000	0.486300	0.889610
N141	N14	0.780000	0.412700	0.944850
N151	N15	0.369200	0.905500	0.952650
N161	N16	0.600000	0.513700	0.389610
N171	N17	0.220000	0.587300	0.444850
N181	N18	0.630800	0.094500	0.452650
N191	N19	0.986300	0.100000	0.139610
N201	N20	0.912700	0.720000	0.194850
N211	N21	0.405500	0.130800	0.202650
N221	N22	0.013700	0.900000	0.639610
N231	N23	0.087300	0.280000	0.694850
N241	N24	0.594500	0.869200	0.702650
O11	O1	0.061400	0.659000	0.852490
O21	O2	0.147100	0.686600	0.888260
O31	O3	0.321100	0.600100	0.779760
O41	O4	0.441600	0.708200	0.775320
O51	O5	0.385300	0.961600	0.878030
O61	O6	0.463200	0.982300	0.840590
O71	O7	0.929400	0.689100	0.903470
O81	O8	0.868500	0.759800	0.867500
O91	O9	0.027200	0.957200	0.968250
O101	O10	0.913100	0.065800	0.977990
O111	O11	0.614800	0.014800	0.885020
O121	O12	0.624700	0.100300	0.922590
O131	O13	0.018800	0.870100	0.837400
O141	O14	0.833400	0.797300	0.812280
O151	O15	0.259500	0.399800	0.768980
O161	O16	0.020000	0.722100	0.796420
O171	O17	0.938600	0.341000	0.352490
O181	O18	0.852900	0.313400	0.388260
O191	O19	0.678900	0.399900	0.279760
O201	O20	0.558400	0.291800	0.275320
O211	O21	0.614700	0.038400	0.378030
O221	O22	0.536800	0.017700	0.340590
O231	O23	0.070600	0.310900	0.403470
O241	O24	0.131500	0.240200	0.367500
O251	O25	0.972800	0.042800	0.468250
O261	O26	0.086900	0.934200	0.477990
O271	O27	0.385200	0.985200	0.385020
O281	O28	0.375300	0.899700	0.422590
O291	O29	0.981200	0.129900	0.337400
O301	O30	0.166600	0.202700	0.312280
O311	O31	0.740500	0.600200	0.268980
O321	O32	0.980000	0.277900	0.296420
O331	O33	0.841000	0.561400	0.602490
O341	O34	0.813400	0.647100	0.638260
O351	O35	0.899900	0.821100	0.529760
O361	O36	0.791800	0.941600	0.525320
O371	O37	0.538400	0.885300	0.628030
O381	O38	0.517700	0.963200	0.590590
O391	O39	0.810900	0.429400	0.653470
O401	O40	0.740200	0.368500	0.617500
O411	O41	0.542800	0.527200	0.718250
O421	O42	0.434200	0.413100	0.727990
O431	O43	0.485200	0.114800	0.635020
O441	O44	0.399700	0.124700	0.672590
O451	O45	0.629900	0.518800	0.587400
O461	O46	0.702700	0.333400	0.562280
O471	O47	0.100200	0.759500	0.518980
O481	O48	0.777900	0.520000	0.546420
O491	O49	0.159000	0.438600	0.102490
O501	O50	0.186600	0.352900	0.138260
O511	O51	0.100100	0.178900	0.029760
O521	O52	0.208200	0.058400	0.025320
O531	O53	0.461600	0.114700	0.128030
O541	O54	0.482300	0.036800	0.090590
O551	O55	0.189100	0.570600	0.153470
O561	O56	0.259800	0.631500	0.117500
O571	O57	0.457200	0.472800	0.218250
O581	O58	0.565800	0.586900	0.227990
O591	O59	0.514800	0.885200	0.135020
O601	O60	0.600300	0.875300	0.172590
O611	O61	0.370100	0.481200	0.087400
O621	O62	0.297300	0.666600	0.062280
O631	O63	0.899800	0.240500	0.018980
O641	O64	0.222100	0.480000	0.046420
O651	O65	0.438600	0.159000	0.897510
O661	O66	0.352900	0.186600	0.861740
O671	O67	0.178900	0.100100	0.970240
O681	O68	0.058400	0.208200	0.974680
O691	O69	0.114700	0.461600	0.871970
O701	O70	0.036800	0.482300	0.909410
O711	O71	0.570600	0.189100	0.846530
O721	O72	0.631500	0.259800	0.882500
O731	O73	0.472800	0.457200	0.781750
O741	O74	0.586900	0.565800	0.772010
O751	O75	0.885200	0.514800	0.864980
O761	O76	0.875300	0.600300	0.827410
O771	O77	0.481200	0.370100	0.912600
O781	O78	0.666600	0.297300	0.937720
O791	O79	0.240500	0.899800	0.981020
O801	O80	0.480000	0.222100	0.953580
O811	O81	0.561400	0.841000	0.397510
O821	O82	0.647100	0.813400	0.361740
O831	O83	0.821100	0.899900	0.470240
O841	O84	0.941600	0.791800	0.474680
O851	O85	0.885300	0.538400	0.371970
O861	O86	0.963200	0.517700	0.409410
O871	O87	0.429400	0.810900	0.346530
O881	O88	0.368500	0.740200	0.382500
O891	O89	0.527200	0.542800	0.281750
O901	O90	0.413100	0.434200	0.272010
O911	O91	0.114800	0.485200	0.364980
O921	O92	0.124700	0.399700	0.327410
O931	O93	0.518800	0.629900	0.412600
O941	O94	0.333400	0.702700	0.437720
O951	O95	0.759500	0.100200	0.481020
O961	O96	0.520000	0.777900	0.453580
O971	O97	0.659000	0.061400	0.147510
O981	O98	0.686600	0.147100	0.111740
O991	O99	0.600100	0.321100	0.220240
O1001	O100	0.708200	0.441600	0.224680
O1011	O101	0.961600	0.385300	0.121970
O1021	O102	0.982300	0.463200	0.159410
O1031	O103	0.689100	0.929400	0.096530
O1041	O104	0.759800	0.868500	0.132500
O1051	O105	0.957200	0.027200	0.031750
O1061	O106	0.065800	0.913100	0.022010
O1071	O107	0.014800	0.614800	0.114980
O1081	O108	0.100300	0.624700	0.077410
O1091	O109	0.870100	0.018800	0.162600
O1101	O110	0.797300	0.833400	0.187720
O1111	O111	0.399800	0.259500	0.231020
O1121	O112	0.722100	0.020000	0.203580
O1131	O113	0.341000	0.938600	0.647510
O1141	O114	0.313400	0.852900	0.611740
O1151	O115	0.399900	0.678900	0.720240
O1161	O116	0.291800	0.558400	0.724680
O1171	O117	0.038400	0.614700	0.621970
O1181	O118	0.017700	0.536800	0.659410
O1191	O119	0.310900	0.070600	0.596530
O1201	O120	0.240200	0.131500	0.632500
O1211	O121	0.042800	0.972800	0.531750
O1221	O122	0.934200	0.086900	0.522010
O1231	O123	0.985200	0.385200	0.614980
O1241	O124	0.899700	0.375300	0.577410
O1251	O125	0.129900	0.981200	0.662600
O1261	O126	0.202700	0.166600	0.687720
O1271	O127	0.600200	0.740500	0.731020
O1281	O128	0.277900	0.980000	0.703580
