data_CEJBEA_freeONLY_PM
_symmetry_space_group_name_H-M	'P1'
_cell_length_a	10.286000
_cell_length_b	19.161000
_cell_length_c	19.787000
_cell_angle_alpha	77.520000
_cell_angle_beta	76.720000
_cell_angle_gamma	81.020000
_symmetry_Int_Tables_number 1

loop_
_symmetry_equiv_pos_as_xyz
'x,y,z'

loop_
_atom_site_label
_atom_site_type_symbol
_atom_site_fract_x
_atom_site_fract_y
_atom_site_fract_z
Dy11	Dy1	0.367000	0.941670	0.571570
Dy21	Dy2	0.816080	0.480640	0.567610
Dy31	Dy3	0.851560	0.580030	0.961410
Dy41	Dy4	0.633000	0.058330	0.428430
Dy51	Dy5	0.183920	0.519360	0.432390
Dy61	Dy6	0.148440	0.419970	0.038590
H11	H1	0.884200	0.003500	0.570400
H21	H2	0.590100	0.000300	0.743000
H31	H3	0.746000	0.996600	0.810900
H41	H4	0.972400	0.992100	0.760100
H51	H5	0.706600	0.732600	0.528900
H61	H6	0.005000	0.715500	0.361300
H71	H7	0.956200	0.835700	0.315300
H81	H8	0.778600	0.904300	0.373700
H91	H9	0.983400	0.485700	0.253000
H101	H10	0.658900	0.580700	0.177900
H111	H11	0.550500	0.598600	0.290600
H121	H12	0.659300	0.558500	0.384300
H131	H13	0.611500	0.417700	0.003100
H141	H14	0.527000	0.224500	0.992400
H151	H15	0.748600	0.177000	0.996200
H161	H16	0.900900	0.250800	0.003900
H171	H17	0.159200	0.872600	0.499300
H181	H18	0.035800	0.776700	0.510000
H191	H19	0.038700	0.684900	0.604600
H201	H20	0.127300	0.626300	0.726100
H211	H21	0.219200	0.638400	0.804200
H221	H22	0.359700	0.712200	0.852300
H231	H23	0.463700	0.810400	0.835800
H241	H24	0.474900	0.892200	0.730300
H251	H25	0.649500	0.402200	0.479800
H261	H26	0.549700	0.301800	0.480300
H271	H27	0.554600	0.206100	0.572400
H281	H28	0.618700	0.154000	0.693100
H291	H29	0.687600	0.169200	0.786300
H301	H30	0.765400	0.250700	0.846800
H311	H31	0.829500	0.360600	0.845100
H321	H32	0.837600	0.448400	0.742400
H331	H33	0.993600	0.742300	0.885300
H341	H34	0.003500	0.839300	0.792600
H351	H35	0.885200	0.845500	0.705500
H361	H36	0.738800	0.785000	0.652100
H371	H37	0.602600	0.699800	0.666300
H381	H38	0.493400	0.592900	0.743800
H391	H39	0.481400	0.506100	0.843300
H401	H40	0.630400	0.498900	0.916400
H411	H41	0.115800	0.996500	0.429600
H421	H42	0.409900	0.999700	0.257000
H431	H43	0.254000	0.003400	0.189100
H441	H44	0.027600	0.007900	0.239900
H451	H45	0.293400	0.267400	0.471100
H461	H46	0.995000	0.284500	0.638700
H471	H47	0.043800	0.164300	0.684700
H481	H48	0.221400	0.095700	0.626300
H491	H49	0.016600	0.514300	0.747000
H501	H50	0.341100	0.419300	0.822100
H511	H51	0.449500	0.401400	0.709400
H521	H52	0.340700	0.441500	0.615700
H531	H53	0.388500	0.582300	0.996900
H541	H54	0.473000	0.775500	0.007600
H551	H55	0.251400	0.823000	0.003800
H561	H56	0.099100	0.749200	0.996100
H571	H57	0.840800	0.127400	0.500700
H581	H58	0.964200	0.223300	0.490000
H591	H59	0.961300	0.315100	0.395400
H601	H60	0.872700	0.373700	0.273900
H611	H61	0.780800	0.361600	0.195800
H621	H62	0.640300	0.287800	0.147700
H631	H63	0.536300	0.189600	0.164200
H641	H64	0.525100	0.107800	0.269700
H651	H65	0.350500	0.597800	0.520200
H661	H66	0.450300	0.698200	0.519700
H671	H67	0.445400	0.793900	0.427600
H681	H68	0.381300	0.846000	0.306900
H691	H69	0.312400	0.830800	0.213700
H701	H70	0.234600	0.749300	0.153200
H711	H71	0.170500	0.639400	0.154900
H721	H72	0.162400	0.551600	0.257600
H731	H73	0.006400	0.257700	0.114700
H741	H74	0.996500	0.160700	0.207400
H751	H75	0.114800	0.154500	0.294500
H761	H76	0.261200	0.215000	0.347900
H771	H77	0.397400	0.300200	0.333700
H781	H78	0.506600	0.407100	0.256200
H791	H79	0.518600	0.493900	0.156700
H801	H80	0.369600	0.501100	0.083600
C11	C1	0.951100	0.993860	0.660590
C21	C2	0.856500	0.000830	0.618970
C31	C3	0.720000	0.003900	0.649730
C41	C4	0.680700	0.000400	0.721810
C51	C5	0.774200	0.996900	0.762740
C61	C6	0.909500	0.994000	0.732460
C71	C7	0.098000	0.985100	0.627250
C81	C8	0.619100	0.013490	0.602810
C91	C9	0.726200	0.825940	0.458720
C101	C10	0.756800	0.753490	0.485890
C111	C11	0.860300	0.712220	0.450100
C121	C12	0.935000	0.743200	0.385800
C131	C13	0.905200	0.815000	0.358100
C141	C14	0.800100	0.856400	0.393400
C151	C15	0.617200	0.870650	0.498390
C161	C16	0.895100	0.634680	0.478800
C171	C17	0.834700	0.519760	0.327630
C181	C18	0.896000	0.508410	0.260590
C191	C19	0.830900	0.529960	0.204000
C201	C20	0.702800	0.564500	0.215500
C211	C21	0.637700	0.575600	0.283100
C221	C22	0.703300	0.552300	0.338970
C231	C23	0.907700	0.497660	0.387730
C241	C24	0.895800	0.515040	0.131970
C251	C25	0.772200	0.342120	0.003330
C261	C26	0.639600	0.369450	0.001440
C271	C27	0.549400	0.325080	0.997080
C281	C28	0.588700	0.253900	0.995200
C291	C29	0.721500	0.225400	0.997600
C301	C30	0.812500	0.269600	0.001900
C311	C31	0.870000	0.391250	0.006400
C321	C32	0.407300	0.358000	0.995710
C331	C33	0.160100	0.834900	0.537800
C341	C34	0.085200	0.777300	0.543700
C351	C35	0.087700	0.723200	0.599900
C361	C36	0.159700	0.722700	0.650300
C371	C37	0.232100	0.783000	0.641300
C381	C38	0.168100	0.668000	0.719000
C391	C39	0.223300	0.674900	0.764400
C401	C40	0.296400	0.735400	0.762500
C411	C41	0.360100	0.746100	0.810800
C421	C42	0.422900	0.803000	0.800900
C431	C43	0.428000	0.852600	0.737100
C441	C44	0.301400	0.788000	0.695100
C451	C45	0.646100	0.365000	0.518900
C461	C46	0.587900	0.303900	0.518000
C471	C47	0.588700	0.248100	0.573000
C481	C48	0.639600	0.253400	0.629800
C491	C49	0.689600	0.318570	0.628700
C501	C50	0.645700	0.198400	0.692200
C511	C51	0.686800	0.206800	0.747700
C521	C52	0.729800	0.273000	0.749300
C531	C53	0.766900	0.286300	0.806500
C541	C54	0.806300	0.351100	0.805500
C551	C55	0.811200	0.404000	0.743100
C561	C56	0.736100	0.328600	0.688900
C571	C57	0.946600	0.743600	0.850000
C581	C58	0.952600	0.802600	0.794300
C591	C59	0.883000	0.806000	0.742500
C601	C60	0.808400	0.750200	0.744900
C611	C61	0.805900	0.692700	0.803590
C621	C62	0.732200	0.749200	0.692400
C631	C63	0.652500	0.698200	0.700400
C641	C64	0.642700	0.640800	0.760750
C651	C65	0.550100	0.590600	0.774800
C661	C66	0.543500	0.539300	0.833000
C671	C67	0.631400	0.536600	0.877800
C681	C68	0.722000	0.637200	0.810480
C691	C69	0.048900	0.006140	0.339410
C701	C70	0.143500	0.999170	0.381030
C711	C71	0.280000	0.996100	0.350270
C721	C72	0.319300	0.999600	0.278190
C731	C73	0.225800	0.003100	0.237260
C741	C74	0.090500	0.006000	0.267540
C751	C75	0.902000	0.014900	0.372750
C761	C76	0.380900	0.986510	0.397190
C771	C77	0.273800	0.174060	0.541280
C781	C78	0.243200	0.246510	0.514110
C791	C79	0.139700	0.287780	0.549900
C801	C80	0.065000	0.256800	0.614200
C811	C81	0.094800	0.185000	0.641900
C821	C82	0.199900	0.143600	0.606600
C831	C83	0.382800	0.129350	0.501610
C841	C84	0.104900	0.365320	0.521200
C851	C85	0.165300	0.480240	0.672370
C861	C86	0.104000	0.491590	0.739410
C871	C87	0.169100	0.470040	0.796000
C881	C88	0.297200	0.435500	0.784500
C891	C89	0.362300	0.424400	0.716900
C901	C90	0.296700	0.447700	0.661030
C911	C91	0.092300	0.502340	0.612270
C921	C92	0.104200	0.484960	0.868030
C931	C93	0.227800	0.657880	0.996670
C941	C94	0.360400	0.630550	0.998560
C951	C95	0.450600	0.674920	0.002920
C961	C96	0.411300	0.746100	0.004800
C971	C97	0.278500	0.774600	0.002400
C981	C98	0.187500	0.730400	0.998100
C991	C99	0.130000	0.608750	0.993600
C1001	C100	0.592700	0.642000	0.004290
C1011	C101	0.839900	0.165100	0.462200
C1021	C102	0.914800	0.222700	0.456300
C1031	C103	0.912300	0.276800	0.400100
C1041	C104	0.840300	0.277300	0.349700
C1051	C105	0.767900	0.217000	0.358700
C1061	C106	0.831900	0.332000	0.281000
C1071	C107	0.776700	0.325100	0.235600
C1081	C108	0.703600	0.264600	0.237500
C1091	C109	0.639900	0.253900	0.189200
C1101	C110	0.577100	0.197000	0.199100
C1111	C111	0.572000	0.147400	0.262900
C1121	C112	0.698600	0.212000	0.304900
C1131	C113	0.353900	0.635000	0.481100
C1141	C114	0.412100	0.696100	0.482000
C1151	C115	0.411300	0.751900	0.427000
C1161	C116	0.360400	0.746600	0.370200
C1171	C117	0.310400	0.681430	0.371300
C1181	C118	0.354300	0.801600	0.307800
C1191	C119	0.313200	0.793200	0.252300
C1201	C120	0.270200	0.727000	0.250700
C1211	C121	0.233100	0.713700	0.193500
C1221	C122	0.193700	0.648900	0.194500
C1231	C123	0.188800	0.596000	0.256900
C1241	C124	0.263900	0.671400	0.311100
C1251	C125	0.053400	0.256400	0.150000
C1261	C126	0.047400	0.197400	0.205700
C1271	C127	0.117000	0.194000	0.257500
C1281	C128	0.191600	0.249800	0.255100
C1291	C129	0.194100	0.307300	0.196410
C1301	C130	0.267800	0.250800	0.307600
C1311	C131	0.347500	0.301800	0.299600
C1321	C132	0.357300	0.359200	0.239250
C1331	C133	0.449900	0.409400	0.225200
C1341	C134	0.456500	0.460700	0.167000
C1351	C135	0.368600	0.463400	0.122200
C1361	C136	0.278000	0.362800	0.189520
N11	N1	0.779600	0.392230	0.685830
N21	N2	0.696000	0.372740	0.571780
N31	N3	0.231900	0.837480	0.584940
N41	N4	0.369700	0.846400	0.685770
N51	N5	0.876600	0.689000	0.855020
N61	N6	0.717000	0.585180	0.868540
N71	N7	0.555500	0.551900	0.609010
N81	N8	0.220400	0.607770	0.314170
N91	N9	0.304000	0.627260	0.428220
N101	N10	0.768100	0.162520	0.415060
N111	N11	0.630300	0.153600	0.314230
N121	N12	0.123400	0.311000	0.144980
N131	N13	0.283000	0.414820	0.131460
N141	N14	0.444500	0.448100	0.390990
O11	O1	0.134000	0.989550	0.562340
O21	O2	0.185000	0.971720	0.666880
O31	O3	0.517800	0.978910	0.626100
O41	O4	0.645600	0.054360	0.544600
O51	O5	0.530100	0.841070	0.545600
O61	O6	0.613000	0.938880	0.482390
O71	O7	0.811900	0.605010	0.528380
O81	O8	0.005400	0.603310	0.451330
O91	O9	0.836400	0.488070	0.448800
O101	O10	0.033300	0.490480	0.373650
O111	O11	0.853800	0.555270	0.080460
O121	O12	0.987400	0.463570	0.127680
O131	O13	0.840600	0.457630	0.987970
O141	O14	0.976100	0.362800	0.027880
O151	O15	0.313700	0.318360	0.012240
O161	O16	0.382300	0.425970	0.982110
O171	O17	0.582900	0.529630	0.552490
O181	O18	0.640000	0.532100	0.648930
O191	O19	0.454300	0.593200	0.626100
O201	O20	0.866000	0.010450	0.437660
O211	O21	0.815000	0.028280	0.333120
O221	O22	0.482200	0.021090	0.373900
O231	O23	0.354400	0.945640	0.455400
O241	O24	0.469900	0.158930	0.454400
O251	O25	0.387000	0.061120	0.517610
O261	O26	0.188100	0.394990	0.471620
O271	O27	0.994600	0.396690	0.548670
O281	O28	0.163600	0.511930	0.551200
O291	O29	0.966700	0.509520	0.626350
O301	O30	0.146200	0.444730	0.919540
O311	O31	0.012600	0.536430	0.872320
O321	O32	0.159400	0.542370	0.012030
O331	O33	0.023900	0.637200	0.972120
O341	O34	0.686300	0.681640	0.987760
O351	O35	0.617700	0.574030	0.017890
O361	O36	0.417100	0.470370	0.447510
O371	O37	0.360000	0.467900	0.351070
O381	O38	0.545700	0.406800	0.373900
