data_CEKRUH_freeONLY_PM
_symmetry_space_group_name_H-M	'P1'
_cell_length_a	28.555400
_cell_length_b	28.555400
_cell_length_c	19.215500
_cell_angle_alpha	90.000000
_cell_angle_beta	90.000000
_cell_angle_gamma	120.000000
_symmetry_Int_Tables_number 1

loop_
_symmetry_equiv_pos_as_xyz
'x,y,z'

loop_
_atom_site_label
_atom_site_type_symbol
_atom_site_fract_x
_atom_site_fract_y
_atom_site_fract_z
Mn11	Mn1	0.020290	0.764170	0.080770
Mn21	Mn2	0.734210	0.755160	0.851560
Mn31	Mn3	0.686690	0.590490	0.183450
Mn41	Mn4	0.354250	0.926260	0.180160
Mn51	Mn5	0.910190	0.598040	0.746000
Mn61	Mn6	0.071040	0.646350	0.409320
Fe11	Fe1	0.822730	0.643790	0.965500
Fe21	Fe2	0.487420	0.510270	0.295130
Fe31	Fe3	0.157190	0.846690	0.298360
Br11	Br1	0.099850	0.026790	0.238700
Br21	Br2	0.214660	0.672390	0.030750
Br31	Br3	0.923070	0.023200	0.710300
Br41	Br4	0.447760	0.661950	0.891180
Br51	Br5	0.767440	0.407660	0.027650
Br61	Br6	0.883080	0.875470	0.232110
Br71	Br7	0.432590	0.740260	0.027550
Br81	Br8	0.545740	0.214140	0.226490
Br91	Br9	0.643100	0.409160	0.889450
Br101	Br10	0.006300	0.885530	0.704990
Br111	Br11	0.256860	0.565790	0.556170
Br121	Br12	0.786340	0.450120	0.365970
N11	N1	0.978520	0.771410	0.161670
N21	N2	0.002950	0.689760	0.111850
N31	N3	0.784100	0.764670	0.771330
N41	N4	0.678530	0.679830	0.820940
N51	N5	0.645300	0.541490	0.102590
N61	N6	0.669280	0.647470	0.152760
N71	N7	0.312350	0.876580	0.099530
N81	N8	0.336190	0.982730	0.148890
N91	N9	0.900960	0.547910	0.826070
N101	N10	0.985070	0.653690	0.777230
N111	N11	0.120340	0.686790	0.489860
N121	N12	0.014790	0.665000	0.439750
N131	N13	0.939490	0.724410	0.019330
N141	N14	0.778380	0.717870	0.912960
N151	N15	0.709270	0.554770	0.918540
N161	N16	0.851930	0.558080	0.011850
N171	N17	0.763500	0.632190	0.106350
N181	N18	0.874190	0.638740	0.824500
N191	N19	0.605450	0.548740	0.244500
N201	N20	0.430780	0.967250	0.102380
N211	N21	0.372860	0.484610	0.339820
N221	N22	0.029520	0.569250	0.486890
N231	N23	0.947660	0.554780	0.683990
N241	N24	0.515460	0.624260	0.246690
N251	N25	0.043750	0.821210	0.347080
N261	N26	0.114790	0.727920	0.348500
N271	N27	0.273720	0.884950	0.242170
N281	N28	0.184970	0.961720	0.254440
N291	N29	0.208860	0.902280	0.439950
N301	N30	0.097120	0.799010	0.157940
O11	O1	0.044080	0.836160	0.054660
O21	O2	0.062430	0.760140	0.006980
O31	O3	0.781000	0.825830	0.881330
O41	O4	0.686990	0.749740	0.924370
O51	O5	0.710810	0.542860	0.210320
O61	O6	0.727910	0.636270	0.257800
O71	O7	0.377610	0.878140	0.207230
O81	O8	0.397180	0.973350	0.252730
O91	O9	0.839240	0.550740	0.717090
O101	O10	0.914890	0.645640	0.674130
O111	O11	0.117960	0.621810	0.380850
O121	O12	0.024780	0.605340	0.335210
C11	C1	0.896130	0.697190	0.998430
C21	C2	0.797750	0.693500	0.933060
C31	C3	0.752010	0.587430	0.935270
C41	C4	0.840670	0.589780	0.995780
C51	C5	0.788400	0.638850	0.056280
C61	C6	0.854610	0.642740	0.874770
C71	C7	0.561610	0.531990	0.263960
C81	C8	0.455540	0.973160	0.052430
C91	C9	0.415790	0.494900	0.324490
C101	C10	0.024850	0.545510	0.537790
C111	C11	0.972770	0.536270	0.662340
C121	C12	0.504170	0.581910	0.263820
C131	C13	0.086940	0.831870	0.330260
C141	C14	0.133130	0.771710	0.329180
C151	C15	0.230130	0.867860	0.263670
C161	C16	0.174240	0.918600	0.269580
C171	C17	0.189170	0.879030	0.389650
C181	C18	0.121810	0.817400	0.207760
C191	C19	0.059200	0.876540	0.099410
C201	C20	0.099730	0.928530	0.079510
H11	H1	0.118400	0.933300	0.036800
C211	C21	0.112800	0.972710	0.121030
H21	H2	0.140400	0.007700	0.107300
C221	C22	0.084940	0.965460	0.183790
C231	C23	0.046990	0.915540	0.206120
H31	H3	0.029200	0.911400	0.249400
C241	C24	0.034080	0.869730	0.164780
C251	C25	0.992110	0.817840	0.188850
H41	H4	0.972400	0.817700	0.228800
C261	C26	0.930510	0.723810	0.191090
H51	H5	0.900800	0.710300	0.156600
H61	H6	0.918600	0.735200	0.232900
C271	C27	0.940190	0.677230	0.211210
C281	C28	0.951200	0.652820	0.146140
H71	H7	0.951200	0.619400	0.159600
H81	H8	0.921400	0.642700	0.112400
C291	C29	0.037700	0.673880	0.104650
H91	H9	0.030900	0.642200	0.129300
C301	C30	0.086070	0.699740	0.062620
C311	C31	0.121450	0.678930	0.066300
H101	H10	0.114800	0.650900	0.098400
C321	C32	0.165710	0.699400	0.023200
C331	C33	0.175240	0.738630	0.974180
H111	H11	0.205600	0.751600	0.944000
C341	C34	0.140370	0.758740	0.969480
H121	H12	0.146800	0.785500	0.935500
C351	C35	0.095360	0.740410	0.014010
C361	C36	0.886990	0.633180	0.242800
H131	H13	0.889500	0.600700	0.251500
H141	H14	0.857300	0.624500	0.210300
H151	H15	0.880200	0.646200	0.286700
C371	C37	0.986760	0.696250	0.262960
H161	H16	0.019100	0.727300	0.243600
H171	H17	0.994200	0.666800	0.271900
H181	H18	0.976900	0.706800	0.306600
C381	C38	0.808390	0.867730	0.838690
C391	C39	0.822470	0.919850	0.864220
H191	H19	0.809100	0.923300	0.908000
C401	C40	0.855540	0.965430	0.825700
H201	H20	0.864600	0.000200	0.842600
C411	C41	0.875520	0.960140	0.762030
C421	C42	0.861780	0.910420	0.736320
H211	H21	0.875500	0.907600	0.692500
C431	C43	0.827480	0.863210	0.773900
C441	C44	0.817260	0.811610	0.746010
H221	H22	0.836800	0.812600	0.705500
C451	C45	0.785810	0.718190	0.741000
H231	H23	0.803100	0.705400	0.774800
H241	H24	0.808800	0.730400	0.698800
C461	C46	0.730350	0.670740	0.721350
C471	C47	0.695340	0.644870	0.785600
H251	H25	0.662600	0.610900	0.771600
H261	H26	0.715800	0.635400	0.818900
C481	C48	0.627730	0.661280	0.829560
H271	H27	0.603700	0.627400	0.808700
C491	C49	0.603950	0.687450	0.868330
C501	C50	0.547560	0.666680	0.862960
H281	H28	0.526600	0.637600	0.832100
C511	C51	0.523210	0.688510	0.902420
C521	C52	0.552530	0.730180	0.948640
H291	H29	0.534900	0.744800	0.975500
C531	C53	0.607480	0.750560	0.955630
H301	H30	0.627400	0.778800	0.988000
C541	C54	0.634070	0.730080	0.915450
C551	C55	0.740550	0.627640	0.687700
H311	H31	0.762300	0.642500	0.645500
H321	H32	0.705900	0.595800	0.675600
H331	H33	0.759900	0.617200	0.720600
C561	C56	0.701030	0.689030	0.670470
H341	H34	0.695200	0.716600	0.692800
H351	H35	0.666100	0.657900	0.657600
H361	H36	0.723100	0.704300	0.628600
C571	C57	0.726100	0.517330	0.166100
C581	C58	0.766850	0.505510	0.186100
H371	H37	0.785400	0.519100	0.228900
C591	C59	0.779870	0.474850	0.144500
H381	H38	0.807700	0.467700	0.158000
C601	C60	0.752210	0.454200	0.082500
C611	C61	0.713920	0.465810	0.059340
H391	H39	0.696200	0.451800	0.016200
C621	C62	0.701080	0.498810	0.100280
C631	C63	0.658890	0.508430	0.075310
H401	H40	0.639400	0.488800	0.035300
C641	C64	0.597340	0.541160	0.072980
H411	H41	0.567500	0.524800	0.107300
H421	H42	0.585600	0.518000	0.030900
C651	C65	0.607230	0.597130	0.053490
C661	C66	0.617300	0.632650	0.117850
H431	H43	0.617400	0.666100	0.103800
H441	H44	0.587300	0.613100	0.151300
C671	C67	0.703280	0.697990	0.161570
H451	H45	0.695500	0.722900	0.139000
C681	C68	0.752200	0.720500	0.202570
C691	C69	0.788260	0.776490	0.197780
H461	H46	0.781900	0.797800	0.165300
C701	C70	0.832750	0.800060	0.240360
C711	C71	0.842620	0.769780	0.289110
H471	H47	0.873600	0.786700	0.318200
C721	C72	0.807070	0.715240	0.294660
H481	H48	0.813400	0.694800	0.328500
C731	C73	0.761570	0.689210	0.251170
C741	C74	0.553350	0.587850	0.021600
H491	H49	0.545600	0.566600	0.978800
H501	H50	0.556400	0.622800	0.010800
H511	H51	0.523900	0.568300	0.055000
C751	C75	0.653640	0.625500	0.001300
H521	H52	0.686500	0.627900	0.020700
H531	H53	0.660000	0.662000	0.991900
H541	H54	0.644100	0.604800	0.957900
C761	C76	0.392750	0.852410	0.163960
C771	C77	0.432070	0.839100	0.185090
H551	H55	0.450000	0.852100	0.228400
C781	C78	0.444640	0.807790	0.144200
H561	H56	0.471800	0.799900	0.158700
C791	C79	0.417960	0.787470	0.081350
C801	C80	0.380820	0.800160	0.057980
H571	H57	0.363300	0.786600	0.014600
C811	C81	0.368430	0.833640	0.098490
C821	C82	0.326220	0.843820	0.072900
H581	H58	0.307000	0.824300	0.032700
C831	C83	0.264060	0.875750	0.070250
H591	H59	0.234500	0.859700	0.105000
H601	H60	0.252000	0.852200	0.028600
C841	C84	0.273800	0.931680	0.050000
C851	C85	0.284350	0.967120	0.113960
H611	H61	0.284000	0.000300	0.099900
H621	H62	0.254500	0.947500	0.147700
C861	C86	0.370150	0.033420	0.155570
H631	H63	0.362500	0.057700	0.131000
C871	C87	0.419020	0.057000	0.197050
C881	C88	0.453380	0.113210	0.192630
H641	H64	0.445900	0.134000	0.160600
C891	C89	0.498150	0.137930	0.235310
C901	C90	0.508980	0.108440	0.282960
H651	H65	0.539800	0.126100	0.312300
C911	C91	0.475190	0.053500	0.288140
H661	H66	0.482800	0.033600	0.321500
C921	C92	0.429580	0.026040	0.245100
C931	C93	0.220250	0.922160	0.017700
H671	H67	0.212400	0.900100	0.975600
H681	H68	0.223500	0.957000	0.005700
H691	H69	0.190800	0.903300	0.051300
C941	C94	0.320270	0.959650	0.998000
H701	H70	0.353300	0.962900	0.018200
H711	H71	0.326100	0.995700	0.987300
H721	H72	0.311200	0.938200	0.955200
C951	C95	0.797550	0.523420	0.758970
C961	C96	0.745410	0.509570	0.735000
H731	H73	0.741500	0.523400	0.691800
C971	C97	0.700270	0.476230	0.773600
H741	H74	0.665300	0.466500	0.756600
C981	C98	0.705970	0.456850	0.837670
C991	C99	0.755840	0.470610	0.863200
H751	H75	0.759000	0.457100	0.907100
C1001	C100	0.802600	0.504820	0.824680
C1011	C101	0.854080	0.515110	0.852070
H761	H76	0.853300	0.496000	0.892900
C1021	C102	0.947430	0.546030	0.856410
H771	H77	0.960500	0.529100	0.822400
H781	H78	0.935100	0.522800	0.898300
C1031	C103	0.994670	0.601640	0.876560
C1041	C104	0.020670	0.637320	0.812180
H791	H79	0.054500	0.670200	0.826400
H801	H80	0.030400	0.617300	0.778600
C1051	C105	0.003260	0.704730	0.769570
H811	H81	0.036400	0.728700	0.792000
C1061	C106	0.977900	0.728750	0.730020
C1071	C107	0.000050	0.784970	0.735280
H821	H82	0.029300	0.805600	0.766000
C1081	C108	0.978750	0.809730	0.695200
C1091	C109	0.937170	0.780680	0.647690
H831	H83	0.923600	0.798700	0.619700
C1101	C110	0.916160	0.725960	0.641730
H841	H84	0.887900	0.706200	0.609200
C1111	C111	0.935530	0.698370	0.682690
C1121	C112	0.037980	0.591650	0.909500
H851	H85	0.069900	0.626400	0.921200
H861	H86	0.048200	0.572200	0.876400
H871	H87	0.023500	0.570000	0.951900
C1131	C113	0.976540	0.630590	0.927400
H881	H88	0.948400	0.635800	0.905500
H891	H89	0.007500	0.665800	0.939600
H901	H90	0.962000	0.608700	0.969500
C1141	C114	0.144750	0.607570	0.423610
C1151	C115	0.157390	0.567890	0.401300
H911	H91	0.143200	0.549700	0.358400
C1161	C116	0.189540	0.555230	0.440200
H921	H92	0.197800	0.528700	0.424200
C1171	C117	0.210230	0.581560	0.503500
C1181	C118	0.197380	0.618700	0.528500
H931	H93	0.211300	0.635800	0.572100
C1191	C119	0.163430	0.631550	0.489340
C1201	C120	0.153670	0.673110	0.516110
H941	H94	0.173300	0.692100	0.556400
C1211	C121	0.121600	0.734820	0.520410
H951	H95	0.139000	0.765100	0.486900
H961	H96	0.144300	0.745500	0.562900
C1221	C122	0.065640	0.726350	0.539560
C1231	C123	0.030750	0.716800	0.474880
H971	H97	0.997700	0.717600	0.488600
H981	H98	0.051000	0.746700	0.441600
C1241	C124	0.963870	0.631980	0.430750
H991	H99	0.939300	0.640900	0.452100
C1251	C125	0.941000	0.582350	0.390830
C1261	C126	0.884910	0.546490	0.396270
H1001	H100	0.863600	0.554000	0.427400
C1271	C127	0.861400	0.500390	0.355860
C1281	C128	0.891280	0.489630	0.308430
H1011	H101	0.874100	0.457800	0.280700
C1291	C129	0.945670	0.524900	0.301540
H1021	H102	0.965800	0.517800	0.268100
C1301	C130	0.972170	0.571600	0.343510
C1311	C131	0.075550	0.779340	0.572560
H1031	H103	0.040900	0.775700	0.586900
H1041	H104	0.093100	0.808700	0.538700
H1051	H105	0.098900	0.787400	0.613400
C1321	C132	0.036730	0.679120	0.590650
H1061	H106	0.001500	0.674800	0.603200
H1071	H107	0.058800	0.686500	0.632700
H1081	H108	0.031400	0.645800	0.568800
Mn71	Mn7	0.235830	0.256120	0.747440
Mn81	Mn8	0.244840	0.979050	0.518230
Mn91	Mn9	0.409510	0.096200	0.850120
Mn101	Mn10	0.073740	0.427990	0.846830
Mn111	Mn11	0.401960	0.312150	0.412670
Mn121	Mn12	0.353650	0.424690	0.075990
Fe41	Fe4	0.356210	0.178940	0.632170
Fe51	Fe5	0.489730	0.977150	0.961800
Fe61	Fe6	0.153310	0.310500	0.965030
Br131	Br13	0.973210	0.073060	0.905370
Br141	Br14	0.327610	0.542270	0.697420
Br151	Br15	0.976800	0.899870	0.376970
Br161	Br16	0.338050	0.785800	0.557840
Br171	Br17	0.592340	0.359770	0.694320
Br181	Br18	0.124530	0.007600	0.898780
Br191	Br19	0.259740	0.692330	0.694220
Br201	Br20	0.785860	0.331600	0.893160
Br211	Br21	0.590840	0.233940	0.556120
Br221	Br22	0.114470	0.120770	0.371660
Br231	Br23	0.434210	0.691070	0.222840
Br241	Br24	0.549880	0.336220	0.032640
N311	N31	0.228590	0.207110	0.828340
N321	N32	0.310240	0.313190	0.778520
N331	N33	0.235330	0.019430	0.438000
N341	N34	0.320170	0.998700	0.487610
N351	N35	0.458510	0.103810	0.769260
N361	N36	0.352530	0.021810	0.819430
N371	N37	0.123420	0.435770	0.766200
N381	N38	0.017270	0.353460	0.815560
N391	N39	0.452090	0.353050	0.492740
N401	N40	0.346310	0.331380	0.443900
N411	N41	0.313210	0.433550	0.156530
N421	N42	0.335000	0.349790	0.106420
N431	N43	0.275590	0.215080	0.686000
N441	N44	0.282130	0.060510	0.579630
N451	N45	0.445230	0.154500	0.585210
N461	N46	0.441920	0.293850	0.678520
N471	N47	0.367810	0.131310	0.773020
N481	N48	0.361260	0.235450	0.491170
N491	N49	0.451260	0.056710	0.911170
N501	N50	0.032750	0.463530	0.769050
N511	N51	0.515390	0.888250	0.006490
N521	N52	0.430750	0.460270	0.153560
N531	N53	0.445220	0.392880	0.350660
N541	N54	0.375740	0.891200	0.913360
N551	N55	0.178790	0.222540	0.013750
N561	N56	0.272080	0.386870	0.015170
N571	N57	0.115050	0.388770	0.908840
N581	N58	0.038280	0.223250	0.921110
N591	N59	0.097720	0.306580	0.106620
N601	N60	0.200990	0.298110	0.824610
O131	O13	0.163840	0.207920	0.721330
O141	O14	0.239860	0.302290	0.673650
O151	O15	0.174170	0.955170	0.548000
O161	O16	0.250260	0.937250	0.591040
O171	O17	0.457140	0.167950	0.876990
O181	O18	0.363730	0.091640	0.924470
O191	O19	0.121860	0.499470	0.873900
O201	O20	0.026650	0.423830	0.919400
O211	O21	0.449260	0.288500	0.383760
O221	O22	0.354360	0.269250	0.340800
O231	O23	0.378190	0.496150	0.047520
O241	O24	0.394660	0.419440	0.001880
C1331	C133	0.302810	0.198940	0.665100
C1341	C134	0.306500	0.104250	0.599730
C1351	C135	0.412570	0.164580	0.601940
C1361	C136	0.410220	0.250890	0.662450
C1371	C137	0.361150	0.149550	0.722950
C1381	C138	0.357260	0.211870	0.541440
C1391	C139	0.468010	0.029620	0.930630
C1401	C140	0.026840	0.482380	0.719100
C1411	C141	0.505100	0.920890	0.991160
C1421	C142	0.454490	0.479340	0.204460
C1431	C143	0.463730	0.436500	0.329010
C1441	C144	0.418090	0.922260	0.930490
C1451	C145	0.168130	0.255070	0.996930
C1461	C146	0.228290	0.361420	0.995850
C1471	C147	0.132140	0.362270	0.930340
C1481	C148	0.081400	0.255640	0.936250
C1491	C149	0.120970	0.310140	0.056320
C1501	C150	0.182600	0.304410	0.874430
C1511	C151	0.123460	0.182660	0.766080
C1521	C152	0.071470	0.171200	0.746180
H1091	H109	0.066700	0.185100	0.703470
C1531	C153	0.027290	0.140090	0.787700
H1101	H110	0.992300	0.132700	0.773970
C1541	C154	0.034540	0.119480	0.850460
C1551	C155	0.084460	0.131450	0.872790
H1111	H111	0.088600	0.117800	0.916070
C1561	C156	0.130270	0.164350	0.831450
C1571	C157	0.182160	0.174270	0.855520
H1121	H112	0.182300	0.154700	0.895470
C1581	C158	0.276190	0.206700	0.857760
H1131	H113	0.289700	0.190500	0.823270
H1141	H114	0.264800	0.183400	0.899570
C1591	C159	0.322770	0.262960	0.877880
C1601	C160	0.347180	0.298380	0.812810
H1151	H115	0.380600	0.331800	0.826270
H1161	H116	0.357300	0.278700	0.779070
C1611	C161	0.326120	0.363820	0.771320
H1171	H117	0.357800	0.388700	0.795970
C1621	C162	0.300260	0.386330	0.729290
C1631	C163	0.321070	0.442520	0.732970
H1181	H118	0.349100	0.463900	0.765070
C1641	C164	0.300600	0.466310	0.689870
C1651	C165	0.261370	0.436610	0.640850
H1191	H119	0.248400	0.454000	0.610670
C1661	C166	0.241260	0.381630	0.636150
H1201	H120	0.214500	0.361300	0.602170
C1671	C167	0.259590	0.354950	0.680680
C1681	C168	0.366820	0.253810	0.909470
H1211	H121	0.399300	0.288800	0.918170
H1221	H122	0.375500	0.232800	0.876970
H1231	H123	0.353800	0.234000	0.953370
C1691	C169	0.303750	0.290510	0.929630
H1241	H124	0.272700	0.291800	0.910270
H1251	H125	0.333200	0.327400	0.938570
H1261	H126	0.293200	0.270100	0.973270
C1701	C170	0.132270	0.940660	0.505360
C1711	C171	0.080150	0.902620	0.530890
H1271	H127	0.076700	0.885800	0.574670
C1721	C172	0.034570	0.890110	0.492370
H1281	H128	0.999800	0.864400	0.509270
C1731	C173	0.039860	0.915380	0.428700
C1741	C174	0.089580	0.951360	0.402990
H1291	H129	0.092400	0.967900	0.359170
C1751	C175	0.136790	0.964270	0.440570
C1761	C176	0.188390	0.005650	0.412680
H1301	H130	0.187400	0.024200	0.372170
C1771	C177	0.281810	0.067620	0.407670
H1311	H131	0.294600	0.097700	0.441470
H1321	H132	0.269600	0.078400	0.365470
C1781	C178	0.329260	0.059610	0.388020
C1791	C179	0.355130	0.050470	0.452270
H1331	H133	0.389100	0.051700	0.438270
H1341	H134	0.364600	0.080400	0.485570
C1801	C180	0.338720	0.966450	0.496230
H1351	H135	0.372600	0.976300	0.475370
C1811	C181	0.312550	0.916500	0.535000
C1821	C182	0.333320	0.880880	0.529630
H1361	H136	0.362400	0.889000	0.498770
C1831	C183	0.311490	0.834700	0.569090
C1841	C184	0.269820	0.822350	0.615310
H1371	H137	0.255200	0.790100	0.642170
C1851	C185	0.249440	0.856920	0.622300
H1381	H138	0.221200	0.848600	0.654670
C1861	C186	0.269920	0.903990	0.582120
C1871	C187	0.372360	0.112910	0.354370
H1391	H139	0.357500	0.119800	0.312170
H1401	H140	0.404200	0.110100	0.342270
H1411	H141	0.382800	0.142700	0.387270
C1881	C188	0.310970	0.012000	0.337140
H1421	H142	0.283400	0.978600	0.359470
H1431	H143	0.342100	0.008200	0.324270
H1441	H144	0.295700	0.018800	0.295270
C1891	C189	0.482670	0.208770	0.832770
C1901	C190	0.494490	0.261340	0.852770
H1451	H145	0.480900	0.266300	0.895570
C1911	C191	0.525150	0.305020	0.811170
H1461	H146	0.532300	0.340000	0.824670
C1921	C192	0.545800	0.298010	0.749170
C1931	C193	0.534190	0.248110	0.726010
H1471	H147	0.548200	0.244400	0.682870
C1941	C194	0.501190	0.202270	0.766950
C1951	C195	0.491570	0.150460	0.741980
H1481	H148	0.511200	0.150600	0.701970
C1961	C196	0.458840	0.056180	0.739650
H1491	H149	0.475200	0.042700	0.773970
H1501	H150	0.482000	0.067600	0.697570
C1971	C197	0.402870	0.010100	0.720160
C1981	C198	0.367350	0.984650	0.784520
H1511	H151	0.333900	0.951300	0.770470
H1521	H152	0.386900	0.974200	0.817970
C1991	C199	0.302010	0.005290	0.828240
H1531	H153	0.277100	0.972600	0.805670
C2001	C200	0.279500	0.031700	0.869240
C2011	C201	0.223510	0.011770	0.864450
H1541	H154	0.202200	0.984100	0.831970
C2021	C202	0.199940	0.032690	0.907030
C2031	C203	0.230220	0.072840	0.955780
H1551	H155	0.213300	0.086900	0.984870
C2041	C204	0.284760	0.091830	0.961330
H1561	H156	0.305200	0.118600	0.995170
C2051	C205	0.310790	0.072360	0.917840
C2061	C206	0.412150	0.965500	0.688270
H1571	H157	0.433400	0.979000	0.645470
H1581	H158	0.377200	0.933600	0.677470
H1591	H159	0.431700	0.955600	0.721670
C2071	C207	0.374500	0.028140	0.667970
H1601	H160	0.372100	0.058600	0.687370
H1611	H161	0.338000	0.998000	0.658570
H1621	H162	0.395200	0.039300	0.624570
C2081	C208	0.147590	0.540340	0.830630
C2091	C209	0.160900	0.592970	0.851760
H1631	H163	0.147900	0.597900	0.895070
C2101	C210	0.192210	0.636850	0.810870
H1641	H164	0.200100	0.671900	0.825370
C2111	C211	0.212530	0.630490	0.748020
C2121	C212	0.199840	0.580660	0.724650
H1651	H165	0.213400	0.576700	0.681270
C2131	C213	0.166360	0.534790	0.765160
C2141	C214	0.156180	0.482400	0.739570
H1661	H166	0.175700	0.482700	0.699370
C2151	C215	0.124250	0.388310	0.736920
H1671	H167	0.140300	0.374800	0.771670
H1681	H168	0.147800	0.399800	0.695270
C2161	C216	0.068320	0.342120	0.716670
C2171	C217	0.032880	0.317230	0.780630
H1691	H169	0.999700	0.283700	0.766570
H1701	H170	0.052500	0.307000	0.814370
C2181	C218	0.966580	0.336730	0.822240
H1711	H171	0.942300	0.304800	0.797670
C2191	C219	0.943000	0.362020	0.863720
C2201	C220	0.886790	0.340170	0.859300
H1721	H172	0.866000	0.311900	0.827270
C2211	C221	0.862070	0.360220	0.901980
C2221	C222	0.891560	0.400540	0.949630
H1731	H173	0.873900	0.413700	0.978970
C2231	C223	0.946500	0.421690	0.954810
H1741	H174	0.966400	0.449200	0.988170
C2241	C224	0.973960	0.403540	0.911770
C2251	C225	0.077840	0.298090	0.684370
H1751	H175	0.099900	0.312300	0.642270
H1761	H176	0.043000	0.266500	0.672370
H1771	H177	0.096700	0.287500	0.717970
C2261	C226	0.040350	0.360620	0.664670
H1781	H178	0.037100	0.390400	0.684870
H1791	H179	0.004300	0.330400	0.653970
H1801	H180	0.061800	0.373000	0.621870
C2271	C227	0.476580	0.274130	0.425640
C2281	C228	0.490430	0.235840	0.401670
H1811	H181	0.476600	0.218100	0.358470
C2291	C229	0.523770	0.224040	0.440270
H1821	H182	0.533500	0.198800	0.423270
C2301	C230	0.543150	0.249120	0.504340
C2311	C231	0.529390	0.285230	0.529870
H1831	H183	0.542900	0.301900	0.573770
C2321	C232	0.495180	0.297780	0.491350
C2331	C233	0.484890	0.338970	0.518740
H1841	H184	0.504000	0.357300	0.559570
C2341	C234	0.453970	0.401400	0.523080
H1851	H185	0.470900	0.431400	0.489070
H1861	H186	0.477200	0.412300	0.564970
C2351	C235	0.398360	0.393030	0.543230
C2361	C236	0.362680	0.383350	0.478850
H1871	H187	0.329800	0.384300	0.493070
H1881	H188	0.382700	0.413100	0.445270
C2371	C237	0.295270	0.298530	0.436240
H1891	H189	0.271300	0.307700	0.458670
C2381	C238	0.271250	0.249150	0.396690
C2391	C239	0.215030	0.215080	0.401950
H1901	H190	0.194400	0.223700	0.432670
C2401	C240	0.190270	0.169020	0.361870
C2411	C241	0.219320	0.156490	0.314360
H1911	H191	0.201300	0.124900	0.286370
C2421	C242	0.274040	0.190200	0.308400
H1921	H192	0.293800	0.181700	0.275870
C2431	C243	0.301630	0.237160	0.349360
C2441	C244	0.408350	0.446330	0.576170
H1931	H193	0.373600	0.443500	0.587870
H1941	H194	0.427800	0.476000	0.543070
H1951	H195	0.430000	0.453500	0.618570
C2451	C245	0.369410	0.345950	0.594070
H1961	H196	0.364200	0.312600	0.572170
H1971	H197	0.334200	0.341700	0.606270
H1981	H198	0.391300	0.353300	0.636170
C2461	C246	0.392430	0.537180	0.090280
C2471	C247	0.432110	0.589500	0.067970
H1991	H199	0.450300	0.593500	0.025070
C2481	C248	0.444770	0.634310	0.106870
H2001	H200	0.471300	0.669100	0.090870
C2491	C249	0.418440	0.628670	0.170170
C2501	C250	0.381300	0.578680	0.195170
H2011	H201	0.364200	0.575500	0.238770
C2511	C251	0.368450	0.531880	0.156010
C2521	C252	0.326890	0.480560	0.182780
H2021	H202	0.307900	0.481200	0.223070
C2531	C253	0.265180	0.386780	0.187080
H2031	H203	0.234900	0.373900	0.153570
H2041	H204	0.254500	0.398800	0.229570
C2541	C254	0.273650	0.339290	0.206230
C2551	C255	0.283200	0.313950	0.141550
H2051	H205	0.282400	0.280100	0.155270
H2061	H206	0.253300	0.304300	0.108270
C2561	C256	0.368020	0.331890	0.097420
H2071	H207	0.359100	0.298400	0.118770
C2571	C257	0.417650	0.358650	0.057500
C2581	C258	0.453510	0.338420	0.062940
H2081	H208	0.446000	0.309600	0.094070
C2591	C259	0.499610	0.361010	0.022530
C2601	C260	0.510370	0.401650	0.975100
H2091	H209	0.542200	0.416300	0.947370
C2611	C261	0.475100	0.420770	0.968210
H2101	H210	0.482200	0.448000	0.934770
C2621	C262	0.428400	0.400570	0.010180
C2631	C263	0.220660	0.296210	0.239230
H2111	H211	0.224300	0.265200	0.253570
H2121	H212	0.191300	0.284400	0.205370
H2131	H213	0.212600	0.311500	0.280070
C2641	C264	0.320880	0.357610	0.257320
H2141	H214	0.325200	0.326700	0.269870
H2151	H215	0.313500	0.372300	0.299370
H2161	H216	0.354200	0.385600	0.235470
Mn131	Mn13	0.743880	0.979710	0.414100
Mn141	Mn14	0.020950	0.265790	0.184890
Mn151	Mn15	0.903800	0.313310	0.516780
Mn161	Mn16	0.572010	0.645750	0.513490
Mn171	Mn17	0.687850	0.089810	0.079330
Mn181	Mn18	0.575310	0.928960	0.742650
Fe71	Fe7	0.821060	0.177270	0.298830
Fe81	Fe8	0.022850	0.512580	0.628460
Fe91	Fe9	0.689500	0.842810	0.631690
Br251	Br25	0.926940	0.900150	0.572040
Br261	Br26	0.457730	0.785340	0.364090
Br271	Br27	0.100130	0.076930	0.043630
Br281	Br28	0.214200	0.552240	0.224510
Br291	Br29	0.640230	0.232560	0.360980
Br301	Br30	0.992400	0.116920	0.565440
Br311	Br31	0.307670	0.567410	0.360880
Br321	Br32	0.668400	0.454260	0.559820
Br331	Br33	0.766060	0.356900	0.222780
Br341	Br34	0.879230	0.993700	0.038320
Br351	Br35	0.308930	0.743140	0.889500
Br361	Br36	0.663780	0.213660	0.699300
N611	N61	0.792890	0.021480	0.495000
N621	N62	0.686810	0.997050	0.445180
N631	N63	0.980570	0.215900	0.104660
N641	N64	0.001300	0.321470	0.154270
N651	N65	0.896190	0.354700	0.435920
N661	N66	0.978190	0.330720	0.486090
N671	N67	0.564230	0.687650	0.432860
N681	N68	0.646540	0.663810	0.482220
N691	N69	0.646950	0.099040	0.159400
N701	N70	0.668620	0.014930	0.110560
N711	N71	0.566450	0.879660	0.823190
N721	N72	0.650210	0.985210	0.773080
N731	N73	0.784920	0.060510	0.352660
N741	N74	0.939490	0.221620	0.246290
N751	N75	0.845500	0.290730	0.251870
N761	N76	0.706150	0.148070	0.345180
N771	N77	0.868690	0.236500	0.439680
N781	N78	0.764550	0.125810	0.157830
N791	N79	0.943290	0.394550	0.577830
N801	N80	0.536470	0.569220	0.435710
N811	N81	0.111750	0.627140	0.673150
N821	N82	0.539730	0.970480	0.820220
N831	N83	0.607120	0.052340	0.017320
N841	N84	0.108800	0.484540	0.580020
N851	N85	0.777460	0.956250	0.680410
N861	N86	0.613130	0.885210	0.681830
N871	N87	0.611230	0.726280	0.575500
N881	N88	0.776750	0.815030	0.587770
N891	N89	0.693420	0.791140	0.773280
N901	N90	0.701890	0.902880	0.491270
O251	O25	0.792080	0.955920	0.387990
O261	O26	0.697710	0.937570	0.340310
O271	O27	0.044830	0.219000	0.214660
O281	O28	0.062750	0.313010	0.257700
O291	O29	0.832050	0.289190	0.543650
O301	O30	0.908360	0.272090	0.591130
O311	O31	0.500530	0.622390	0.540560
O321	O32	0.576170	0.602820	0.586060
O331	O33	0.711500	0.160760	0.050420
O341	O34	0.730750	0.085110	0.007460
O351	O35	0.503850	0.882040	0.714180
O361	O36	0.580560	0.975220	0.668540
C2651	C265	0.801060	0.103870	0.331760
C2661	C266	0.895750	0.202250	0.266390
C2671	C267	0.835420	0.247990	0.268600
C2681	C268	0.749110	0.159330	0.329110
C2691	C269	0.850450	0.211600	0.389610
C2701	C270	0.788130	0.145390	0.208100
C2711	C271	0.970380	0.438390	0.597290
C2721	C272	0.517620	0.544460	0.385760
C2731	C273	0.079110	0.584210	0.657820
C2741	C274	0.520660	0.975150	0.871120
C2751	C275	0.563500	0.027230	0.995670
C2761	C276	0.077740	0.495830	0.597150
C2771	C277	0.744930	0.913060	0.663590
C2781	C278	0.638580	0.866870	0.662510
C2791	C279	0.637730	0.769870	0.597000
C2801	C280	0.744360	0.825760	0.602910
C2811	C281	0.689860	0.810830	0.722980
C2821	C282	0.695590	0.878190	0.541090
C2831	C283	0.817340	0.940800	0.432740
C2841	C284	0.828800	0.900270	0.412840
H2171	H217	0.814900	0.881600	0.370130
C2851	C285	0.859910	0.887200	0.454360
H2181	H218	0.867300	0.859600	0.440630
C2861	C286	0.880520	0.915060	0.517120
C2871	C287	0.868550	0.953010	0.539450
H2191	H219	0.882200	0.970800	0.582730
C2881	C288	0.835650	0.965920	0.498110
C2891	C289	0.825730	0.007890	0.522180
H2201	H220	0.845300	0.027600	0.562130
C2901	C290	0.793300	0.069490	0.524420
H2211	H221	0.809500	0.099200	0.489930
H2221	H222	0.816600	0.081400	0.566230
C2911	C291	0.737040	0.059810	0.544540
C2921	C292	0.701620	0.048800	0.479470
H2231	H223	0.668200	0.048800	0.492930
H2241	H224	0.721300	0.078600	0.445730
C2931	C293	0.636180	0.962300	0.437980
H2251	H225	0.611300	0.969100	0.462630
C2941	C294	0.613670	0.913930	0.395950
C2951	C295	0.557480	0.878550	0.399630
H2261	H226	0.536100	0.885200	0.431730
C2961	C296	0.533690	0.834290	0.356530
C2971	C297	0.563390	0.824760	0.307510
H2271	H227	0.546000	0.794400	0.277330
C2981	C298	0.618370	0.859630	0.302810
H2281	H228	0.638700	0.853200	0.268830
C2991	C299	0.645050	0.904640	0.347340
C3001	C300	0.746190	0.113010	0.576130
H2291	H229	0.711200	0.110500	0.584830
H2301	H230	0.767200	0.142700	0.543630
H2311	H231	0.766000	0.119800	0.620030
C3011	C301	0.709490	0.013240	0.596290
H2321	H232	0.708200	0.980900	0.576930
H2331	H233	0.672600	0.005800	0.605230
H2341	H234	0.729900	0.023100	0.639930
C3021	C302	0.059340	0.191610	0.172020
C3031	C303	0.097380	0.177530	0.197550
H2351	H235	0.114200	0.190900	0.241330
C3041	C304	0.109890	0.144460	0.159030
H2361	H236	0.135600	0.135400	0.175930
C3051	C305	0.084620	0.124480	0.095360
C3061	C306	0.048640	0.138220	0.069650
H2371	H237	0.032100	0.124500	0.025830
C3071	C307	0.035730	0.172520	0.107230
C3081	C308	0.994350	0.182740	0.079340
H2381	H238	0.975800	0.163200	0.038830
C3091	C309	0.932380	0.214190	0.074330
H2391	H239	0.902300	0.196900	0.108130
H2401	H240	0.921600	0.191200	0.032130
C3101	C310	0.940390	0.269650	0.054680
C3111	C311	0.949530	0.304660	0.118930
H2411	H241	0.948300	0.337400	0.104930
H2421	H242	0.919600	0.284200	0.152230
C3121	C312	0.033550	0.372270	0.162890
H2431	H243	0.023700	0.396300	0.142030
C3131	C313	0.083500	0.396050	0.201660
C3141	C314	0.119120	0.452440	0.196290
H2441	H244	0.111000	0.473400	0.165430
C3151	C315	0.165300	0.476790	0.235750
C3161	C316	0.177650	0.447470	0.281970
H2451	H245	0.209900	0.465100	0.308830
C3171	C317	0.143080	0.392520	0.288960
H2461	H246	0.151400	0.372600	0.321330
C3181	C318	0.096010	0.365930	0.248780
C3191	C319	0.887090	0.259450	0.021030
H2471	H247	0.880200	0.237700	0.978830
H2481	H248	0.889900	0.294100	0.008930
H2491	H249	0.857300	0.240100	0.053930
C3201	C320	0.988000	0.298970	0.003800
H2501	H250	0.021400	0.304800	0.026130
H2511	H251	0.991800	0.333900	0.990930
H2521	H252	0.981200	0.276900	0.961930
C3211	C321	0.791230	0.273900	0.499430
C3221	C322	0.738660	0.233150	0.519430
H2531	H253	0.733700	0.214600	0.562230
C3231	C323	0.694980	0.220130	0.477830
H2541	H254	0.660000	0.192300	0.491330
C3241	C324	0.701990	0.247790	0.415830
C3251	C325	0.751890	0.286080	0.392670
H2551	H255	0.755600	0.303800	0.349530
C3261	C326	0.797730	0.298920	0.433610
C3271	C327	0.849540	0.341110	0.408640
H2561	H256	0.849400	0.360600	0.368630
C3281	C328	0.943820	0.402660	0.406310
H2571	H257	0.957300	0.432500	0.440630
H2581	H258	0.932400	0.414400	0.364230
C3291	C329	0.989900	0.392770	0.386820
C3301	C330	0.015350	0.382700	0.451180
H2591	H259	0.048700	0.382600	0.437130
H2601	H260	0.025800	0.412700	0.484630
C3311	C331	0.994710	0.296720	0.494900
H2611	H261	0.027400	0.304500	0.472330
C3321	C332	0.968300	0.247800	0.535900
C3331	C333	0.988230	0.211740	0.531110
H2621	H262	0.015900	0.218100	0.498630
C3341	C334	0.967310	0.167250	0.573690
C3351	C335	0.927160	0.157380	0.622440
H2631	H263	0.913100	0.126400	0.651530
C3361	C336	0.908170	0.192930	0.627990
H2641	H264	0.881400	0.186600	0.661830
C3371	C337	0.927640	0.238430	0.584500
C3381	C338	0.034500	0.446650	0.354930
H2651	H265	0.021000	0.454400	0.312130
H2661	H266	0.066400	0.443600	0.344130
H2671	H267	0.044400	0.476100	0.388330
C3391	C339	0.971860	0.346360	0.334630
H2681	H268	0.941400	0.313500	0.354030
H2691	H269	0.002000	0.340000	0.325230
H2701	H270	0.960700	0.355900	0.291230
C3401	C340	0.459660	0.607250	0.497290
C3411	C341	0.407030	0.567930	0.518420
H2711	H271	0.402100	0.550000	0.561730
C3421	C342	0.363150	0.555360	0.477530
H2721	H272	0.328100	0.528200	0.492030
C3431	C343	0.369510	0.582040	0.414680
C3441	C344	0.419340	0.619180	0.391310
H2731	H273	0.423300	0.636700	0.347930
C3451	C345	0.465210	0.631570	0.431820
C3461	C346	0.517600	0.673780	0.406230
H2741	H274	0.517300	0.693000	0.366030
C3471	C347	0.611690	0.735940	0.403580
H2751	H275	0.625200	0.765500	0.438330
H2761	H276	0.600200	0.748000	0.361930
C3481	C348	0.657880	0.726200	0.383330
C3491	C349	0.682770	0.715650	0.447290
H2771	H277	0.716300	0.716000	0.433230
H2781	H278	0.693000	0.745500	0.481030
C3501	C350	0.663270	0.629850	0.488900
H2791	H279	0.695200	0.637500	0.464330
C3511	C351	0.637980	0.580980	0.530380
C3521	C352	0.659830	0.546620	0.525960
H2801	H280	0.688100	0.554100	0.493930
C3531	C353	0.639780	0.501850	0.568640
C3541	C354	0.599460	0.491020	0.616290
H2811	H281	0.586300	0.460200	0.645630
C3551	C355	0.578310	0.524810	0.621470
H2821	H282	0.550800	0.517200	0.654830
C3561	C356	0.596460	0.570420	0.578430
C3571	C357	0.701910	0.779750	0.351030
H2831	H283	0.687700	0.787600	0.308930
H2841	H284	0.733500	0.776500	0.339030
H2851	H285	0.712500	0.809200	0.384630
C3581	C358	0.639380	0.679730	0.331330
H2861	H286	0.609600	0.646700	0.351530
H2871	H287	0.669600	0.673900	0.320630
H2881	H288	0.627000	0.688800	0.288530
C3591	C359	0.725870	0.202450	0.092300
C3601	C360	0.764160	0.254590	0.068330
H2891	H289	0.781900	0.258500	0.025130
C3611	C361	0.775960	0.299730	0.106930
H2901	H290	0.801200	0.334700	0.089930
C3621	C362	0.750880	0.294030	0.171000
C3631	C363	0.714770	0.244160	0.196530
H2911	H291	0.698100	0.241000	0.240430
C3641	C364	0.702220	0.197400	0.158010
C3651	C365	0.661030	0.145920	0.185400
H2921	H292	0.642700	0.146700	0.226230
C3661	C366	0.598600	0.052570	0.189740
H2931	H293	0.568600	0.039500	0.155730
H2941	H294	0.587700	0.064900	0.231630
C3671	C367	0.606970	0.005330	0.209890
C3681	C368	0.616650	0.979330	0.145510
H2951	H295	0.615700	0.945500	0.159730
H2961	H296	0.586900	0.969600	0.111930
C3691	C369	0.701470	0.996740	0.102900
H2971	H297	0.692300	0.963600	0.125330
C3701	C370	0.750850	0.022100	0.063350
C3711	C371	0.784920	0.999950	0.068610
H2981	H298	0.776300	0.970700	0.099330
C3721	C372	0.830980	0.021250	0.028530
C3731	C373	0.843510	0.062830	0.981020
H2991	H299	0.875100	0.076400	0.953030
C3741	C374	0.809800	0.083840	0.975060
H3001	H300	0.818300	0.112100	0.942530
C3751	C375	0.762840	0.064470	0.016020
C3761	C376	0.553670	0.962020	0.242830
H3011	H301	0.556500	0.930100	0.254530
H3021	H302	0.524000	0.951800	0.209730
H3031	H303	0.546500	0.976500	0.285230
C3771	C377	0.654050	0.023460	0.260730
H3041	H304	0.687400	0.051600	0.238830
H3051	H305	0.658300	0.992500	0.272930
H3061	H306	0.646700	0.038000	0.302830
C3781	C378	0.462820	0.855250	0.756940
C3791	C379	0.410500	0.842610	0.734630
H3071	H307	0.406500	0.856800	0.691730
C3801	C380	0.365690	0.810460	0.773530
H3081	H308	0.330900	0.802200	0.757530
C3811	C381	0.371330	0.789770	0.836830
C3821	C382	0.421320	0.802620	0.861830
H3091	H309	0.424500	0.788700	0.905430
C3831	C383	0.468120	0.836570	0.822670
C3841	C384	0.519440	0.846330	0.849440
H3101	H310	0.518800	0.826700	0.889730
C3851	C385	0.613220	0.878400	0.853740
H3111	H311	0.626100	0.861000	0.820230
H3121	H312	0.601200	0.855700	0.896230
C3861	C386	0.660710	0.934360	0.872890
C3871	C387	0.686050	0.969250	0.808210
H3131	H313	0.719900	0.002300	0.821930
H3141	H314	0.695700	0.949000	0.774930
C3881	C388	0.668110	0.036130	0.764080
H3151	H315	0.701600	0.060700	0.785430
C3891	C389	0.641350	0.059000	0.724160
C3901	C390	0.661580	0.115090	0.729600
H3161	H316	0.690400	0.136400	0.760730
C3911	C391	0.638990	0.138600	0.689190
C3921	C392	0.598350	0.108720	0.641760
H3171	H317	0.583700	0.125900	0.614030
C3931	C393	0.579230	0.054330	0.634870
H3181	H318	0.552000	0.034200	0.601430
C3941	C394	0.599430	0.027830	0.676840
C3951	C395	0.703790	0.924450	0.905890
H3191	H319	0.734800	0.959100	0.920230
H3201	H320	0.715600	0.906900	0.872030
H3211	H321	0.688500	0.901100	0.946730
C3961	C396	0.642390	0.963270	0.923980
H3221	H322	0.673300	0.998500	0.936530
H3231	H323	0.627700	0.941200	0.966030
H3241	H324	0.614400	0.968600	0.902130
