data_CERMIV_freeONLY_PM
_symmetry_space_group_name_H-M	'P1'
_cell_length_a	9.400300
_cell_length_b	9.400300
_cell_length_c	17.350000
_cell_angle_alpha	90.000000
_cell_angle_beta	90.000000
_cell_angle_gamma	120.000000
_symmetry_Int_Tables_number 1

loop_
_symmetry_equiv_pos_as_xyz
'x,y,z'

loop_
_atom_site_label
_atom_site_type_symbol
_atom_site_fract_x
_atom_site_fract_y
_atom_site_fract_z
Pr11	Pr1	0.333330	0.666660	0.750000
Pr21	Pr2	0.666670	0.333340	0.250000
Pr31	Pr3	0.000000	0.000000	0.000000
Pr41	Pr4	0.000000	0.000000	0.500000
H11	H1	0.501500	0.671800	0.974100
H21	H2	0.575400	0.595500	0.917200
H31	H3	0.170300	0.498500	0.974100
H41	H4	0.020100	0.424600	0.917200
H51	H5	0.328200	0.829700	0.974100
H61	H6	0.404500	0.979900	0.917200
H71	H7	0.501500	0.671800	0.525900
H81	H8	0.575400	0.595500	0.582800
H91	H9	0.170300	0.498500	0.525900
H101	H10	0.020100	0.424600	0.582800
H111	H11	0.328200	0.829700	0.525900
H121	H12	0.404500	0.979900	0.582800
H131	H13	0.829700	0.328200	0.025900
H141	H14	0.979900	0.404500	0.082800
H151	H15	0.671800	0.501500	0.025900
H161	H16	0.595500	0.575400	0.082800
H171	H17	0.498500	0.170300	0.025900
H181	H18	0.424600	0.020100	0.082800
H191	H19	0.829700	0.328200	0.474100
H201	H20	0.979900	0.404500	0.417200
H211	H21	0.671800	0.501500	0.474100
H221	H22	0.595500	0.575400	0.417200
H231	H23	0.498500	0.170300	0.474100
H241	H24	0.424600	0.020100	0.417200
C11	C1	0.651600	0.834100	0.893900
C21	C2	0.600000	0.692900	0.946600
C31	C3	0.182500	0.348400	0.893900
C41	C4	0.092900	0.400000	0.946600
C51	C5	0.165900	0.817500	0.893900
C61	C6	0.307100	0.907100	0.946600
C71	C7	0.651600	0.834100	0.606100
C81	C8	0.600000	0.692900	0.553400
C91	C9	0.182500	0.348400	0.606100
C101	C10	0.092900	0.400000	0.553400
C111	C11	0.165900	0.817500	0.606100
C121	C12	0.307100	0.907100	0.553400
C131	C13	0.817500	0.165900	0.106100
C141	C14	0.907100	0.307100	0.053400
C151	C15	0.834100	0.651600	0.106100
C161	C16	0.692900	0.600000	0.053400
C171	C17	0.348400	0.182500	0.106100
C181	C18	0.400000	0.092900	0.053400
C191	C19	0.817500	0.165900	0.393900
C201	C20	0.907100	0.307100	0.446600
C211	C21	0.834100	0.651600	0.393900
C221	C22	0.692900	0.600000	0.446600
C231	C23	0.348400	0.182500	0.393900
C241	C24	0.400000	0.092900	0.446600
O11	O1	0.789200	0.961400	0.903500
O21	O2	0.552700	0.823100	0.842800
O31	O3	0.172200	0.210800	0.903500
O41	O4	0.270400	0.447300	0.842800
O51	O5	0.038600	0.827800	0.903500
O61	O6	0.176900	0.729600	0.842800
O71	O7	0.789200	0.961400	0.596500
O81	O8	0.552700	0.823100	0.657200
O91	O9	0.172200	0.210800	0.596500
O101	O10	0.270400	0.447300	0.657200
O111	O11	0.038600	0.827800	0.596500
O121	O12	0.176900	0.729600	0.657200
O131	O13	0.827800	0.038600	0.096500
O141	O14	0.729600	0.176900	0.157200
O151	O15	0.961400	0.789200	0.096500
O161	O16	0.823100	0.552700	0.157200
O171	O17	0.210800	0.172200	0.096500
O181	O18	0.447300	0.270400	0.157200
O191	O19	0.827800	0.038600	0.403500
O201	O20	0.729600	0.176900	0.342800
O211	O21	0.961400	0.789200	0.403500
O221	O22	0.823100	0.552700	0.342800
O231	O23	0.210800	0.172200	0.403500
O241	O24	0.447300	0.270400	0.342800
O251	O25	0.728500	0.728500	0.000000
O261	O26	0.000000	0.271500	0.000000
O271	O27	0.271500	0.000000	0.000000
O281	O28	0.728500	0.728500	0.500000
O291	O29	0.000000	0.271500	0.500000
O301	O30	0.271500	0.000000	0.500000
O311	O31	0.437500	0.987700	0.750000
O321	O32	0.550200	0.562500	0.750000
O331	O33	0.012300	0.449800	0.750000
O341	O34	0.449800	0.012300	0.250000
O351	O35	0.987700	0.437500	0.250000
O361	O36	0.562500	0.550200	0.250000
