data_CETGOY_freeONLY_PM
_symmetry_space_group_name_H-M	'P1'
_cell_length_a	14.907000
_cell_length_b	25.531000
_cell_length_c	25.531000
_cell_angle_alpha	120.000000
_cell_angle_beta	90.000000
_cell_angle_gamma	90.000000
_symmetry_Int_Tables_number 1

loop_
_symmetry_equiv_pos_as_xyz
'x,y,z'

loop_
_atom_site_label
_atom_site_type_symbol
_atom_site_fract_x
_atom_site_fract_y
_atom_site_fract_z
Ni11	Ni1	0.117270	0.483580	0.555020
Ni21	Ni2	0.783940	0.071440	0.516420
Ni31	Ni3	0.450600	0.444980	0.928560
Ni41	Ni4	0.882730	0.928560	0.444980
Ni51	Ni5	0.216060	0.555020	0.483580
Ni61	Ni6	0.549400	0.516420	0.071440
H11	H1	0.125500	0.588900	0.576000
H21	H2	0.962900	0.383000	0.412300
H31	H3	0.866900	0.522300	0.647900
H41	H4	0.379000	0.498500	0.688200
H51	H5	0.136900	0.485200	0.751200
H61	H6	0.307800	0.502700	0.610400
H71	H7	0.072200	0.489000	0.671300
H81	H8	0.438000	0.496900	0.761600
H91	H9	0.756100	0.596300	0.792100
H101	H10	0.837200	0.551000	0.757200
H111	H11	0.644600	0.386400	0.552900
H121	H12	0.043300	0.339700	0.297700
H131	H13	0.099500	0.373900	0.359500
H141	H14	0.745900	0.567400	0.594700
H151	H15	0.837400	0.533800	0.562900
H161	H16	0.503000	0.473800	0.829800
H171	H17	0.979400	0.661300	0.746800
H181	H18	0.977400	0.591700	0.729100
H191	H19	0.741200	0.365500	0.358400
H201	H20	0.798100	0.383900	0.418200
H211	H21	0.198200	0.471300	0.813900
H221	H22	0.894100	0.649900	0.820000
H231	H23	0.831100	0.675500	0.787000
H241	H24	0.788500	0.444100	0.544500
H251	H25	0.697800	0.473000	0.536900
H261	H26	0.714200	0.655500	0.725400
H271	H27	0.640600	0.618500	0.739300
H281	H28	0.655200	0.604800	0.671500
H291	H29	0.039100	0.445000	0.321000
H301	H30	0.990300	0.509100	0.359200
H311	H31	0.933200	0.450400	0.314600
H321	H32	0.914300	0.694200	0.682400
H331	H33	0.815700	0.681300	0.698000
H341	H34	0.846600	0.652400	0.629000
H351	H35	0.882100	0.485300	0.469300
H361	H36	0.879400	0.525400	0.437100
H371	H37	0.667100	0.520100	0.757800
H381	H38	0.743800	0.470100	0.418800
H391	H39	0.794300	0.450800	0.356500
H401	H40	0.587200	0.432600	0.724200
H411	H41	0.915000	0.315200	0.251900
H421	H42	0.861100	0.377600	0.278900
H431	H43	0.808400	0.316000	0.259500
H441	H44	0.073800	0.299600	0.382100
H451	H45	0.092500	0.262600	0.310700
H461	H46	0.268900	0.452800	0.883200
H471	H47	0.520600	0.334400	0.573200
H481	H48	0.657800	0.283500	0.562300
H491	H49	0.576400	0.249100	0.573000
H501	H50	0.643600	0.289700	0.627200
H511	H51	0.445400	0.376200	0.668400
H521	H52	0.514400	0.341300	0.688200
H531	H53	0.447100	0.303900	0.632900
H541	H54	0.760700	0.263200	0.329700
H551	H55	0.774500	0.167800	0.320900
H561	H56	0.044700	0.187500	0.334300
H571	H57	0.975000	0.109300	0.350400
H581	H58	0.012300	0.076400	0.249400
H591	H59	0.911800	0.052900	0.229400
H601	H60	0.974700	0.022000	0.257200
H611	H61	0.826900	0.109500	0.378800
H621	H62	0.856600	0.041500	0.332100
H631	H63	0.794900	0.077900	0.309800
H641	H64	0.792170	0.987100	0.411100
H651	H65	0.629570	0.029300	0.617000
H661	H66	0.533570	0.125600	0.477700
H671	H67	0.045670	0.189700	0.501500
H681	H68	0.803570	0.266000	0.514800
H691	H69	0.974470	0.107700	0.497300
H701	H70	0.738870	0.182300	0.511000
H711	H71	0.104670	0.264700	0.503100
H721	H72	0.422770	0.195800	0.403700
H731	H73	0.503870	0.206200	0.449000
H741	H74	0.311270	0.166500	0.613600
H751	H75	0.709970	0.958000	0.660300
H761	H76	0.766170	0.985600	0.626100
H771	H77	0.412570	0.027300	0.432600
H781	H78	0.504070	0.029100	0.466200
H791	H79	0.169670	0.356000	0.526200
H801	H80	0.646070	0.085500	0.338700
H811	H81	0.644070	0.137400	0.408300
H821	H82	0.407870	0.992900	0.634500
H831	H83	0.464770	0.034300	0.616100
H841	H84	0.864870	0.342600	0.528700
H851	H85	0.560770	0.170100	0.350100
H861	H86	0.497770	0.111500	0.324500
H871	H87	0.455170	0.100400	0.555900
H881	H88	0.364470	0.063900	0.527000
H891	H89	0.380870	0.069900	0.344500
H901	H90	0.307270	0.120800	0.381500
H911	H91	0.321870	0.066700	0.395200
H921	H92	0.705770	0.876000	0.555000
H931	H93	0.656970	0.850100	0.490900
H941	H94	0.599870	0.864200	0.549600
H951	H95	0.580970	0.988200	0.305800
H961	H96	0.482370	0.016700	0.318700
H971	H97	0.513270	0.976600	0.347600
H981	H98	0.548770	0.984000	0.514700
H991	H99	0.546070	0.911700	0.474600
H1001	H100	0.333770	0.237700	0.479900
H1011	H101	0.410470	0.948700	0.529900
H1021	H102	0.460970	0.905700	0.549200
H1031	H103	0.253870	0.291600	0.567400
H1041	H104	0.581670	0.936700	0.684800
H1051	H105	0.527770	0.901300	0.622400
H1061	H106	0.475070	0.943500	0.684000
H1071	H107	0.740470	0.082500	0.700400
H1081	H108	0.759170	0.048100	0.737400
H1091	H109	0.935570	0.430400	0.547200
H1101	H110	0.187270	0.238800	0.665600
H1111	H111	0.324470	0.278800	0.716500
H1121	H112	0.243070	0.323900	0.750900
H1131	H113	0.310270	0.337500	0.710300
H1141	H114	0.112070	0.292200	0.623800
H1151	H115	0.181070	0.346900	0.658700
H1161	H116	0.113770	0.329000	0.696100
H1171	H117	0.427370	0.066500	0.736800
H1181	H118	0.441170	0.153100	0.832200
H1191	H119	0.711370	0.146800	0.812500
H1201	H120	0.641670	0.241100	0.890700
H1211	H121	0.678970	0.173000	0.923600
H1221	H122	0.578470	0.176500	0.947100
H1231	H123	0.641370	0.235200	0.978000
H1241	H124	0.493570	0.269300	0.890500
H1251	H125	0.523270	0.290600	0.958500
H1261	H126	0.461570	0.231900	0.922100
H1271	H127	0.458830	0.424000	0.012900
H1281	H128	0.296230	0.587700	0.970700
H1291	H129	0.200230	0.352100	0.874400
H1301	H130	0.712330	0.311800	0.810300
H1311	H131	0.470230	0.248800	0.734000
H1321	H132	0.641130	0.389600	0.892300
H1331	H133	0.405530	0.328700	0.817700
H1341	H134	0.771330	0.238400	0.735300
H1351	H135	0.089430	0.207900	0.804200
H1361	H136	0.170530	0.242800	0.793800
H1371	H137	0.977930	0.447100	0.833500
H1381	H138	0.376630	0.702300	0.042000
H1391	H139	0.432830	0.640500	0.014400
H1401	H140	0.079230	0.405300	0.972700
H1411	H141	0.170730	0.437100	0.970900
H1421	H142	0.836330	0.170200	0.644000
H1431	H143	0.312730	0.253200	0.914500
H1441	H144	0.310730	0.270900	0.862600
H1451	H145	0.074530	0.641600	0.007100
H1461	H146	0.131430	0.581800	0.965700
H1471	H147	0.531530	0.186100	0.657400
H1481	H148	0.227430	0.180000	0.829900
H1491	H149	0.164430	0.213000	0.888500
H1501	H150	0.121830	0.455500	0.899600
H1511	H151	0.031130	0.463100	0.936100
H1521	H152	0.047530	0.274600	0.930100
H1531	H153	0.973930	0.260700	0.879200
H1541	H154	0.988530	0.328500	0.933300
H1551	H155	0.372430	0.679000	0.124000
H1561	H156	0.323630	0.640800	0.149900
H1571	H157	0.266530	0.685400	0.135800
H1581	H158	0.247630	0.317600	0.011800
H1591	H159	0.149030	0.302000	0.983300
H1601	H160	0.179930	0.371000	0.023400
H1611	H161	0.215430	0.530700	0.016000
H1621	H162	0.212730	0.562900	0.088300
H1631	H163	0.000430	0.242200	0.762300
H1641	H164	0.077130	0.581200	0.051300
H1651	H165	0.127630	0.643500	0.094300
H1661	H166	0.920530	0.275800	0.708400
H1671	H167	0.248330	0.748100	0.063300
H1681	H168	0.194430	0.721100	0.098700
H1691	H169	0.141730	0.740500	0.056500
H1701	H170	0.407130	0.617900	0.917500
H1711	H171	0.425830	0.689300	0.951900
H1721	H172	0.602230	0.116800	0.569600
H1731	H173	0.853930	0.426800	0.761200
H1741	H174	0.991130	0.437700	0.721200
H1751	H175	0.909730	0.427000	0.676100
H1761	H176	0.976930	0.372800	0.662500
H1771	H177	0.778730	0.331600	0.707800
H1781	H178	0.847730	0.311800	0.653100
H1791	H179	0.780430	0.367100	0.671000
H1801	H180	0.094030	0.670300	0.933500
H1811	H181	0.107830	0.679100	0.846900
H1821	H182	0.378030	0.665700	0.853200
H1831	H183	0.308330	0.649600	0.758900
H1841	H184	0.345630	0.750600	0.827000
H1851	H185	0.245130	0.770600	0.823500
H1861	H186	0.308030	0.742800	0.764800
H1871	H187	0.160230	0.621200	0.730700
H1881	H188	0.189930	0.667900	0.709400
H1891	H189	0.128230	0.690200	0.768100
H1901	H190	0.874500	0.012900	0.424000
H1911	H191	0.037100	0.970700	0.587700
H1921	H192	0.133100	0.874400	0.352100
H1931	H193	0.621000	0.810300	0.311800
H1941	H194	0.863100	0.734000	0.248800
H1951	H195	0.692200	0.892300	0.389600
H1961	H196	0.927800	0.817700	0.328700
H1971	H197	0.562000	0.735300	0.238400
H1981	H198	0.243900	0.804200	0.207900
H1991	H199	0.162800	0.793800	0.242800
H2001	H200	0.355400	0.833500	0.447100
H2011	H201	0.956700	0.042000	0.702300
H2021	H202	0.900500	0.014400	0.640500
H2031	H203	0.254100	0.972700	0.405300
H2041	H204	0.162600	0.970900	0.437100
H2051	H205	0.497000	0.644000	0.170200
H2061	H206	0.020600	0.914500	0.253200
H2071	H207	0.022600	0.862600	0.270900
H2081	H208	0.258800	0.007100	0.641600
H2091	H209	0.201900	0.965700	0.581800
H2101	H210	0.801800	0.657400	0.186100
H2111	H211	0.105900	0.829900	0.180000
H2121	H212	0.168900	0.888500	0.213000
H2131	H213	0.211500	0.899600	0.455500
H2141	H214	0.302200	0.936100	0.463100
H2151	H215	0.285800	0.930100	0.274600
H2161	H216	0.359400	0.879200	0.260700
H2171	H217	0.344800	0.933300	0.328500
H2181	H218	0.960900	0.124000	0.679000
H2191	H219	0.009700	0.149900	0.640800
H2201	H220	0.066800	0.135800	0.685400
H2211	H221	0.085700	0.011800	0.317600
H2221	H222	0.184300	0.983300	0.302000
H2231	H223	0.153400	0.023400	0.371000
H2241	H224	0.117900	0.016000	0.530700
H2251	H225	0.120600	0.088300	0.562900
H2261	H226	0.332900	0.762300	0.242200
H2271	H227	0.256200	0.051300	0.581200
H2281	H228	0.205700	0.094300	0.643500
H2291	H229	0.412800	0.708400	0.275800
H2301	H230	0.085000	0.063300	0.748100
H2311	H231	0.138900	0.098700	0.721100
H2321	H232	0.191600	0.056500	0.740500
H2331	H233	0.926200	0.917500	0.617900
H2341	H234	0.907500	0.951900	0.689300
H2351	H235	0.731100	0.569600	0.116800
H2361	H236	0.479400	0.761200	0.426800
H2371	H237	0.342200	0.721200	0.437700
H2381	H238	0.423600	0.676100	0.427000
H2391	H239	0.356400	0.662500	0.372800
H2401	H240	0.554600	0.707800	0.331600
H2411	H241	0.485600	0.653100	0.311800
H2421	H242	0.552900	0.671000	0.367100
H2431	H243	0.239300	0.933500	0.670300
H2441	H244	0.225500	0.846900	0.679100
H2451	H245	0.955300	0.853200	0.665700
H2461	H246	0.025000	0.758900	0.649600
H2471	H247	0.987700	0.827000	0.750600
H2481	H248	0.088200	0.823500	0.770600
H2491	H249	0.025300	0.764800	0.742800
H2501	H250	0.173100	0.730700	0.621200
H2511	H251	0.143400	0.709400	0.667900
H2521	H252	0.205100	0.768100	0.690200
H2531	H253	0.207830	0.576000	0.588900
H2541	H254	0.370430	0.412300	0.383000
H2551	H255	0.466430	0.647900	0.522300
H2561	H256	0.954330	0.688200	0.498500
H2571	H257	0.196430	0.751200	0.485200
H2581	H258	0.025530	0.610400	0.502700
H2591	H259	0.261130	0.671300	0.489000
H2601	H260	0.895330	0.761600	0.496900
H2611	H261	0.577230	0.792100	0.596300
H2621	H262	0.496130	0.757200	0.551000
H2631	H263	0.688730	0.552900	0.386400
H2641	H264	0.290030	0.297700	0.339700
H2651	H265	0.233830	0.359500	0.373900
H2661	H266	0.587430	0.594700	0.567400
H2671	H267	0.495930	0.562900	0.533800
H2681	H268	0.830330	0.829800	0.473800
H2691	H269	0.353930	0.746800	0.661300
H2701	H270	0.355930	0.729100	0.591700
H2711	H271	0.592130	0.358400	0.365500
H2721	H272	0.535230	0.418200	0.383900
H2731	H273	0.135130	0.813900	0.471300
H2741	H274	0.439230	0.820000	0.649900
H2751	H275	0.502230	0.787000	0.675500
H2761	H276	0.544830	0.544500	0.444100
H2771	H277	0.635530	0.536900	0.473000
H2781	H278	0.619130	0.725400	0.655500
H2791	H279	0.692730	0.739300	0.618500
H2801	H280	0.678130	0.671500	0.604800
H2811	H281	0.294230	0.321000	0.445000
H2821	H282	0.343030	0.359200	0.509100
H2831	H283	0.400130	0.314600	0.450400
H2841	H284	0.419030	0.682400	0.694200
H2851	H285	0.517630	0.698000	0.681300
H2861	H286	0.486730	0.629000	0.652400
H2871	H287	0.451230	0.469300	0.485300
H2881	H288	0.453930	0.437100	0.525400
H2891	H289	0.666230	0.757800	0.520100
H2901	H290	0.589530	0.418800	0.470100
H2911	H291	0.539030	0.356500	0.450800
H2921	H292	0.746130	0.724200	0.432600
H2931	H293	0.418330	0.251900	0.315200
H2941	H294	0.472230	0.278900	0.377600
H2951	H295	0.524930	0.259500	0.316000
H2961	H296	0.259530	0.382100	0.299600
H2971	H297	0.240830	0.310700	0.262600
H2981	H298	0.064430	0.883200	0.452800
H2991	H299	0.812730	0.573200	0.334400
H3001	H300	0.675530	0.562300	0.283500
H3011	H301	0.756930	0.573000	0.249100
H3021	H302	0.689730	0.627200	0.289700
H3031	H303	0.887930	0.668400	0.376200
H3041	H304	0.818930	0.688200	0.341300
H3051	H305	0.886230	0.632900	0.303900
H3061	H306	0.572630	0.329700	0.263200
H3071	H307	0.558830	0.320900	0.167800
H3081	H308	0.288630	0.334300	0.187500
H3091	H309	0.358330	0.350400	0.109300
H3101	H310	0.321030	0.249400	0.076400
H3111	H311	0.421530	0.229400	0.052900
H3121	H312	0.358630	0.257200	0.022000
H3131	H313	0.506430	0.378800	0.109500
H3141	H314	0.476730	0.332100	0.041500
H3151	H315	0.538430	0.309800	0.077900
H3161	H316	0.541170	0.411100	0.987100
H3171	H317	0.703770	0.617000	0.029300
H3181	H318	0.799770	0.477700	0.125600
H3191	H319	0.287670	0.501500	0.189700
H3201	H320	0.529770	0.514800	0.266000
H3211	H321	0.358870	0.497300	0.107700
H3221	H322	0.594470	0.511000	0.182300
H3231	H323	0.228670	0.503100	0.264700
H3241	H324	0.910570	0.403700	0.195800
H3251	H325	0.829470	0.449000	0.206200
H3261	H326	0.022070	0.613600	0.166500
H3271	H327	0.623370	0.660300	0.958000
H3281	H328	0.567170	0.626100	0.985600
H3291	H329	0.920770	0.432600	0.027300
H3301	H330	0.829270	0.466200	0.029100
H3311	H331	0.163670	0.526200	0.356000
H3321	H332	0.687270	0.338700	0.085500
H3331	H333	0.689270	0.408300	0.137400
H3341	H334	0.925470	0.634500	0.992900
H3351	H335	0.868570	0.616100	0.034300
H3361	H336	0.468470	0.528700	0.342600
H3371	H337	0.772570	0.350100	0.170100
H3381	H338	0.835570	0.324500	0.111500
H3391	H339	0.878170	0.555900	0.100400
H3401	H340	0.968870	0.527000	0.063900
H3411	H341	0.952470	0.344500	0.069900
H3421	H342	0.026070	0.381500	0.120800
H3431	H343	0.011470	0.395200	0.066700
H3441	H344	0.627570	0.555000	0.876000
H3451	H345	0.676370	0.490900	0.850100
H3461	H346	0.733470	0.549600	0.864200
H3471	H347	0.752370	0.305800	0.988200
H3481	H348	0.850970	0.318700	0.016700
H3491	H349	0.820070	0.347600	0.976600
H3501	H350	0.784570	0.514700	0.984000
H3511	H351	0.787270	0.474600	0.911700
H3521	H352	0.999570	0.479900	0.237700
H3531	H353	0.922870	0.529900	0.948700
H3541	H354	0.872370	0.549200	0.905700
H3551	H355	0.079470	0.567400	0.291600
H3561	H356	0.751670	0.684800	0.936700
H3571	H357	0.805570	0.622400	0.901300
H3581	H358	0.858270	0.684000	0.943500
H3591	H359	0.592870	0.700400	0.082500
H3601	H360	0.574170	0.737400	0.048100
H3611	H361	0.397770	0.547200	0.430400
H3621	H362	0.146070	0.665600	0.238800
H3631	H363	0.008870	0.716500	0.278800
H3641	H364	0.090270	0.750900	0.323900
H3651	H365	0.023070	0.710300	0.337500
H3661	H366	0.221270	0.623800	0.292200
H3671	H367	0.152270	0.658700	0.346900
H3681	H368	0.219570	0.696100	0.329000
H3691	H369	0.905970	0.736800	0.066500
H3701	H370	0.892170	0.832200	0.153100
H3711	H371	0.621970	0.812500	0.146800
H3721	H372	0.691670	0.890700	0.241100
H3731	H373	0.654370	0.923600	0.173000
H3741	H374	0.754870	0.947100	0.176500
H3751	H375	0.691970	0.978000	0.235200
H3761	H376	0.839770	0.890500	0.269300
H3771	H377	0.810070	0.958500	0.290600
H3781	H378	0.871770	0.922100	0.231900
C11	C1	0.961700	0.384000	0.373600
C21	C2	0.267700	0.490500	0.728900
C31	C3	0.967900	0.452400	0.394700
C41	C4	0.831600	0.557800	0.652900
C51	C5	0.901200	0.608500	0.671000
C61	C6	0.757200	0.567300	0.699700
C71	C7	0.707100	0.507400	0.675900
C81	C8	0.046900	0.478200	0.440500
C91	C9	0.315400	0.496100	0.685700
C101	C10	0.173800	0.488300	0.722500
C111	C11	0.272600	0.498300	0.638900
C121	C12	0.135700	0.490500	0.674700
C131	C13	0.400800	0.486200	0.785000
C141	C14	0.606700	0.398700	0.634000
C151	C15	0.875800	0.348400	0.341600
C161	C16	0.802800	0.585800	0.760800
C171	C17	0.982100	0.581800	0.626300
C181	C18	0.698500	0.466200	0.614600
C191	C19	0.649300	0.413600	0.595200
C201	C20	0.045500	0.349000	0.340300
C211	C21	0.790000	0.536900	0.591400
C221	C22	0.439500	0.473000	0.826700
C231	C23	0.940100	0.625500	0.733000
C241	C24	0.797500	0.384900	0.380000
C251	C25	0.261800	0.471800	0.815700
C261	C26	0.866000	0.639800	0.780800
C271	C27	0.743800	0.476500	0.566500
C281	C28	0.685100	0.616100	0.710000
C291	C29	0.984100	0.465400	0.342600
C301	C30	0.866300	0.664100	0.670100
C311	C31	0.881400	0.483400	0.429600
C321	C32	0.663300	0.492700	0.715500
C331	C33	0.797600	0.449500	0.394500
C341	C34	0.615300	0.440600	0.695600
C351	C35	0.864000	0.338400	0.277100
C361	C36	0.050800	0.291100	0.342300
C371	C37	0.304800	0.460400	0.857000
C381	C38	0.553300	0.340700	0.610100
C391	C39	0.613100	0.285900	0.591500
C401	C40	0.483900	0.340500	0.653800
C411	C41	0.310400	0.483800	0.777400
C421	C42	0.978900	0.259500	0.338600
C431	C43	0.894500	0.282000	0.337300
C441	C44	0.818300	0.247800	0.330600
C451	C45	0.826500	0.191100	0.325300
C461	C46	0.910900	0.168600	0.326700
C471	C47	0.987100	0.202800	0.333300
C481	C48	0.926800	0.104600	0.321100
C491	C49	0.959200	0.060100	0.258900
C501	C50	0.844000	0.081300	0.336800
C511	C51	0.628370	0.989600	0.616000
C521	C52	0.934370	0.238400	0.509500
C531	C53	0.634570	0.942300	0.547600
C541	C54	0.498270	0.095100	0.442200
C551	C55	0.567870	0.062500	0.391500
C561	C56	0.423870	0.132400	0.432700
C571	C57	0.373770	0.168500	0.492600
C581	C58	0.713570	0.962300	0.521800
C591	C59	0.982070	0.189600	0.503900
C601	C60	0.840470	0.234200	0.511700
C611	C61	0.939270	0.140600	0.501700
C621	C62	0.802370	0.184200	0.509500
C631	C63	0.067470	0.298800	0.513800
C641	C64	0.273370	0.235300	0.601300
C651	C65	0.542470	0.993200	0.651600
C661	C66	0.469470	0.175000	0.414200
C671	C67	0.648770	0.044500	0.418200
C681	C68	0.365170	0.148400	0.533800
C691	C69	0.315970	0.181600	0.586400
C701	C70	0.712170	0.991300	0.651000
C711	C71	0.456670	0.054500	0.463100
C721	C72	0.106170	0.353700	0.527000
C731	C73	0.606770	0.107500	0.374500
C741	C74	0.464170	0.995100	0.615100
C751	C75	0.928470	0.343900	0.528200
C761	C76	0.532670	0.141000	0.360200
C771	C77	0.410470	0.090000	0.523500
C781	C78	0.351770	0.093900	0.383900
C791	C79	0.650770	0.877200	0.534600
C801	C80	0.532970	0.006000	0.335900
C811	C81	0.548070	0.946200	0.516600
C821	C82	0.329970	0.222800	0.507300
C831	C83	0.464270	0.945000	0.550500
C841	C84	0.281970	0.255000	0.559400
C851	C85	0.530670	0.938700	0.661600
C861	C86	0.717470	0.051200	0.708900
C871	C87	0.971470	0.396600	0.539600
C881	C88	0.219970	0.269400	0.659300
C891	C89	0.279770	0.305600	0.714100
C901	C90	0.150570	0.313300	0.659500
C911	C91	0.977070	0.293600	0.516200
C921	C92	0.645570	0.079100	0.740500
C931	C93	0.561170	0.055300	0.718000
C941	C94	0.484970	0.082800	0.752200
C951	C95	0.493170	0.134200	0.808900
C961	C96	0.577570	0.158100	0.831400
C971	C97	0.653770	0.130500	0.797200
C981	C98	0.593470	0.216500	0.895400
C991	C99	0.625870	0.198800	0.939900
C1001	C100	0.510670	0.255500	0.918700
C1011	C101	0.295030	0.626400	0.010400
C1021	C102	0.601030	0.271100	0.761600
C1031	C103	0.301230	0.605300	0.057700
C1041	C104	0.164930	0.347100	0.904900
C1051	C105	0.234530	0.329000	0.937500
C1061	C106	0.090530	0.300300	0.867600
C1071	C107	0.040430	0.324100	0.831500
C1081	C108	0.380230	0.559500	0.037700
C1091	C109	0.648730	0.314300	0.810400
C1101	C110	0.507130	0.277500	0.765800
C1111	C111	0.605930	0.361100	0.859400
C1121	C112	0.469030	0.325300	0.815800
C1131	C113	0.734130	0.215000	0.701200
C1141	C114	0.940030	0.366000	0.764700
C1151	C115	0.209130	0.658400	0.006800
C1161	C116	0.136130	0.239200	0.825000
C1171	C117	0.315430	0.373700	0.955500
C1181	C118	0.031830	0.385400	0.851600
C1191	C119	0.982630	0.404800	0.818400
C1201	C120	0.378830	0.659700	0.008700
C1211	C121	0.123330	0.408600	0.945500
C1221	C122	0.772830	0.173300	0.646300
C1231	C123	0.273430	0.267000	0.892500
C1241	C124	0.130830	0.620000	0.004900
C1251	C125	0.595130	0.184300	0.656100
C1261	C126	0.199330	0.219200	0.859000
C1271	C127	0.077130	0.433500	0.910000
C1281	C128	0.018430	0.290000	0.906100
C1291	C129	0.317430	0.657400	0.122800
C1301	C130	0.199630	0.329900	0.994000
C1311	C131	0.214730	0.570400	0.053800
C1321	C132	0.996630	0.284500	0.777200
C1331	C133	0.130930	0.605500	0.055000
C1341	C134	0.948630	0.304400	0.745000
C1351	C135	0.197330	0.722900	0.061300
C1361	C136	0.384130	0.657700	0.948800
C1371	C137	0.638130	0.143000	0.603400
C1381	C138	0.886630	0.389900	0.730600
C1391	C139	0.946430	0.408500	0.694400
C1401	C140	0.817230	0.346200	0.686700
C1411	C141	0.643730	0.222600	0.706400
C1421	C142	0.312230	0.661400	0.920900
C1431	C143	0.227830	0.662700	0.944700
C1441	C144	0.151630	0.669400	0.917200
C1451	C145	0.159830	0.674700	0.865800
C1461	C146	0.244230	0.673300	0.841900
C1471	C147	0.320430	0.666700	0.869500
C1481	C148	0.260130	0.678900	0.783500
C1491	C149	0.292530	0.741100	0.801200
C1501	C150	0.177330	0.663200	0.744500
C1511	C151	0.038300	0.010400	0.626400
C1521	C152	0.732300	0.761600	0.271100
C1531	C153	0.032100	0.057700	0.605300
C1541	C154	0.168400	0.904900	0.347100
C1551	C155	0.098800	0.937500	0.329000
C1561	C156	0.242800	0.867600	0.300300
C1571	C157	0.292900	0.831500	0.324100
C1581	C158	0.953100	0.037700	0.559500
C1591	C159	0.684600	0.810400	0.314300
C1601	C160	0.826200	0.765800	0.277500
C1611	C161	0.727400	0.859400	0.361100
C1621	C162	0.864300	0.815800	0.325300
C1631	C163	0.599200	0.701200	0.215000
C1641	C164	0.393300	0.764700	0.366000
C1651	C165	0.124200	0.006800	0.658400
C1661	C166	0.197200	0.825000	0.239200
C1671	C167	0.017900	0.955500	0.373700
C1681	C168	0.301500	0.851600	0.385400
C1691	C169	0.350700	0.818400	0.404800
C1701	C170	0.954500	0.008700	0.659700
C1711	C171	0.210000	0.945500	0.408600
C1721	C172	0.560500	0.646300	0.173300
C1731	C173	0.059900	0.892500	0.267000
C1741	C174	0.202500	0.004900	0.620000
C1751	C175	0.738200	0.656100	0.184300
C1761	C176	0.134000	0.859000	0.219200
C1771	C177	0.256200	0.910000	0.433500
C1781	C178	0.314900	0.906100	0.290000
C1791	C179	0.015900	0.122800	0.657400
C1801	C180	0.133700	0.994000	0.329900
C1811	C181	0.118600	0.053800	0.570400
C1821	C182	0.336700	0.777200	0.284500
C1831	C183	0.202400	0.055000	0.605500
C1841	C184	0.384700	0.745000	0.304400
C1851	C185	0.136000	0.061300	0.722900
C1861	C186	0.949200	0.948800	0.657700
C1871	C187	0.695200	0.603400	0.143000
C1881	C188	0.446700	0.730600	0.389900
C1891	C189	0.386900	0.694400	0.408500
C1901	C190	0.516100	0.686700	0.346200
C1911	C191	0.689600	0.706400	0.222600
C1921	C192	0.021100	0.920900	0.661400
C1931	C193	0.105500	0.944700	0.662700
C1941	C194	0.181700	0.917200	0.669400
C1951	C195	0.173500	0.865800	0.674700
C1961	C196	0.089100	0.841900	0.673300
C1971	C197	0.012900	0.869500	0.666700
C1981	C198	0.073200	0.783500	0.678900
C1991	C199	0.040800	0.801200	0.741100
C2001	C200	0.156000	0.744500	0.663200
C2011	C201	0.371630	0.373600	0.384000
C2021	C202	0.065630	0.728900	0.490500
C2031	C203	0.365430	0.394700	0.452400
C2041	C204	0.501730	0.652900	0.557800
C2051	C205	0.432130	0.671000	0.608500
C2061	C206	0.576130	0.699700	0.567300
C2071	C207	0.626230	0.675900	0.507400
C2081	C208	0.286430	0.440500	0.478200
C2091	C209	0.017930	0.685700	0.496100
C2101	C210	0.159530	0.722500	0.488300
C2111	C211	0.060730	0.638900	0.498300
C2121	C212	0.197630	0.674700	0.490500
C2131	C213	0.932530	0.785000	0.486200
C2141	C214	0.726630	0.634000	0.398700
C2151	C215	0.457530	0.341600	0.348400
C2161	C216	0.530530	0.760800	0.585800
C2171	C217	0.351230	0.626300	0.581800
C2181	C218	0.634830	0.614600	0.466200
C2191	C219	0.684030	0.595200	0.413600
C2201	C220	0.287830	0.340300	0.349000
C2211	C221	0.543330	0.591400	0.536900
C2221	C222	0.893830	0.826700	0.473000
C2231	C223	0.393230	0.733000	0.625500
C2241	C224	0.535830	0.380000	0.384900
C2251	C225	0.071530	0.815700	0.471800
C2261	C226	0.467330	0.780800	0.639800
C2271	C227	0.589530	0.566500	0.476500
C2281	C228	0.648230	0.710000	0.616100
C2291	C229	0.349230	0.342600	0.465400
C2301	C230	0.467030	0.670100	0.664100
C2311	C231	0.451930	0.429600	0.483400
C2321	C232	0.670030	0.715500	0.492700
C2331	C233	0.535730	0.394500	0.449500
C2341	C234	0.718030	0.695600	0.440600
C2351	C235	0.469330	0.277100	0.338400
C2361	C236	0.282530	0.342300	0.291100
C2371	C237	0.028530	0.857000	0.460400
C2381	C238	0.780030	0.610100	0.340700
C2391	C239	0.720230	0.591500	0.285900
C2401	C240	0.849430	0.653800	0.340500
C2411	C241	0.022930	0.777400	0.483800
C2421	C242	0.354430	0.338600	0.259500
C2431	C243	0.438830	0.337300	0.282000
C2441	C244	0.515030	0.330600	0.247800
C2451	C245	0.506830	0.325300	0.191100
C2461	C246	0.422430	0.326700	0.168600
C2471	C247	0.346230	0.333300	0.202800
C2481	C248	0.406530	0.321100	0.104600
C2491	C249	0.374130	0.258900	0.060100
C2501	C250	0.489330	0.336800	0.081300
C2511	C251	0.704970	0.616000	0.989600
C2521	C252	0.398970	0.509500	0.238400
C2531	C253	0.698770	0.547600	0.942300
C2541	C254	0.835070	0.442200	0.095100
C2551	C255	0.765470	0.391500	0.062500
C2561	C256	0.909470	0.432700	0.132400
C2571	C257	0.959570	0.492600	0.168500
C2581	C258	0.619770	0.521800	0.962300
C2591	C259	0.351270	0.503900	0.189600
C2601	C260	0.492870	0.511700	0.234200
C2611	C261	0.394070	0.501700	0.140600
C2621	C262	0.530970	0.509500	0.184200
C2631	C263	0.265870	0.513800	0.298800
C2641	C264	0.059970	0.601300	0.235300
C2651	C265	0.790870	0.651600	0.993200
C2661	C266	0.863870	0.414200	0.175000
C2671	C267	0.684570	0.418200	0.044500
C2681	C268	0.968170	0.533800	0.148400
C2691	C269	0.017370	0.586400	0.181600
C2701	C270	0.621170	0.651000	0.991300
C2711	C271	0.876670	0.463100	0.054500
C2721	C272	0.227170	0.527000	0.353700
C2731	C273	0.726570	0.374500	0.107500
C2741	C274	0.869170	0.615100	0.995100
C2751	C275	0.404870	0.528200	0.343900
C2761	C276	0.800670	0.360200	0.141000
C2771	C277	0.922870	0.523500	0.090000
C2781	C278	0.981570	0.383900	0.093900
C2791	C279	0.682570	0.534600	0.877200
C2801	C280	0.800370	0.335900	0.006000
C2811	C281	0.785270	0.516600	0.946200
C2821	C282	0.003370	0.507300	0.222800
C2831	C283	0.869070	0.550500	0.945000
C2841	C284	0.051370	0.559400	0.255000
C2851	C285	0.802670	0.661600	0.938700
C2861	C286	0.615870	0.708900	0.051200
C2871	C287	0.361870	0.539600	0.396600
C2881	C288	0.113370	0.659300	0.269400
C2891	C289	0.053570	0.714100	0.305600
C2901	C290	0.182770	0.659500	0.313300
C2911	C291	0.356270	0.516200	0.293600
C2921	C292	0.687770	0.740500	0.079100
C2931	C293	0.772170	0.718000	0.055300
C2941	C294	0.848370	0.752200	0.082800
C2951	C295	0.840170	0.808900	0.134200
C2961	C296	0.755770	0.831400	0.158100
C2971	C297	0.679570	0.797200	0.130500
C2981	C298	0.739870	0.895400	0.216500
C2991	C299	0.707470	0.939900	0.198800
C3001	C300	0.822670	0.918700	0.255500
N11	N1	0.183900	0.494600	0.632430
N21	N2	0.392700	0.459300	0.862000
N31	N3	0.850570	0.137830	0.505400
N41	N4	0.059370	0.402700	0.540700
N51	N5	0.517230	0.367570	0.862170
N61	N6	0.726030	0.138000	0.597300
N71	N7	0.816100	0.862170	0.367570
N81	N8	0.607300	0.597300	0.138000
N91	N9	0.149430	0.632430	0.494600
N101	N10	0.940630	0.862000	0.459300
N111	N11	0.482770	0.505400	0.137830
N121	N12	0.273970	0.540700	0.402700
O11	O1	0.009200	0.529450	0.611260
O21	O2	0.040100	0.470350	0.485140
O31	O3	0.019900	0.615970	0.611220
O41	O4	0.109500	0.506140	0.431950
O51	O5	0.675870	0.081810	0.470550
O61	O6	0.706770	0.014790	0.529650
O71	O7	0.686570	0.995250	0.384030
O81	O8	0.776170	0.925810	0.493860
O91	O9	0.342530	0.388740	0.918190
O101	O10	0.373430	0.514860	0.985210
O111	O11	0.353230	0.388780	0.004750
O121	O12	0.442830	0.568050	0.074190
O131	O13	0.990800	0.918190	0.388740
O141	O14	0.959900	0.985210	0.514860
O151	O15	0.980100	0.004750	0.388780
O161	O16	0.890500	0.074190	0.568050
O171	O17	0.324130	0.611260	0.529450
O181	O18	0.293230	0.485140	0.470350
O191	O19	0.313430	0.611220	0.615970
O201	O20	0.223830	0.431950	0.506140
O211	O21	0.657470	0.470550	0.081810
O221	O22	0.626570	0.529650	0.014790
O231	O23	0.646770	0.384030	0.995250
O241	O24	0.557170	0.493860	0.925810
O251	O25	0.166670	0.562990	0.562990
O261	O26	0.833330	0.000000	0.437010
O271	O27	0.500000	0.437010	0.000000
