data_CEXHET_freeONLY_PM
_symmetry_space_group_name_H-M	'P1'
_cell_length_a	14.882000
_cell_length_b	31.203400
_cell_length_c	36.960900
_cell_angle_alpha	113.689000
_cell_angle_beta	99.130300
_cell_angle_gamma	95.797700
_symmetry_Int_Tables_number 1

loop_
_symmetry_equiv_pos_as_xyz
'x,y,z'

loop_
_atom_site_label
_atom_site_type_symbol
_atom_site_fract_x
_atom_site_fract_y
_atom_site_fract_z
Fe11	Fe1	0.938350	0.327250	0.948120
Fe21	Fe2	0.648320	0.555160	0.442500
Fe31	Fe3	0.509770	0.620870	0.948120
Fe41	Fe4	0.294180	0.887340	0.442500
Fe51	Fe5	0.217120	0.967120	0.934240
Fe61	Fe6	0.960440	0.210440	0.420880
Ag11	Ag1	0.055170	0.469180	0.247460
Ag21	Ag2	0.724740	0.701940	0.741660
Ag31	Ag3	0.692290	0.778280	0.247460
Ag41	Ag4	0.516920	0.039720	0.741660
Ag51	Ag5	0.367230	0.117230	0.234460
Ag61	Ag6	0.109380	0.359380	0.718760
H11	H1	0.965700	0.219400	0.915600
H21	H2	0.014000	0.175100	0.850800
H31	H3	0.055400	0.234100	0.823200
H41	H4	0.096400	0.427700	0.890600
H51	H5	0.080100	0.485700	0.957000
H61	H6	0.008100	0.439200	0.990600
H71	H7	0.936400	0.302000	0.803400
H81	H8	0.970500	0.306700	0.746400
H91	H9	0.227600	0.359000	0.799000
H101	H10	0.201300	0.356800	0.857800
H111	H11	0.532100	0.514300	0.896000
H121	H12	0.583900	0.488100	0.829200
H131	H13	0.626800	0.560300	0.818600
H141	H14	0.689800	0.747000	0.921400
H151	H15	0.665400	0.788500	0.992800
H161	H16	0.586900	0.727300	0.009200
H171	H17	0.521300	0.642300	0.818600
H181	H18	0.561800	0.660700	0.768400
H191	H19	0.823500	0.697800	0.824000
H201	H20	0.788800	0.681200	0.877000
H211	H21	0.771400	0.380600	0.954800
H221	H22	0.729600	0.433800	0.019000
H231	H23	0.847700	0.435300	0.076000
H241	H24	0.168000	0.366600	0.079200
H251	H25	0.237700	0.315300	0.025000
H261	H26	0.126800	0.293300	0.958800
H271	H27	0.006900	0.343000	0.100800
H281	H28	0.025900	0.376500	0.170000
H291	H29	0.057700	0.504800	0.177000
H301	H30	0.031500	0.476400	0.108200
H311	H31	0.698400	0.452700	0.396400
H321	H32	0.605100	0.390300	0.329200
H331	H33	0.464300	0.420300	0.312200
H341	H34	0.318400	0.570900	0.400800
H351	H35	0.382000	0.639500	0.469200
H361	H36	0.542600	0.631900	0.493800
H371	H37	0.312800	0.429800	0.339800
H381	H38	0.179400	0.411100	0.289800
H391	H39	0.252600	0.530900	0.279600
H401	H40	0.386100	0.552700	0.330200
H411	H41	0.800900	0.528800	0.493600
H421	H42	0.943100	0.500100	0.472400
H431	H43	0.943000	0.501800	0.405200
H441	H44	0.723300	0.569900	0.317800
H451	H45	0.588800	0.612700	0.332800
H461	H46	0.556700	0.612400	0.396600
H471	H47	0.795600	0.453500	0.321000
H481	H48	0.880600	0.432300	0.272200
H491	H49	0.005900	0.563300	0.310400
H501	H50	0.921900	0.590100	0.360600
H511	H51	0.731500	0.656200	0.453600
H521	H52	0.773500	0.729800	0.518200
H531	H53	0.751800	0.705400	0.573200
H541	H54	0.637500	0.533600	0.571000
H551	H55	0.584700	0.452500	0.514800
H561	H56	0.585400	0.461600	0.450000
H571	H57	0.836300	0.641200	0.606200
H581	H58	0.848400	0.673800	0.675000
H591	H59	0.577000	0.661300	0.659800
H601	H60	0.560800	0.626700	0.590800
H611	H61	0.731700	0.815700	0.804600
H621	H62	0.839200	0.878900	0.854000
H631	H63	0.040200	0.810600	0.808800
H641	H64	0.926200	0.750500	0.761000
H651	H65	0.987300	0.816900	0.895000
H661	H66	0.086800	0.830300	0.960400
H671	H67	0.202700	0.905500	0.983400
H681	H68	0.959600	0.924000	0.810800
H691	H69	0.038600	0.005700	0.826200
H701	H70	0.164600	0.031500	0.888600
H711	H71	0.395200	0.923100	0.942400
H721	H72	0.503600	0.939300	0.009000
H731	H73	0.434100	0.991000	0.064000
H741	H74	0.402800	0.090500	0.090000
H751	H75	0.431600	0.125200	0.160200
H761	H76	0.341300	0.219300	0.300000
H771	H77	0.249400	0.247100	0.347200
H781	H78	0.074800	0.121400	0.289200
H791	H79	0.172300	0.096200	0.243600
H801	H80	0.851400	0.264200	0.375400
H811	H81	0.886000	0.270500	0.312600
H821	H82	0.022200	0.232200	0.297600
H831	H83	0.256000	0.165000	0.380200
H841	H84	0.263500	0.158900	0.445400
H851	H85	0.118700	0.183300	0.469600
H861	H86	0.024600	0.313500	0.429400
H871	H87	0.068700	0.387800	0.495200
H881	H88	0.064400	0.362500	0.550600
H891	H89	0.174700	0.297400	0.576600
H901	H90	0.207200	0.331000	0.646200
H911	H91	0.449900	0.696200	0.915600
H921	H92	0.336800	0.675700	0.850800
H931	H93	0.267800	0.589100	0.823200
H941	H94	0.294200	0.462900	0.890600
H951	H95	0.376900	0.471300	0.957000
H961	H96	0.482500	0.551400	0.990600
H971	H97	0.367000	0.501400	0.803400
H981	H98	0.275900	0.439700	0.746400
H991	H99	0.071400	0.440000	0.799000
H1001	H100	0.156500	0.501000	0.857800
H1011	H101	0.863900	0.381700	0.896000
H1021	H102	0.745300	0.341100	0.829200
H1031	H103	0.691800	0.258300	0.818600
H1041	H104	0.731600	0.174400	0.921400
H1051	H105	0.827400	0.204300	0.992800
H1061	H106	0.922300	0.281900	0.009200
H1071	H107	0.797300	0.176300	0.818600
H1081	H108	0.706600	0.107700	0.768400
H1091	H109	0.500500	0.126200	0.824000
H1101	H110	0.588200	0.195800	0.877000
H1111	H111	0.683400	0.574200	0.954800
H1121	H112	0.789400	0.585200	0.019000
H1131	H113	0.728300	0.640700	0.076000
H1141	H114	0.411200	0.712600	0.079200
H1151	H115	0.287300	0.709700	0.025000
H1161	H116	0.332000	0.665500	0.958800
H1171	H117	0.593900	0.757800	0.100800
H1181	H118	0.644100	0.793500	0.170000
H1191	H119	0.619300	0.672200	0.177000
H1201	H120	0.576700	0.631800	0.108200
H1211	H121	0.198000	0.943700	0.396400
H1221	H122	0.224100	0.938900	0.329200
H1231	H123	0.347900	0.891900	0.312200
H1241	H124	0.582400	0.829900	0.400800
H1251	H125	0.587200	0.829700	0.469200
H1261	H126	0.451200	0.861900	0.493800
H1271	H127	0.527000	0.910000	0.339800
H1281	H128	0.610400	0.878700	0.289800
H1291	H129	0.527000	0.748700	0.279600
H1301	H130	0.444100	0.777500	0.330200
H1311	H131	0.192700	0.964800	0.493600
H1321	H132	0.029300	0.972300	0.472400
H1331	H133	0.962200	0.903400	0.405200
H1341	H134	0.094500	0.747900	0.317800
H1351	H135	0.244000	0.720100	0.332800
H1361	H136	0.339900	0.784200	0.396600
H1371	H137	0.025400	0.867500	0.321000
H1381	H138	0.891600	0.839900	0.272200
H1391	H139	0.804500	0.747100	0.310400
H1401	H140	0.938700	0.770500	0.360600
H1411	H141	0.222100	0.797400	0.453600
H1421	H142	0.244700	0.788400	0.518200
H1431	H143	0.321400	0.867800	0.573200
H1441	H144	0.433500	0.037400	0.571000
H1451	H145	0.430100	0.062300	0.514800
H1461	H146	0.364600	0.988400	0.450000
H1471	H147	0.269900	0.965000	0.606200
H1481	H148	0.326600	0.001200	0.675000
H1491	H149	0.582800	0.998500	0.659800
H1501	H150	0.530000	0.964100	0.590800
H1511	H151	0.572900	0.988900	0.804600
H1521	H152	0.514800	0.975100	0.854000
H1531	H153	0.268600	0.998200	0.808800
H1541	H154	0.334800	0.010500	0.761000
H1551	H155	0.407700	0.078100	0.895000
H1561	H156	0.373600	0.130100	0.960400
H1571	H157	0.280700	0.077900	0.983400
H1581	H158	0.351200	0.886800	0.810800
H1591	H159	0.287600	0.820500	0.826200
H1601	H160	0.224000	0.857100	0.888600
H1611	H161	0.047200	0.019300	0.942400
H1621	H162	0.005400	0.069700	0.009000
H1631	H163	0.129900	0.073000	0.064000
H1641	H164	0.187200	0.999500	0.090000
H1651	H165	0.228600	0.035000	0.160200
H1661	H166	0.458700	0.080700	0.300000
H1671	H167	0.597800	0.100100	0.347200
H1681	H168	0.714400	0.167800	0.289200
H1691	H169	0.571300	0.147400	0.243600
H1701	H170	0.024000	0.111200	0.375400
H1711	H171	0.926600	0.042100	0.312600
H1721	H172	0.775400	0.065400	0.297600
H1731	H173	0.624200	0.215200	0.380200
H1741	H174	0.681900	0.286500	0.445400
H1751	H175	0.850900	0.286300	0.469600
H1761	H176	0.904800	0.115900	0.429400
H1771	H177	0.926500	0.107400	0.495200
H1781	H178	0.986200	0.188100	0.550600
H1791	H179	0.901900	0.279200	0.576600
H1801	H180	0.939000	0.315200	0.646200
C11	C1	0.984350	0.233350	0.898700
C21	C2	0.011690	0.208190	0.862580
C31	C3	0.034320	0.240320	0.847440
C41	C4	0.019840	0.284740	0.875280
C51	C5	0.041950	0.329250	0.875300
C61	C6	0.042980	0.372780	0.906160
C71	C7	0.073160	0.420160	0.910320
C81	C8	0.063450	0.452050	0.946300
C91	C9	0.023460	0.425560	0.964920
C101	C10	0.067590	0.329290	0.837580
C111	C11	0.997730	0.313930	0.803460
C121	C12	0.019470	0.316470	0.769540
C131	C13	0.167100	0.346600	0.799600
C141	C14	0.151460	0.345660	0.834920
C151	C15	0.553840	0.534940	0.884880
C161	C16	0.582380	0.519880	0.846960
C171	C17	0.606620	0.559220	0.841440
C181	C18	0.596440	0.598940	0.876280
C191	C19	0.622360	0.646260	0.885520
C201	C20	0.622580	0.683480	0.922160
C211	C21	0.660990	0.732690	0.935980
C221	C22	0.647510	0.755510	0.975420
C231	C23	0.603570	0.721170	0.984140
C241	C24	0.650240	0.658140	0.853080
C251	C25	0.584570	0.653070	0.820340
C261	C26	0.609430	0.663430	0.790060
C271	C27	0.761380	0.685180	0.822360
C281	C28	0.740990	0.675690	0.854380
C291	C29	0.806180	0.388580	0.981160
C301	C30	0.781110	0.417910	0.016820
C311	C31	0.846110	0.419010	0.047820
C321	C32	0.910930	0.391030	0.030260
C331	C33	0.991230	0.384330	0.051060
C341	C34	0.055410	0.358610	0.032620
C351	C35	0.141680	0.352980	0.050960
C361	C36	0.179690	0.325090	0.021580
C371	C37	0.116940	0.313040	0.984680
C381	C38	0.010470	0.406370	0.095540
C391	C39	0.013530	0.376530	0.115460
C401	C40	0.026430	0.397330	0.157060
C411	C41	0.043720	0.471320	0.161040
C421	C42	0.029090	0.454590	0.120180
C431	C43	0.640160	0.454760	0.382920
C441	C44	0.588640	0.419640	0.345080
C451	C45	0.511480	0.435880	0.336160
C461	C46	0.512800	0.480800	0.369000
C471	C47	0.445440	0.508340	0.374080
C481	C48	0.448480	0.550180	0.409360
C491	C49	0.377970	0.577170	0.417540
C501	C50	0.413530	0.615130	0.455260
C511	C51	0.502920	0.610620	0.468640
C521	C52	0.361160	0.493460	0.341320
C531	C53	0.300530	0.451430	0.328260
C541	C54	0.220910	0.440210	0.298220
C551	C55	0.263940	0.510440	0.292480
C561	C56	0.344180	0.523880	0.322560
C571	C57	0.818820	0.526520	0.469440
C581	C58	0.898230	0.510230	0.457860
C591	C59	0.898560	0.511560	0.421320
C601	C60	0.819580	0.530480	0.412160
C611	C61	0.792790	0.538790	0.378180
C621	C62	0.719440	0.560840	0.372080
C631	C63	0.694910	0.575410	0.340220
C641	C64	0.621130	0.598930	0.348460
C651	C65	0.604030	0.598330	0.384060
C661	C66	0.848450	0.524250	0.346500
C671	C67	0.838410	0.477210	0.319620
C681	C68	0.890490	0.464890	0.290780
C691	C69	0.962310	0.540610	0.312820
C701	C70	0.912460	0.557160	0.342920
C711	C71	0.729080	0.656980	0.479360
C721	C72	0.753020	0.698520	0.515240
C731	C73	0.740990	0.684990	0.545180
C741	C74	0.709470	0.635170	0.527140
C751	C75	0.685910	0.607310	0.545820
C761	C76	0.649670	0.558270	0.525740
C771	C77	0.630850	0.525650	0.542900
C781	C78	0.601890	0.481190	0.512380
C791	C79	0.602850	0.486850	0.476300
C801	C80	0.695600	0.629900	0.590600
C811	C81	0.781880	0.644580	0.616760
C821	C82	0.788620	0.663820	0.657640
C831	C83	0.630920	0.656420	0.649040
C841	C84	0.621080	0.636280	0.607760
C851	C85	0.795550	0.814450	0.805700
C861	C86	0.859360	0.852560	0.835320
C871	C87	0.951710	0.851910	0.837420
C881	C88	0.976920	0.812620	0.808840
C891	C89	0.908040	0.776840	0.780680
C901	C90	0.026010	0.889810	0.869220
C911	C91	0.064220	0.882220	0.903240
C921	C92	0.035740	0.843140	0.911280
C931	C93	0.090560	0.850260	0.946720
C941	C94	0.154700	0.892900	0.959600
C951	C95	0.052700	0.931300	0.864000
C961	C96	0.009390	0.943390	0.832980
C971	C97	0.052670	0.987670	0.841140
C981	C98	0.123090	0.001890	0.876380
C991	C99	0.386990	0.942790	0.968580
C1001	C100	0.448170	0.951370	0.005940
C1011	C101	0.410490	0.979990	0.035780
C1021	C102	0.329480	0.990880	0.017560
C1031	C103	0.365210	0.078910	0.103820
C1041	C104	0.382100	0.098800	0.145600
C1051	C105	0.287800	0.198700	0.298400
C1061	C106	0.232750	0.215450	0.326500
C1071	C107	0.155010	0.186510	0.324420
C1081	C108	0.130520	0.141820	0.292640
C1091	C109	0.188960	0.126960	0.265520
C1101	C110	0.900630	0.252730	0.363060
C1111	C111	0.919450	0.256450	0.327700
C1121	C112	0.994400	0.235800	0.319800
C1131	C113	0.024350	0.220550	0.350500
C1141	C114	0.100070	0.201170	0.356740
C1151	C115	0.132110	0.191410	0.389020
C1161	C116	0.212210	0.173110	0.396820
C1171	C117	0.215960	0.169160	0.432120
C1181	C118	0.134880	0.183480	0.445760
C1191	C119	0.028190	0.314190	0.455580
C1201	C120	0.053230	0.356130	0.492260
C1211	C121	0.050650	0.342050	0.522500
C1221	C122	0.023670	0.291070	0.504740
C1231	C123	0.125430	0.300430	0.590460
C1241	C124	0.144580	0.320680	0.631760
C1251	C125	0.414350	0.665350	0.898700
C1261	C126	0.350890	0.654390	0.862580
C1271	C127	0.313120	0.607120	0.847440
C1281	C128	0.355440	0.590540	0.875280
C1291	C129	0.333350	0.546050	0.875300
C1301	C130	0.363180	0.533380	0.906160
C1311	C131	0.337160	0.490160	0.910320
C1321	C132	0.382850	0.494250	0.946300
C1331	C133	0.441460	0.539360	0.964920
C1341	C134	0.269990	0.508290	0.837580
C1351	C135	0.305730	0.489530	0.803460
C1361	C136	0.250070	0.453070	0.769540
C1371	C137	0.132500	0.453000	0.799600
C1381	C138	0.183460	0.489260	0.834920
C1391	C139	0.831040	0.349940	0.884880
C1401	C140	0.764580	0.327080	0.846960
C1411	C141	0.734820	0.282220	0.841440
C1421	C142	0.779840	0.277340	0.876280
C1431	C143	0.763160	0.239260	0.885520
C1441	C144	0.799580	0.238680	0.922160
C1451	C145	0.774990	0.203290	0.935980
C1461	C146	0.827910	0.219910	0.975420
C1471	C147	0.880570	0.262970	0.984140
C1481	C148	0.702840	0.194940	0.853080
C1491	C149	0.735770	0.167270	0.820340
C1501	C150	0.680630	0.126630	0.790060
C1511	C151	0.560980	0.137180	0.822360
C1521	C152	0.613390	0.178690	0.854380
C1531	C153	0.674980	0.592580	0.981160
C1541	C154	0.735710	0.598910	0.016820
C1551	C155	0.701710	0.628810	0.047820
C1561	C156	0.619330	0.639230	0.030260
C1571	C157	0.559830	0.666730	0.051060
C1581	C158	0.477210	0.674010	0.032620
C1591	C159	0.409280	0.697980	0.050960
C1601	C160	0.341890	0.696490	0.021580
C1611	C161	0.367740	0.671640	0.984680
C1621	C162	0.585070	0.689170	0.095540
C1631	C163	0.601930	0.738930	0.115460
C1641	C164	0.630630	0.759730	0.157060
C1651	C165	0.617320	0.689720	0.161040
C1661	C166	0.591090	0.665590	0.120180
C1671	C167	0.242760	0.928160	0.382920
C1681	C168	0.256440	0.925440	0.345080
C1691	C169	0.324680	0.900280	0.336160
C1701	C170	0.356200	0.888200	0.369000
C1711	C171	0.428640	0.865740	0.374080
C1721	C172	0.460880	0.859180	0.409360
C1731	C173	0.539570	0.840370	0.417540
C1741	C174	0.541730	0.840130	0.455260
C1751	C175	0.465720	0.858020	0.468640
C1761	C176	0.480160	0.847860	0.341320
C1771	C177	0.527730	0.876830	0.328260
C1781	C178	0.577310	0.858010	0.298220
C1791	C179	0.528540	0.782040	0.292480
C1801	C180	0.478380	0.798680	0.322560
C1811	C181	0.150620	0.942920	0.469440
C1821	C182	0.059630	0.947630	0.457860
C1831	C183	0.022760	0.909760	0.421320
C1841	C184	0.092580	0.881680	0.412160
C1851	C185	0.085390	0.839390	0.378180
C1861	C186	0.152640	0.811240	0.372080
C1871	C187	0.145310	0.764810	0.340220
C1881	C188	0.227330	0.749530	0.348460
C1891	C189	0.280030	0.785730	0.384060
C1901	C190	0.998050	0.822250	0.346500
C1911	C191	0.981210	0.842410	0.319620
C1921	C192	0.900290	0.825890	0.290780
C1931	C193	0.850510	0.772210	0.312820
C1941	C194	0.930460	0.785760	0.342920
C1951	C195	0.250280	0.822380	0.479360
C1961	C196	0.262220	0.816720	0.515240
C1971	C197	0.304190	0.860190	0.545180
C1981	C198	0.317670	0.891970	0.527140
C1991	C199	0.359910	0.938510	0.545820
C2001	C200	0.376070	0.967470	0.525740
C2011	C201	0.412050	0.017250	0.542900
C2021	C202	0.410490	0.031190	0.512380
C2031	C203	0.373450	0.989450	0.476300
C2041	C204	0.395000	0.960700	0.590600
C2051	C205	0.334880	0.972180	0.616760
C2061	C206	0.369020	0.993820	0.657640
C2071	C207	0.518120	0.992620	0.649040
C2081	C208	0.486680	0.971480	0.607760
C2091	C209	0.510150	0.991250	0.805700
C2101	C210	0.475960	0.982760	0.835320
C2111	C211	0.385710	0.985510	0.837420
C2121	C212	0.331920	0.996220	0.808840
C2131	C213	0.372640	0.003840	0.780680
C2141	C214	0.343210	0.979410	0.869220
C2151	C215	0.339020	0.021020	0.903240
C2161	C216	0.375540	0.068140	0.911280
C2171	C217	0.356160	0.096460	0.946720
C2181	C218	0.304900	0.066700	0.959600
C2191	C219	0.311300	0.932700	0.864000
C2201	C220	0.323590	0.889590	0.832980
C2211	C221	0.288470	0.853470	0.841140
C2221	C222	0.253290	0.874490	0.876380
C2231	C223	0.081590	0.025790	0.968580
C2241	C224	0.057770	0.054570	0.005940
C2251	C225	0.125290	0.055790	0.035780
C2261	C226	0.188080	0.026680	0.017560
C2271	C227	0.238610	0.024910	0.103820
C2281	C228	0.263500	0.046800	0.145600
C2291	C229	0.510600	0.099700	0.298400
C2301	C230	0.593750	0.111050	0.326500
C2311	C231	0.669410	0.137910	0.324420
C2321	C232	0.662120	0.150820	0.292640
C2331	C233	0.576560	0.138560	0.265520
C2341	C234	0.962430	0.110330	0.363060
C2351	C235	0.908250	0.071250	0.327700
C2361	C236	0.825400	0.084000	0.319800
C2371	C237	0.826150	0.129950	0.350500
C2381	C238	0.756670	0.155570	0.356740
C2391	C239	0.756910	0.197610	0.389020
C2401	C240	0.684610	0.223710	0.396820
C2411	C241	0.716160	0.262960	0.432120
C2421	C242	0.810880	0.262280	0.445760
C2431	C243	0.927390	0.141390	0.455580
C2441	C244	0.939030	0.136130	0.492260
C2451	C245	0.971850	0.180450	0.522500
C2461	C246	0.981070	0.213670	0.504740
C2471	C247	0.965030	0.290030	0.590460
C2481	C248	0.987180	0.311080	0.631760
C2491	C249	0.268270	0.018270	0.036540
C2501	C250	0.291420	0.041420	0.082840
C2511	C251	0.011770	0.261770	0.523540
C2521	C252	0.034280	0.284280	0.568560
N11	N1	0.987590	0.278690	0.906580
N21	N2	0.010130	0.378330	0.941260
N31	N3	0.101030	0.331130	0.766460
N41	N4	0.562220	0.581520	0.901840
N51	N5	0.586750	0.677650	0.952900
N61	N6	0.696970	0.677070	0.789540
N71	N7	0.884040	0.373240	0.988480
N81	N8	0.042640	0.332640	0.990480
N91	N9	0.039290	0.442590	0.180180
N101	N10	0.596460	0.491360	0.397320
N111	N11	0.525960	0.571760	0.441000
N121	N12	0.201330	0.470330	0.280460
N131	N13	0.771380	0.538280	0.442360
N141	N14	0.660930	0.576230	0.399060
N151	N15	0.953080	0.494680	0.286960
N161	N16	0.702510	0.618710	0.484840
N171	N17	0.631730	0.532230	0.483880
N181	N18	0.712860	0.669360	0.674620
N191	N19	0.818770	0.776070	0.778540
N201	N20	0.138410	0.913310	0.933620
N211	N21	0.123650	0.968550	0.890100
N221	N22	0.316130	0.966830	0.975860
N231	N23	0.267670	0.154970	0.269540
N241	N24	0.962260	0.230960	0.376600
N251	N25	0.085160	0.196860	0.420520
N261	N26	0.009940	0.275340	0.462500
N271	N27	0.418990	0.627890	0.906580
N281	N28	0.431130	0.562930	0.941260
N291	N29	0.165430	0.435330	0.766460
N301	N30	0.839620	0.320320	0.901840
N311	N31	0.866150	0.275250	0.952900
N321	N32	0.592570	0.112470	0.789540
N331	N33	0.604440	0.615240	0.988480
N341	N34	0.447840	0.657840	0.990480
N351	N35	0.640890	0.737590	0.180180
N361	N36	0.300860	0.905960	0.397320
N371	N37	0.415040	0.869240	0.441000
N381	N38	0.579130	0.810130	0.280460
N391	N39	0.170980	0.904080	0.442360
N401	N40	0.238130	0.822830	0.399060
N411	N41	0.833880	0.792280	0.286960
N421	N42	0.282330	0.866130	0.484840
N431	N43	0.352150	0.951650	0.483880
N441	N44	0.461760	0.005260	0.674620
N451	N45	0.459770	0.002470	0.778540
N461	N46	0.295210	0.020310	0.933620
N471	N47	0.266450	0.921550	0.890100
N481	N48	0.159730	0.009030	0.975860
N491	N49	0.501870	0.114570	0.269540
N501	N50	0.914340	0.145640	0.376600
N511	N51	0.835360	0.223660	0.420520
N521	N52	0.952560	0.187160	0.462500
N531	N53	0.333440	0.083440	0.166880
N541	N54	0.076330	0.326330	0.652660
Fe71	Fe7	0.061650	0.672750	0.051880
Fe81	Fe8	0.351680	0.444840	0.557500
Fe91	Fe9	0.490230	0.379130	0.051880
Fe101	Fe10	0.705820	0.112660	0.557500
Fe111	Fe11	0.782880	0.032880	0.065760
Fe121	Fe12	0.039560	0.789560	0.579120
Ag71	Ag7	0.944830	0.530820	0.752540
Ag81	Ag8	0.275260	0.298060	0.258340
Ag91	Ag9	0.307710	0.221720	0.752540
Ag101	Ag10	0.483080	0.960280	0.258340
Ag111	Ag11	0.632770	0.882770	0.765540
Ag121	Ag12	0.890620	0.640620	0.281240
H1811	H181	0.034300	0.780600	0.084400
H1821	H182	0.986000	0.824900	0.149200
H1831	H183	0.944600	0.765900	0.176800
H1841	H184	0.903600	0.572300	0.109400
H1851	H185	0.919900	0.514300	0.043000
H1861	H186	0.991900	0.560800	0.009400
H1871	H187	0.063600	0.698000	0.196600
H1881	H188	0.029500	0.693300	0.253600
H1891	H189	0.772400	0.641000	0.201000
H1901	H190	0.798700	0.643200	0.142200
H1911	H191	0.467900	0.485700	0.104000
H1921	H192	0.416100	0.511900	0.170800
H1931	H193	0.373200	0.439700	0.181400
H1941	H194	0.310200	0.253000	0.078600
H1951	H195	0.334600	0.211500	0.007200
H1961	H196	0.413100	0.272700	0.990800
H1971	H197	0.478700	0.357700	0.181400
H1981	H198	0.438200	0.339300	0.231600
H1991	H199	0.176500	0.302200	0.176000
H2001	H200	0.211200	0.318800	0.123000
H2011	H201	0.228600	0.619400	0.045200
H2021	H202	0.270400	0.566200	0.981000
H2031	H203	0.152300	0.564700	0.924000
H2041	H204	0.832000	0.633400	0.920800
H2051	H205	0.762300	0.684700	0.975000
H2061	H206	0.873200	0.706700	0.041200
H2071	H207	0.993100	0.657000	0.899200
H2081	H208	0.974100	0.623500	0.830000
H2091	H209	0.942300	0.495200	0.823000
H2101	H210	0.968500	0.523600	0.891800
H2111	H211	0.301600	0.547300	0.603600
H2121	H212	0.394900	0.609700	0.670800
H2131	H213	0.535700	0.579700	0.687800
H2141	H214	0.681600	0.429100	0.599200
H2151	H215	0.618000	0.360500	0.530800
H2161	H216	0.457400	0.368100	0.506200
H2171	H217	0.687200	0.570200	0.660200
H2181	H218	0.820600	0.588900	0.710200
H2191	H219	0.747400	0.469100	0.720400
H2201	H220	0.613900	0.447300	0.669800
H2211	H221	0.199100	0.471200	0.506400
H2221	H222	0.056900	0.499900	0.527600
H2231	H223	0.057000	0.498200	0.594800
H2241	H224	0.276700	0.430100	0.682200
H2251	H225	0.411200	0.387300	0.667200
H2261	H226	0.443300	0.387600	0.603400
H2271	H227	0.204400	0.546500	0.679000
H2281	H228	0.119400	0.567700	0.727800
H2291	H229	0.994100	0.436700	0.689600
H2301	H230	0.078100	0.409900	0.639400
H2311	H231	0.268500	0.343800	0.546400
H2321	H232	0.226500	0.270200	0.481800
H2331	H233	0.248200	0.294600	0.426800
H2341	H234	0.362500	0.466400	0.429000
H2351	H235	0.415300	0.547500	0.485200
H2361	H236	0.414600	0.538400	0.550000
H2371	H237	0.163700	0.358800	0.393800
H2381	H238	0.151600	0.326200	0.325000
H2391	H239	0.423000	0.338700	0.340200
H2401	H240	0.439200	0.373300	0.409200
H2411	H241	0.268300	0.184300	0.195400
H2421	H242	0.160800	0.121100	0.146000
H2431	H243	0.959800	0.189400	0.191200
H2441	H244	0.073800	0.249500	0.239000
H2451	H245	0.012700	0.183100	0.105000
H2461	H246	0.913200	0.169700	0.039600
H2471	H247	0.797300	0.094500	0.016600
H2481	H248	0.040400	0.076000	0.189200
H2491	H249	0.961400	0.994300	0.173800
H2501	H250	0.835400	0.968500	0.111400
H2511	H251	0.604800	0.076900	0.057600
H2521	H252	0.496400	0.060700	0.991000
H2531	H253	0.565900	0.009000	0.936000
H2541	H254	0.597200	0.909500	0.910000
H2551	H255	0.568400	0.874800	0.839800
H2561	H256	0.658700	0.780700	0.700000
H2571	H257	0.750600	0.752900	0.652800
H2581	H258	0.925200	0.878600	0.710800
H2591	H259	0.827700	0.903800	0.756400
H2601	H260	0.148600	0.735800	0.624600
H2611	H261	0.114000	0.729500	0.687400
H2621	H262	0.977800	0.767800	0.702400
H2631	H263	0.744000	0.835000	0.619800
H2641	H264	0.736500	0.841100	0.554600
H2651	H265	0.881300	0.816700	0.530400
H2661	H266	0.975400	0.686500	0.570600
H2671	H267	0.931300	0.612200	0.504800
H2681	H268	0.935600	0.637500	0.449400
H2691	H269	0.825300	0.702600	0.423400
H2701	H270	0.792800	0.669000	0.353800
H2711	H271	0.550100	0.303800	0.084400
H2721	H272	0.663200	0.324300	0.149200
H2731	H273	0.732200	0.410900	0.176800
H2741	H274	0.705800	0.537100	0.109400
H2751	H275	0.623100	0.528700	0.043000
H2761	H276	0.517500	0.448600	0.009400
H2771	H277	0.633000	0.498600	0.196600
H2781	H278	0.724100	0.560300	0.253600
H2791	H279	0.928600	0.560000	0.201000
H2801	H280	0.843500	0.499000	0.142200
H2811	H281	0.136100	0.618300	0.104000
H2821	H282	0.254700	0.658900	0.170800
H2831	H283	0.308200	0.741700	0.181400
H2841	H284	0.268400	0.825600	0.078600
H2851	H285	0.172600	0.795700	0.007200
H2861	H286	0.077700	0.718100	0.990800
H2871	H287	0.202700	0.823700	0.181400
H2881	H288	0.293400	0.892300	0.231600
H2891	H289	0.499500	0.873800	0.176000
H2901	H290	0.411800	0.804200	0.123000
H2911	H291	0.316600	0.425800	0.045200
H2921	H292	0.210600	0.414800	0.981000
H2931	H293	0.271700	0.359300	0.924000
H2941	H294	0.588800	0.287400	0.920800
H2951	H295	0.712700	0.290300	0.975000
H2961	H296	0.668000	0.334500	0.041200
H2971	H297	0.406100	0.242200	0.899200
H2981	H298	0.355900	0.206500	0.830000
H2991	H299	0.380700	0.327800	0.823000
H3001	H300	0.423300	0.368200	0.891800
H3011	H301	0.802000	0.056300	0.603600
H3021	H302	0.775900	0.061100	0.670800
H3031	H303	0.652100	0.108100	0.687800
H3041	H304	0.417600	0.170100	0.599200
H3051	H305	0.412800	0.170300	0.530800
H3061	H306	0.548800	0.138100	0.506200
H3071	H307	0.473000	0.090000	0.660200
H3081	H308	0.389600	0.121300	0.710200
H3091	H309	0.473000	0.251300	0.720400
H3101	H310	0.555900	0.222500	0.669800
H3111	H311	0.807300	0.035200	0.506400
H3121	H312	0.970700	0.027700	0.527600
H3131	H313	0.037800	0.096600	0.594800
H3141	H314	0.905500	0.252100	0.682200
H3151	H315	0.756000	0.279900	0.667200
H3161	H316	0.660100	0.215800	0.603400
H3171	H317	0.974600	0.132500	0.679000
H3181	H318	0.108400	0.160100	0.727800
H3191	H319	0.195500	0.252900	0.689600
H3201	H320	0.061300	0.229500	0.639400
H3211	H321	0.777900	0.202600	0.546400
H3221	H322	0.755300	0.211600	0.481800
H3231	H323	0.678600	0.132200	0.426800
H3241	H324	0.566500	0.962600	0.429000
H3251	H325	0.569900	0.937700	0.485200
H3261	H326	0.635400	0.011600	0.550000
H3271	H327	0.730100	0.035000	0.393800
H3281	H328	0.673400	0.998800	0.325000
H3291	H329	0.417200	0.001500	0.340200
H3301	H330	0.470000	0.035900	0.409200
H3311	H331	0.427100	0.011100	0.195400
H3321	H332	0.485200	0.024900	0.146000
H3331	H333	0.731400	0.001800	0.191200
H3341	H334	0.665200	0.989500	0.239000
H3351	H335	0.592300	0.921900	0.105000
H3361	H336	0.626400	0.869900	0.039600
H3371	H337	0.719300	0.922100	0.016600
H3381	H338	0.648800	0.113200	0.189200
H3391	H339	0.712400	0.179500	0.173800
H3401	H340	0.776000	0.142900	0.111400
H3411	H341	0.952800	0.980700	0.057600
H3421	H342	0.994600	0.930300	0.991000
H3431	H343	0.870100	0.927000	0.936000
H3441	H344	0.812800	0.000500	0.910000
H3451	H345	0.771400	0.965000	0.839800
H3461	H346	0.541300	0.919300	0.700000
H3471	H347	0.402200	0.899900	0.652800
H3481	H348	0.285600	0.832200	0.710800
H3491	H349	0.428700	0.852600	0.756400
H3501	H350	0.976000	0.888800	0.624600
H3511	H351	0.073400	0.957900	0.687400
H3521	H352	0.224600	0.934600	0.702400
H3531	H353	0.375800	0.784800	0.619800
H3541	H354	0.318100	0.713500	0.554600
H3551	H355	0.149100	0.713700	0.530400
H3561	H356	0.095200	0.884100	0.570600
H3571	H357	0.073500	0.892600	0.504800
H3581	H358	0.013800	0.811900	0.449400
H3591	H359	0.098100	0.720800	0.423400
H3601	H360	0.061000	0.684800	0.353800
C2531	C253	0.015650	0.766650	0.101300
C2541	C254	0.988310	0.791810	0.137420
C2551	C255	0.965680	0.759680	0.152560
C2561	C256	0.980160	0.715260	0.124720
C2571	C257	0.958050	0.670750	0.124700
C2581	C258	0.957020	0.627220	0.093840
C2591	C259	0.926840	0.579840	0.089680
C2601	C260	0.936550	0.547950	0.053700
C2611	C261	0.976540	0.574440	0.035080
C2621	C262	0.932410	0.670710	0.162420
C2631	C263	0.002270	0.686070	0.196540
C2641	C264	0.980530	0.683530	0.230460
C2651	C265	0.832900	0.653400	0.200400
C2661	C266	0.848540	0.654340	0.165080
C2671	C267	0.446160	0.465060	0.115120
C2681	C268	0.417620	0.480120	0.153040
C2691	C269	0.393380	0.440780	0.158560
C2701	C270	0.403560	0.401060	0.123720
C2711	C271	0.377640	0.353740	0.114480
C2721	C272	0.377420	0.316520	0.077840
C2731	C273	0.339010	0.267310	0.064020
C2741	C274	0.352490	0.244490	0.024580
C2751	C275	0.396430	0.278830	0.015860
C2761	C276	0.349760	0.341860	0.146920
C2771	C277	0.415430	0.346930	0.179660
C2781	C278	0.390570	0.336570	0.209940
C2791	C279	0.238620	0.314820	0.177640
C2801	C280	0.259010	0.324310	0.145620
C2811	C281	0.193820	0.611420	0.018840
C2821	C282	0.218890	0.582090	0.983180
C2831	C283	0.153890	0.580990	0.952180
C2841	C284	0.089070	0.608970	0.969740
C2851	C285	0.008770	0.615670	0.948940
C2861	C286	0.944590	0.641390	0.967380
C2871	C287	0.858320	0.647020	0.949040
C2881	C288	0.820310	0.674910	0.978420
C2891	C289	0.883060	0.686960	0.015320
C2901	C290	0.989530	0.593630	0.904460
C2911	C291	0.986470	0.623470	0.884540
C2921	C292	0.973570	0.602670	0.842940
C2931	C293	0.956280	0.528680	0.838960
C2941	C294	0.970910	0.545410	0.879820
C2951	C295	0.359840	0.545240	0.617080
C2961	C296	0.411360	0.580360	0.654920
C2971	C297	0.488520	0.564120	0.663840
C2981	C298	0.487200	0.519200	0.631000
C2991	C299	0.554560	0.491660	0.625920
C3001	C300	0.551520	0.449820	0.590640
C3011	C301	0.622030	0.422830	0.582460
C3021	C302	0.586470	0.384870	0.544740
C3031	C303	0.497080	0.389380	0.531360
C3041	C304	0.638840	0.506540	0.658680
C3051	C305	0.699470	0.548570	0.671740
C3061	C306	0.779090	0.559790	0.701780
C3071	C307	0.736060	0.489560	0.707520
C3081	C308	0.655820	0.476120	0.677440
C3091	C309	0.181180	0.473480	0.530560
C3101	C310	0.101770	0.489770	0.542140
C3111	C311	0.101440	0.488440	0.578680
C3121	C312	0.180420	0.469520	0.587840
C3131	C313	0.207210	0.461210	0.621820
C3141	C314	0.280560	0.439160	0.627920
C3151	C315	0.305090	0.424590	0.659780
C3161	C316	0.378870	0.401070	0.651540
C3171	C317	0.395970	0.401670	0.615940
C3181	C318	0.151550	0.475750	0.653500
C3191	C319	0.161590	0.522790	0.680380
C3201	C320	0.109510	0.535110	0.709220
C3211	C321	0.037690	0.459390	0.687180
C3221	C322	0.087540	0.442840	0.657080
C3231	C323	0.270920	0.343020	0.520640
C3241	C324	0.246980	0.301480	0.484760
C3251	C325	0.259010	0.315010	0.454820
C3261	C326	0.290530	0.364830	0.472860
C3271	C327	0.314090	0.392690	0.454180
C3281	C328	0.350330	0.441730	0.474260
C3291	C329	0.369150	0.474350	0.457100
C3301	C330	0.398110	0.518810	0.487620
C3311	C331	0.397150	0.513150	0.523700
C3321	C332	0.304400	0.370100	0.409400
C3331	C333	0.218120	0.355420	0.383240
C3341	C334	0.211380	0.336180	0.342360
C3351	C335	0.369080	0.343580	0.350960
C3361	C336	0.378920	0.363720	0.392240
C3371	C337	0.204450	0.185550	0.194300
C3381	C338	0.140640	0.147440	0.164680
C3391	C339	0.048290	0.148090	0.162580
C3401	C340	0.023080	0.187380	0.191160
C3411	C341	0.091960	0.223160	0.219320
C3421	C342	0.973990	0.110190	0.130780
C3431	C343	0.935780	0.117780	0.096760
C3441	C344	0.964260	0.156860	0.088720
C3451	C345	0.909440	0.149740	0.053280
C3461	C346	0.845300	0.107100	0.040400
C3471	C347	0.947300	0.068700	0.136000
C3481	C348	0.990610	0.056610	0.167020
C3491	C349	0.947330	0.012330	0.158860
C3501	C350	0.876910	0.998110	0.123620
C3511	C351	0.613010	0.057210	0.031420
C3521	C352	0.551830	0.048630	0.994060
C3531	C353	0.589510	0.020010	0.964220
C3541	C354	0.670520	0.009120	0.982440
C3551	C355	0.634790	0.921090	0.896180
C3561	C356	0.617900	0.901200	0.854400
C3571	C357	0.712200	0.801300	0.701600
C3581	C358	0.767250	0.784550	0.673500
C3591	C359	0.844990	0.813490	0.675580
C3601	C360	0.869480	0.858180	0.707360
C3611	C361	0.811040	0.873040	0.734480
C3621	C362	0.099370	0.747270	0.636940
C3631	C363	0.080550	0.743550	0.672300
C3641	C364	0.005600	0.764200	0.680200
C3651	C365	0.975650	0.779450	0.649500
C3661	C366	0.899930	0.798830	0.643260
C3671	C367	0.867890	0.808590	0.610980
C3681	C368	0.787790	0.826890	0.603180
C3691	C369	0.784040	0.830840	0.567880
C3701	C370	0.865120	0.816520	0.554240
C3711	C371	0.971810	0.685810	0.544420
C3721	C372	0.946770	0.643870	0.507740
C3731	C373	0.949350	0.657950	0.477500
C3741	C374	0.976330	0.708930	0.495260
C3751	C375	0.874570	0.699570	0.409540
C3761	C376	0.855420	0.679320	0.368240
C3771	C377	0.585650	0.334650	0.101300
C3781	C378	0.649110	0.345610	0.137420
C3791	C379	0.686880	0.392880	0.152560
C3801	C380	0.644560	0.409460	0.124720
C3811	C381	0.666650	0.453950	0.124700
C3821	C382	0.636820	0.466620	0.093840
C3831	C383	0.662840	0.509840	0.089680
C3841	C384	0.617150	0.505750	0.053700
C3851	C385	0.558540	0.460640	0.035080
C3861	C386	0.730010	0.491710	0.162420
C3871	C387	0.694270	0.510470	0.196540
C3881	C388	0.749930	0.546930	0.230460
C3891	C389	0.867500	0.547000	0.200400
C3901	C390	0.816540	0.510740	0.165080
C3911	C391	0.168960	0.650060	0.115120
C3921	C392	0.235420	0.672920	0.153040
C3931	C393	0.265180	0.717780	0.158560
C3941	C394	0.220160	0.722660	0.123720
C3951	C395	0.236840	0.760740	0.114480
C3961	C396	0.200420	0.761320	0.077840
C3971	C397	0.225010	0.796710	0.064020
C3981	C398	0.172090	0.780090	0.024580
C3991	C399	0.119430	0.737030	0.015860
C4001	C400	0.297160	0.805060	0.146920
C4011	C401	0.264230	0.832730	0.179660
C4021	C402	0.319370	0.873370	0.209940
C4031	C403	0.439020	0.862820	0.177640
C4041	C404	0.386610	0.821310	0.145620
C4051	C405	0.325020	0.407420	0.018840
C4061	C406	0.264290	0.401090	0.983180
C4071	C407	0.298290	0.371190	0.952180
C4081	C408	0.380670	0.360770	0.969740
C4091	C409	0.440170	0.333270	0.948940
C4101	C410	0.522790	0.325990	0.967380
C4111	C411	0.590720	0.302020	0.949040
C4121	C412	0.658110	0.303510	0.978420
C4131	C413	0.632260	0.328360	0.015320
C4141	C414	0.414930	0.310830	0.904460
C4151	C415	0.398070	0.261070	0.884540
C4161	C416	0.369370	0.240270	0.842940
C4171	C417	0.382680	0.310280	0.838960
C4181	C418	0.408910	0.334410	0.879820
C4191	C419	0.757240	0.071840	0.617080
C4201	C420	0.743560	0.074560	0.654920
C4211	C421	0.675320	0.099720	0.663840
C4221	C422	0.643800	0.111800	0.631000
C4231	C423	0.571360	0.134260	0.625920
C4241	C424	0.539120	0.140820	0.590640
C4251	C425	0.460430	0.159630	0.582460
C4261	C426	0.458270	0.159870	0.544740
C4271	C427	0.534280	0.141980	0.531360
C4281	C428	0.519840	0.152140	0.658680
C4291	C429	0.472270	0.123170	0.671740
C4301	C430	0.422690	0.141990	0.701780
C4311	C431	0.471460	0.217960	0.707520
C4321	C432	0.521620	0.201320	0.677440
C4331	C433	0.849380	0.057080	0.530560
C4341	C434	0.940370	0.052370	0.542140
C4351	C435	0.977240	0.090240	0.578680
C4361	C436	0.907420	0.118320	0.587840
C4371	C437	0.914610	0.160610	0.621820
C4381	C438	0.847360	0.188760	0.627920
C4391	C439	0.854690	0.235190	0.659780
C4401	C440	0.772670	0.250470	0.651540
C4411	C441	0.719970	0.214270	0.615940
C4421	C442	0.001950	0.177750	0.653500
C4431	C443	0.018790	0.157590	0.680380
C4441	C444	0.099710	0.174110	0.709220
C4451	C445	0.149490	0.227790	0.687180
C4461	C446	0.069540	0.214240	0.657080
C4471	C447	0.749720	0.177620	0.520640
C4481	C448	0.737780	0.183280	0.484760
C4491	C449	0.695810	0.139810	0.454820
C4501	C450	0.682330	0.108030	0.472860
C4511	C451	0.640090	0.061490	0.454180
C4521	C452	0.623930	0.032530	0.474260
C4531	C453	0.587950	0.982750	0.457100
C4541	C454	0.589510	0.968810	0.487620
C4551	C455	0.626550	0.010550	0.523700
C4561	C456	0.605000	0.039300	0.409400
C4571	C457	0.665120	0.027820	0.383240
C4581	C458	0.630980	0.006180	0.342360
C4591	C459	0.481880	0.007380	0.350960
C4601	C460	0.513320	0.028520	0.392240
C4611	C461	0.489850	0.008750	0.194300
C4621	C462	0.524040	0.017240	0.164680
C4631	C463	0.614290	0.014490	0.162580
C4641	C464	0.668080	0.003780	0.191160
C4651	C465	0.627360	0.996160	0.219320
C4661	C466	0.656790	0.020590	0.130780
C4671	C467	0.660980	0.978980	0.096760
C4681	C468	0.624460	0.931860	0.088720
C4691	C469	0.643840	0.903540	0.053280
C4701	C470	0.695100	0.933300	0.040400
C4711	C471	0.688700	0.067300	0.136000
C4721	C472	0.676410	0.110410	0.167020
C4731	C473	0.711530	0.146530	0.158860
C4741	C474	0.746710	0.125510	0.123620
C4751	C475	0.918410	0.974210	0.031420
C4761	C476	0.942230	0.945430	0.994060
C4771	C477	0.874710	0.944210	0.964220
C4781	C478	0.811920	0.973320	0.982440
C4791	C479	0.761390	0.975090	0.896180
C4801	C480	0.736500	0.953200	0.854400
C4811	C481	0.489400	0.900300	0.701600
C4821	C482	0.406250	0.888950	0.673500
C4831	C483	0.330590	0.862090	0.675580
C4841	C484	0.337880	0.849180	0.707360
C4851	C485	0.423440	0.861440	0.734480
C4861	C486	0.037570	0.889670	0.636940
C4871	C487	0.091750	0.928750	0.672300
C4881	C488	0.174600	0.916000	0.680200
C4891	C489	0.173850	0.870050	0.649500
C4901	C490	0.243330	0.844430	0.643260
C4911	C491	0.243090	0.802390	0.610980
C4921	C492	0.315390	0.776290	0.603180
C4931	C493	0.283840	0.737040	0.567880
C4941	C494	0.189120	0.737720	0.554240
C4951	C495	0.072610	0.858610	0.544420
C4961	C496	0.060970	0.863870	0.507740
C4971	C497	0.028150	0.819550	0.477500
C4981	C498	0.018930	0.786330	0.495260
C4991	C499	0.034970	0.709970	0.409540
C5001	C500	0.012820	0.688920	0.368240
C5011	C501	0.731730	0.981730	0.963460
C5021	C502	0.708580	0.958580	0.917160
C5031	C503	0.988230	0.738230	0.476460
C5041	C504	0.965720	0.715720	0.431440
N551	N55	0.012410	0.721310	0.093420
N561	N56	0.989870	0.621670	0.058740
N571	N57	0.898970	0.668870	0.233540
N581	N58	0.437780	0.418480	0.098160
N591	N59	0.413250	0.322350	0.047100
N601	N60	0.303030	0.322930	0.210460
N611	N61	0.115960	0.626760	0.011520
N621	N62	0.957360	0.667360	0.009520
N631	N63	0.960710	0.557410	0.819820
N641	N64	0.403540	0.508640	0.602680
N651	N65	0.474040	0.428240	0.559000
N661	N66	0.798670	0.529670	0.719540
N671	N67	0.228620	0.461720	0.557640
N681	N68	0.339070	0.423770	0.600940
N691	N69	0.046920	0.505320	0.713040
N701	N70	0.297490	0.381290	0.515160
N711	N71	0.368270	0.467770	0.516120
N721	N72	0.287140	0.330640	0.325380
N731	N73	0.181230	0.223930	0.221460
N741	N74	0.861590	0.086690	0.066380
N751	N75	0.876350	0.031450	0.109900
N761	N76	0.683870	0.033170	0.024140
N771	N77	0.732330	0.845030	0.730460
N781	N78	0.037740	0.769040	0.623400
N791	N79	0.914840	0.803140	0.579480
N801	N80	0.990060	0.724660	0.537500
N811	N81	0.581010	0.372110	0.093420
N821	N82	0.568870	0.437070	0.058740
N831	N83	0.834570	0.564670	0.233540
N841	N84	0.160380	0.679680	0.098160
N851	N85	0.133850	0.724750	0.047100
N861	N86	0.407430	0.887530	0.210460
N871	N87	0.395560	0.384760	0.011520
N881	N88	0.552160	0.342160	0.009520
N891	N89	0.359110	0.262410	0.819820
N901	N90	0.699140	0.094040	0.602680
N911	N91	0.584960	0.130760	0.559000
N921	N92	0.420870	0.189870	0.719540
N931	N93	0.829020	0.095920	0.557640
N941	N94	0.761870	0.177170	0.600940
N951	N95	0.166120	0.207720	0.713040
N961	N96	0.717670	0.133870	0.515160
N971	N97	0.647850	0.048350	0.516120
N981	N98	0.538240	0.994740	0.325380
N991	N99	0.540230	0.997530	0.221460
N1001	N100	0.704790	0.979690	0.066380
N1011	N101	0.733550	0.078450	0.109900
N1021	N102	0.840270	0.990970	0.024140
N1031	N103	0.498130	0.885430	0.730460
N1041	N104	0.085660	0.854360	0.623400
N1051	N105	0.164640	0.776340	0.579480
N1061	N106	0.047440	0.812840	0.537500
N1071	N107	0.666560	0.916560	0.833120
N1081	N108	0.923670	0.673670	0.347340
