data_CEYPUT01_freeONLY_PM
_symmetry_space_group_name_H-M	'P1'
_cell_length_a	6.208100
_cell_length_b	12.681000
_cell_length_c	10.414000
_cell_angle_alpha	90.000000
_cell_angle_beta	91.210000
_cell_angle_gamma	90.000000
_symmetry_Int_Tables_number 1

loop_
_symmetry_equiv_pos_as_xyz
'x,y,z'

loop_
_atom_site_label
_atom_site_type_symbol
_atom_site_fract_x
_atom_site_fract_y
_atom_site_fract_z
Co11	Co1	0.165800	0.746600	0.275660
O11	O1	0.903700	0.153200	0.842100
N11	N1	0.018000	0.854600	0.151100
O21	O2	0.590600	0.142800	0.936700
O31	O3	0.436400	0.364900	0.821900
C11	C1	0.865100	0.023700	0.006600
N21	N2	0.314600	0.657400	0.137000
O41	O4	0.753700	0.384700	0.913300
C21	C2	0.603000	0.544100	0.077900
H11	H1	0.743200	0.521200	0.093800
C31	C3	0.064700	0.981600	0.984400
H21	H2	0.149600	0.009000	0.919900
C41	C4	0.274200	0.541300	0.956300
H31	H3	0.187600	0.514500	0.890000
C51	C5	0.564200	0.411100	0.900800
C61	C6	0.511500	0.621300	0.153800
H41	H4	0.594800	0.649100	0.220900
C71	C7	0.478400	0.501400	0.976000
C81	C8	0.139600	0.897100	0.059600
H51	H5	0.276300	0.869900	0.045900
C91	C9	0.823500	0.896900	0.174700
H61	H6	0.741300	0.868500	0.239800
C101	C10	0.195700	0.620800	0.033600
H71	H7	0.060800	0.649700	0.015300
C111	C11	0.742500	0.981800	0.104300
H81	H8	0.608200	0.010100	0.122300
C121	C12	0.778000	0.115100	0.926600
Co21	Co2	0.665800	0.253400	0.775660
O51	O5	0.403700	0.846800	0.342100
N31	N3	0.518000	0.145400	0.651100
O61	O6	0.090600	0.857200	0.436700
O71	O7	0.936400	0.635100	0.321900
C131	C13	0.365100	0.976300	0.506600
N41	N4	0.814600	0.342600	0.637000
O81	O8	0.253700	0.615300	0.413300
C141	C14	0.103000	0.455900	0.577900
H91	H9	0.243200	0.478800	0.593800
C151	C15	0.564700	0.018400	0.484400
H101	H10	0.649600	0.991000	0.419900
C161	C16	0.774200	0.458700	0.456300
H111	H11	0.687600	0.485500	0.390000
C171	C17	0.064200	0.588900	0.400800
C181	C18	0.011500	0.378700	0.653800
H121	H12	0.094800	0.350900	0.720900
C191	C19	0.978400	0.498600	0.476000
C201	C20	0.639600	0.102900	0.559600
H131	H13	0.776300	0.130100	0.545900
C211	C21	0.323500	0.103100	0.674700
H141	H14	0.241300	0.131500	0.739800
C221	C22	0.695700	0.379200	0.533600
H151	H15	0.560800	0.350300	0.515300
C231	C23	0.242500	0.018200	0.604300
H161	H16	0.108200	0.989900	0.622300
C241	C24	0.278000	0.884900	0.426600
