data_cg060732osi20070605_042406_freeONLY_PM
_symmetry_space_group_name_H-M	'P1'
_cell_length_a	17.643900
_cell_length_b	17.643700
_cell_length_c	17.643700
_cell_angle_alpha	109.471000
_cell_angle_beta	109.471000
_cell_angle_gamma	109.471000
_symmetry_Int_Tables_number 1

loop_
_symmetry_equiv_pos_as_xyz
'x,y,z'

loop_
_atom_site_label
_atom_site_type_symbol
_atom_site_fract_x
_atom_site_fract_y
_atom_site_fract_z
In11	In1	0.375000	0.750000	0.125000
In21	In2	0.125000	0.250000	0.375000
In31	In3	0.625000	0.375000	0.250000
In41	In4	0.750000	0.625000	0.875000
In51	In5	0.250000	0.875000	0.625000
In61	In6	0.875000	0.125000	0.750000
H11	H1	0.956400	0.612600	0.436600
H21	H2	0.936600	0.956400	0.112600
H31	H3	0.456400	0.436600	0.612600
H41	H4	0.656200	0.480200	0.543600
H51	H5	0.112600	0.456400	0.936600
H61	H6	0.156200	0.543600	0.480200
H71	H7	0.387400	0.324000	0.343800
H81	H8	0.343800	0.824000	0.387400
H91	H9	0.676000	0.519800	0.063400
H101	H10	0.063400	0.019800	0.676000
H111	H11	0.612600	0.936600	0.456400
H121	H12	0.176000	0.063400	0.519800
H131	H13	0.436600	0.112600	0.956400
H141	H14	0.543600	0.980200	0.656200
H151	H15	0.980200	0.156200	0.043600
H161	H16	0.019800	0.176000	0.563400
H171	H17	0.887400	0.343800	0.324000
H181	H18	0.043600	0.656200	0.980200
H191	H19	0.824000	0.887400	0.843800
H201	H20	0.519800	0.563400	0.176000
H211	H21	0.324000	0.843800	0.887400
H221	H22	0.480200	0.043600	0.156200
H231	H23	0.563400	0.676000	0.019800
H241	H24	0.843800	0.387400	0.824000
C11	C1	0.546000	0.572100	0.139700
C21	C2	0.806100	0.445700	0.330800
C31	C3	0.125200	0.032300	0.599100
C41	C4	0.330800	0.945700	0.806100
C51	C5	0.385100	0.860400	0.054300
C61	C6	0.532300	0.625200	0.099100
C71	C7	0.572100	0.639700	0.046000
C81	C8	0.567600	0.927900	0.473900
C91	C9	0.526100	0.954000	0.593700
C101	C10	0.933200	0.526100	0.900900
C111	C11	0.360400	0.885100	0.554300
C121	C12	0.360300	0.906300	0.932400
C131	C13	0.625200	0.599100	0.032300
C141	C14	0.593700	0.454000	0.526100
C151	C15	0.432400	0.360300	0.406300
C161	C16	0.093700	0.526100	0.454000
C171	C17	0.973900	0.567600	0.427900
C181	C18	0.860400	0.554300	0.885100
C191	C19	0.139700	0.072100	0.546000
C201	C20	0.907100	0.473900	0.374800
C211	C21	0.092900	0.566800	0.967700
C221	C22	0.473900	0.874800	0.407100
C231	C23	0.524700	0.193900	0.139600
C241	C24	0.433200	0.900900	0.526100
C251	C25	0.566800	0.467700	0.592900
C261	C26	0.026100	0.433200	0.400900
C271	C27	0.975300	0.114900	0.669200
C281	C28	0.427900	0.067600	0.973900
C291	C29	0.945700	0.306100	0.830800
C301	C30	0.614900	0.475300	0.169200
C311	C31	0.046000	0.139700	0.572100
C321	C32	0.932400	0.406300	0.360300
C331	C33	0.067600	0.473900	0.927900
C341	C34	0.973900	0.407100	0.874800
C351	C35	0.599100	0.532300	0.125200
C361	C36	0.693900	0.024700	0.639600
C371	C37	0.592900	0.967700	0.566800
C381	C38	0.885100	0.054300	0.860400
C391	C39	0.114900	0.169200	0.475300
C401	C40	0.306100	0.330800	0.445700
C411	C41	0.900900	0.026100	0.933200
C421	C42	0.454000	0.026100	0.093700
C431	C43	0.024700	0.139600	0.193900
C441	C44	0.526100	0.400900	0.433200
C451	C45	0.026100	0.593700	0.954000
C461	C46	0.906300	0.432400	0.860300
C471	C47	0.874800	0.907100	0.973900
C481	C48	0.169200	0.975300	0.614900
C491	C49	0.639700	0.546000	0.072100
C501	C50	0.473900	0.427900	0.567600
C511	C51	0.554300	0.385100	0.360400
C521	C52	0.830800	0.806100	0.945700
C531	C53	0.967700	0.066800	0.092900
C541	C54	0.374800	0.973900	0.907100
C551	C55	0.445700	0.830800	0.306100
C561	C56	0.927900	0.973900	0.067600
C571	C57	0.193900	0.639600	0.024700
C581	C58	0.066800	0.592900	0.467700
C591	C59	0.054300	0.360400	0.385100
C601	C60	0.400900	0.933200	0.026100
C611	C61	0.860300	0.932400	0.906300
C621	C62	0.475300	0.669200	0.114900
C631	C63	0.467700	0.092900	0.066800
C641	C64	0.072100	0.046000	0.639700
C651	C65	0.139600	0.693900	0.524700
C661	C66	0.032300	0.099100	0.625200
C671	C67	0.099100	0.125200	0.532300
C681	C68	0.639600	0.524700	0.693900
C691	C69	0.954000	0.093700	0.026100
C701	C70	0.406300	0.860300	0.432400
C711	C71	0.407100	0.374800	0.473900
C721	C72	0.669200	0.614900	0.975300
O11	O1	0.361200	0.778000	0.246800
O21	O2	0.567800	0.218700	0.223300
O31	O3	0.138800	0.385600	0.416800
O41	O4	0.650900	0.655500	0.932200
O51	O5	0.932200	0.155500	0.650900
O61	O6	0.031200	0.114400	0.253200
O71	O7	0.276700	0.844500	0.495400
O81	O8	0.916800	0.138800	0.885600
O91	O9	0.861200	0.246800	0.778000
O101	O10	0.655500	0.432200	0.150900
O111	O11	0.468800	0.722000	0.083200
O121	O12	0.968800	0.083200	0.722000
O131	O13	0.067800	0.223300	0.218700
O141	O14	0.723300	0.567800	0.718700
O151	O15	0.722000	0.583200	0.968800
O161	O16	0.155500	0.150900	0.432200
O171	O17	0.004600	0.281300	0.849100
O181	O18	0.349100	0.004600	0.781300
O191	O19	0.776700	0.495400	0.844500
O201	O20	0.885600	0.638800	0.916800
O211	O21	0.781300	0.504600	0.349100
O221	O22	0.223300	0.718700	0.567800
O231	O23	0.746800	0.361200	0.278000
O241	O24	0.495400	0.344500	0.276700
O251	O25	0.281300	0.349100	0.504600
O261	O26	0.849100	0.781300	0.004600
O271	O27	0.344500	0.776700	0.995400
O281	O28	0.432200	0.650900	0.155500
O291	O29	0.083200	0.222000	0.468800
O301	O30	0.614400	0.531200	0.753200
O311	O31	0.778000	0.746800	0.861200
O321	O32	0.114400	0.753200	0.531200
O331	O33	0.385600	0.916800	0.638800
O341	O34	0.718700	0.067800	0.723300
O351	O35	0.150900	0.932200	0.655500
O361	O36	0.844500	0.995400	0.776700
O371	O37	0.995400	0.276700	0.344500
O381	O38	0.222000	0.968800	0.583200
O391	O39	0.246800	0.278000	0.361200
O401	O40	0.583200	0.468800	0.222000
O411	O41	0.218700	0.723300	0.067800
O421	O42	0.531200	0.253200	0.114400
O431	O43	0.253200	0.614400	0.031200
O441	O44	0.753200	0.031200	0.614400
O451	O45	0.416800	0.885600	0.138800
O461	O46	0.638800	0.416800	0.385600
O471	O47	0.278000	0.861200	0.746800
O481	O48	0.504600	0.849100	0.281300
