data_cg200615s_si_002_freeONLY_PM
_symmetry_space_group_name_H-M	'P1'
_cell_length_a	7.136400
_cell_length_b	11.429700
_cell_length_c	11.748500
_cell_angle_alpha	62.658000
_cell_angle_beta	75.568000
_cell_angle_gamma	88.560000
_symmetry_Int_Tables_number 1

loop_
_symmetry_equiv_pos_as_xyz
'x,y,z'

loop_
_atom_site_label
_atom_site_type_symbol
_atom_site_fract_x
_atom_site_fract_y
_atom_site_fract_z
Cu11	Cu1	0.879970	0.719300	0.356330
Cl11	Cl1	0.213000	0.313590	0.096140
K11	K1	0.232900	0.077000	0.996800
S11	S1	0.301900	0.843870	0.899900
O11	O1	0.142000	0.927700	0.881500
O21	O2	0.443400	0.891600	0.941400
O31	O3	0.383600	0.822700	0.786300
O41	O4	0.423900	0.267200	0.754300
O51	O5	0.714700	0.648400	0.533200
O61	O6	0.889000	0.890200	0.352400
H11	H1	0.843200	0.902700	0.415100
H21	H2	0.901600	0.954400	0.279700
O71	O7	0.045200	0.778700	0.179100
N11	N1	0.888700	0.546400	0.371800
N21	N2	0.799300	0.434600	0.465100
C11	C1	0.082300	0.678400	0.154300
C21	C2	0.195700	0.687300	0.033700
C31	C3	0.231100	0.576500	0.014300
H31	H3	0.307400	0.586200	0.931100
C41	C4	0.153800	0.452000	0.117800
C51	C5	0.038800	0.436700	0.237800
H41	H4	0.983000	0.351400	0.307400
C61	C6	0.006600	0.547700	0.255000
C71	C7	0.672600	0.424800	0.578700
C81	C8	0.568400	0.290200	0.661500
C91	C9	0.633400	0.184100	0.625400
H51	H5	0.565400	0.098500	0.696200
H61	H6	0.774000	0.181500	0.614100
H71	H7	0.603800	0.202500	0.542000
C101	C10	0.636700	0.529800	0.610400
C111	C11	0.503900	0.511800	0.739500
H81	H8	0.528100	0.588300	0.752400
H91	H9	0.528500	0.431100	0.812800
H101	H10	0.368300	0.504200	0.737700
Cu21	Cu2	0.120030	0.280700	0.643670
Cl21	Cl2	0.787000	0.686410	0.903860
K21	K2	0.767100	0.923000	0.003200
S21	S2	0.698100	0.156130	0.100100
O81	O8	0.858000	0.072300	0.118500
O91	O9	0.556600	0.108400	0.058600
O101	O10	0.616400	0.177300	0.213700
O111	O11	0.576100	0.732800	0.245700
O121	O12	0.285300	0.351600	0.466800
O131	O13	0.111000	0.109800	0.647600
H111	H11	0.156800	0.097300	0.584900
H121	H12	0.098400	0.045600	0.720300
O141	O14	0.954800	0.221300	0.820900
N31	N3	0.111300	0.453600	0.628200
N41	N4	0.200700	0.565400	0.534900
C121	C12	0.917700	0.321600	0.845700
C131	C13	0.804300	0.312700	0.966300
C141	C14	0.768900	0.423500	0.985700
H131	H13	0.692600	0.413800	0.068900
C151	C15	0.846200	0.548000	0.882200
C161	C16	0.961200	0.563300	0.762200
H141	H14	0.017000	0.648600	0.692600
C171	C17	0.993400	0.452300	0.745000
C181	C18	0.327400	0.575200	0.421300
C191	C19	0.431600	0.709800	0.338500
C201	C20	0.366600	0.815900	0.374600
H151	H15	0.434600	0.901500	0.303800
H161	H16	0.226000	0.818500	0.385900
H171	H17	0.396200	0.797500	0.458000
C211	C21	0.363300	0.470200	0.389600
C221	C22	0.496100	0.488200	0.260500
H181	H18	0.471900	0.411700	0.247600
H191	H19	0.471500	0.568900	0.187200
H201	H20	0.631700	0.495800	0.262300
