data_cg301577a_si_002_freeONLY_PM
_symmetry_space_group_name_H-M	'P1'
_cell_length_a	21.273700
_cell_length_b	21.273700
_cell_length_c	30.086000
_cell_angle_alpha	90.000000
_cell_angle_beta	90.000000
_cell_angle_gamma	90.000000
_symmetry_Int_Tables_number 1

loop_
_symmetry_equiv_pos_as_xyz
'x,y,z'

loop_
_atom_site_label
_atom_site_type_symbol
_atom_site_fract_x
_atom_site_fract_y
_atom_site_fract_z
Cu11	Cu1	0.500000	0.000000	0.000000
Cu21	Cu2	0.500000	0.500000	0.500000
Cu31	Cu3	0.000000	0.500000	0.000000
Cu41	Cu4	0.000000	0.500000	0.500000
Cu51	Cu5	0.250000	0.750000	0.248400
Cu61	Cu6	0.750000	0.250000	0.751600
Cu71	Cu7	0.500000	0.000000	0.500000
Cu81	Cu8	0.500000	0.500000	0.000000
Cu91	Cu9	0.250000	0.750000	0.748400
Cu101	Cu10	0.750000	0.250000	0.251600
Cu111	Cu11	0.000000	0.000000	0.000000
Cu121	Cu12	0.000000	0.000000	0.500000
H11	H1	0.623900	0.159500	0.630500
H21	H2	0.973500	0.310800	0.948800
H31	H3	0.241800	0.464200	0.011200
H41	H4	0.350700	0.871000	0.870100
H51	H5	0.629000	0.350700	0.629900
H61	H6	0.656800	0.434700	0.076500
H71	H7	0.866600	0.403300	0.863300
H81	H8	0.104300	0.870500	0.109300
H91	H9	0.343200	0.565300	0.923500
H101	H10	0.188700	0.851200	0.309300
H111	H11	0.184900	0.661200	0.305800
H121	H12	0.864400	0.215800	0.862300
H131	H13	0.311300	0.648800	0.309300
H141	H14	0.035800	0.241800	0.488800
H151	H15	0.957700	0.423900	0.424200
H161	H16	0.129500	0.604300	0.609300
H171	H17	0.526500	0.189200	0.948800
H181	H18	0.552300	0.344700	0.585700
H191	H19	0.844700	0.447700	0.085700
H201	H20	0.688700	0.351200	0.690700
H211	H21	0.947700	0.155300	0.585700
H221	H22	0.964200	0.758200	0.511200
H231	H23	0.870500	0.395700	0.390700
H241	H24	0.364400	0.715800	0.137700
H251	H25	0.026500	0.689200	0.051200
H261	H26	0.862100	0.513200	0.519100
H271	H27	0.457700	0.923900	0.575800
H281	H28	0.635600	0.284200	0.862300
H291	H29	0.542300	0.076100	0.424200
H301	H30	0.576100	0.457700	0.924200
H311	H31	0.159500	0.876100	0.869500
H321	H32	0.423900	0.542300	0.075800
H331	H33	0.137900	0.486800	0.480900
H341	H34	0.366600	0.903300	0.136700
H351	H35	0.096700	0.866600	0.636700
H361	H36	0.815100	0.338800	0.694200
H371	H37	0.633400	0.096700	0.863300
H381	H38	0.513400	0.272600	0.988400
H391	H39	0.923900	0.042300	0.924200
H401	H40	0.076100	0.957700	0.075800
H411	H41	0.811300	0.148800	0.690700
H421	H42	0.772600	0.486600	0.488400
H431	H43	0.042300	0.576100	0.575800
H441	H44	0.637900	0.986800	0.519100
H451	H45	0.934700	0.343200	0.576500
H461	H46	0.189200	0.973500	0.551200
H471	H47	0.784200	0.364400	0.362300
H481	H48	0.565300	0.156800	0.576500
H491	H49	0.135600	0.784200	0.137700
H501	H50	0.284200	0.864400	0.637700
H511	H51	0.741800	0.964200	0.988800
H521	H52	0.161200	0.815100	0.805800
H531	H53	0.838800	0.184900	0.194200
H541	H54	0.215800	0.635600	0.637700
H551	H55	0.486600	0.727400	0.011600
H561	H56	0.351200	0.811300	0.809300
H571	H57	0.370500	0.895700	0.609300
H581	H58	0.535800	0.741800	0.511200
H591	H59	0.715800	0.135600	0.362300
H601	H60	0.513200	0.637900	0.980900
H611	H61	0.851200	0.311300	0.190700
H621	H62	0.810800	0.026500	0.448800
H631	H63	0.340500	0.623900	0.869500
H641	H64	0.133400	0.596700	0.136700
H651	H65	0.648800	0.188700	0.190700
H661	H66	0.362100	0.013200	0.480900
H671	H67	0.727400	0.013400	0.488400
H681	H68	0.876100	0.340500	0.630500
H691	H69	0.227400	0.513400	0.511600
H701	H70	0.596700	0.366600	0.363300
H711	H71	0.464200	0.258200	0.488800
H721	H72	0.156800	0.934700	0.923500
H731	H73	0.840500	0.123900	0.130500
H741	H74	0.758200	0.535800	0.988800
H751	H75	0.473500	0.810800	0.051200
H761	H76	0.629500	0.104300	0.390700
H771	H77	0.155300	0.552300	0.914300
H781	H78	0.344700	0.947700	0.914300
H791	H79	0.065300	0.656800	0.423500
H801	H80	0.310800	0.526500	0.551200
H811	H81	0.871000	0.149300	0.629900
H821	H82	0.655300	0.052300	0.085700
H831	H83	0.659500	0.376100	0.130500
H841	H84	0.486800	0.362100	0.019100
H851	H85	0.395700	0.629500	0.109300
H861	H86	0.371000	0.649300	0.370100
H871	H87	0.604300	0.370500	0.890700
H881	H88	0.661200	0.315100	0.194200
H891	H89	0.315100	0.838800	0.305800
H901	H90	0.123900	0.659500	0.369500
H911	H91	0.376100	0.840500	0.369500
H921	H92	0.689200	0.473500	0.448800
H931	H93	0.013400	0.772600	0.011600
H941	H94	0.986800	0.862100	0.980900
H951	H95	0.148800	0.688700	0.809300
H961	H96	0.649300	0.129000	0.129900
H971	H97	0.986600	0.227400	0.988400
H981	H98	0.684900	0.161200	0.694200
H991	H99	0.403300	0.633400	0.636700
H1001	H100	0.850700	0.371000	0.129900
H1011	H101	0.258200	0.035800	0.011200
H1021	H102	0.434700	0.843200	0.423500
H1031	H103	0.129000	0.850700	0.370100
H1041	H104	0.447700	0.655300	0.414300
H1051	H105	0.895700	0.129500	0.890700
H1061	H106	0.272600	0.986600	0.511600
H1071	H107	0.843200	0.065300	0.076500
H1081	H108	0.052300	0.844700	0.414300
H1091	H109	0.338800	0.684900	0.805800
H1101	H110	0.903300	0.133400	0.363300
H1111	H111	0.149300	0.629000	0.870100
H1121	H112	0.013200	0.137900	0.019100
C11	C1	0.131600	0.579800	0.583700
C21	C2	0.246700	0.877300	0.624700
C31	C3	0.865300	0.079200	0.412200
C41	C4	0.579800	0.368400	0.916300
C51	C5	0.135300	0.697800	0.356900
C61	C6	0.312800	0.860700	0.856600
C71	C7	0.188100	0.511200	0.966100
C81	C8	0.195700	0.947600	0.934300
C91	C9	0.804300	0.052400	0.065700
C101	C10	0.927900	0.249600	0.586200
C111	C11	0.874100	0.513700	0.018700
C121	C12	0.326900	0.801300	0.319300
C131	C13	0.311900	0.988800	0.966100
C141	C14	0.625900	0.986300	0.018700
C151	C15	0.690200	0.025400	0.474600
C161	C16	0.190200	0.525400	0.525400
C171	C17	0.175200	0.813300	0.321400
C181	C18	0.860700	0.993400	0.007600
C191	C19	0.637600	0.009100	0.492500
C201	C20	0.753500	0.385500	0.124200
C211	C21	0.512800	0.199400	0.528300
C221	C22	0.490900	0.637600	0.007500
C231	C23	0.139300	0.812800	0.356600
C241	C24	0.639300	0.312800	0.643400
C251	C25	0.697800	0.364700	0.143100
C261	C26	0.821800	0.308000	0.819300
C271	C27	0.306400	0.938500	0.565800
C281	C28	0.454900	0.692000	0.430300
C291	C29	0.634700	0.420800	0.412200
C301	C30	0.192000	0.821800	0.680700
C311	C31	0.947600	0.304300	0.565700
C321	C32	0.941700	0.310300	0.927600
C331	C33	0.134700	0.879200	0.624300
C341	C34	0.081500	0.748300	0.086300
C351	C35	0.198700	0.826900	0.819300
C361	C36	0.006600	0.360700	0.507600
C371	C37	0.379200	0.865300	0.124300
C381	C38	0.509100	0.362400	0.992500
C391	C39	0.920200	0.131600	0.916300
C401	C40	0.313300	0.824800	0.821400
C411	C41	0.938300	0.424100	0.930300
C421	C42	0.808000	0.454900	0.069700
C431	C43	0.749600	0.072100	0.086200
C441	C44	0.310300	0.558300	0.572400
C451	C45	0.253500	0.885500	0.875800
C461	C46	0.304300	0.552400	0.934300
C471	C47	0.974600	0.190200	0.974600
C481	C48	0.562500	0.419400	0.935600
C491	C49	0.248300	0.918500	0.586300
C501	C50	0.639300	0.506600	0.007600
C511	C51	0.558300	0.189700	0.927600
C521	C52	0.420800	0.865300	0.087800
C531	C53	0.506600	0.860700	0.492400
C541	C54	0.698700	0.326900	0.180700
C551	C55	0.986300	0.874100	0.481300
C561	C56	0.572100	0.250400	0.586200
C571	C57	0.143000	0.690500	0.142000
C581	C58	0.860700	0.187200	0.643400
C591	C59	0.508500	0.743500	0.487100
C601	C60	0.437500	0.580600	0.064400
C611	C61	0.418500	0.751700	0.086300
C621	C62	0.631600	0.079800	0.416300
C631	C63	0.575900	0.438300	0.430300
C641	C64	0.579200	0.134700	0.912200
C651	C65	0.187200	0.639300	0.856600
C661	C66	0.954900	0.192000	0.569700
C671	C67	0.324800	0.686700	0.321400
C681	C68	0.552400	0.195700	0.565700
C691	C69	0.134700	0.920800	0.587800
C701	C70	0.419400	0.937500	0.564400
C711	C71	0.699400	0.487200	0.028300
C721	C72	0.746500	0.114500	0.124200
C731	C73	0.190500	0.857000	0.642000
C741	C74	0.801300	0.173100	0.180700
C751	C75	0.877300	0.253300	0.875300
C761	C76	0.009100	0.862400	0.007500
C771	C77	0.364700	0.802200	0.356900
C781	C78	0.438300	0.924100	0.069700
C791	C79	0.199400	0.987200	0.971700
C801	C80	0.362400	0.990900	0.507500
C811	C81	0.581500	0.248300	0.913700
C821	C82	0.693600	0.061500	0.434200
C831	C83	0.868400	0.420200	0.416300
C841	C84	0.256500	0.008500	0.987100
C851	C85	0.249600	0.572100	0.913800
C861	C86	0.806400	0.438500	0.434200
C871	C87	0.251700	0.581500	0.586300
C881	C88	0.253300	0.622700	0.624700
C891	C89	0.580600	0.062500	0.435600
C901	C90	0.692000	0.321800	0.319300
C911	C91	0.301300	0.673100	0.819300
C921	C92	0.189700	0.941700	0.572400
C931	C93	0.474600	0.690200	0.025400
C941	C94	0.486300	0.374100	0.518700
C951	C95	0.137600	0.509100	0.507500
C961	C96	0.374100	0.013700	0.981300
C971	C97	0.511200	0.311900	0.533900
C981	C98	0.743500	0.991500	0.012900
C991	C99	0.243500	0.491500	0.987100
C1001	C100	0.011200	0.811900	0.466100
C1011	C101	0.800600	0.012800	0.028300
C1021	C102	0.865300	0.120800	0.375700
C1031	C103	0.920800	0.365300	0.912200
C1041	C104	0.826900	0.301300	0.680700
C1051	C105	0.810300	0.058300	0.427600
C1061	C106	0.919400	0.437500	0.435600
C1071	C107	0.885500	0.246500	0.624200
C1081	C108	0.309500	0.643000	0.642000
C1091	C109	0.321800	0.808000	0.180700
C1101	C110	0.988800	0.188100	0.533900
C1111	C111	0.491500	0.256500	0.512900
C1121	C112	0.746700	0.377300	0.375300
C1131	C113	0.365300	0.579200	0.587800
C1141	C114	0.197800	0.864700	0.856900
C1151	C115	0.360700	0.687200	0.356600
C1161	C116	0.173100	0.698700	0.319300
C1171	C117	0.635300	0.197800	0.643100
C1181	C118	0.025400	0.809800	0.025400
C1191	C119	0.622700	0.246700	0.875300
C1201	C120	0.678200	0.192000	0.819300
C1211	C121	0.365300	0.620800	0.624300
C1221	C122	0.079800	0.868400	0.083700
C1231	C123	0.937500	0.080600	0.935600
C1241	C124	0.192000	0.545100	0.930300
C1251	C125	0.447600	0.804300	0.434300
C1261	C126	0.751700	0.081500	0.413700
C1271	C127	0.072100	0.750400	0.413800
C1281	C128	0.991500	0.756500	0.487100
C1291	C129	0.360700	0.493400	0.992400
C1301	C130	0.193600	0.561500	0.565800
C1311	C131	0.308000	0.954900	0.930300
C1321	C132	0.938500	0.193600	0.934200
C1331	C133	0.058300	0.689700	0.072400
C1341	C134	0.643000	0.190500	0.858000
C1351	C135	0.120800	0.634700	0.124300
C1361	C136	0.695700	0.447600	0.065700
C1371	C137	0.545100	0.308000	0.569700
C1381	C138	0.673100	0.198700	0.680700
C1391	C139	0.756500	0.508500	0.012900
C1401	C140	0.052400	0.695700	0.434300
C1411	C141	0.812800	0.360700	0.143400
C1421	C142	0.012800	0.699400	0.471700
C1431	C143	0.864700	0.302200	0.643100
C1441	C144	0.675200	0.313300	0.678600
C1451	C145	0.634700	0.379200	0.375700
C1461	C146	0.125900	0.486300	0.981300
C1471	C147	0.308000	0.678200	0.680700
C1481	C148	0.114500	0.753500	0.375800
C1491	C149	0.862400	0.490900	0.492500
C1501	C150	0.075900	0.938300	0.569700
C1511	C151	0.357000	0.809500	0.142000
C1521	C152	0.080600	0.562500	0.564400
C1531	C153	0.493400	0.139300	0.507600
C1541	C154	0.250400	0.927900	0.913800
C1551	C155	0.013700	0.125900	0.518700
C1561	C156	0.420200	0.631600	0.083700
C1571	C157	0.178200	0.692000	0.180700
C1581	C158	0.753300	0.122700	0.375300
C1591	C159	0.809500	0.143000	0.358000
C1601	C160	0.811900	0.488800	0.033900
C1611	C161	0.309800	0.974600	0.525400
C1621	C162	0.385500	0.746500	0.375800
C1631	C163	0.692000	0.045100	0.069700
C1641	C164	0.620800	0.134700	0.875700
C1651	C165	0.302200	0.635300	0.856900
C1661	C166	0.427900	0.749600	0.413800
C1671	C167	0.561700	0.075900	0.930300
C1681	C168	0.513700	0.625900	0.481300
C1691	C169	0.061700	0.575900	0.069700
C1701	C170	0.487200	0.800600	0.471700
C1711	C171	0.441700	0.810300	0.072400
C1721	C172	0.748300	0.418500	0.413700
C1731	C173	0.993400	0.639300	0.492400
C1741	C174	0.438500	0.693600	0.065800
C1751	C175	0.687200	0.139300	0.143400
C1761	C176	0.688100	0.011200	0.033900
C1771	C177	0.122700	0.746700	0.124700
C1781	C178	0.045100	0.808000	0.430300
C1791	C179	0.690500	0.357000	0.358000
C1801	C180	0.488800	0.688100	0.466100
C1811	C181	0.525400	0.309800	0.974600
C1821	C182	0.368400	0.920200	0.583700
C1831	C183	0.990900	0.137600	0.992500
C1841	C184	0.186700	0.675200	0.821400
C1851	C185	0.918500	0.251700	0.913700
C1861	C186	0.813300	0.324800	0.178600
C1871	C187	0.689700	0.441700	0.427600
C1881	C188	0.246500	0.614500	0.875800
C1891	C189	0.061500	0.806400	0.065800
C1901	C190	0.008500	0.243500	0.512900
C1911	C191	0.750400	0.427900	0.086200
C1921	C192	0.824800	0.186700	0.678600
C1931	C193	0.879200	0.365300	0.875700
C1941	C194	0.377300	0.753300	0.124700
C1951	C195	0.686700	0.175200	0.178600
C1961	C196	0.614500	0.253500	0.624200
C1971	C197	0.808000	0.178200	0.319300
C1981	C198	0.857000	0.309500	0.858000
C1991	C199	0.139300	0.006600	0.992400
C2001	C200	0.809800	0.474600	0.474600
C2011	C201	0.802200	0.135300	0.143100
C2021	C202	0.924100	0.061700	0.430300
C2031	C203	0.987200	0.300600	0.528300
C2041	C204	0.062500	0.919400	0.064400
C2051	C205	0.561500	0.306400	0.934200
C2061	C206	0.300600	0.512800	0.971700
C2071	C207	0.424100	0.561700	0.569700
C2081	C208	0.079200	0.634700	0.087800
N11	N1	0.024100	0.919300	0.027100
N21	N2	0.693200	0.255500	0.698200
N31	N3	0.580700	0.024100	0.472900
N41	N4	0.975900	0.080700	0.972900
N51	N5	0.080700	0.524100	0.527100
N61	N6	0.475900	0.580700	0.027100
N71	N7	0.419300	0.975900	0.527100
N81	N8	0.524100	0.419300	0.972900
N91	N9	0.919300	0.475900	0.472900
N101	N10	0.306800	0.744500	0.301800
N111	N11	0.193200	0.755500	0.301800
N121	N12	0.755500	0.306800	0.198200
N131	N13	0.744500	0.193200	0.198200
N141	N14	0.244500	0.693200	0.801800
N151	N15	0.255500	0.806800	0.801800
N161	N16	0.806800	0.244500	0.698200
O11	O1	0.804600	0.256200	0.802600
O21	O2	0.143900	0.807300	0.702900
O31	O3	0.874900	0.566900	0.999200
O41	O4	0.977200	0.076000	0.414400
O51	O5	0.566900	0.625100	0.500800
O61	O6	0.859200	0.954100	0.976600
O71	O7	0.045900	0.359200	0.476600
O81	O8	0.695400	0.243800	0.802600
O91	O9	0.485600	0.578300	0.465800
O101	O10	0.985600	0.078300	0.534200
O111	O11	0.640800	0.545900	0.976600
O121	O12	0.078300	0.514400	0.965800
O131	O13	0.356100	0.692700	0.702900
O141	O14	0.807300	0.356100	0.797100
O151	O15	0.578300	0.014400	0.034200
O161	O16	0.983300	0.413100	0.520300
O171	O17	0.586900	0.483300	0.020300
O181	O18	0.572800	0.477300	0.463100
O191	O19	0.545900	0.859200	0.523400
O201	O20	0.016700	0.586900	0.479700
O211	O21	0.140800	0.045900	0.023400
O221	O22	0.977300	0.427200	0.963100
O231	O23	0.477300	0.927200	0.036900
O241	O24	0.014400	0.921700	0.465800
O251	O25	0.022800	0.924000	0.585600
O261	O26	0.927200	0.022700	0.463100
O271	O27	0.756200	0.195400	0.302600
O281	O28	0.856100	0.192700	0.297100
O291	O29	0.913100	0.016700	0.020300
O301	O30	0.954100	0.640800	0.523400
O311	O31	0.743800	0.304600	0.302600
O321	O32	0.454100	0.140800	0.476600
O331	O33	0.256200	0.695400	0.697400
O341	O34	0.643900	0.307300	0.297100
O351	O35	0.625100	0.933100	0.999200
O361	O36	0.359200	0.454100	0.023400
O371	O37	0.933100	0.874900	0.500800
O381	O38	0.307300	0.856100	0.202900
O391	O39	0.433100	0.374900	0.499200
O401	O40	0.692700	0.143900	0.797100
O411	O41	0.924000	0.477200	0.914400
O421	O42	0.522700	0.072800	0.963100
O431	O43	0.413100	0.516700	0.979700
O441	O44	0.076000	0.522800	0.085600
O451	O45	0.516700	0.086900	0.520300
O461	O46	0.086900	0.983300	0.979700
O471	O47	0.022700	0.572800	0.036900
O481	O48	0.514400	0.421700	0.534200
O491	O49	0.192700	0.643900	0.202900
O501	O50	0.483300	0.913100	0.479700
O511	O51	0.304600	0.756200	0.197400
O521	O52	0.243800	0.804600	0.697400
O531	O53	0.427200	0.522700	0.536900
O541	O54	0.921700	0.485600	0.034200
O551	O55	0.072800	0.977300	0.536900
O561	O56	0.522800	0.424000	0.414400
O571	O57	0.424000	0.977200	0.085600
O581	O58	0.421700	0.985600	0.965800
O591	O59	0.477200	0.576000	0.585600
O601	O60	0.374900	0.066900	0.000800
O611	O61	0.576000	0.022800	0.914400
O621	O62	0.066900	0.125100	0.499200
O631	O63	0.125100	0.433100	0.000800
O641	O64	0.195400	0.743800	0.197400
