data_cg301725z_si_002_freeONLY_PM
_symmetry_space_group_name_H-M	'P1'
_cell_length_a	12.437800
_cell_length_b	14.771700
_cell_length_c	16.609700
_cell_angle_alpha	90.000000
_cell_angle_beta	90.000000
_cell_angle_gamma	90.000000
_symmetry_Int_Tables_number 1

loop_
_symmetry_equiv_pos_as_xyz
'x,y,z'

loop_
_atom_site_label
_atom_site_type_symbol
_atom_site_fract_x
_atom_site_fract_y
_atom_site_fract_z
Mn11	Mn1	0.604560	0.016600	0.579850
Mn21	Mn2	0.395440	0.516600	0.920150
Mn31	Mn3	0.395440	0.983400	0.420150
Mn41	Mn4	0.104560	0.016600	0.920150
Mn51	Mn5	0.895440	0.516600	0.579850
Mn61	Mn6	0.604560	0.483400	0.079850
Mn71	Mn7	0.895440	0.983400	0.079850
Mn81	Mn8	0.104560	0.483400	0.420150
H11	H1	0.775400	0.968900	0.349600
H21	H2	0.660800	0.240700	0.014300
H31	H3	0.839200	0.740700	0.014300
H41	H4	0.724600	0.468900	0.349600
H51	H5	0.339200	0.740700	0.485700
H61	H6	0.160800	0.259300	0.985700
H71	H7	0.559100	0.234700	0.285600
H81	H8	0.440900	0.765300	0.714400
H91	H9	0.940900	0.765300	0.785600
H101	H10	0.160800	0.240700	0.485700
H111	H11	0.940900	0.734700	0.285600
H121	H12	0.660800	0.259300	0.514300
H131	H13	0.775400	0.531100	0.849600
H141	H14	0.224600	0.031100	0.650400
H151	H15	0.339200	0.759300	0.985700
H161	H16	0.059100	0.234700	0.214400
H171	H17	0.559100	0.265300	0.785600
H181	H18	0.224600	0.468900	0.150400
H191	H19	0.440900	0.734700	0.214400
H201	H20	0.275400	0.968900	0.150400
H211	H21	0.059100	0.265300	0.714400
H221	H22	0.275400	0.531100	0.650400
H231	H23	0.839200	0.759300	0.514300
H241	H24	0.724600	0.031100	0.849600
C11	C1	0.862700	0.902200	0.219800
C21	C2	0.703400	0.369900	0.439300
C31	C3	0.906200	0.767900	0.327200
C41	C4	0.703400	0.130100	0.939300
C51	C5	0.653200	0.280900	0.460700
C61	C6	0.593800	0.267900	0.327200
C71	C7	0.906200	0.732100	0.827200
C81	C8	0.595500	0.228000	0.405500
C91	C9	0.857600	0.641500	0.804400
C101	C10	0.296600	0.630100	0.560700
C111	C11	0.804300	0.589100	0.861400
C121	C12	0.796600	0.630100	0.939300
C131	C13	0.862700	0.597800	0.719800
C141	C14	0.137300	0.097800	0.780200
C151	C15	0.142400	0.141500	0.695600
C161	C16	0.153200	0.280900	0.039300
C171	C17	0.406200	0.767900	0.172800
C181	C18	0.346800	0.780900	0.039300
C191	C19	0.595500	0.272000	0.905500
C201	C20	0.357600	0.641500	0.695600
C211	C21	0.695700	0.410900	0.361400
C221	C22	0.268900	0.422100	0.003100
C231	C23	0.203400	0.369900	0.060700
C241	C24	0.406200	0.732100	0.672800
C251	C25	0.695700	0.089100	0.861400
C261	C26	0.093800	0.232100	0.672800
C271	C27	0.846800	0.780900	0.460700
C281	C28	0.731100	0.922100	0.496900
C291	C29	0.137300	0.402200	0.280200
C301	C30	0.357600	0.858500	0.195600
C311	C31	0.231100	0.922100	0.003100
C321	C32	0.768900	0.077900	0.996900
C331	C33	0.093800	0.267900	0.172800
C341	C34	0.461200	0.639600	0.071000
C351	C35	0.961200	0.860400	0.929000
C361	C36	0.195700	0.410900	0.138600
C371	C37	0.404500	0.772000	0.594500
C381	C38	0.153200	0.219100	0.539300
C391	C39	0.538800	0.139600	0.429000
C401	C40	0.195700	0.089100	0.638600
C411	C41	0.095500	0.228000	0.094500
C421	C42	0.768900	0.422100	0.496900
C431	C43	0.296600	0.869900	0.060700
C441	C44	0.804300	0.910900	0.361400
C451	C45	0.142400	0.358500	0.195600
C461	C46	0.593800	0.232100	0.827200
C471	C47	0.653200	0.219100	0.960700
C481	C48	0.731100	0.577900	0.996900
C491	C49	0.904500	0.772000	0.905500
C501	C50	0.857600	0.858500	0.304400
C511	C51	0.404500	0.728000	0.094500
C521	C52	0.362700	0.597800	0.780200
C531	C53	0.961200	0.639600	0.429000
C541	C54	0.231100	0.577900	0.503100
C551	C55	0.203400	0.130100	0.560700
C561	C56	0.904500	0.728000	0.405500
C571	C57	0.304300	0.910900	0.138600
C581	C58	0.095500	0.272000	0.594500
C591	C59	0.038800	0.139600	0.071000
C601	C60	0.038800	0.360400	0.571000
C611	C61	0.304300	0.589100	0.638600
C621	C62	0.637300	0.402200	0.219800
C631	C63	0.538800	0.360400	0.929000
C641	C64	0.642400	0.358500	0.304400
C651	C65	0.637300	0.097800	0.719800
C661	C66	0.642400	0.141500	0.804400
C671	C67	0.846800	0.719100	0.960700
C681	C68	0.362700	0.902200	0.280200
C691	C69	0.268900	0.077900	0.503100
C701	C70	0.796600	0.869900	0.439300
C711	C71	0.461200	0.860400	0.571000
C721	C72	0.346800	0.719100	0.539300
O11	O1	0.328000	0.990300	0.295700
O21	O2	0.699100	0.867200	0.553200
O31	O3	0.672000	0.490300	0.204300
O41	O4	0.499100	0.582900	0.124960
O51	O5	0.199100	0.632800	0.446800
O61	O6	0.404100	0.652100	0.832500
O71	O7	0.707700	0.483000	0.985700
O81	O8	0.328000	0.509700	0.795700
O91	O9	0.974700	0.619600	0.503830
O101	O10	0.595900	0.347900	0.167500
O111	O11	0.707700	0.017000	0.485700
O121	O12	0.499100	0.917100	0.624960
O131	O13	0.800900	0.132800	0.053200
O141	O14	0.404100	0.847900	0.332500
O151	O15	0.474700	0.880400	0.496170
O161	O16	0.172000	0.009700	0.795700
O171	O17	0.025300	0.380400	0.496170
O181	O18	0.699100	0.632800	0.053200
O191	O19	0.792300	0.983000	0.985700
O201	O20	0.800900	0.367200	0.553200
O211	O21	0.792300	0.517000	0.485700
O221	O22	0.525300	0.119600	0.503830
O231	O23	0.500900	0.417100	0.875040
O241	O24	0.172000	0.490300	0.295700
O251	O25	0.199100	0.867200	0.946800
O261	O26	0.300900	0.132800	0.446800
O271	O27	0.292300	0.983000	0.514300
O281	O28	0.025300	0.119600	0.996170
O291	O29	0.207700	0.017000	0.014300
O301	O30	0.904100	0.847900	0.167500
O311	O31	0.000900	0.082900	0.124960
O321	O32	0.904100	0.652100	0.667500
O331	O33	0.974700	0.880400	0.003830
O341	O34	0.672000	0.009700	0.704300
O351	O35	0.300900	0.367200	0.946800
O361	O36	0.999100	0.582900	0.375040
O371	O37	0.000900	0.417100	0.624960
O381	O38	0.828000	0.990300	0.204300
O391	O39	0.999100	0.917100	0.875040
O401	O40	0.828000	0.509700	0.704300
O411	O41	0.095900	0.152100	0.832500
O421	O42	0.095900	0.347900	0.332500
O431	O43	0.207700	0.483000	0.514300
O441	O44	0.525300	0.380400	0.003830
O451	O45	0.500900	0.082900	0.375040
O461	O46	0.292300	0.517000	0.014300
O471	O47	0.595900	0.152100	0.667500
O481	O48	0.474700	0.619600	0.996170
