data_cg401858s_si_002_freeONLY_PM
_symmetry_space_group_name_H-M	'P1'
_cell_length_a	10.284000
_cell_length_b	16.514900
_cell_length_c	20.904000
_cell_angle_alpha	85.926300
_cell_angle_beta	76.811100
_cell_angle_gamma	71.859100
_symmetry_Int_Tables_number 1

loop_
_symmetry_equiv_pos_as_xyz
'x,y,z'

loop_
_atom_site_label
_atom_site_type_symbol
_atom_site_fract_x
_atom_site_fract_y
_atom_site_fract_z
Ag11	Ag1	0.768260	0.613260	0.040630
Ag21	Ag2	0.381520	0.386740	0.540630
H11	H1	0.258400	0.184000	0.738600
H21	H2	0.141500	0.102400	0.242300
H31	H3	0.104800	0.794400	0.974400
H41	H4	0.439700	0.460600	0.170200
H51	H5	0.979800	0.640600	0.491000
H61	H6	0.637300	0.809400	0.020700
H71	H7	0.243900	0.897600	0.742300
H81	H8	0.446700	0.190600	0.520700
H91	H9	0.448400	0.058200	0.574300
H101	H10	0.631300	0.837000	0.629000
H111	H11	0.757800	0.348400	0.328800
H121	H12	0.199600	0.546800	0.475800
H131	H13	0.948000	0.736600	0.039500
H141	H14	0.468300	0.163000	0.129000
H151	H15	0.950100	0.596400	0.899700
H161	H16	0.571500	0.550200	0.149500
H171	H17	0.684600	0.263400	0.539500
H181	H18	0.506600	0.941800	0.074300
H191	H19	0.121700	0.449800	0.649500
H201	H20	0.495100	0.654400	0.733500
H211	H21	0.899200	0.205600	0.474400
H221	H22	0.900300	0.539400	0.670200
H231	H23	0.596000	0.693800	0.183700
H241	H24	0.106200	0.651600	0.828800
H251	H25	0.442400	0.816000	0.238600
H261	H26	0.289800	0.306200	0.683700
H271	H27	0.746400	0.453200	0.975800
H281	H28	0.620400	0.359400	0.991000
H291	H29	0.546500	0.403600	0.399700
H301	H30	0.149500	0.345600	0.233500
C11	C1	0.772300	0.663200	0.591300
C21	C2	0.745000	0.330800	0.372400
C31	C3	0.479170	0.711260	0.720800
C41	C4	0.913800	0.600400	0.583800
C51	C5	0.092300	0.488600	0.617300
C61	C6	0.006430	0.602340	0.523900
C71	C7	0.124600	0.727200	0.894400
C81	C8	0.435500	0.336800	0.091300
C91	C9	0.305700	0.182200	0.694900
C101	C10	0.608770	0.397660	0.023900
C111	C11	0.312600	0.122800	0.183700
C121	C12	0.561150	0.820300	0.657900
C131	C13	0.579540	0.736920	0.676600
C141	C14	0.829300	0.246200	0.457900
C151	C15	0.435400	0.877200	0.683700
C161	C16	0.316460	0.263080	0.176600
C171	C17	0.381450	0.179700	0.157900
C181	C18	0.229900	0.764400	0.853000
C191	C19	0.487900	0.817800	0.194900
C201	C20	0.137720	0.545560	0.515700
C211	C21	0.075800	0.669200	0.872400
C221	C22	0.126400	0.228000	0.245800
C231	C23	0.683280	0.454440	0.015700
C241	C24	0.364900	0.111000	0.661800
C251	C25	0.514200	0.399600	0.083800
C261	C26	0.318300	0.255800	0.659900
C271	C27	0.502350	0.457900	0.129900
C281	C28	0.412600	0.189800	0.565900
C291	C29	0.414300	0.109000	0.597700
C301	C30	0.580900	0.511400	0.117300
C311	C31	0.960250	0.542100	0.629900
C321	C32	0.366400	0.025600	0.697400
C331	C33	0.574100	0.744200	0.159900
C341	C34	0.523300	0.891000	0.097700
C351	C35	0.981900	0.636800	0.914900
C361	C36	0.602400	0.810200	0.065900
C371	C37	0.475900	0.889000	0.161800
C381	C38	0.851800	0.272800	0.394400
C391	C39	0.190430	0.288740	0.220800
C401	C40	0.981700	0.718600	0.996000
C411	C41	0.185900	0.143400	0.226600
C421	C42	0.075500	0.753800	0.957900
C431	C43	0.392000	0.974400	0.197400
C441	C44	0.354400	0.772000	0.745800
C451	C45	0.994300	0.235600	0.353000
C461	C46	0.329300	0.856600	0.726600
C471	C47	0.618700	0.363200	0.414900
C481	C48	0.700300	0.281400	0.496000
N11	N1	0.934960	0.661680	0.977200
N21	N2	0.183730	0.489540	0.559400
N31	N3	0.596640	0.338320	0.477200
N41	N4	0.366050	0.259900	0.597500
N51	N5	0.673270	0.510460	0.059400
N61	N6	0.625950	0.740100	0.097500
O11	O1	0.414760	0.960880	0.659500
O21	O2	0.375640	0.039120	0.159500
O31	O3	0.384840	0.325120	0.156500
O41	O4	0.094250	0.197300	0.372700
O51	O5	0.250110	0.744780	0.790000
O61	O6	0.709960	0.674880	0.656500
O71	O7	0.355850	0.978500	0.259000
O81	O8	0.334350	0.021500	0.759000
O91	O9	0.413470	0.300860	0.050300
O101	O10	0.994890	0.255220	0.290000
O111	O11	0.714330	0.699140	0.550300
O121	O12	0.291550	0.802700	0.872700
Ag31	Ag3	0.231740	0.386740	0.959370
Ag41	Ag4	0.618480	0.613260	0.459370
H311	H31	0.741600	0.816000	0.261400
H321	H32	0.560300	0.539400	0.829800
H331	H33	0.368700	0.163000	0.371000
H341	H34	0.100800	0.794400	0.525600
H351	H35	0.895200	0.205600	0.025600
H361	H36	0.800400	0.453200	0.524200
H371	H37	0.428500	0.449800	0.850500
H381	H38	0.551600	0.941800	0.425700
H391	H39	0.362700	0.190600	0.979300
H401	H40	0.052000	0.263400	0.960500
H411	H41	0.253600	0.546800	0.024200
H421	H42	0.710200	0.693800	0.316300
H431	H43	0.020200	0.359400	0.509000
H441	H44	0.850500	0.654400	0.766500
H451	H45	0.553300	0.809400	0.479300
H461	H46	0.557600	0.184000	0.761400
H471	H47	0.493400	0.058200	0.925700
H481	H48	0.404000	0.306200	0.816300
H491	H49	0.453500	0.596400	0.600300
H501	H50	0.099700	0.460600	0.329800
H511	H51	0.049900	0.403600	0.100300
H521	H52	0.893800	0.348400	0.171200
H531	H53	0.504900	0.345600	0.266500
H541	H54	0.242200	0.651600	0.671200
H551	H55	0.858500	0.897600	0.757700
H561	H56	0.756100	0.102400	0.257700
H571	H57	0.531700	0.837000	0.871000
H581	H58	0.315400	0.736600	0.460500
H591	H59	0.878300	0.550200	0.350500
H601	H60	0.379600	0.640600	0.009000
C491	C49	0.585700	0.891000	0.402300
C501	C50	0.420460	0.263080	0.323400
C511	C51	0.438850	0.179700	0.342100
C521	C52	0.875400	0.272800	0.105600
C531	C53	0.687400	0.877200	0.816300
C541	C54	0.694300	0.817800	0.305100
C551	C55	0.862280	0.454440	0.484300
C561	C56	0.633600	0.974400	0.302600
C571	C57	0.018300	0.281400	0.004000
C581	C58	0.086200	0.399600	0.416200
C591	C59	0.924500	0.246200	0.042100
C601	C60	0.635100	0.889000	0.338200
C611	C61	0.391230	0.602340	0.976100
C621	C62	0.148200	0.727200	0.605600
C631	C63	0.907700	0.511400	0.382700
C641	C64	0.993570	0.397660	0.476100
C651	C65	0.681700	0.744200	0.340100
C661	C66	0.512100	0.182200	0.805100
C671	C67	0.587400	0.810200	0.434100
C681	C68	0.608000	0.025600	0.802600
C691	C69	0.425900	0.255800	0.840100
C701	C70	0.476700	0.109000	0.902300
C711	C71	0.873600	0.772000	0.754200
C721	C72	0.419100	0.488600	0.882700
C731	C73	0.564600	0.122800	0.316300
C741	C74	0.770100	0.235600	0.147000
C751	C75	0.618550	0.820300	0.842100
C761	C76	0.299700	0.718600	0.504000
C771	C77	0.670700	0.143400	0.273400
C781	C78	0.497650	0.542100	0.870100
C791	C79	0.381300	0.636800	0.585100
C801	C80	0.255000	0.669200	0.627600
C811	C81	0.524100	0.111000	0.838200
C821	C82	0.397600	0.189800	0.934100
C831	C83	0.809570	0.711260	0.779200
C841	C84	0.316720	0.545560	0.984300
C851	C85	0.005700	0.764400	0.647000
C861	C86	0.520830	0.288740	0.279200
C871	C87	0.564500	0.663200	0.908700
C881	C88	0.683540	0.736920	0.823400
C891	C89	0.814100	0.856600	0.773400
C901	C90	0.924200	0.330800	0.127600
C911	C91	0.039750	0.457900	0.370100
C921	C92	0.170700	0.753800	0.542100
C931	C93	0.645600	0.228000	0.254200
C941	C94	0.227700	0.336800	0.408700
C951	C95	0.485800	0.600400	0.916200
C961	C96	0.018100	0.363200	0.085100
N71	N7	0.403360	0.661680	0.522800
N81	N8	0.065040	0.338320	0.022800
N91	N9	0.326730	0.489540	0.940600
N101	N10	0.633950	0.740100	0.402500
N111	N11	0.374050	0.259900	0.902500
N121	N12	0.816270	0.510460	0.440600
O131	O13	0.749890	0.255220	0.210000
O141	O14	0.708450	0.197300	0.127300
O151	O15	0.615160	0.674880	0.843500
O161	O16	0.644150	0.021500	0.741000
O171	O17	0.624360	0.960880	0.840500
O181	O18	0.585240	0.039120	0.340500
O191	O19	0.665650	0.978500	0.241000
O201	O20	0.905750	0.802700	0.627300
O211	O21	0.285670	0.300860	0.449700
O221	O22	0.586530	0.699140	0.949700
O231	O23	0.290040	0.325120	0.343500
O241	O24	0.005110	0.744780	0.710000
