data_cg401887b_si_004_freeONLY_PM
_symmetry_space_group_name_H-M	'P1'
_cell_length_a	12.435000
_cell_length_b	14.584000
_cell_length_c	26.046300
_cell_angle_alpha	90.000000
_cell_angle_beta	99.155400
_cell_angle_gamma	90.000000
_symmetry_Int_Tables_number 1

loop_
_symmetry_equiv_pos_as_xyz
'x,y,z'

loop_
_atom_site_label
_atom_site_type_symbol
_atom_site_fract_x
_atom_site_fract_y
_atom_site_fract_z
Cu11	Cu1	0.129630	0.475610	0.136730
Cu21	Cu2	0.992820	0.660230	0.776820
Cu31	Cu3	0.629630	0.024390	0.636730
Cu41	Cu4	0.007180	0.339770	0.223180
Cu51	Cu5	0.507180	0.160230	0.723180
Cu61	Cu6	0.870380	0.524390	0.863280
Cu71	Cu7	0.370380	0.975610	0.363280
Cu81	Cu8	0.492820	0.839770	0.276820
H11	H1	0.824200	0.500300	0.588800
H21	H2	0.295700	0.874900	0.040200
H31	H3	0.734700	0.750200	0.396100
H41	H4	0.234700	0.749800	0.896100
H51	H5	0.838800	0.239700	0.609400
H61	H6	0.561200	0.242800	0.099600
H71	H7	0.704300	0.125100	0.959800
H81	H8	0.265300	0.249800	0.603900
H91	H9	0.392000	0.067900	0.516600
H101	H10	0.204300	0.374900	0.459800
H111	H11	0.438800	0.757200	0.900400
H121	H12	0.275700	0.179500	0.248000
H131	H13	0.892000	0.432100	0.016600
H141	H14	0.324200	0.999700	0.088800
H151	H15	0.633700	0.282800	0.956000
H161	H16	0.522000	0.966200	0.825000
H171	H17	0.022000	0.533800	0.325000
H181	H18	0.061200	0.257200	0.599600
H191	H19	0.866300	0.782800	0.544000
H201	H20	0.765300	0.250200	0.103900
H211	H21	0.133700	0.217200	0.456000
H221	H22	0.478000	0.033800	0.175000
H231	H23	0.175800	0.499700	0.411200
H241	H24	0.366300	0.717200	0.044000
H251	H25	0.108000	0.567900	0.983400
H261	H26	0.161200	0.760300	0.390600
H271	H27	0.338800	0.260300	0.109400
H281	H28	0.938800	0.742800	0.400400
H291	H29	0.978000	0.466200	0.675000
H301	H30	0.608000	0.932100	0.483400
H311	H31	0.224300	0.679500	0.252000
H321	H32	0.724300	0.820500	0.752000
H331	H33	0.775700	0.320500	0.748000
H341	H34	0.795700	0.625100	0.540200
H351	H35	0.675800	0.000300	0.911200
H361	H36	0.661200	0.739700	0.890600
C11	C1	0.392840	0.818000	0.961940
C21	C2	0.762480	0.363900	0.977180
C31	C3	0.598270	0.968400	0.736670
C41	C4	0.764480	0.278500	0.071880
C51	C5	0.204150	0.731900	0.321650
C61	C6	0.237520	0.636100	0.022820
C71	C7	0.811850	0.329400	0.719750
C81	C8	0.925390	0.372500	0.112390
C91	C9	0.526380	0.871000	0.910480
C101	C10	0.280620	0.808400	0.321120
C111	C11	0.348870	0.218600	0.136770
C121	C12	0.187200	0.202300	0.483900
C131	C13	0.590660	0.104000	0.006860
C141	C14	0.950730	0.446700	0.557230
C151	C15	0.409340	0.896000	0.993140
C161	C16	0.812800	0.797700	0.516100
C171	C17	0.840880	0.346200	0.066980
C181	C18	0.312800	0.702300	0.016100
C191	C19	0.219380	0.308400	0.178880
C201	C20	0.795850	0.268100	0.678350
C211	C21	0.236220	0.592200	0.073620
C221	C22	0.263780	0.092200	0.426380
C231	C23	0.489590	0.960900	0.983790
C241	C24	0.349640	0.915600	0.033940
C251	C25	0.417120	0.144200	0.134820
C261	C26	0.909340	0.604000	0.493140
C271	C27	0.917120	0.355800	0.634820
C281	C28	0.989590	0.539100	0.483790
C291	C29	0.582880	0.855800	0.865180
C301	C30	0.451250	0.808800	0.921450
C311	C31	0.632570	0.010800	0.936670
C321	C32	0.107160	0.318000	0.538060
C331	C33	0.951250	0.691200	0.421450
C341	C34	0.763780	0.407800	0.926380
C351	C35	0.159120	0.653800	0.933020
C361	C36	0.120030	0.598200	0.280730
C371	C37	0.082880	0.644200	0.365180
C381	C38	0.735520	0.778500	0.428120
C391	C39	0.848870	0.281400	0.636770
C401	C40	0.867430	0.510800	0.563330
C411	C41	0.574610	0.872500	0.387610
C421	C42	0.879970	0.401800	0.719270
C431	C43	0.151130	0.718600	0.363230
C441	C44	0.849640	0.584400	0.533940
C451	C45	0.098270	0.531600	0.236670
C461	C46	0.401730	0.031600	0.263330
C471	C47	0.892840	0.682000	0.461940
C481	C48	0.049270	0.553300	0.442770
C491	C49	0.159810	0.612500	0.979810
C501	C50	0.187940	0.247500	0.530740
C511	C51	0.132570	0.489200	0.436670
C521	C52	0.340190	0.112500	0.520190
C531	C53	0.650360	0.084400	0.966060
C541	C54	0.235520	0.721500	0.928120
C551	C55	0.704150	0.768100	0.821650
C561	C56	0.567530	0.915900	0.824130
C571	C57	0.295850	0.231900	0.178350
C581	C58	0.659120	0.846200	0.433020
C591	C59	0.425390	0.127500	0.612390
C601	C60	0.090660	0.396000	0.506860
C611	C61	0.812060	0.752500	0.469260
C621	C62	0.262480	0.136100	0.477180
C631	C63	0.620030	0.901800	0.780730
C641	C64	0.450730	0.053300	0.057230
C651	C65	0.549270	0.946700	0.942770
C661	C66	0.973620	0.371000	0.589520
C671	C67	0.510410	0.039100	0.016210
C681	C68	0.264480	0.221500	0.571880
C691	C69	0.379970	0.098200	0.219270
C701	C70	0.736220	0.907800	0.573620
C711	C71	0.311850	0.170600	0.219750
C721	C72	0.932470	0.415900	0.675870
C731	C73	0.719380	0.191600	0.678880
C741	C74	0.432470	0.084100	0.175870
C751	C75	0.026380	0.629000	0.410480
C761	C76	0.188150	0.670600	0.280250
C771	C77	0.150360	0.415600	0.466060
C781	C78	0.688150	0.829400	0.780250
C791	C79	0.010410	0.460900	0.516210
C801	C80	0.473620	0.129000	0.089520
C811	C81	0.607160	0.182000	0.038060
C821	C82	0.340880	0.153800	0.566980
C831	C83	0.067530	0.584100	0.324130
C841	C84	0.840190	0.387500	0.020190
C851	C85	0.367430	0.989200	0.063330
C861	C86	0.687940	0.252500	0.030740
C871	C87	0.548750	0.191200	0.078550
C881	C88	0.074610	0.627500	0.887610
C891	C89	0.901730	0.468400	0.763330
C901	C90	0.659810	0.887500	0.479810
C911	C91	0.687200	0.297700	0.983900
C921	C92	0.780620	0.691600	0.821120
C931	C93	0.737520	0.863900	0.522820
C941	C94	0.312060	0.747500	0.969260
C951	C95	0.048750	0.308800	0.578550
C961	C96	0.651130	0.781400	0.863230
O11	O1	0.781450	0.632800	0.856950
O21	O2	0.967110	0.529400	0.761310
O31	O3	0.516990	0.938600	0.393390
O41	O4	0.842200	0.459200	0.923100
O51	O5	0.070540	0.674000	0.847340
O61	O6	0.570540	0.826000	0.347340
O71	O7	0.151300	0.642400	0.753200
O81	O8	0.467110	0.970600	0.261310
O91	O9	0.429460	0.174000	0.652660
O101	O10	0.515200	0.696200	0.267000
O111	O11	0.983010	0.438600	0.106610
O121	O12	0.690730	0.393400	0.891330
O131	O13	0.157800	0.540800	0.076900
O141	O14	0.342200	0.040800	0.423100
O151	O15	0.660620	0.188200	0.712720
O161	O16	0.016990	0.561400	0.893390
O171	O17	0.145600	0.548100	0.198700
O181	O18	0.354400	0.048100	0.301300
O191	O19	0.933200	0.689100	0.691700
O201	O20	0.809270	0.893400	0.608670
O211	O21	0.066800	0.310900	0.308300
O221	O22	0.218550	0.367200	0.143050
O231	O23	0.657800	0.959200	0.576900
O241	O24	0.339380	0.811800	0.287280
O251	O25	0.645600	0.951900	0.698700
O261	O26	0.839380	0.688200	0.787280
O271	O27	0.433200	0.810900	0.191700
O281	O28	0.348700	0.142400	0.746800
O291	O29	0.160620	0.311800	0.212720
O301	O30	0.484800	0.303800	0.733000
O311	O31	0.281450	0.867200	0.356950
O321	O32	0.532890	0.029400	0.738690
O331	O33	0.848700	0.357600	0.246800
O341	O34	0.651300	0.857600	0.253200
O351	O35	0.929460	0.326000	0.152660
O361	O36	0.015200	0.803800	0.767000
O371	O37	0.483010	0.061400	0.606610
O381	O38	0.032890	0.470600	0.238690
O391	O39	0.309270	0.606600	0.108670
O401	O40	0.854400	0.451900	0.801300
O411	O41	0.566800	0.189100	0.808300
O421	O42	0.718550	0.132800	0.643050
O431	O43	0.190730	0.106600	0.391330
O441	O44	0.984800	0.196200	0.233000
