data_cg501231v_si_001_freeONLY_PM
_symmetry_space_group_name_H-M	'P1'
_cell_length_a	32.403900
_cell_length_b	32.403900
_cell_length_c	32.403900
_cell_angle_alpha	60.000000
_cell_angle_beta	60.000000
_cell_angle_gamma	60.000000
_symmetry_Int_Tables_number 1

loop_
_symmetry_equiv_pos_as_xyz
'x,y,z'

loop_
_atom_site_label
_atom_site_type_symbol
_atom_site_fract_x
_atom_site_fract_y
_atom_site_fract_z
N11	N1	0.909920	0.626420	0.292240
H11	H1	0.874900	0.442700	0.316500
H21	H2	0.899200	0.509400	0.320400
C11	C1	0.955670	0.580530	0.293910
H31	H3	0.979000	0.581600	0.259200
H41	H4	0.945900	0.549900	0.310300
C21	C2	0.755320	0.708380	0.306120
H51	H5	0.745100	0.677900	0.326900
H61	H6	0.775300	0.708100	0.321500
H71	H7	0.821500	0.754500	0.187300
C31	C3	0.925710	0.672310	0.267090
H81	H8	0.895200	0.703000	0.267400
H91	H9	0.946800	0.675200	0.231400
C41	C4	0.877040	0.626760	0.344840
H101	H10	0.864100	0.598100	0.363500
H111	H11	0.847600	0.658400	0.343600
H121	H12	0.596600	0.476200	0.525600
C51	C5	0.786340	0.509560	0.314040
H131	H13	0.748800	0.521800	0.326000
H141	H14	0.798900	0.488500	0.293500
H151	H15	0.678800	0.498400	0.449000
C61	C6	0.805770	0.555610	0.280790
H161	H16	0.827900	0.553100	0.246700
H171	H17	0.776500	0.587300	0.277100
N21	N2	0.626420	0.909920	0.171420
H181	H18	0.442700	0.874900	0.365900
H191	H19	0.509400	0.899200	0.271000
C71	C7	0.580530	0.955670	0.169890
H201	H20	0.581600	0.979000	0.180200
H211	H21	0.549900	0.945900	0.193900
C81	C8	0.708380	0.755320	0.230180
H221	H22	0.677900	0.745100	0.250100
H231	H23	0.708100	0.775300	0.195100
H241	H24	0.754500	0.821500	0.236700
C91	C9	0.672310	0.925710	0.134890
H251	H25	0.703000	0.895200	0.134400
H261	H26	0.675200	0.946800	0.146600
C101	C10	0.626760	0.877040	0.151360
H271	H27	0.598100	0.864100	0.174300
H281	H28	0.658400	0.847600	0.150400
H291	H29	0.476200	0.596600	0.401600
C111	C11	0.509560	0.786340	0.390060
H301	H30	0.521800	0.748800	0.403400
H311	H31	0.488500	0.798900	0.419100
H321	H32	0.498400	0.678800	0.373800
C121	C12	0.555610	0.805770	0.357830
H331	H33	0.553100	0.827900	0.372300
H341	H34	0.587300	0.776500	0.359100
N31	N3	0.292240	0.171420	0.909920
H351	H35	0.316500	0.365900	0.874900
H361	H36	0.320400	0.271000	0.899200
C131	C13	0.293910	0.169890	0.955670
H371	H37	0.259200	0.180200	0.979000
H381	H38	0.310300	0.193900	0.945900
C141	C14	0.306120	0.230180	0.755320
H391	H39	0.326900	0.250100	0.745100
H401	H40	0.321500	0.195100	0.775300
H411	H41	0.187300	0.236700	0.821500
C151	C15	0.267090	0.134890	0.925710
H421	H42	0.267400	0.134400	0.895200
H431	H43	0.231400	0.146600	0.946800
C161	C16	0.344840	0.151360	0.877040
H441	H44	0.363500	0.174300	0.864100
H451	H45	0.343600	0.150400	0.847600
H461	H46	0.525600	0.401600	0.596600
C171	C17	0.314040	0.390060	0.786340
H471	H47	0.326000	0.403400	0.748800
H481	H48	0.293500	0.419100	0.798900
H491	H49	0.449000	0.373800	0.678800
C181	C18	0.280790	0.357830	0.805770
H501	H50	0.246700	0.372300	0.827900
H511	H51	0.277100	0.359100	0.776500
N41	N4	0.171420	0.292240	0.626420
H521	H52	0.365900	0.316500	0.442700
H531	H53	0.271000	0.320400	0.509400
C191	C19	0.169890	0.293910	0.580530
H541	H54	0.180200	0.259200	0.581600
H551	H55	0.193900	0.310300	0.549900
C201	C20	0.230180	0.306120	0.708380
H561	H56	0.250100	0.326900	0.677900
H571	H57	0.195100	0.321500	0.708100
H581	H58	0.236700	0.187300	0.754500
C211	C21	0.134890	0.267090	0.672310
H591	H59	0.134400	0.267400	0.703000
H601	H60	0.146600	0.231400	0.675200
C221	C22	0.151360	0.344840	0.626760
H611	H61	0.174300	0.363500	0.598100
H621	H62	0.150400	0.343600	0.658400
H631	H63	0.401600	0.525600	0.476200
C231	C23	0.390060	0.314040	0.509560
H641	H64	0.403400	0.326000	0.521800
H651	H65	0.419100	0.293500	0.488500
H661	H66	0.373800	0.449000	0.498400
C241	C24	0.357830	0.280790	0.555610
H671	H67	0.372300	0.246700	0.553100
H681	H68	0.359100	0.277100	0.587300
N51	N5	0.292240	0.909920	0.626420
H691	H69	0.316500	0.874900	0.442700
H701	H70	0.320400	0.899200	0.509400
C251	C25	0.293910	0.955670	0.580530
H711	H71	0.259200	0.979000	0.581600
H721	H72	0.310300	0.945900	0.549900
C261	C26	0.306120	0.755320	0.708380
H731	H73	0.326900	0.745100	0.677900
H741	H74	0.321500	0.775300	0.708100
H751	H75	0.187300	0.821500	0.754500
C271	C27	0.267090	0.925710	0.672310
H761	H76	0.267400	0.895200	0.703000
H771	H77	0.231400	0.946800	0.675200
C281	C28	0.344840	0.877040	0.626760
H781	H78	0.363500	0.864100	0.598100
H791	H79	0.343600	0.847600	0.658400
H801	H80	0.525600	0.596600	0.476200
C291	C29	0.314040	0.786340	0.509560
H811	H81	0.326000	0.748800	0.521800
H821	H82	0.293500	0.798900	0.488500
H831	H83	0.449000	0.678800	0.498400
C301	C30	0.280790	0.805770	0.555610
H841	H84	0.246700	0.827900	0.553100
H851	H85	0.277100	0.776500	0.587300
N61	N6	0.171420	0.626420	0.909920
H861	H86	0.365900	0.442700	0.874900
H871	H87	0.271000	0.509400	0.899200
C311	C31	0.169890	0.580530	0.955670
H881	H88	0.180200	0.581600	0.979000
H891	H89	0.193900	0.549900	0.945900
C321	C32	0.230180	0.708380	0.755320
H901	H90	0.250100	0.677900	0.745100
H911	H91	0.195100	0.708100	0.775300
H921	H92	0.236700	0.754500	0.821500
C331	C33	0.134890	0.672310	0.925710
H931	H93	0.134400	0.703000	0.895200
H941	H94	0.146600	0.675200	0.946800
C341	C34	0.151360	0.626760	0.877040
H951	H95	0.174300	0.598100	0.864100
H961	H96	0.150400	0.658400	0.847600
H971	H97	0.401600	0.476200	0.596600
C351	C35	0.390060	0.509560	0.786340
H981	H98	0.403400	0.521800	0.748800
H991	H99	0.419100	0.488500	0.798900
H1001	H100	0.373800	0.498400	0.678800
C361	C36	0.357830	0.555610	0.805770
H1011	H101	0.372300	0.553100	0.827900
H1021	H102	0.359100	0.587300	0.776500
N71	N7	0.909920	0.292240	0.171420
H1031	H103	0.874900	0.316500	0.365900
H1041	H104	0.899200	0.320400	0.271000
C371	C37	0.955670	0.293910	0.169890
H1051	H105	0.979000	0.259200	0.180200
H1061	H106	0.945900	0.310300	0.193900
C381	C38	0.755320	0.306120	0.230180
H1071	H107	0.745100	0.326900	0.250100
H1081	H108	0.775300	0.321500	0.195100
H1091	H109	0.821500	0.187300	0.236700
C391	C39	0.925710	0.267090	0.134890
H1101	H110	0.895200	0.267400	0.134400
H1111	H111	0.946800	0.231400	0.146600
C401	C40	0.877040	0.344840	0.151360
H1121	H112	0.864100	0.363500	0.174300
H1131	H113	0.847600	0.343600	0.150400
H1141	H114	0.596600	0.525600	0.401600
C411	C41	0.786340	0.314040	0.390060
H1151	H115	0.748800	0.326000	0.403400
H1161	H116	0.798900	0.293500	0.419100
H1171	H117	0.678800	0.449000	0.373800
C421	C42	0.805770	0.280790	0.357830
H1181	H118	0.827900	0.246700	0.372300
H1191	H119	0.776500	0.277100	0.359100
N81	N8	0.626420	0.171420	0.292240
H1201	H120	0.442700	0.365900	0.316500
H1211	H121	0.509400	0.271000	0.320400
C431	C43	0.580530	0.169890	0.293910
H1221	H122	0.581600	0.180200	0.259200
H1231	H123	0.549900	0.193900	0.310300
C441	C44	0.708380	0.230180	0.306120
H1241	H124	0.677900	0.250100	0.326900
H1251	H125	0.708100	0.195100	0.321500
H1261	H126	0.754500	0.236700	0.187300
C451	C45	0.672310	0.134890	0.267090
H1271	H127	0.703000	0.134400	0.267400
H1281	H128	0.675200	0.146600	0.231400
C461	C46	0.626760	0.151360	0.344840
H1291	H129	0.598100	0.174300	0.363500
H1301	H130	0.658400	0.150400	0.343600
H1311	H131	0.476200	0.401600	0.525600
C471	C47	0.509560	0.390060	0.314040
H1321	H132	0.521800	0.403400	0.326000
H1331	H133	0.488500	0.419100	0.293500
H1341	H134	0.498400	0.373800	0.449000
C481	C48	0.555610	0.357830	0.280790
H1351	H135	0.553100	0.372300	0.246700
H1361	H136	0.587300	0.359100	0.277100
N91	N9	0.626420	0.292240	0.909920
H1371	H137	0.442700	0.316500	0.874900
H1381	H138	0.509400	0.320400	0.899200
C491	C49	0.580530	0.293910	0.955670
H1391	H139	0.581600	0.259200	0.979000
H1401	H140	0.549900	0.310300	0.945900
C501	C50	0.708380	0.306120	0.755320
H1411	H141	0.677900	0.326900	0.745100
H1421	H142	0.708100	0.321500	0.775300
H1431	H143	0.754500	0.187300	0.821500
C511	C51	0.672310	0.267090	0.925710
H1441	H144	0.703000	0.267400	0.895200
H1451	H145	0.675200	0.231400	0.946800
C521	C52	0.626760	0.344840	0.877040
H1461	H146	0.598100	0.363500	0.864100
H1471	H147	0.658400	0.343600	0.847600
H1481	H148	0.476200	0.525600	0.596600
C531	C53	0.509560	0.314040	0.786340
H1491	H149	0.521800	0.326000	0.748800
H1501	H150	0.488500	0.293500	0.798900
H1511	H151	0.498400	0.449000	0.678800
C541	C54	0.555610	0.280790	0.805770
H1521	H152	0.553100	0.246700	0.827900
H1531	H153	0.587300	0.277100	0.776500
N101	N10	0.909920	0.171420	0.626420
H1541	H154	0.874900	0.365900	0.442700
H1551	H155	0.899200	0.271000	0.509400
C551	C55	0.955670	0.169890	0.580530
H1561	H156	0.979000	0.180200	0.581600
H1571	H157	0.945900	0.193900	0.549900
C561	C56	0.755320	0.230180	0.708380
H1581	H158	0.745100	0.250100	0.677900
H1591	H159	0.775300	0.195100	0.708100
H1601	H160	0.821500	0.236700	0.754500
C571	C57	0.925710	0.134890	0.672310
H1611	H161	0.895200	0.134400	0.703000
H1621	H162	0.946800	0.146600	0.675200
C581	C58	0.877040	0.151360	0.626760
H1631	H163	0.864100	0.174300	0.598100
H1641	H164	0.847600	0.150400	0.658400
H1651	H165	0.596600	0.401600	0.476200
C591	C59	0.786340	0.390060	0.509560
H1661	H166	0.748800	0.403400	0.521800
H1671	H167	0.798900	0.419100	0.488500
H1681	H168	0.678800	0.373800	0.498400
C601	C60	0.805770	0.357830	0.555610
H1691	H169	0.827900	0.372300	0.553100
H1701	H170	0.776500	0.359100	0.587300
N111	N11	0.171420	0.909920	0.292240
H1711	H171	0.365900	0.874900	0.316500
H1721	H172	0.271000	0.899200	0.320400
C611	C61	0.169890	0.955670	0.293910
H1731	H173	0.180200	0.979000	0.259200
H1741	H174	0.193900	0.945900	0.310300
C621	C62	0.230180	0.755320	0.306120
H1751	H175	0.250100	0.745100	0.326900
H1761	H176	0.195100	0.775300	0.321500
H1771	H177	0.236700	0.821500	0.187300
C631	C63	0.134890	0.925710	0.267090
H1781	H178	0.134400	0.895200	0.267400
H1791	H179	0.146600	0.946800	0.231400
C641	C64	0.151360	0.877040	0.344840
H1801	H180	0.174300	0.864100	0.363500
H1811	H181	0.150400	0.847600	0.343600
H1821	H182	0.401600	0.596600	0.525600
C651	C65	0.390060	0.786340	0.314040
H1831	H183	0.403400	0.748800	0.326000
H1841	H184	0.419100	0.798900	0.293500
H1851	H185	0.373800	0.678800	0.449000
C661	C66	0.357830	0.805770	0.280790
H1861	H186	0.372300	0.827900	0.246700
H1871	H187	0.359100	0.776500	0.277100
N121	N12	0.292240	0.626420	0.171420
H1881	H188	0.316500	0.442700	0.365900
H1891	H189	0.320400	0.509400	0.271000
C671	C67	0.293910	0.580530	0.169890
H1901	H190	0.259200	0.581600	0.180200
H1911	H191	0.310300	0.549900	0.193900
C681	C68	0.306120	0.708380	0.230180
H1921	H192	0.326900	0.677900	0.250100
H1931	H193	0.321500	0.708100	0.195100
H1941	H194	0.187300	0.754500	0.236700
C691	C69	0.267090	0.672310	0.134890
H1951	H195	0.267400	0.703000	0.134400
H1961	H196	0.231400	0.675200	0.146600
C701	C70	0.344840	0.626760	0.151360
H1971	H197	0.363500	0.598100	0.174300
H1981	H198	0.343600	0.658400	0.150400
H1991	H199	0.525600	0.476200	0.401600
C711	C71	0.314040	0.509560	0.390060
H2001	H200	0.326000	0.521800	0.403400
H2011	H201	0.293500	0.488500	0.419100
H2021	H202	0.449000	0.498400	0.373800
C721	C72	0.280790	0.555610	0.357830
H2031	H203	0.246700	0.553100	0.372300
H2041	H204	0.277100	0.587300	0.359100
N131	N13	0.340080	0.623580	0.078580
H2051	H205	0.375100	0.807300	0.884100
H2061	H206	0.350800	0.740600	0.979000
C731	C73	0.294330	0.669470	0.080110
H2071	H207	0.271000	0.668400	0.069800
H2081	H208	0.304100	0.700100	0.056100
C741	C74	0.494680	0.541620	0.019820
H2091	H209	0.504900	0.572100	0.999900
H2101	H210	0.474700	0.541900	0.054900
H2111	H211	0.428500	0.495500	0.013300
C751	C75	0.324290	0.577690	0.115110
H2121	H212	0.354800	0.547000	0.115600
H2131	H213	0.303200	0.574800	0.103400
C761	C76	0.372960	0.623240	0.098640
H2141	H214	0.385900	0.651900	0.075700
H2151	H215	0.402400	0.591600	0.099600
H2161	H216	0.653400	0.773800	0.848400
C771	C77	0.463660	0.740440	0.859940
H2171	H217	0.501200	0.728200	0.846600
H2181	H218	0.451100	0.761500	0.830900
H2191	H219	0.571200	0.751600	0.876200
C781	C78	0.444230	0.694390	0.892170
H2201	H220	0.422100	0.696900	0.877700
H2211	H221	0.473500	0.662700	0.890900
N141	N14	0.623580	0.340080	0.957760
H2221	H222	0.807300	0.375100	0.933500
H2231	H223	0.740600	0.350800	0.929600
C791	C79	0.669470	0.294330	0.956090
H2241	H224	0.668400	0.271000	0.990800
H2251	H225	0.700100	0.304100	0.939700
C801	C80	0.541620	0.494680	0.943880
H2261	H226	0.572100	0.504900	0.923100
H2271	H227	0.541900	0.474700	0.928500
H2281	H228	0.495500	0.428500	0.062700
C811	C81	0.577690	0.324290	0.982910
H2291	H229	0.547000	0.354800	0.982600
H2301	H230	0.574800	0.303200	0.018600
C821	C82	0.623240	0.372960	0.905160
H2311	H231	0.651900	0.385900	0.886500
H2321	H232	0.591600	0.402400	0.906400
H2331	H233	0.773800	0.653400	0.724400
C831	C83	0.740440	0.463660	0.935960
H2341	H234	0.728200	0.501200	0.924000
H2351	H235	0.761500	0.451100	0.956500
H2361	H236	0.751600	0.571200	0.801000
C841	C84	0.694390	0.444230	0.969210
H2371	H237	0.696900	0.422100	0.003300
H2381	H238	0.662700	0.473500	0.972900
N151	N15	0.957760	0.078580	0.623580
H2391	H239	0.933500	0.884100	0.807300
H2401	H240	0.929600	0.979000	0.740600
C851	C85	0.956090	0.080110	0.669470
H2411	H241	0.990800	0.069800	0.668400
H2421	H242	0.939700	0.056100	0.700100
C861	C86	0.943880	0.019820	0.541620
H2431	H243	0.923100	0.999900	0.572100
H2441	H244	0.928500	0.054900	0.541900
H2451	H245	0.062700	0.013300	0.495500
C871	C87	0.982910	0.115110	0.577690
H2461	H246	0.982600	0.115600	0.547000
H2471	H247	0.018600	0.103400	0.574800
C881	C88	0.905160	0.098640	0.623240
H2481	H248	0.886500	0.075700	0.651900
H2491	H249	0.906400	0.099600	0.591600
H2501	H250	0.724400	0.848400	0.773800
C891	C89	0.935960	0.859940	0.740440
H2511	H251	0.924000	0.846600	0.728200
H2521	H252	0.956500	0.830900	0.761500
H2531	H253	0.801000	0.876200	0.751600
C901	C90	0.969210	0.892170	0.694390
H2541	H254	0.003300	0.877700	0.696900
H2551	H255	0.972900	0.890900	0.662700
N161	N16	0.078580	0.957760	0.340080
H2561	H256	0.884100	0.933500	0.375100
H2571	H257	0.979000	0.929600	0.350800
C911	C91	0.080110	0.956090	0.294330
H2581	H258	0.069800	0.990800	0.271000
H2591	H259	0.056100	0.939700	0.304100
C921	C92	0.019820	0.943880	0.494680
H2601	H260	0.999900	0.923100	0.504900
H2611	H261	0.054900	0.928500	0.474700
H2621	H262	0.013300	0.062700	0.428500
C931	C93	0.115110	0.982910	0.324290
H2631	H263	0.115600	0.982600	0.354800
H2641	H264	0.103400	0.018600	0.303200
C941	C94	0.098640	0.905160	0.372960
H2651	H265	0.075700	0.886500	0.385900
H2661	H266	0.099600	0.906400	0.402400
H2671	H267	0.848400	0.724400	0.653400
C951	C95	0.859940	0.935960	0.463660
H2681	H268	0.846600	0.924000	0.501200
H2691	H269	0.830900	0.956500	0.451100
H2701	H270	0.876200	0.801000	0.571200
C961	C96	0.892170	0.969210	0.444230
H2711	H271	0.877700	0.003300	0.422100
H2721	H272	0.890900	0.972900	0.473500
N171	N17	0.957760	0.340080	0.078580
H2731	H273	0.933500	0.375100	0.884100
H2741	H274	0.929600	0.350800	0.979000
C971	C97	0.956090	0.294330	0.080110
H2751	H275	0.990800	0.271000	0.069800
H2761	H276	0.939700	0.304100	0.056100
C981	C98	0.943880	0.494680	0.019820
H2771	H277	0.923100	0.504900	0.999900
H2781	H278	0.928500	0.474700	0.054900
H2791	H279	0.062700	0.428500	0.013300
C991	C99	0.982910	0.324290	0.115110
H2801	H280	0.982600	0.354800	0.115600
H2811	H281	0.018600	0.303200	0.103400
C1001	C100	0.905160	0.372960	0.098640
H2821	H282	0.886500	0.385900	0.075700
H2831	H283	0.906400	0.402400	0.099600
H2841	H284	0.724400	0.653400	0.848400
C1011	C101	0.935960	0.463660	0.859940
H2851	H285	0.924000	0.501200	0.846600
H2861	H286	0.956500	0.451100	0.830900
H2871	H287	0.801000	0.571200	0.876200
C1021	C102	0.969210	0.444230	0.892170
H2881	H288	0.003300	0.422100	0.877700
H2891	H289	0.972900	0.473500	0.890900
N181	N18	0.078580	0.623580	0.957760
H2901	H290	0.884100	0.807300	0.933500
H2911	H291	0.979000	0.740600	0.929600
C1031	C103	0.080110	0.669470	0.956090
H2921	H292	0.069800	0.668400	0.990800
H2931	H293	0.056100	0.700100	0.939700
C1041	C104	0.019820	0.541620	0.943880
H2941	H294	0.999900	0.572100	0.923100
H2951	H295	0.054900	0.541900	0.928500
H2961	H296	0.013300	0.495500	0.062700
C1051	C105	0.115110	0.577690	0.982910
H2971	H297	0.115600	0.547000	0.982600
H2981	H298	0.103400	0.574800	0.018600
C1061	C106	0.098640	0.623240	0.905160
H2991	H299	0.075700	0.651900	0.886500
H3001	H300	0.099600	0.591600	0.906400
H3011	H301	0.848400	0.773800	0.724400
C1071	C107	0.859940	0.740440	0.935960
H3021	H302	0.846600	0.728200	0.924000
H3031	H303	0.830900	0.761500	0.956500
H3041	H304	0.876200	0.751600	0.801000
C1081	C108	0.892170	0.694390	0.969210
H3051	H305	0.877700	0.696900	0.003300
H3061	H306	0.890900	0.662700	0.972900
N191	N19	0.340080	0.957760	0.623580
H3071	H307	0.375100	0.933500	0.807300
H3081	H308	0.350800	0.929600	0.740600
C1091	C109	0.294330	0.956090	0.669470
H3091	H309	0.271000	0.990800	0.668400
H3101	H310	0.304100	0.939700	0.700100
C1101	C110	0.494680	0.943880	0.541620
H3111	H311	0.504900	0.923100	0.572100
H3121	H312	0.474700	0.928500	0.541900
H3131	H313	0.428500	0.062700	0.495500
C1111	C111	0.324290	0.982910	0.577690
H3141	H314	0.354800	0.982600	0.547000
H3151	H315	0.303200	0.018600	0.574800
C1121	C112	0.372960	0.905160	0.623240
H3161	H316	0.385900	0.886500	0.651900
H3171	H317	0.402400	0.906400	0.591600
H3181	H318	0.653400	0.724400	0.773800
C1131	C113	0.463660	0.935960	0.740440
H3191	H319	0.501200	0.924000	0.728200
H3201	H320	0.451100	0.956500	0.761500
H3211	H321	0.571200	0.801000	0.751600
C1141	C114	0.444230	0.969210	0.694390
H3221	H322	0.422100	0.003300	0.696900
H3231	H323	0.473500	0.972900	0.662700
N201	N20	0.623580	0.078580	0.340080
H3241	H324	0.807300	0.884100	0.375100
H3251	H325	0.740600	0.979000	0.350800
C1151	C115	0.669470	0.080110	0.294330
H3261	H326	0.668400	0.069800	0.271000
H3271	H327	0.700100	0.056100	0.304100
C1161	C116	0.541620	0.019820	0.494680
H3281	H328	0.572100	0.999900	0.504900
H3291	H329	0.541900	0.054900	0.474700
H3301	H330	0.495500	0.013300	0.428500
C1171	C117	0.577690	0.115110	0.324290
H3311	H331	0.547000	0.115600	0.354800
H3321	H332	0.574800	0.103400	0.303200
C1181	C118	0.623240	0.098640	0.372960
H3331	H333	0.651900	0.075700	0.385900
H3341	H334	0.591600	0.099600	0.402400
H3351	H335	0.773800	0.848400	0.653400
C1191	C119	0.740440	0.859940	0.463660
H3361	H336	0.728200	0.846600	0.501200
H3371	H337	0.761500	0.830900	0.451100
H3381	H338	0.751600	0.876200	0.571200
C1201	C120	0.694390	0.892170	0.444230
H3391	H339	0.696900	0.877700	0.422100
H3401	H340	0.662700	0.890900	0.473500
N211	N21	0.623580	0.957760	0.078580
H3411	H341	0.807300	0.933500	0.884100
H3421	H342	0.740600	0.929600	0.979000
C1211	C121	0.669470	0.956090	0.080110
H3431	H343	0.668400	0.990800	0.069800
H3441	H344	0.700100	0.939700	0.056100
C1221	C122	0.541620	0.943880	0.019820
H3451	H345	0.572100	0.923100	0.999900
H3461	H346	0.541900	0.928500	0.054900
H3471	H347	0.495500	0.062700	0.013300
C1231	C123	0.577690	0.982910	0.115110
H3481	H348	0.547000	0.982600	0.115600
H3491	H349	0.574800	0.018600	0.103400
C1241	C124	0.623240	0.905160	0.098640
H3501	H350	0.651900	0.886500	0.075700
H3511	H351	0.591600	0.906400	0.099600
H3521	H352	0.773800	0.724400	0.848400
C1251	C125	0.740440	0.935960	0.859940
H3531	H353	0.728200	0.924000	0.846600
H3541	H354	0.761500	0.956500	0.830900
H3551	H355	0.751600	0.801000	0.876200
C1261	C126	0.694390	0.969210	0.892170
H3561	H356	0.696900	0.003300	0.877700
H3571	H357	0.662700	0.972900	0.890900
N221	N22	0.340080	0.078580	0.957760
H3581	H358	0.375100	0.884100	0.933500
H3591	H359	0.350800	0.979000	0.929600
C1271	C127	0.294330	0.080110	0.956090
H3601	H360	0.271000	0.069800	0.990800
H3611	H361	0.304100	0.056100	0.939700
C1281	C128	0.494680	0.019820	0.943880
H3621	H362	0.504900	0.999900	0.923100
H3631	H363	0.474700	0.054900	0.928500
H3641	H364	0.428500	0.013300	0.062700
C1291	C129	0.324290	0.115110	0.982910
H3651	H365	0.354800	0.115600	0.982600
H3661	H366	0.303200	0.103400	0.018600
C1301	C130	0.372960	0.098640	0.905160
H3671	H367	0.385900	0.075700	0.886500
H3681	H368	0.402400	0.099600	0.906400
H3691	H369	0.653400	0.848400	0.724400
C1311	C131	0.463660	0.859940	0.935960
H3701	H370	0.501200	0.846600	0.924000
H3711	H371	0.451100	0.830900	0.956500
H3721	H372	0.571200	0.876200	0.801000
C1321	C132	0.444230	0.892170	0.969210
H3731	H373	0.422100	0.877700	0.003300
H3741	H374	0.473500	0.890900	0.972900
N231	N23	0.078580	0.340080	0.623580
H3751	H375	0.884100	0.375100	0.807300
H3761	H376	0.979000	0.350800	0.740600
C1331	C133	0.080110	0.294330	0.669470
H3771	H377	0.069800	0.271000	0.668400
H3781	H378	0.056100	0.304100	0.700100
C1341	C134	0.019820	0.494680	0.541620
H3791	H379	0.999900	0.504900	0.572100
H3801	H380	0.054900	0.474700	0.541900
H3811	H381	0.013300	0.428500	0.495500
C1351	C135	0.115110	0.324290	0.577690
H3821	H382	0.115600	0.354800	0.547000
H3831	H383	0.103400	0.303200	0.574800
C1361	C136	0.098640	0.372960	0.623240
H3841	H384	0.075700	0.385900	0.651900
H3851	H385	0.099600	0.402400	0.591600
H3861	H386	0.848400	0.653400	0.773800
C1371	C137	0.859940	0.463660	0.740440
H3871	H387	0.846600	0.501200	0.728200
H3881	H388	0.830900	0.451100	0.761500
H3891	H389	0.876200	0.571200	0.751600
C1381	C138	0.892170	0.444230	0.694390
H3901	H390	0.877700	0.422100	0.696900
H3911	H391	0.890900	0.473500	0.662700
N241	N24	0.957760	0.623580	0.340080
H3921	H392	0.933500	0.807300	0.375100
H3931	H393	0.929600	0.740600	0.350800
C1391	C139	0.956090	0.669470	0.294330
H3941	H394	0.990800	0.668400	0.271000
H3951	H395	0.939700	0.700100	0.304100
C1401	C140	0.943880	0.541620	0.494680
H3961	H396	0.923100	0.572100	0.504900
H3971	H397	0.928500	0.541900	0.474700
H3981	H398	0.062700	0.495500	0.428500
C1411	C141	0.982910	0.577690	0.324290
H3991	H399	0.982600	0.547000	0.354800
H4001	H400	0.018600	0.574800	0.303200
C1421	C142	0.905160	0.623240	0.372960
H4011	H401	0.886500	0.651900	0.385900
H4021	H402	0.906400	0.591600	0.402400
H4031	H403	0.724400	0.773800	0.653400
C1431	C143	0.935960	0.740440	0.463660
H4041	H404	0.924000	0.728200	0.501200
H4051	H405	0.956500	0.761500	0.451100
H4061	H406	0.801000	0.751600	0.571200
C1441	C144	0.969210	0.694390	0.444230
H4071	H407	0.003300	0.696900	0.422100
H4081	H408	0.972900	0.662700	0.473500
N251	N25	0.340080	0.623580	0.957760
H4091	H409	0.375100	0.807300	0.933500
H4101	H410	0.350800	0.740600	0.929600
C1451	C145	0.294330	0.669470	0.956090
H4111	H411	0.271000	0.668400	0.990800
H4121	H412	0.304100	0.700100	0.939700
C1461	C146	0.494680	0.541620	0.943880
H4131	H413	0.504900	0.572100	0.923100
H4141	H414	0.474700	0.541900	0.928500
H4151	H415	0.428500	0.495500	0.062700
C1471	C147	0.324290	0.577690	0.982910
H4161	H416	0.354800	0.547000	0.982600
H4171	H417	0.303200	0.574800	0.018600
C1481	C148	0.372960	0.623240	0.905160
H4181	H418	0.385900	0.651900	0.886500
H4191	H419	0.402400	0.591600	0.906400
H4201	H420	0.653400	0.773800	0.724400
C1491	C149	0.463660	0.740440	0.935960
H4211	H421	0.501200	0.728200	0.924000
H4221	H422	0.451100	0.761500	0.956500
H4231	H423	0.571200	0.751600	0.801000
C1501	C150	0.444230	0.694390	0.969210
H4241	H424	0.422100	0.696900	0.003300
H4251	H425	0.473500	0.662700	0.972900
N261	N26	0.623580	0.340080	0.078580
H4261	H426	0.807300	0.375100	0.884100
H4271	H427	0.740600	0.350800	0.979000
C1511	C151	0.669470	0.294330	0.080110
H4281	H428	0.668400	0.271000	0.069800
H4291	H429	0.700100	0.304100	0.056100
C1521	C152	0.541620	0.494680	0.019820
H4301	H430	0.572100	0.504900	0.999900
H4311	H431	0.541900	0.474700	0.054900
H4321	H432	0.495500	0.428500	0.013300
C1531	C153	0.577690	0.324290	0.115110
H4331	H433	0.547000	0.354800	0.115600
H4341	H434	0.574800	0.303200	0.103400
C1541	C154	0.623240	0.372960	0.098640
H4351	H435	0.651900	0.385900	0.075700
H4361	H436	0.591600	0.402400	0.099600
H4371	H437	0.773800	0.653400	0.848400
C1551	C155	0.740440	0.463660	0.859940
H4381	H438	0.728200	0.501200	0.846600
H4391	H439	0.761500	0.451100	0.830900
H4401	H440	0.751600	0.571200	0.876200
C1561	C156	0.694390	0.444230	0.892170
H4411	H441	0.696900	0.422100	0.877700
H4421	H442	0.662700	0.473500	0.890900
N271	N27	0.957760	0.078580	0.340080
H4431	H443	0.933500	0.884100	0.375100
H4441	H444	0.929600	0.979000	0.350800
C1571	C157	0.956090	0.080110	0.294330
H4451	H445	0.990800	0.069800	0.271000
H4461	H446	0.939700	0.056100	0.304100
C1581	C158	0.943880	0.019820	0.494680
H4471	H447	0.923100	0.999900	0.504900
H4481	H448	0.928500	0.054900	0.474700
H4491	H449	0.062700	0.013300	0.428500
C1591	C159	0.982910	0.115110	0.324290
H4501	H450	0.982600	0.115600	0.354800
H4511	H451	0.018600	0.103400	0.303200
C1601	C160	0.905160	0.098640	0.372960
H4521	H452	0.886500	0.075700	0.385900
H4531	H453	0.906400	0.099600	0.402400
H4541	H454	0.724400	0.848400	0.653400
C1611	C161	0.935960	0.859940	0.463660
H4551	H455	0.924000	0.846600	0.501200
H4561	H456	0.956500	0.830900	0.451100
H4571	H457	0.801000	0.876200	0.571200
C1621	C162	0.969210	0.892170	0.444230
H4581	H458	0.003300	0.877700	0.422100
H4591	H459	0.972900	0.890900	0.473500
N281	N28	0.078580	0.957760	0.623580
H4601	H460	0.884100	0.933500	0.807300
H4611	H461	0.979000	0.929600	0.740600
C1631	C163	0.080110	0.956090	0.669470
H4621	H462	0.069800	0.990800	0.668400
H4631	H463	0.056100	0.939700	0.700100
C1641	C164	0.019820	0.943880	0.541620
H4641	H464	0.999900	0.923100	0.572100
H4651	H465	0.054900	0.928500	0.541900
H4661	H466	0.013300	0.062700	0.495500
C1651	C165	0.115110	0.982910	0.577690
H4671	H467	0.115600	0.982600	0.547000
H4681	H468	0.103400	0.018600	0.574800
C1661	C166	0.098640	0.905160	0.623240
H4691	H469	0.075700	0.886500	0.651900
H4701	H470	0.099600	0.906400	0.591600
H4711	H471	0.848400	0.724400	0.773800
C1671	C167	0.859940	0.935960	0.740440
H4721	H472	0.846600	0.924000	0.728200
H4731	H473	0.830900	0.956500	0.761500
H4741	H474	0.876200	0.801000	0.751600
C1681	C168	0.892170	0.969210	0.694390
H4751	H475	0.877700	0.003300	0.696900
H4761	H476	0.890900	0.972900	0.662700
N291	N29	0.957760	0.340080	0.623580
H4771	H477	0.933500	0.375100	0.807300
H4781	H478	0.929600	0.350800	0.740600
C1691	C169	0.956090	0.294330	0.669470
H4791	H479	0.990800	0.271000	0.668400
H4801	H480	0.939700	0.304100	0.700100
C1701	C170	0.943880	0.494680	0.541620
H4811	H481	0.923100	0.504900	0.572100
H4821	H482	0.928500	0.474700	0.541900
H4831	H483	0.062700	0.428500	0.495500
C1711	C171	0.982910	0.324290	0.577690
H4841	H484	0.982600	0.354800	0.547000
H4851	H485	0.018600	0.303200	0.574800
C1721	C172	0.905160	0.372960	0.623240
H4861	H486	0.886500	0.385900	0.651900
H4871	H487	0.906400	0.402400	0.591600
H4881	H488	0.724400	0.653400	0.773800
C1731	C173	0.935960	0.463660	0.740440
H4891	H489	0.924000	0.501200	0.728200
H4901	H490	0.956500	0.451100	0.761500
H4911	H491	0.801000	0.571200	0.751600
C1741	C174	0.969210	0.444230	0.694390
H4921	H492	0.003300	0.422100	0.696900
H4931	H493	0.972900	0.473500	0.662700
N301	N30	0.078580	0.623580	0.340080
H4941	H494	0.884100	0.807300	0.375100
H4951	H495	0.979000	0.740600	0.350800
C1751	C175	0.080110	0.669470	0.294330
H4961	H496	0.069800	0.668400	0.271000
H4971	H497	0.056100	0.700100	0.304100
C1761	C176	0.019820	0.541620	0.494680
H4981	H498	0.999900	0.572100	0.504900
H4991	H499	0.054900	0.541900	0.474700
H5001	H500	0.013300	0.495500	0.428500
C1771	C177	0.115110	0.577690	0.324290
H5011	H501	0.115600	0.547000	0.354800
H5021	H502	0.103400	0.574800	0.303200
C1781	C178	0.098640	0.623240	0.372960
H5031	H503	0.075700	0.651900	0.385900
H5041	H504	0.099600	0.591600	0.402400
H5051	H505	0.848400	0.773800	0.653400
C1791	C179	0.859940	0.740440	0.463660
H5061	H506	0.846600	0.728200	0.501200
H5071	H507	0.830900	0.761500	0.451100
H5081	H508	0.876200	0.751600	0.571200
C1801	C180	0.892170	0.694390	0.444230
H5091	H509	0.877700	0.696900	0.422100
H5101	H510	0.890900	0.662700	0.473500
N311	N31	0.340080	0.957760	0.078580
H5111	H511	0.375100	0.933500	0.884100
H5121	H512	0.350800	0.929600	0.979000
C1811	C181	0.294330	0.956090	0.080110
H5131	H513	0.271000	0.990800	0.069800
H5141	H514	0.304100	0.939700	0.056100
C1821	C182	0.494680	0.943880	0.019820
H5151	H515	0.504900	0.923100	0.999900
H5161	H516	0.474700	0.928500	0.054900
H5171	H517	0.428500	0.062700	0.013300
C1831	C183	0.324290	0.982910	0.115110
H5181	H518	0.354800	0.982600	0.115600
H5191	H519	0.303200	0.018600	0.103400
C1841	C184	0.372960	0.905160	0.098640
H5201	H520	0.385900	0.886500	0.075700
H5211	H521	0.402400	0.906400	0.099600
H5221	H522	0.653400	0.724400	0.848400
C1851	C185	0.463660	0.935960	0.859940
H5231	H523	0.501200	0.924000	0.846600
H5241	H524	0.451100	0.956500	0.830900
H5251	H525	0.571200	0.801000	0.876200
C1861	C186	0.444230	0.969210	0.892170
H5261	H526	0.422100	0.003300	0.877700
H5271	H527	0.473500	0.972900	0.890900
N321	N32	0.623580	0.078580	0.957760
H5281	H528	0.807300	0.884100	0.933500
H5291	H529	0.740600	0.979000	0.929600
C1871	C187	0.669470	0.080110	0.956090
H5301	H530	0.668400	0.069800	0.990800
H5311	H531	0.700100	0.056100	0.939700
C1881	C188	0.541620	0.019820	0.943880
H5321	H532	0.572100	0.999900	0.923100
H5331	H533	0.541900	0.054900	0.928500
H5341	H534	0.495500	0.013300	0.062700
C1891	C189	0.577690	0.115110	0.982910
H5351	H535	0.547000	0.115600	0.982600
H5361	H536	0.574800	0.103400	0.018600
C1901	C190	0.623240	0.098640	0.905160
H5371	H537	0.651900	0.075700	0.886500
H5381	H538	0.591600	0.099600	0.906400
H5391	H539	0.773800	0.848400	0.724400
C1911	C191	0.740440	0.859940	0.935960
H5401	H540	0.728200	0.846600	0.924000
H5411	H541	0.761500	0.830900	0.956500
H5421	H542	0.751600	0.876200	0.801000
C1921	C192	0.694390	0.892170	0.969210
H5431	H543	0.696900	0.877700	0.003300
H5441	H544	0.662700	0.890900	0.972900
N331	N33	0.623580	0.957760	0.340080
H5451	H545	0.807300	0.933500	0.375100
H5461	H546	0.740600	0.929600	0.350800
C1931	C193	0.669470	0.956090	0.294330
H5471	H547	0.668400	0.990800	0.271000
H5481	H548	0.700100	0.939700	0.304100
C1941	C194	0.541620	0.943880	0.494680
H5491	H549	0.572100	0.923100	0.504900
H5501	H550	0.541900	0.928500	0.474700
H5511	H551	0.495500	0.062700	0.428500
C1951	C195	0.577690	0.982910	0.324290
H5521	H552	0.547000	0.982600	0.354800
H5531	H553	0.574800	0.018600	0.303200
C1961	C196	0.623240	0.905160	0.372960
H5541	H554	0.651900	0.886500	0.385900
H5551	H555	0.591600	0.906400	0.402400
H5561	H556	0.773800	0.724400	0.653400
C1971	C197	0.740440	0.935960	0.463660
H5571	H557	0.728200	0.924000	0.501200
H5581	H558	0.761500	0.956500	0.451100
H5591	H559	0.751600	0.801000	0.571200
C1981	C198	0.694390	0.969210	0.444230
H5601	H560	0.696900	0.003300	0.422100
H5611	H561	0.662700	0.972900	0.473500
N341	N34	0.340080	0.078580	0.623580
H5621	H562	0.375100	0.884100	0.807300
H5631	H563	0.350800	0.979000	0.740600
C1991	C199	0.294330	0.080110	0.669470
H5641	H564	0.271000	0.069800	0.668400
H5651	H565	0.304100	0.056100	0.700100
C2001	C200	0.494680	0.019820	0.541620
H5661	H566	0.504900	0.999900	0.572100
H5671	H567	0.474700	0.054900	0.541900
H5681	H568	0.428500	0.013300	0.495500
C2011	C201	0.324290	0.115110	0.577690
H5691	H569	0.354800	0.115600	0.547000
H5701	H570	0.303200	0.103400	0.574800
C2021	C202	0.372960	0.098640	0.623240
H5711	H571	0.385900	0.075700	0.651900
H5721	H572	0.402400	0.099600	0.591600
H5731	H573	0.653400	0.848400	0.773800
C2031	C203	0.463660	0.859940	0.740440
H5741	H574	0.501200	0.846600	0.728200
H5751	H575	0.451100	0.830900	0.761500
H5761	H576	0.571200	0.876200	0.751600
C2041	C204	0.444230	0.892170	0.694390
H5771	H577	0.422100	0.877700	0.696900
H5781	H578	0.473500	0.890900	0.662700
N351	N35	0.078580	0.340080	0.957760
H5791	H579	0.884100	0.375100	0.933500
H5801	H580	0.979000	0.350800	0.929600
C2051	C205	0.080110	0.294330	0.956090
H5811	H581	0.069800	0.271000	0.990800
H5821	H582	0.056100	0.304100	0.939700
C2061	C206	0.019820	0.494680	0.943880
H5831	H583	0.999900	0.504900	0.923100
H5841	H584	0.054900	0.474700	0.928500
H5851	H585	0.013300	0.428500	0.062700
C2071	C207	0.115110	0.324290	0.982910
H5861	H586	0.115600	0.354800	0.982600
H5871	H587	0.103400	0.303200	0.018600
C2081	C208	0.098640	0.372960	0.905160
H5881	H588	0.075700	0.385900	0.886500
H5891	H589	0.099600	0.402400	0.906400
H5901	H590	0.848400	0.653400	0.724400
C2091	C209	0.859940	0.463660	0.935960
H5911	H591	0.846600	0.501200	0.924000
H5921	H592	0.830900	0.451100	0.956500
H5931	H593	0.876200	0.571200	0.801000
C2101	C210	0.892170	0.444230	0.969210
H5941	H594	0.877700	0.422100	0.003300
H5951	H595	0.890900	0.473500	0.972900
N361	N36	0.957760	0.623580	0.078580
H5961	H596	0.933500	0.807300	0.884100
H5971	H597	0.929600	0.740600	0.979000
C2111	C211	0.956090	0.669470	0.080110
H5981	H598	0.990800	0.668400	0.069800
H5991	H599	0.939700	0.700100	0.056100
C2121	C212	0.943880	0.541620	0.019820
H6001	H600	0.923100	0.572100	0.999900
H6011	H601	0.928500	0.541900	0.054900
H6021	H602	0.062700	0.495500	0.013300
C2131	C213	0.982910	0.577690	0.115110
H6031	H603	0.982600	0.547000	0.115600
H6041	H604	0.018600	0.574800	0.103400
C2141	C214	0.905160	0.623240	0.098640
H6051	H605	0.886500	0.651900	0.075700
H6061	H606	0.906400	0.591600	0.099600
H6071	H607	0.724400	0.773800	0.848400
C2151	C215	0.935960	0.740440	0.859940
H6081	H608	0.924000	0.728200	0.846600
H6091	H609	0.956500	0.761500	0.830900
H6101	H610	0.801000	0.751600	0.876200
C2161	C216	0.969210	0.694390	0.892170
H6111	H611	0.003300	0.696900	0.877700
H6121	H612	0.972900	0.662700	0.890900
N371	N37	0.909920	0.626420	0.171420
H6131	H613	0.874900	0.442700	0.365900
H6141	H614	0.899200	0.509400	0.271000
C2171	C217	0.955670	0.580530	0.169890
H6151	H615	0.979000	0.581600	0.180200
H6161	H616	0.945900	0.549900	0.193900
C2181	C218	0.755320	0.708380	0.230180
H6171	H617	0.745100	0.677900	0.250100
H6181	H618	0.775300	0.708100	0.195100
H6191	H619	0.821500	0.754500	0.236700
C2191	C219	0.925710	0.672310	0.134890
H6201	H620	0.895200	0.703000	0.134400
H6211	H621	0.946800	0.675200	0.146600
C2201	C220	0.877040	0.626760	0.151360
H6221	H622	0.864100	0.598100	0.174300
H6231	H623	0.847600	0.658400	0.150400
H6241	H624	0.596600	0.476200	0.401600
C2211	C221	0.786340	0.509560	0.390060
H6251	H625	0.748800	0.521800	0.403400
H6261	H626	0.798900	0.488500	0.419100
H6271	H627	0.678800	0.498400	0.373800
C2221	C222	0.805770	0.555610	0.357830
H6281	H628	0.827900	0.553100	0.372300
H6291	H629	0.776500	0.587300	0.359100
N381	N38	0.626420	0.909920	0.292240
H6301	H630	0.442700	0.874900	0.316500
H6311	H631	0.509400	0.899200	0.320400
C2231	C223	0.580530	0.955670	0.293910
H6321	H632	0.581600	0.979000	0.259200
H6331	H633	0.549900	0.945900	0.310300
C2241	C224	0.708380	0.755320	0.306120
H6341	H634	0.677900	0.745100	0.326900
H6351	H635	0.708100	0.775300	0.321500
H6361	H636	0.754500	0.821500	0.187300
C2251	C225	0.672310	0.925710	0.267090
H6371	H637	0.703000	0.895200	0.267400
H6381	H638	0.675200	0.946800	0.231400
C2261	C226	0.626760	0.877040	0.344840
H6391	H639	0.598100	0.864100	0.363500
H6401	H640	0.658400	0.847600	0.343600
H6411	H641	0.476200	0.596600	0.525600
C2271	C227	0.509560	0.786340	0.314040
H6421	H642	0.521800	0.748800	0.326000
H6431	H643	0.488500	0.798900	0.293500
H6441	H644	0.498400	0.678800	0.449000
C2281	C228	0.555610	0.805770	0.280790
H6451	H645	0.553100	0.827900	0.246700
H6461	H646	0.587300	0.776500	0.277100
N391	N39	0.292240	0.171420	0.626420
H6471	H647	0.316500	0.365900	0.442700
H6481	H648	0.320400	0.271000	0.509400
C2291	C229	0.293910	0.169890	0.580530
H6491	H649	0.259200	0.180200	0.581600
H6501	H650	0.310300	0.193900	0.549900
C2301	C230	0.306120	0.230180	0.708380
H6511	H651	0.326900	0.250100	0.677900
H6521	H652	0.321500	0.195100	0.708100
H6531	H653	0.187300	0.236700	0.754500
C2311	C231	0.267090	0.134890	0.672310
H6541	H654	0.267400	0.134400	0.703000
H6551	H655	0.231400	0.146600	0.675200
C2321	C232	0.344840	0.151360	0.626760
H6561	H656	0.363500	0.174300	0.598100
H6571	H657	0.343600	0.150400	0.658400
H6581	H658	0.525600	0.401600	0.476200
C2331	C233	0.314040	0.390060	0.509560
H6591	H659	0.326000	0.403400	0.521800
H6601	H660	0.293500	0.419100	0.488500
H6611	H661	0.449000	0.373800	0.498400
C2341	C234	0.280790	0.357830	0.555610
H6621	H662	0.246700	0.372300	0.553100
H6631	H663	0.277100	0.359100	0.587300
N401	N40	0.171420	0.292240	0.909920
H6641	H664	0.365900	0.316500	0.874900
H6651	H665	0.271000	0.320400	0.899200
C2351	C235	0.169890	0.293910	0.955670
H6661	H666	0.180200	0.259200	0.979000
H6671	H667	0.193900	0.310300	0.945900
C2361	C236	0.230180	0.306120	0.755320
H6681	H668	0.250100	0.326900	0.745100
H6691	H669	0.195100	0.321500	0.775300
H6701	H670	0.236700	0.187300	0.821500
C2371	C237	0.134890	0.267090	0.925710
H6711	H671	0.134400	0.267400	0.895200
H6721	H672	0.146600	0.231400	0.946800
C2381	C238	0.151360	0.344840	0.877040
H6731	H673	0.174300	0.363500	0.864100
H6741	H674	0.150400	0.343600	0.847600
H6751	H675	0.401600	0.525600	0.596600
C2391	C239	0.390060	0.314040	0.786340
H6761	H676	0.403400	0.326000	0.748800
H6771	H677	0.419100	0.293500	0.798900
H6781	H678	0.373800	0.449000	0.678800
C2401	C240	0.357830	0.280790	0.805770
H6791	H679	0.372300	0.246700	0.827900
H6801	H680	0.359100	0.277100	0.776500
N411	N41	0.292240	0.909920	0.171420
H6811	H681	0.316500	0.874900	0.365900
H6821	H682	0.320400	0.899200	0.271000
C2411	C241	0.293910	0.955670	0.169890
H6831	H683	0.259200	0.979000	0.180200
H6841	H684	0.310300	0.945900	0.193900
C2421	C242	0.306120	0.755320	0.230180
H6851	H685	0.326900	0.745100	0.250100
H6861	H686	0.321500	0.775300	0.195100
H6871	H687	0.187300	0.821500	0.236700
C2431	C243	0.267090	0.925710	0.134890
H6881	H688	0.267400	0.895200	0.134400
H6891	H689	0.231400	0.946800	0.146600
C2441	C244	0.344840	0.877040	0.151360
H6901	H690	0.363500	0.864100	0.174300
H6911	H691	0.343600	0.847600	0.150400
H6921	H692	0.525600	0.596600	0.401600
C2451	C245	0.314040	0.786340	0.390060
H6931	H693	0.326000	0.748800	0.403400
H6941	H694	0.293500	0.798900	0.419100
H6951	H695	0.449000	0.678800	0.373800
C2461	C246	0.280790	0.805770	0.357830
H6961	H696	0.246700	0.827900	0.372300
H6971	H697	0.277100	0.776500	0.359100
N421	N42	0.171420	0.626420	0.292240
H6981	H698	0.365900	0.442700	0.316500
H6991	H699	0.271000	0.509400	0.320400
C2471	C247	0.169890	0.580530	0.293910
H7001	H700	0.180200	0.581600	0.259200
H7011	H701	0.193900	0.549900	0.310300
C2481	C248	0.230180	0.708380	0.306120
H7021	H702	0.250100	0.677900	0.326900
H7031	H703	0.195100	0.708100	0.321500
H7041	H704	0.236700	0.754500	0.187300
C2491	C249	0.134890	0.672310	0.267090
H7051	H705	0.134400	0.703000	0.267400
H7061	H706	0.146600	0.675200	0.231400
C2501	C250	0.151360	0.626760	0.344840
H7071	H707	0.174300	0.598100	0.363500
H7081	H708	0.150400	0.658400	0.343600
H7091	H709	0.401600	0.476200	0.525600
C2511	C251	0.390060	0.509560	0.314040
H7101	H710	0.403400	0.521800	0.326000
H7111	H711	0.419100	0.488500	0.293500
H7121	H712	0.373800	0.498400	0.449000
C2521	C252	0.357830	0.555610	0.280790
H7131	H713	0.372300	0.553100	0.246700
H7141	H714	0.359100	0.587300	0.277100
N431	N43	0.909920	0.292240	0.626420
H7151	H715	0.874900	0.316500	0.442700
H7161	H716	0.899200	0.320400	0.509400
C2531	C253	0.955670	0.293910	0.580530
H7171	H717	0.979000	0.259200	0.581600
H7181	H718	0.945900	0.310300	0.549900
C2541	C254	0.755320	0.306120	0.708380
H7191	H719	0.745100	0.326900	0.677900
H7201	H720	0.775300	0.321500	0.708100
H7211	H721	0.821500	0.187300	0.754500
C2551	C255	0.925710	0.267090	0.672310
H7221	H722	0.895200	0.267400	0.703000
H7231	H723	0.946800	0.231400	0.675200
C2561	C256	0.877040	0.344840	0.626760
H7241	H724	0.864100	0.363500	0.598100
H7251	H725	0.847600	0.343600	0.658400
H7261	H726	0.596600	0.525600	0.476200
C2571	C257	0.786340	0.314040	0.509560
H7271	H727	0.748800	0.326000	0.521800
H7281	H728	0.798900	0.293500	0.488500
H7291	H729	0.678800	0.449000	0.498400
C2581	C258	0.805770	0.280790	0.555610
H7301	H730	0.827900	0.246700	0.553100
H7311	H731	0.776500	0.277100	0.587300
N441	N44	0.626420	0.171420	0.909920
H7321	H732	0.442700	0.365900	0.874900
H7331	H733	0.509400	0.271000	0.899200
C2591	C259	0.580530	0.169890	0.955670
H7341	H734	0.581600	0.180200	0.979000
H7351	H735	0.549900	0.193900	0.945900
C2601	C260	0.708380	0.230180	0.755320
H7361	H736	0.677900	0.250100	0.745100
H7371	H737	0.708100	0.195100	0.775300
H7381	H738	0.754500	0.236700	0.821500
C2611	C261	0.672310	0.134890	0.925710
H7391	H739	0.703000	0.134400	0.895200
H7401	H740	0.675200	0.146600	0.946800
C2621	C262	0.626760	0.151360	0.877040
H7411	H741	0.598100	0.174300	0.864100
H7421	H742	0.658400	0.150400	0.847600
H7431	H743	0.476200	0.401600	0.596600
C2631	C263	0.509560	0.390060	0.786340
H7441	H744	0.521800	0.403400	0.748800
H7451	H745	0.488500	0.419100	0.798900
H7461	H746	0.498400	0.373800	0.678800
C2641	C264	0.555610	0.357830	0.805770
H7471	H747	0.553100	0.372300	0.827900
H7481	H748	0.587300	0.359100	0.776500
N451	N45	0.626420	0.292240	0.171420
H7491	H749	0.442700	0.316500	0.365900
H7501	H750	0.509400	0.320400	0.271000
C2651	C265	0.580530	0.293910	0.169890
H7511	H751	0.581600	0.259200	0.180200
H7521	H752	0.549900	0.310300	0.193900
C2661	C266	0.708380	0.306120	0.230180
H7531	H753	0.677900	0.326900	0.250100
H7541	H754	0.708100	0.321500	0.195100
H7551	H755	0.754500	0.187300	0.236700
C2671	C267	0.672310	0.267090	0.134890
H7561	H756	0.703000	0.267400	0.134400
H7571	H757	0.675200	0.231400	0.146600
C2681	C268	0.626760	0.344840	0.151360
H7581	H758	0.598100	0.363500	0.174300
H7591	H759	0.658400	0.343600	0.150400
H7601	H760	0.476200	0.525600	0.401600
C2691	C269	0.509560	0.314040	0.390060
H7611	H761	0.521800	0.326000	0.403400
H7621	H762	0.488500	0.293500	0.419100
H7631	H763	0.498400	0.449000	0.373800
C2701	C270	0.555610	0.280790	0.357830
H7641	H764	0.553100	0.246700	0.372300
H7651	H765	0.587300	0.277100	0.359100
N461	N46	0.909920	0.171420	0.292240
H7661	H766	0.874900	0.365900	0.316500
H7671	H767	0.899200	0.271000	0.320400
C2711	C271	0.955670	0.169890	0.293910
H7681	H768	0.979000	0.180200	0.259200
H7691	H769	0.945900	0.193900	0.310300
C2721	C272	0.755320	0.230180	0.306120
H7701	H770	0.745100	0.250100	0.326900
H7711	H771	0.775300	0.195100	0.321500
H7721	H772	0.821500	0.236700	0.187300
C2731	C273	0.925710	0.134890	0.267090
H7731	H773	0.895200	0.134400	0.267400
H7741	H774	0.946800	0.146600	0.231400
C2741	C274	0.877040	0.151360	0.344840
H7751	H775	0.864100	0.174300	0.363500
H7761	H776	0.847600	0.150400	0.343600
H7771	H777	0.596600	0.401600	0.525600
C2751	C275	0.786340	0.390060	0.314040
H7781	H778	0.748800	0.403400	0.326000
H7791	H779	0.798900	0.419100	0.293500
H7801	H780	0.678800	0.373800	0.449000
C2761	C276	0.805770	0.357830	0.280790
H7811	H781	0.827900	0.372300	0.246700
H7821	H782	0.776500	0.359100	0.277100
N471	N47	0.171420	0.909920	0.626420
H7831	H783	0.365900	0.874900	0.442700
H7841	H784	0.271000	0.899200	0.509400
C2771	C277	0.169890	0.955670	0.580530
H7851	H785	0.180200	0.979000	0.581600
H7861	H786	0.193900	0.945900	0.549900
C2781	C278	0.230180	0.755320	0.708380
H7871	H787	0.250100	0.745100	0.677900
H7881	H788	0.195100	0.775300	0.708100
H7891	H789	0.236700	0.821500	0.754500
C2791	C279	0.134890	0.925710	0.672310
H7901	H790	0.134400	0.895200	0.703000
H7911	H791	0.146600	0.946800	0.675200
C2801	C280	0.151360	0.877040	0.626760
H7921	H792	0.174300	0.864100	0.598100
H7931	H793	0.150400	0.847600	0.658400
H7941	H794	0.401600	0.596600	0.476200
C2811	C281	0.390060	0.786340	0.509560
H7951	H795	0.403400	0.748800	0.521800
H7961	H796	0.419100	0.798900	0.488500
H7971	H797	0.373800	0.678800	0.498400
C2821	C282	0.357830	0.805770	0.555610
H7981	H798	0.372300	0.827900	0.553100
H7991	H799	0.359100	0.776500	0.587300
N481	N48	0.292240	0.626420	0.909920
H8001	H800	0.316500	0.442700	0.874900
H8011	H801	0.320400	0.509400	0.899200
C2831	C283	0.293910	0.580530	0.955670
H8021	H802	0.259200	0.581600	0.979000
H8031	H803	0.310300	0.549900	0.945900
C2841	C284	0.306120	0.708380	0.755320
H8041	H804	0.326900	0.677900	0.745100
H8051	H805	0.321500	0.708100	0.775300
H8061	H806	0.187300	0.754500	0.821500
C2851	C285	0.267090	0.672310	0.925710
H8071	H807	0.267400	0.703000	0.895200
H8081	H808	0.231400	0.675200	0.946800
C2861	C286	0.344840	0.626760	0.877040
H8091	H809	0.363500	0.598100	0.864100
H8101	H810	0.343600	0.658400	0.847600
H8111	H811	0.525600	0.476200	0.596600
C2871	C287	0.314040	0.509560	0.786340
H8121	H812	0.326000	0.521800	0.748800
H8131	H813	0.293500	0.488500	0.798900
H8141	H814	0.449000	0.498400	0.678800
C2881	C288	0.280790	0.555610	0.805770
H8151	H815	0.246700	0.553100	0.827900
H8161	H816	0.277100	0.587300	0.776500
Ag11	Ag1	0.860630	0.631950	0.253710
N491	N49	0.788270	0.706550	0.252590
N501	N50	0.834680	0.557720	0.303800
C2891	C289	0.861220	0.463380	0.337700
N511	N51	0.804430	0.478590	0.358490
C2901	C290	0.878100	0.510260	0.305820
C2911	C291	0.800930	0.753930	0.222570
Ag21	Ag2	0.631950	0.860630	0.253710
N521	N52	0.706550	0.788270	0.252590
N531	N53	0.557720	0.834680	0.303800
C2921	C292	0.463380	0.861220	0.337700
N541	N54	0.478590	0.804430	0.358490
C2931	C293	0.510260	0.878100	0.305820
C2941	C294	0.753930	0.800930	0.222570
Ag31	Ag3	0.253710	0.253710	0.860630
N551	N55	0.252590	0.252590	0.788270
N561	N56	0.303800	0.303800	0.834680
C2951	C295	0.337700	0.337700	0.861220
N571	N57	0.358490	0.358490	0.804430
C2961	C296	0.305820	0.305820	0.878100
C2971	C297	0.222570	0.222570	0.800930
Ag41	Ag4	0.253710	0.253710	0.631950
N581	N58	0.252590	0.252590	0.706550
N591	N59	0.303800	0.303800	0.557720
C2981	C298	0.337700	0.337700	0.463380
N601	N60	0.358490	0.358490	0.478590
C2991	C299	0.305820	0.305820	0.510260
C3001	C300	0.222570	0.222570	0.753930
Ag51	Ag5	0.253710	0.860630	0.631950
N611	N61	0.252590	0.788270	0.706550
N621	N62	0.303800	0.834680	0.557720
C3011	C301	0.337700	0.861220	0.463380
N631	N63	0.358490	0.804430	0.478590
C3021	C302	0.305820	0.878100	0.510260
C3031	C303	0.222570	0.800930	0.753930
Ag61	Ag6	0.253710	0.631950	0.860630
N641	N64	0.252590	0.706550	0.788270
N651	N65	0.303800	0.557720	0.834680
C3041	C304	0.337700	0.463380	0.861220
N661	N66	0.358490	0.478590	0.804430
C3051	C305	0.305820	0.510260	0.878100
C3061	C306	0.222570	0.753930	0.800930
Ag71	Ag7	0.860630	0.253710	0.253710
N671	N67	0.788270	0.252590	0.252590
N681	N68	0.834680	0.303800	0.303800
C3071	C307	0.861220	0.337700	0.337700
N691	N69	0.804430	0.358490	0.358490
C3081	C308	0.878100	0.305820	0.305820
C3091	C309	0.800930	0.222570	0.222570
Ag81	Ag8	0.631950	0.253710	0.253710
N701	N70	0.706550	0.252590	0.252590
N711	N71	0.557720	0.303800	0.303800
C3101	C310	0.463380	0.337700	0.337700
N721	N72	0.478590	0.358490	0.358490
C3111	C311	0.510260	0.305820	0.305820
C3121	C312	0.753930	0.222570	0.222570
Ag91	Ag9	0.631950	0.253710	0.860630
N731	N73	0.706550	0.252590	0.788270
N741	N74	0.557720	0.303800	0.834680
C3131	C313	0.463380	0.337700	0.861220
N751	N75	0.478590	0.358490	0.804430
C3141	C314	0.510260	0.305820	0.878100
C3151	C315	0.753930	0.222570	0.800930
Ag101	Ag10	0.860630	0.253710	0.631950
N761	N76	0.788270	0.252590	0.706550
N771	N77	0.834680	0.303800	0.557720
C3161	C316	0.861220	0.337700	0.463380
N781	N78	0.804430	0.358490	0.478590
C3171	C317	0.878100	0.305820	0.510260
C3181	C318	0.800930	0.222570	0.753930
Ag111	Ag11	0.253710	0.860630	0.253710
N791	N79	0.252590	0.788270	0.252590
N801	N80	0.303800	0.834680	0.303800
C3191	C319	0.337700	0.861220	0.337700
N811	N81	0.358490	0.804430	0.358490
C3201	C320	0.305820	0.878100	0.305820
C3211	C321	0.222570	0.800930	0.222570
Ag121	Ag12	0.253710	0.631950	0.253710
N821	N82	0.252590	0.706550	0.252590
N831	N83	0.303800	0.557720	0.303800
C3221	C322	0.337700	0.463380	0.337700
N841	N84	0.358490	0.478590	0.358490
C3231	C323	0.305820	0.510260	0.305820
C3241	C324	0.222570	0.753930	0.222570
Ag131	Ag13	0.389370	0.618050	0.996290
N851	N85	0.461730	0.543450	0.997410
N861	N86	0.415320	0.692280	0.946200
C3251	C325	0.388780	0.786620	0.912300
N871	N87	0.445570	0.771410	0.891510
C3261	C326	0.371900	0.739740	0.944180
C3271	C327	0.449070	0.496070	0.027430
Ag141	Ag14	0.618050	0.389370	0.996290
N881	N88	0.543450	0.461730	0.997410
N891	N89	0.692280	0.415320	0.946200
C3281	C328	0.786620	0.388780	0.912300
N901	N90	0.771410	0.445570	0.891510
C3291	C329	0.739740	0.371900	0.944180
C3301	C330	0.496070	0.449070	0.027430
Ag151	Ag15	0.996290	0.996290	0.618050
N911	N91	0.997410	0.997410	0.543450
N921	N92	0.946200	0.946200	0.692280
C3311	C331	0.912300	0.912300	0.786620
N931	N93	0.891510	0.891510	0.771410
C3321	C332	0.944180	0.944180	0.739740
C3331	C333	0.027430	0.027430	0.496070
Ag161	Ag16	0.996290	0.996290	0.389370
N941	N94	0.997410	0.997410	0.461730
N951	N95	0.946200	0.946200	0.415320
C3341	C334	0.912300	0.912300	0.388780
N961	N96	0.891510	0.891510	0.445570
C3351	C335	0.944180	0.944180	0.371900
C3361	C336	0.027430	0.027430	0.449070
Ag171	Ag17	0.996290	0.389370	0.996290
N971	N97	0.997410	0.461730	0.997410
N981	N98	0.946200	0.415320	0.946200
C3371	C337	0.912300	0.388780	0.912300
N991	N99	0.891510	0.445570	0.891510
C3381	C338	0.944180	0.371900	0.944180
C3391	C339	0.027430	0.449070	0.027430
Ag181	Ag18	0.996290	0.618050	0.996290
N1001	N100	0.997410	0.543450	0.997410
N1011	N101	0.946200	0.692280	0.946200
C3401	C340	0.912300	0.786620	0.912300
N1021	N102	0.891510	0.771410	0.891510
C3411	C341	0.944180	0.739740	0.944180
C3421	C342	0.027430	0.496070	0.027430
Ag191	Ag19	0.389370	0.996290	0.618050
N1031	N103	0.461730	0.997410	0.543450
N1041	N104	0.415320	0.946200	0.692280
C3431	C343	0.388780	0.912300	0.786620
N1051	N105	0.445570	0.891510	0.771410
C3441	C344	0.371900	0.944180	0.739740
C3451	C345	0.449070	0.027430	0.496070
Ag201	Ag20	0.618050	0.996290	0.389370
N1061	N106	0.543450	0.997410	0.461730
N1071	N107	0.692280	0.946200	0.415320
C3461	C346	0.786620	0.912300	0.388780
N1081	N108	0.771410	0.891510	0.445570
C3471	C347	0.739740	0.944180	0.371900
C3481	C348	0.496070	0.027430	0.449070
Ag211	Ag21	0.618050	0.996290	0.996290
N1091	N109	0.543450	0.997410	0.997410
N1101	N110	0.692280	0.946200	0.946200
C3491	C349	0.786620	0.912300	0.912300
N1111	N111	0.771410	0.891510	0.891510
C3501	C350	0.739740	0.944180	0.944180
C3511	C351	0.496070	0.027430	0.027430
Ag221	Ag22	0.389370	0.996290	0.996290
N1121	N112	0.461730	0.997410	0.997410
N1131	N113	0.415320	0.946200	0.946200
C3521	C352	0.388780	0.912300	0.912300
N1141	N114	0.445570	0.891510	0.891510
C3531	C353	0.371900	0.944180	0.944180
C3541	C354	0.449070	0.027430	0.027430
Ag231	Ag23	0.996290	0.389370	0.618050
N1151	N115	0.997410	0.461730	0.543450
N1161	N116	0.946200	0.415320	0.692280
C3551	C355	0.912300	0.388780	0.786620
N1171	N117	0.891510	0.445570	0.771410
C3561	C356	0.944180	0.371900	0.739740
C3571	C357	0.027430	0.449070	0.496070
Ag241	Ag24	0.996290	0.618050	0.389370
N1181	N118	0.997410	0.543450	0.461730
N1191	N119	0.946200	0.692280	0.415320
C3581	C358	0.912300	0.786620	0.388780
N1201	N120	0.891510	0.771410	0.445570
C3591	C359	0.944180	0.739740	0.371900
C3601	C360	0.027430	0.496070	0.449070
N1211	N121	0.688160	0.437280	0.437280
Ag251	Ag25	0.777990	0.407340	0.407340
N1221	N122	0.437280	0.688160	0.437280
Ag261	Ag26	0.407340	0.777990	0.407340
N1231	N123	0.437280	0.437280	0.688160
Ag271	Ag27	0.407340	0.407340	0.777990
N1241	N124	0.437280	0.437280	0.437280
Ag281	Ag28	0.407340	0.407340	0.407340
N1251	N125	0.561840	0.812720	0.812720
Ag291	Ag29	0.472010	0.842660	0.842660
N1261	N126	0.812720	0.561840	0.812720
Ag301	Ag30	0.842660	0.472010	0.842660
N1271	N127	0.812720	0.812720	0.812720
Ag311	Ag31	0.842660	0.842660	0.842660
N1281	N128	0.812720	0.812720	0.561840
Ag321	Ag32	0.842660	0.842660	0.472010
N1291	N129	0.589490	0.470170	0.470170
N1301	N130	0.470170	0.589490	0.470170
N1311	N131	0.470170	0.470170	0.589490
N1321	N132	0.470170	0.470170	0.470170
N1331	N133	0.660510	0.779830	0.779830
N1341	N134	0.779830	0.660510	0.779830
N1351	N135	0.779830	0.779830	0.779830
N1361	N136	0.779830	0.779830	0.660510
Ag331	Ag33	0.500000	0.500000	0.500000
Ag341	Ag34	0.750000	0.750000	0.750000
C3611	C361	0.609100	0.488200	0.488200
C3621	C362	0.488200	0.609100	0.414500
C3631	C363	0.488200	0.414500	0.609100
C3641	C364	0.414500	0.488200	0.488200
C3651	C365	0.488200	0.609100	0.488200
C3661	C366	0.414500	0.488200	0.609100
C3671	C367	0.609100	0.488200	0.414500
C3681	C368	0.488200	0.414500	0.488200
C3691	C369	0.488200	0.488200	0.609100
C3701	C370	0.609100	0.414500	0.488200
C3711	C371	0.414500	0.609100	0.488200
C3721	C372	0.488200	0.488200	0.414500
C3731	C373	0.640900	0.761800	0.835500
C3741	C374	0.761800	0.640900	0.761800
C3751	C375	0.761800	0.835500	0.761800
C3761	C376	0.835500	0.761800	0.640900
C3771	C377	0.761800	0.640900	0.835500
C3781	C378	0.835500	0.761800	0.761800
C3791	C379	0.640900	0.761800	0.761800
C3801	C380	0.761800	0.835500	0.640900
C3811	C381	0.761800	0.761800	0.835500
C3821	C382	0.640900	0.835500	0.761800
C3831	C383	0.835500	0.640900	0.761800
C3841	C384	0.761800	0.761800	0.640900
C3851	C385	0.666540	0.469100	0.469100
C3861	C386	0.469100	0.666540	0.395260
C3871	C387	0.469100	0.395260	0.666540
C3881	C388	0.395260	0.469100	0.469100
C3891	C389	0.469100	0.666540	0.469100
C3901	C390	0.395260	0.469100	0.666540
C3911	C391	0.666540	0.469100	0.395260
C3921	C392	0.469100	0.395260	0.469100
C3931	C393	0.469100	0.469100	0.666540
C3941	C394	0.666540	0.395260	0.469100
C3951	C395	0.395260	0.666540	0.469100
C3961	C396	0.469100	0.469100	0.395260
C3971	C397	0.583460	0.780900	0.854740
C3981	C398	0.780900	0.583460	0.780900
C3991	C399	0.780900	0.854740	0.780900
C4001	C400	0.854740	0.780900	0.583460
C4011	C401	0.780900	0.583460	0.854740
C4021	C402	0.854740	0.780900	0.780900
C4031	C403	0.583460	0.780900	0.780900
C4041	C404	0.780900	0.854740	0.583460
C4051	C405	0.780900	0.780900	0.854740
C4061	C406	0.583460	0.854740	0.780900
C4071	C407	0.854740	0.583460	0.780900
C4081	C408	0.780900	0.780900	0.583460
