data_cg5010616_si_003_freeONLY_PM
_symmetry_space_group_name_H-M	'P1'
_cell_length_a	9.652100
_cell_length_b	15.494600
_cell_length_c	15.494600
_cell_angle_alpha	64.194000
_cell_angle_beta	78.015600
_cell_angle_gamma	101.984000
_symmetry_Int_Tables_number 1

loop_
_symmetry_equiv_pos_as_xyz
'x,y,z'

loop_
_atom_site_label
_atom_site_type_symbol
_atom_site_fract_x
_atom_site_fract_y
_atom_site_fract_z
Fe11	Fe1	0.000000	0.500000	0.000000
Fe21	Fe2	0.000000	0.000000	0.500000
Fe31	Fe3	0.500000	0.500000	0.500000
Si11	Si1	0.500000	0.296760	0.296760
Si21	Si2	0.203240	0.703240	0.593520
Si31	Si3	0.796760	0.296760	0.406480
Si41	Si4	0.796760	0.593520	0.703240
Si51	Si5	0.203240	0.406480	0.296760
Si61	Si6	0.500000	0.703240	0.703240
H11	H1	0.393900	0.278900	0.572000
H21	H2	0.982500	0.278300	0.846700
H31	H3	0.295800	0.278300	0.875000
H41	H4	0.115000	0.721100	0.850900
H51	H5	0.704200	0.875000	0.278300
H61	H6	0.606100	0.721100	0.428000
H71	H7	0.115000	0.149100	0.278900
H81	H8	0.017500	0.721700	0.153300
H91	H9	0.295800	0.125000	0.721700
H101	H10	0.170800	0.875000	0.846700
H111	H11	0.965900	0.850900	0.428000
H121	H12	0.393900	0.428000	0.721100
H131	H13	0.170800	0.153300	0.125000
H141	H14	0.829200	0.846700	0.875000
H151	H15	0.829200	0.125000	0.153300
H161	H16	0.017500	0.846700	0.278300
H171	H17	0.885000	0.850900	0.721100
H181	H18	0.034100	0.149100	0.572000
H191	H19	0.885000	0.278900	0.149100
H201	H20	0.606100	0.572000	0.278900
H211	H21	0.034100	0.428000	0.850900
H221	H22	0.704200	0.721700	0.125000
H231	H23	0.965900	0.572000	0.149100
H241	H24	0.982500	0.153300	0.721700
C11	C1	0.903750	0.912110	0.721560
C21	C2	0.008360	0.912110	0.366330
C31	C3	0.684340	0.814470	0.276750
C41	C4	0.703060	0.398780	0.424100
C51	C5	0.315660	0.185530	0.723250
C61	C6	0.102250	0.815750	0.000000
C71	C7	0.096250	0.087890	0.278440
C81	C8	0.296940	0.424100	0.398780
C91	C9	0.897750	0.184250	0.000000
C101	C10	0.315660	0.276750	0.814470
C111	C11	0.903750	0.278440	0.087890
C121	C12	0.684340	0.723250	0.185530
C131	C13	0.223090	0.085840	0.914160
C141	C14	0.703060	0.575900	0.601220
C151	C15	0.304280	0.177120	0.398780
C161	C16	0.897750	0.000000	0.815750
C171	C17	0.872840	0.177120	0.424100
C181	C18	0.991640	0.087890	0.633670
C191	C19	0.961090	0.091220	0.723250
C201	C20	0.038910	0.908780	0.276750
C211	C21	0.713500	0.815750	0.184250
C221	C22	0.304280	0.601220	0.822880
C231	C23	0.695720	0.398780	0.177120
C241	C24	0.991640	0.366330	0.912110
C251	C25	0.862750	0.085840	0.000000
C261	C26	0.127160	0.822880	0.575900
C271	C27	0.625310	0.633670	0.278440
C281	C28	0.130130	0.814470	0.908780
C291	C29	0.869870	0.185530	0.091220
C301	C30	0.374690	0.278440	0.633670
C311	C31	0.008360	0.633670	0.087890
C321	C32	0.872840	0.575900	0.822880
C331	C33	0.296940	0.601220	0.575900
C341	C34	0.776910	0.914160	0.085840
C351	C35	0.961090	0.276750	0.908780
C361	C36	0.286500	0.184250	0.815750
C371	C37	0.096250	0.721560	0.912110
C381	C38	0.038910	0.723250	0.091220
C391	C39	0.102250	0.000000	0.184250
C401	C40	0.869870	0.908780	0.814470
C411	C41	0.695720	0.822880	0.601220
C421	C42	0.130130	0.091220	0.185530
C431	C43	0.127160	0.424100	0.177120
C441	C44	0.137250	0.000000	0.085840
C451	C45	0.137250	0.914160	0.000000
C461	C46	0.862750	0.000000	0.914160
C471	C47	0.374690	0.366330	0.721560
C481	C48	0.625310	0.721560	0.366330
N11	N1	0.636280	0.442460	0.450020
N21	N2	0.804080	0.000000	0.090760
N31	N3	0.193820	0.557540	0.892480
N41	N4	0.894840	0.090760	0.909240
N51	N5	0.363720	0.557540	0.549980
N61	N6	0.636280	0.549980	0.557540
N71	N7	0.086300	0.450020	0.107520
N81	N8	0.105160	0.909240	0.090760
N91	N9	0.195920	0.000000	0.909240
N101	N10	0.405550	0.368230	0.631770
N111	N11	0.594450	0.631770	0.368230
N121	N12	0.363720	0.450020	0.442460
N131	N13	0.086300	0.892480	0.549980
N141	N14	0.806180	0.442460	0.107520
N151	N15	0.037320	0.000000	0.368230
N161	N16	0.806180	0.892480	0.557540
N171	N17	0.193820	0.107520	0.442460
N181	N18	0.037320	0.631770	0.000000
N191	N19	0.913700	0.107520	0.450020
N201	N20	0.804080	0.909240	0.000000
N211	N21	0.962680	0.368230	0.000000
N221	N22	0.913700	0.549980	0.892480
N231	N23	0.195920	0.090760	0.000000
N241	N24	0.962680	0.000000	0.631770
