data_cg501560z_si_002_freeONLY_PM
_symmetry_space_group_name_H-M	'P1'
_cell_length_a	22.837800
_cell_length_b	24.883400
_cell_length_c	24.380200
_cell_angle_alpha	105.497000
_cell_angle_beta	90.000000
_cell_angle_gamma	90.000000
_symmetry_Int_Tables_number 1

loop_
_symmetry_equiv_pos_as_xyz
'x,y,z'

loop_
_atom_site_label
_atom_site_type_symbol
_atom_site_fract_x
_atom_site_fract_y
_atom_site_fract_z
Mn11	Mn1	0.702780	0.916080	0.059650
Mn21	Mn2	0.315440	0.242320	0.502840
Mn31	Mn3	0.684560	0.757680	0.497160
Mn41	Mn4	0.057890	0.500000	0.750000
Mn51	Mn5	0.702980	0.570060	0.945910
Mn61	Mn6	0.297020	0.570060	0.445910
Mn71	Mn7	0.062840	0.000000	0.250000
Mn81	Mn8	0.297220	0.083920	0.940350
Mn91	Mn9	0.297220	0.916080	0.559650
Mn101	Mn10	0.315440	0.757680	0.997160
Mn111	Mn11	0.702780	0.083920	0.440350
Mn121	Mn12	0.297020	0.429940	0.054090
Mn131	Mn13	0.684560	0.242320	0.002840
Mn141	Mn14	0.937160	0.000000	0.750000
Mn151	Mn15	0.702980	0.429940	0.554090
Mn161	Mn16	0.942110	0.500000	0.250000
Cr11	Cr1	0.788060	0.959140	0.571580
Cr21	Cr2	0.448120	0.256270	0.000190
Cr31	Cr3	0.205540	0.440260	0.570640
Cr41	Cr4	0.178920	0.500000	0.250000
Cr51	Cr5	0.211940	0.959140	0.071580
Cr61	Cr6	0.448120	0.743730	0.499810
Cr71	Cr7	0.205540	0.559740	0.929360
Cr81	Cr8	0.794460	0.440260	0.070640
Cr91	Cr9	0.172990	0.000000	0.750000
Cr101	Cr10	0.794460	0.559740	0.429360
Cr111	Cr11	0.827010	0.000000	0.250000
Cr121	Cr12	0.788060	0.040860	0.928420
Cr131	Cr13	0.821080	0.500000	0.750000
Cr141	Cr14	0.551880	0.743730	0.999810
Cr151	Cr15	0.551880	0.256270	0.500190
Cr161	Cr16	0.211940	0.040860	0.428420
C11	C1	0.751400	0.141400	0.994600
C21	C2	0.603000	0.842500	0.053000
C31	C3	0.268500	0.138900	0.432600
C41	C4	0.737700	0.655600	0.428700
C51	C5	0.561200	0.234800	0.025400
C61	C6	0.279900	0.501800	0.980600
C71	C7	0.602200	0.642800	0.949800
C81	C8	0.850800	0.498800	0.166400
C91	C9	0.638000	0.181900	0.501500
C101	C10	0.936400	0.479000	0.768300
C111	C11	0.778600	0.929300	0.156000
C121	C12	0.240700	0.338000	0.508700
C131	C13	0.250800	0.013000	0.837300
C141	C14	0.941800	0.019800	0.230200
C151	C15	0.846600	0.009000	0.670200
C161	C16	0.941800	0.980200	0.269800
C171	C17	0.248600	0.858600	0.005400
C181	C18	0.435100	0.734900	0.022300
C191	C19	0.255400	0.494600	0.162700
C201	C20	0.751400	0.858600	0.505400
C211	C21	0.397800	0.642800	0.449800
C221	C22	0.603000	0.157500	0.447000
C231	C23	0.220200	0.033200	0.007800
C241	C24	0.365000	0.333400	0.993900
C251	C25	0.783400	0.487000	0.494400
C261	C26	0.362000	0.181900	0.001500
C271	C27	0.216600	0.487000	0.994400
C281	C28	0.250800	0.987000	0.662700
C291	C29	0.720100	0.498200	0.019400
C301	C30	0.268500	0.861100	0.067400
C311	C31	0.111000	0.446500	0.641300
C321	C32	0.435100	0.265100	0.477700
C331	C33	0.564900	0.734900	0.522300
C341	C34	0.216600	0.513000	0.505600
C351	C35	0.731500	0.861100	0.567400
C361	C36	0.561200	0.765200	0.474600
C371	C37	0.759300	0.662000	0.491300
C381	C38	0.889000	0.553500	0.358700
C391	C39	0.063600	0.479000	0.268300
C401	C40	0.221400	0.929300	0.656000
C411	C41	0.638000	0.818100	0.998500
C421	C42	0.362000	0.818100	0.498500
C431	C43	0.397800	0.357200	0.050200
C441	C44	0.749200	0.987000	0.162700
C451	C45	0.262300	0.655600	0.928700
C461	C46	0.058200	0.980200	0.769800
C471	C47	0.716700	0.019600	0.522100
C481	C48	0.255400	0.505400	0.337300
C491	C49	0.759300	0.338000	0.008700
C501	C50	0.240700	0.662000	0.991300
C511	C51	0.365000	0.666600	0.506100
C521	C52	0.438800	0.765200	0.974600
C531	C53	0.779800	0.033200	0.507800
C541	C54	0.397000	0.842500	0.553000
C551	C55	0.783400	0.513000	0.005600
C561	C56	0.283300	0.019600	0.022100
C571	C57	0.779800	0.966800	0.992200
C581	C58	0.635000	0.666600	0.006100
C591	C59	0.775100	0.436300	0.650800
C601	C60	0.058200	0.019800	0.730200
C611	C61	0.117400	0.956700	0.139400
C621	C62	0.283300	0.980400	0.477900
C631	C63	0.744600	0.505400	0.837300
C641	C64	0.602200	0.357200	0.550200
C651	C65	0.111000	0.553500	0.858700
C661	C66	0.846600	0.991000	0.829800
C671	C67	0.248600	0.141400	0.494600
C681	C68	0.149200	0.501200	0.833600
C691	C69	0.720100	0.501800	0.480600
C701	C70	0.564900	0.265100	0.977700
C711	C71	0.221400	0.070700	0.844000
C721	C72	0.153400	0.991000	0.329800
C731	C73	0.438800	0.234800	0.525400
C741	C74	0.778600	0.070700	0.344000
C751	C75	0.220200	0.966800	0.492200
C761	C76	0.889000	0.446500	0.141300
C771	C77	0.882600	0.956700	0.639400
C781	C78	0.224900	0.563700	0.349200
C791	C79	0.775100	0.563700	0.849200
C801	C80	0.397000	0.157500	0.947000
C811	C81	0.737700	0.344400	0.071300
C821	C82	0.635000	0.333400	0.493900
C831	C83	0.744600	0.494600	0.662700
C841	C84	0.716700	0.980400	0.977900
C851	C85	0.731500	0.138900	0.932600
C861	C86	0.063600	0.521000	0.231700
C871	C87	0.749200	0.013000	0.337300
C881	C88	0.262300	0.344400	0.571300
C891	C89	0.850800	0.501200	0.333600
C901	C90	0.224900	0.436300	0.150800
C911	C91	0.149200	0.498800	0.666400
C921	C92	0.117400	0.043300	0.360600
C931	C93	0.882600	0.043300	0.860600
C941	C94	0.279900	0.498200	0.519400
C951	C95	0.936400	0.521000	0.731700
C961	C96	0.153400	0.009000	0.170200
O11	O1	0.297100	0.177200	0.424600
O21	O2	0.388200	0.709600	0.538800
O31	O3	0.803700	0.501400	0.140500
O41	O4	0.865800	0.040100	0.714800
O51	O5	0.134200	0.959900	0.285200
O61	O6	0.180100	0.989500	0.469900
O71	O7	0.322000	0.517100	0.499500
O81	O8	0.252000	0.905300	0.104900
O91	O9	0.674900	0.962900	0.001100
O101	O10	0.678000	0.482900	0.500500
O111	O11	0.315800	0.158600	0.008800
O121	O12	0.239800	0.111200	0.881600
O131	O13	0.282900	0.466000	0.552700
O141	O14	0.711200	0.991100	0.128100
O151	O15	0.819300	0.928400	0.190800
O161	O16	0.618600	0.402000	0.582400
O171	O17	0.210000	0.377200	0.502300
O181	O18	0.180700	0.928400	0.690800
O191	O19	0.983700	0.538200	0.719400
O201	O20	0.108100	0.969400	0.786230
O211	O21	0.134600	0.068200	0.409720
O221	O22	0.211300	0.454200	0.024200
O231	O23	0.761300	0.470400	0.792400
O241	O24	0.128000	0.417100	0.593200
O251	O25	0.114300	0.533500	0.216500
O261	O26	0.114300	0.466500	0.283500
O271	O27	0.200100	0.984200	0.355200
O281	O28	0.386800	0.727700	0.040500
O291	O29	0.865400	0.068200	0.909720
O301	O30	0.760200	0.888800	0.118400
O311	O31	0.184600	0.567200	0.314100
O321	O32	0.824000	0.489800	0.026100
O331	O33	0.869500	0.466400	0.290400
O341	O34	0.679100	0.357900	0.484800
O351	O35	0.790000	0.622800	0.497700
O361	O36	0.176000	0.489800	0.526100
O371	O37	0.819900	0.010500	0.530100
O381	O38	0.288800	0.991100	0.628100
O391	O39	0.745500	0.295500	0.972400
O401	O40	0.872000	0.582900	0.406800
O411	O41	0.010500	0.962280	0.781600
O421	O42	0.252000	0.094700	0.395100
O431	O43	0.815400	0.567200	0.814100
O441	O44	0.707900	0.498400	0.871000
O451	O45	0.758700	0.601200	0.890500
O461	O46	0.241300	0.398800	0.109500
O471	O47	0.515500	0.720200	0.537600
O481	O48	0.872000	0.417100	0.093200
O491	O49	0.509100	0.772800	0.459000
O501	O50	0.441200	0.185100	0.940470
O511	O51	0.678000	0.517100	0.999500
O521	O52	0.606300	0.778500	0.455300
O531	O53	0.515500	0.279800	0.962400
O541	O54	0.748000	0.905300	0.604900
O551	O55	0.282900	0.534000	0.947300
O561	O56	0.613200	0.727700	0.540500
O571	O57	0.381400	0.402000	0.082400
O581	O58	0.441300	0.671300	0.441000
O591	O59	0.490900	0.227200	0.541000
O601	O60	0.679100	0.642100	0.015200
O611	O61	0.611800	0.290400	0.461200
O621	O62	0.931100	0.563100	0.331300
O631	O63	0.779900	0.099900	0.000300
O641	O64	0.238700	0.529600	0.207600
O651	O65	0.779900	0.900100	0.499700
O661	O66	0.815400	0.432800	0.685900
O671	O67	0.983700	0.461800	0.780600
O681	O68	0.180700	0.071600	0.809200
O691	O69	0.134600	0.931800	0.090280
O701	O70	0.232700	0.024900	0.704100
O711	O71	0.717100	0.534000	0.447300
O721	O72	0.293500	0.307300	0.580400
O731	O73	0.134200	0.040100	0.214800
O741	O74	0.737100	0.182700	0.032500
O751	O75	0.484500	0.720200	0.037600
O761	O76	0.130500	0.466400	0.790400
O771	O77	0.712100	0.990200	0.556800
O781	O78	0.388200	0.290400	0.961200
O791	O79	0.074800	0.056200	0.335200
O801	O80	0.755300	0.612000	0.392800
O811	O81	0.288800	0.008900	0.871900
O821	O82	0.788700	0.545800	0.975800
O831	O83	0.787300	0.935000	0.022700
O841	O84	0.292100	0.501600	0.129000
O851	O85	0.684200	0.841400	0.991200
O861	O86	0.748000	0.094700	0.895100
O871	O87	0.325100	0.037100	0.998900
O881	O88	0.737100	0.817300	0.467500
O891	O89	0.287900	0.009800	0.443200
O901	O90	0.799900	0.984200	0.855200
O911	O91	0.702900	0.822800	0.575400
O921	O92	0.176000	0.510200	0.973900
O931	O93	0.891900	0.969400	0.286230
O941	O94	0.196300	0.501400	0.640500
O951	O95	0.293500	0.692700	0.919600
O961	O96	0.262900	0.182700	0.532500
O971	O97	0.619400	0.887400	0.085400
O981	O98	0.925200	0.943800	0.664800
O991	O99	0.381400	0.598000	0.417600
O1001	O100	0.824000	0.510200	0.473900
O1011	O101	0.325100	0.962900	0.501100
O1021	O102	0.787300	0.065000	0.477300
O1031	O103	0.606300	0.221500	0.044700
O1041	O104	0.799900	0.015800	0.644800
O1051	O105	0.788700	0.454200	0.524200
O1061	O106	0.885700	0.533500	0.716500
O1071	O107	0.706500	0.692700	0.419600
O1081	O108	0.745500	0.704500	0.527600
O1091	O109	0.619400	0.112600	0.414600
O1101	O110	0.130500	0.533600	0.709600
O1111	O111	0.790000	0.377200	0.002300
O1121	O112	0.711200	0.008900	0.371900
O1131	O113	0.068900	0.436900	0.668700
O1141	O114	0.618600	0.598000	0.917600
O1151	O115	0.211300	0.545800	0.475800
O1161	O116	0.819300	0.071600	0.309200
O1171	O117	0.212700	0.935000	0.522700
O1181	O118	0.611800	0.709600	0.038800
O1191	O119	0.196300	0.498600	0.859500
O1201	O120	0.210000	0.622800	0.997700
O1211	O121	0.803700	0.498600	0.359500
O1221	O122	0.315800	0.841400	0.491200
O1231	O123	0.383100	0.225300	0.035860
O1241	O124	0.241300	0.601200	0.390500
O1251	O125	0.865800	0.959900	0.785200
O1261	O126	0.386800	0.272300	0.459500
O1271	O127	0.068900	0.563100	0.831300
O1281	O128	0.558800	0.185100	0.440470
O1291	O129	0.613200	0.272300	0.959500
O1301	O130	0.931100	0.436900	0.168700
O1311	O131	0.616900	0.774700	0.964140
O1321	O132	0.767300	0.024900	0.204100
O1331	O133	0.380600	0.887400	0.585400
O1341	O134	0.220100	0.900100	0.999700
O1351	O135	0.865400	0.931800	0.590280
O1361	O136	0.885700	0.466500	0.783500
O1371	O137	0.761300	0.529600	0.707600
O1381	O138	0.484500	0.279800	0.462400
O1391	O139	0.292100	0.498400	0.371000
O1401	O140	0.755300	0.388000	0.107200
O1411	O141	0.262900	0.817300	0.967500
O1421	O142	0.184600	0.432800	0.185900
O1431	O143	0.010500	0.037720	0.718400
O1441	O144	0.717100	0.466000	0.052700
O1451	O145	0.925200	0.056200	0.835200
O1461	O146	0.320900	0.357900	0.984800
O1471	O147	0.706500	0.307300	0.080400
O1481	O148	0.558800	0.814900	0.059530
O1491	O149	0.220100	0.099900	0.500300
O1501	O150	0.297100	0.822800	0.075400
O1511	O151	0.441200	0.814900	0.559530
O1521	O152	0.712100	0.009800	0.943200
O1531	O153	0.684200	0.158600	0.508800
O1541	O154	0.767300	0.975100	0.295900
O1551	O155	0.891900	0.030600	0.213770
O1561	O156	0.108100	0.030600	0.713770
O1571	O157	0.616900	0.225300	0.535860
O1581	O158	0.760200	0.111200	0.381600
O1591	O159	0.287900	0.990200	0.056800
O1601	O160	0.254500	0.295500	0.472400
O1611	O161	0.254500	0.704500	0.027600
O1621	O162	0.200100	0.015800	0.144800
O1631	O163	0.320900	0.642100	0.515200
O1641	O164	0.393700	0.221500	0.544700
O1651	O165	0.989500	0.037720	0.218400
O1661	O166	0.441300	0.328700	0.059000
O1671	O167	0.707900	0.501600	0.629000
O1681	O168	0.558700	0.671300	0.941000
O1691	O169	0.212700	0.065000	0.977300
O1701	O170	0.380600	0.112600	0.914600
O1711	O171	0.819900	0.989500	0.969900
O1721	O172	0.244700	0.388000	0.607200
O1731	O173	0.128000	0.582900	0.906800
O1741	O174	0.674900	0.037100	0.498900
O1751	O175	0.074800	0.943800	0.164800
O1761	O176	0.180100	0.010500	0.030100
O1771	O177	0.558700	0.328700	0.559000
O1781	O178	0.238700	0.470400	0.292400
O1791	O179	0.509100	0.227200	0.041000
O1801	O180	0.989500	0.962280	0.281600
O1811	O181	0.758700	0.398800	0.609500
O1821	O182	0.702900	0.177200	0.924600
O1831	O183	0.490900	0.772800	0.959000
O1841	O184	0.869500	0.533600	0.209600
O1851	O185	0.393700	0.778500	0.955300
O1861	O186	0.322000	0.482900	0.000500
O1871	O187	0.232700	0.975100	0.795900
O1881	O188	0.383100	0.774700	0.464140
O1891	O189	0.239800	0.888800	0.618400
O1901	O190	0.016300	0.461800	0.280600
O1911	O191	0.244700	0.612000	0.892800
O1921	O192	0.016300	0.538200	0.219400
