data_cg5b00056_si_004_freeONLY_PM
_symmetry_space_group_name_H-M	'P1'
_cell_length_a	19.935600
_cell_length_b	19.935600
_cell_length_c	20.358300
_cell_angle_alpha	60.684500
_cell_angle_beta	60.684500
_cell_angle_gamma	60.000000
_symmetry_Int_Tables_number 1

loop_
_symmetry_equiv_pos_as_xyz
'x,y,z'

loop_
_atom_site_label
_atom_site_type_symbol
_atom_site_fract_x
_atom_site_fract_y
_atom_site_fract_z
Mn11	Mn1	0.269490	0.230510	0.750000
Mn21	Mn2	0.230510	0.750000	0.750000
Mn31	Mn3	0.730510	0.769490	0.250000
Mn41	Mn4	0.769490	0.250000	0.250000
Mn51	Mn5	0.750000	0.269490	0.750000
Mn61	Mn6	0.250000	0.730510	0.250000
H11	H1	0.055600	0.542200	0.953500
H21	H2	0.403400	0.115800	0.832900
H31	H3	0.189500	0.041800	0.883600
H41	H4	0.555600	0.948700	0.453500
H51	H5	0.960400	0.163500	0.027600
H61	H6	0.016300	0.922300	0.276600
H71	H7	0.983700	0.077700	0.723400
H81	H8	0.663500	0.460400	0.527600
H91	H9	0.247400	0.351800	0.493400
H101	H10	0.747400	0.407400	0.993400
H111	H11	0.384200	0.096600	0.667100
H121	H12	0.330000	0.623800	0.403400
H131	H13	0.839600	0.080500	0.775900
H141	H14	0.922300	0.784800	0.276600
H151	H15	0.348500	0.663500	0.527600
H161	H16	0.124700	0.705700	0.447800
H171	H17	0.670000	0.376200	0.596600
H181	H18	0.187900	0.563400	0.660800
H191	H19	0.199800	0.301500	0.575600
H201	H20	0.875100	0.899100	0.931600
H211	H21	0.339600	0.804000	0.275900
H221	H22	0.196000	0.419500	0.724100
H231	H23	0.912100	0.936600	0.839200
H241	H24	0.221800	0.205700	0.947800
H251	H25	0.699800	0.423100	0.075600
H261	H26	0.070400	0.490800	0.527600
H271	H27	0.092600	0.752600	0.506600
H281	H28	0.592600	0.148200	0.006600
H291	H29	0.160400	0.919500	0.224100
H301	H30	0.042200	0.555600	0.453500
H311	H31	0.032400	0.396300	0.048900
H321	H32	0.460400	0.348500	0.527600
H331	H33	0.412100	0.812100	0.339200
H341	H34	0.088800	0.929600	0.472400
H351	H35	0.687900	0.087900	0.160800
H361	H36	0.901600	0.381900	0.874600
H371	H37	0.948700	0.042200	0.453500
H381	H38	0.551300	0.944400	0.046500
H391	H39	0.715200	0.577700	0.223400
H401	H40	0.615800	0.903400	0.332900
H411	H41	0.794200	0.399100	0.431600
H421	H42	0.848500	0.960400	0.027600
H431	H43	0.310500	0.614900	0.616400
H441	H44	0.642800	0.330000	0.403400
H451	H45	0.778200	0.794300	0.052200
H461	H46	0.648200	0.092600	0.506600
H471	H47	0.658100	0.118100	0.625400
H481	H48	0.436600	0.412100	0.339200
H491	H49	0.458200	0.310500	0.616400
H501	H50	0.810500	0.958200	0.116400
H511	H51	0.357200	0.670000	0.596600
H521	H52	0.114900	0.810500	0.116400
H531	H53	0.100900	0.705800	0.068400
H541	H54	0.563400	0.587900	0.660800
H551	H55	0.341900	0.881900	0.374600
H561	H56	0.647900	0.403400	0.832900
H571	H57	0.448700	0.055600	0.953500
H581	H58	0.063400	0.687900	0.160800
H591	H59	0.142800	0.123800	0.903400
H601	H60	0.794300	0.375300	0.052200
H611	H61	0.304000	0.839600	0.775900
H621	H62	0.907400	0.247400	0.493400
H631	H63	0.022400	0.896300	0.548900
H641	H64	0.123800	0.830000	0.903400
H651	H65	0.721800	0.124700	0.447800
H661	H66	0.624900	0.205800	0.568400
H671	H67	0.588800	0.009200	0.972400
H681	H68	0.541800	0.689500	0.383600
H691	H69	0.087900	0.063400	0.160800
H701	H70	0.881900	0.401600	0.374600
H711	H71	0.990800	0.570400	0.027600
H721	H72	0.600900	0.624900	0.568400
H731	H73	0.115800	0.647900	0.832900
H741	H74	0.689500	0.385100	0.383600
H751	H75	0.385100	0.541800	0.383600
H761	H76	0.804000	0.580500	0.275900
H771	H77	0.376200	0.357200	0.596600
H781	H78	0.899100	0.294200	0.931600
H791	H79	0.614900	0.458200	0.616400
H801	H80	0.603700	0.477600	0.951100
H811	H81	0.903400	0.147900	0.332900
H821	H82	0.444400	0.051300	0.546500
H831	H83	0.852100	0.384200	0.667100
H841	H84	0.077700	0.215200	0.723400
H851	H85	0.752600	0.648200	0.506600
H861	H86	0.570400	0.411200	0.027600
H871	H87	0.876200	0.170000	0.096600
H881	H88	0.457800	0.551300	0.046500
H891	H89	0.923100	0.199800	0.575600
H901	H90	0.300200	0.576900	0.924400
H911	H91	0.076900	0.800200	0.424400
H921	H92	0.041800	0.885100	0.883600
H931	H93	0.967600	0.603700	0.951100
H941	H94	0.698500	0.076900	0.424400
H951	H95	0.857200	0.876200	0.096600
H961	H96	0.205800	0.600900	0.568400
H971	H97	0.812100	0.436600	0.339200
H981	H98	0.929600	0.509200	0.472400
H991	H99	0.651500	0.336500	0.472400
H1001	H100	0.896300	0.532400	0.548900
H1011	H101	0.851800	0.747400	0.993400
H1021	H102	0.885100	0.189500	0.883600
H1031	H103	0.301500	0.923100	0.575600
H1041	H104	0.158100	0.098400	0.125400
H1051	H105	0.423100	0.801500	0.075600
H1061	H106	0.252600	0.592600	0.006600
H1071	H107	0.098400	0.618100	0.125400
H1081	H108	0.884200	0.352100	0.167100
H1091	H109	0.336500	0.539600	0.472400
H1101	H110	0.284800	0.422300	0.776600
H1111	H111	0.118100	0.598400	0.625400
H1121	H112	0.919500	0.696000	0.224100
H1131	H113	0.696000	0.160400	0.224100
H1141	H114	0.419500	0.660400	0.724100
H1151	H115	0.352100	0.596600	0.167100
H1161	H116	0.422300	0.516300	0.776600
H1171	H117	0.381900	0.841900	0.874600
H1181	H118	0.958200	0.114900	0.116400
H1191	H119	0.051300	0.957800	0.546500
H1201	H120	0.660400	0.196000	0.724100
H1211	H121	0.483700	0.715200	0.223400
H1221	H122	0.294200	0.875100	0.931600
H1231	H123	0.801500	0.699800	0.075600
H1241	H124	0.375300	0.778200	0.052200
H1251	H125	0.516300	0.284800	0.776600
H1261	H126	0.148200	0.252600	0.006600
H1271	H127	0.841900	0.901600	0.874600
H1281	H128	0.830000	0.142800	0.903400
H1291	H129	0.705800	0.124900	0.068400
H1301	H130	0.539600	0.651500	0.472400
H1311	H131	0.587900	0.187900	0.660800
H1321	H132	0.957800	0.444400	0.546500
H1331	H133	0.532400	0.022400	0.548900
H1341	H134	0.215200	0.983700	0.723400
H1351	H135	0.039600	0.836500	0.972400
H1361	H136	0.205700	0.624700	0.947800
H1371	H137	0.800200	0.698500	0.424400
H1381	H138	0.198500	0.300200	0.924400
H1391	H139	0.124900	0.100900	0.068400
H1401	H140	0.312100	0.912100	0.839200
H1411	H141	0.477600	0.967600	0.951100
H1421	H142	0.542200	0.448700	0.953500
H1431	H143	0.009200	0.429600	0.972400
H1441	H144	0.170000	0.857200	0.096600
H1451	H145	0.351800	0.907400	0.493400
H1461	H146	0.096600	0.852100	0.667100
H1471	H147	0.407400	0.851800	0.993400
H1481	H148	0.490800	0.911200	0.527600
H1491	H149	0.151500	0.039600	0.972400
H1501	H150	0.147900	0.615800	0.332900
H1511	H151	0.580500	0.339600	0.275900
H1521	H152	0.911200	0.070400	0.527600
H1531	H153	0.875300	0.294300	0.552200
H1541	H154	0.784800	0.016300	0.276600
H1551	H155	0.623800	0.642800	0.403400
H1561	H156	0.399100	0.375100	0.431600
H1571	H157	0.103700	0.467600	0.451100
H1581	H158	0.375100	0.794200	0.431600
H1591	H159	0.294300	0.278200	0.552200
H1601	H160	0.411200	0.990800	0.027600
H1611	H161	0.577700	0.483700	0.223400
H1621	H162	0.401600	0.341900	0.374600
H1631	H163	0.836500	0.151500	0.972400
H1641	H164	0.396300	0.522400	0.048900
H1651	H165	0.278200	0.875300	0.552200
H1661	H166	0.944400	0.457800	0.046500
H1671	H167	0.598400	0.658100	0.625400
H1681	H168	0.576900	0.198500	0.924400
H1691	H169	0.467600	0.977600	0.451100
H1701	H170	0.509200	0.088800	0.472400
H1711	H171	0.596600	0.884200	0.167100
H1721	H172	0.977600	0.103700	0.451100
H1731	H173	0.624700	0.221800	0.947800
H1741	H174	0.936600	0.312100	0.839200
H1751	H175	0.429600	0.588800	0.972400
H1761	H176	0.163500	0.848500	0.027600
H1771	H177	0.522400	0.032400	0.048900
H1781	H178	0.080500	0.304000	0.775900
H1791	H179	0.705700	0.721800	0.447800
H1801	H180	0.618100	0.158100	0.125400
C11	C1	0.972780	0.916480	0.276660
C21	C2	0.933990	0.235890	0.086430
C31	C3	0.203350	0.785850	0.528950
C41	C4	0.177260	0.256260	0.951520
C51	C5	0.334080	0.416480	0.776660
C61	C6	0.665920	0.583520	0.223340
C71	C7	0.271790	0.693880	0.913960
C81	C8	0.536200	0.232100	0.447500
C91	C9	0.987440	0.699140	0.113880
C101	C10	0.199140	0.487440	0.613880
C111	C11	0.017630	0.158080	0.723310
C121	C12	0.568000	0.678000	0.418700
C131	C13	0.175570	0.570070	0.617390
C141	C14	0.664700	0.432000	0.581300
C151	C15	0.764110	0.256310	0.913570
C161	C16	0.570070	0.636970	0.617390
C171	C17	0.899020	0.982370	0.276690
C181	C18	0.322740	0.885040	0.548480
C191	C19	0.114960	0.756260	0.451520
C201	C20	0.038990	0.657490	0.937930
C211	C21	0.399020	0.341920	0.776690
C221	C22	0.756260	0.677260	0.451520
C231	C23	0.703350	0.981850	0.028950
C241	C24	0.100980	0.017630	0.723310
C251	C25	0.243690	0.735890	0.586430
C261	C26	0.784200	0.536200	0.447500
C271	C27	0.120370	0.271790	0.913960
C281	C28	0.636970	0.175570	0.617390
C291	C29	0.306120	0.879630	0.086040
C301	C30	0.938770	0.228870	0.720490
C311	C31	0.215800	0.463800	0.552500
C321	C32	0.715800	0.267900	0.052500
C331	C33	0.806120	0.228210	0.586040
C341	C34	0.324430	0.863030	0.882610
C351	C35	0.068340	0.912840	0.529580
C361	C36	0.158080	0.100980	0.723310
C371	C37	0.285850	0.703350	0.028950
C381	C38	0.036200	0.284200	0.947500
C391	C39	0.517630	0.600980	0.223310
C401	C40	0.561230	0.388130	0.779510
C411	C41	0.412840	0.568340	0.029580
C421	C42	0.929930	0.324430	0.882610
C431	C43	0.771130	0.888130	0.279510
C441	C44	0.300860	0.800460	0.886120
C451	C45	0.136970	0.070070	0.117390
C461	C46	0.027220	0.083520	0.723340
C471	C47	0.583520	0.527220	0.223340
C481	C48	0.018150	0.714150	0.971050
C491	C49	0.756310	0.264110	0.413570
C501	C50	0.743740	0.385040	0.048480
C511	C51	0.658080	0.517630	0.223310
C521	C52	0.070070	0.675570	0.117390
C531	C53	0.834080	0.972780	0.276660
C541	C54	0.728210	0.306120	0.086040
C551	C55	0.228210	0.379630	0.586040
C561	C56	0.879630	0.728210	0.086040
C571	C57	0.981850	0.285850	0.028950
C581	C58	0.538990	0.865590	0.437930
C591	C59	0.657490	0.365590	0.937930
C601	C60	0.912840	0.489240	0.529580
C611	C61	0.527220	0.665920	0.223340
C621	C62	0.800860	0.512560	0.386120
C631	C63	0.885040	0.243740	0.548480
C641	C64	0.699540	0.199140	0.613880
C651	C65	0.300460	0.800860	0.386120
C661	C66	0.228870	0.111870	0.720490
C671	C67	0.614960	0.177260	0.951520
C681	C68	0.235890	0.743690	0.086430
C691	C69	0.931660	0.087160	0.470420
C701	C70	0.193880	0.771790	0.413960
C711	C71	0.611870	0.728870	0.220490
C721	C72	0.587160	0.431660	0.970420
C731	C73	0.256260	0.614960	0.951520
C741	C74	0.824430	0.429930	0.382610
C751	C75	0.916480	0.834080	0.276660
C761	C76	0.822740	0.743740	0.048480
C771	C77	0.416480	0.472780	0.776660
C781	C78	0.566010	0.756310	0.413570
C791	C79	0.863030	0.929930	0.882610
C801	C80	0.735890	0.433990	0.586430
C811	C81	0.487440	0.699540	0.613880
C821	C82	0.512560	0.300460	0.386120
C831	C83	0.388130	0.271130	0.779510
C841	C84	0.365590	0.038990	0.937930
C851	C85	0.714150	0.296650	0.971050
C861	C86	0.271130	0.561230	0.779510
C871	C87	0.087160	0.510760	0.470420
C881	C88	0.342510	0.634410	0.062070
C891	C89	0.743690	0.933990	0.086430
C901	C90	0.963800	0.715800	0.052500
C911	C91	0.083520	0.165920	0.723340
C921	C92	0.335300	0.568000	0.418700
C931	C93	0.431660	0.010760	0.970420
C941	C94	0.264110	0.566010	0.413570
C951	C95	0.463800	0.767900	0.552500
C961	C96	0.693880	0.120370	0.913960
C971	C97	0.267900	0.963800	0.052500
C981	C98	0.432000	0.322000	0.581300
C991	C99	0.822000	0.932000	0.081300
C1001	C100	0.243740	0.322740	0.548480
C1011	C101	0.841920	0.899020	0.276690
C1021	C102	0.675570	0.136970	0.117390
C1031	C103	0.771790	0.620370	0.413960
C1041	C104	0.157490	0.538990	0.437930
C1051	C105	0.785850	0.481850	0.528950
C1061	C106	0.796650	0.214150	0.471050
C1071	C107	0.178000	0.068000	0.918700
C1081	C108	0.341920	0.482370	0.776690
C1091	C109	0.620370	0.193880	0.413960
C1101	C110	0.284200	0.732100	0.947500
C1111	C111	0.961010	0.342510	0.062070
C1121	C112	0.164700	0.822000	0.081300
C1131	C113	0.429930	0.363030	0.382610
C1141	C114	0.296650	0.018150	0.971050
C1151	C115	0.767900	0.215800	0.552500
C1161	C116	0.982370	0.841920	0.276690
C1171	C117	0.214150	0.518150	0.471050
C1181	C118	0.489240	0.068340	0.529580
C1191	C119	0.012560	0.300860	0.886120
C1201	C120	0.010760	0.587160	0.970420
C1211	C121	0.068000	0.835300	0.918700
C1221	C122	0.256310	0.066010	0.913570
C1231	C123	0.835300	0.178000	0.918700
C1241	C124	0.518150	0.796650	0.471050
C1251	C125	0.568340	0.989240	0.029580
C1261	C126	0.066010	0.764110	0.913570
C1271	C127	0.165920	0.027220	0.723340
C1281	C128	0.385040	0.822740	0.048480
C1291	C129	0.728870	0.438770	0.220490
C1301	C130	0.322000	0.664700	0.581300
C1311	C131	0.461010	0.134410	0.562070
C1321	C132	0.510760	0.931660	0.470420
C1331	C133	0.482370	0.399020	0.776690
C1341	C134	0.989240	0.412840	0.029580
C1351	C135	0.379630	0.806120	0.586040
C1361	C136	0.732100	0.036200	0.947500
C1371	C137	0.438770	0.611870	0.220490
C1381	C138	0.433990	0.243690	0.586430
C1391	C139	0.677260	0.114960	0.451520
C1401	C140	0.678000	0.335300	0.418700
C1411	C141	0.199540	0.987440	0.113880
C1421	C142	0.600980	0.658080	0.223310
C1431	C143	0.865590	0.157490	0.437930
C1441	C144	0.800460	0.012560	0.886120
C1451	C145	0.061230	0.771130	0.279510
C1461	C146	0.134410	0.842510	0.562070
C1471	C147	0.842510	0.461010	0.562070
C1481	C148	0.699140	0.199540	0.113880
C1491	C149	0.932000	0.164700	0.081300
C1501	C150	0.481850	0.203350	0.528950
C1511	C151	0.634410	0.961010	0.062070
C1521	C152	0.472780	0.334080	0.776660
C1531	C153	0.111870	0.938770	0.720490
C1541	C154	0.363030	0.824430	0.382610
C1551	C155	0.888130	0.061230	0.279510
C1561	C156	0.232100	0.784200	0.447500
N11	N1	0.203720	0.419940	0.678560
N21	N2	0.080060	0.296280	0.821440
N31	N3	0.762510	0.222070	0.663020
N41	N4	0.594600	0.865590	0.365090
N51	N5	0.634410	0.905400	0.134910
N61	N6	0.580060	0.302220	0.321440
N71	N7	0.277930	0.737490	0.836980
N81	N8	0.905400	0.325280	0.134910
N91	N9	0.296280	0.802220	0.821440
N101	N10	0.352400	0.762510	0.663020
N111	N11	0.365590	0.094600	0.865090
N121	N12	0.298520	0.113170	0.848680
N131	N13	0.919940	0.703720	0.178560
N141	N14	0.802220	0.080060	0.821440
N151	N15	0.113170	0.739630	0.848680
N161	N16	0.796280	0.580060	0.321440
N171	N17	0.703720	0.197780	0.178560
N181	N18	0.739630	0.298520	0.848680
N191	N19	0.174720	0.594600	0.365090
N201	N20	0.852400	0.722070	0.163020
N211	N21	0.737490	0.147600	0.836980
N221	N22	0.777930	0.647600	0.336980
N231	N23	0.825280	0.405400	0.634910
N241	N24	0.647600	0.237490	0.336980
N251	N25	0.134410	0.825280	0.634910
N261	N26	0.386830	0.201480	0.651320
N271	N27	0.262510	0.852400	0.163020
N281	N28	0.197780	0.919940	0.178560
N291	N29	0.147600	0.277930	0.836980
N301	N30	0.419940	0.697780	0.678560
N311	N31	0.405400	0.134410	0.634910
N321	N32	0.325280	0.634410	0.134910
N331	N33	0.260370	0.701480	0.151320
N341	N34	0.222070	0.352400	0.663020
N351	N35	0.239630	0.613170	0.348680
N361	N36	0.201480	0.760370	0.651320
N371	N37	0.674720	0.365590	0.865090
N381	N38	0.302220	0.796280	0.321440
N391	N39	0.886830	0.260370	0.151320
N401	N40	0.613170	0.798520	0.348680
N411	N41	0.865590	0.174720	0.365090
N421	N42	0.722070	0.262510	0.163020
N431	N43	0.798520	0.239630	0.348680
N441	N44	0.760370	0.386830	0.651320
N451	N45	0.094600	0.674720	0.865090
N461	N46	0.237490	0.777930	0.336980
N471	N47	0.701480	0.886830	0.151320
N481	N48	0.697780	0.203720	0.678560
O11	O1	0.215340	0.179800	0.722890
O21	O2	0.820200	0.118030	0.277110
O31	O3	0.554090	0.796740	0.215210
O41	O4	0.618030	0.320200	0.777110
O51	O5	0.203260	0.566040	0.784790
O61	O6	0.784660	0.820200	0.277110
O71	O7	0.445910	0.203260	0.784790
O81	O8	0.715340	0.381970	0.222890
O91	O9	0.933960	0.296740	0.715210
O101	O10	0.566040	0.445910	0.784790
O111	O11	0.320200	0.284660	0.777110
O121	O12	0.703260	0.945910	0.284790
O131	O13	0.433960	0.554090	0.215210
O141	O14	0.796740	0.433960	0.215210
O151	O15	0.381970	0.679800	0.222890
O161	O16	0.179800	0.881970	0.722890
O171	O17	0.118030	0.784660	0.277110
O181	O18	0.054090	0.933960	0.715210
O191	O19	0.679800	0.715340	0.222890
O201	O20	0.284660	0.618030	0.777110
O211	O21	0.296740	0.054090	0.715210
O221	O22	0.881970	0.215340	0.722890
O231	O23	0.945910	0.066040	0.284790
O241	O24	0.066040	0.703260	0.284790
