data_cg8002564_si_006_freeONLY_PM
_symmetry_space_group_name_H-M	'P1'
_cell_length_a	10.970900
_cell_length_b	10.970900
_cell_length_c	13.367300
_cell_angle_alpha	65.772300
_cell_angle_beta	65.772300
_cell_angle_gamma	60.000000
_symmetry_Int_Tables_number 1

loop_
_symmetry_equiv_pos_as_xyz
'x,y,z'

loop_
_atom_site_label
_atom_site_type_symbol
_atom_site_fract_x
_atom_site_fract_y
_atom_site_fract_z
Cu11	Cu1	0.000000	0.000000	0.000000
Cu21	Cu2	0.500000	0.500000	0.500000
H11	H1	0.722100	0.120400	0.910900
H21	H2	0.533900	0.042800	0.809900
H31	H3	0.879600	0.753400	0.089100
H41	H4	0.042800	0.613400	0.809900
H51	H5	0.246600	0.722100	0.910900
H61	H6	0.033900	0.113400	0.309900
H71	H7	0.886600	0.457200	0.690100
H81	H8	0.457200	0.966100	0.690100
H91	H9	0.253400	0.379600	0.589100
H101	H10	0.966100	0.886600	0.690100
H111	H11	0.113400	0.542800	0.309900
H121	H12	0.222100	0.746600	0.410900
H131	H13	0.777900	0.253400	0.589100
H141	H14	0.613400	0.533900	0.809900
H151	H15	0.957200	0.386600	0.190100
H161	H16	0.753400	0.277900	0.089100
H171	H17	0.542800	0.033900	0.309900
H181	H18	0.386600	0.466100	0.190100
H191	H19	0.466100	0.957200	0.190100
H201	H20	0.277900	0.879600	0.089100
H211	H21	0.746600	0.620400	0.410900
H221	H22	0.379600	0.777900	0.589100
H231	H23	0.620400	0.222100	0.410900
H241	H24	0.120400	0.246600	0.910900
C11	C1	0.299540	0.775640	0.372080
C21	C2	0.552740	0.299540	0.372080
C31	C3	0.700460	0.224360	0.627920
C41	C4	0.924070	0.390670	0.751690
C51	C5	0.947260	0.724360	0.127920
C61	C6	0.052740	0.275640	0.872080
C71	C7	0.066430	0.075930	0.248310
C81	C8	0.609330	0.066430	0.248310
C91	C9	0.275640	0.799540	0.872080
C101	C10	0.724360	0.200460	0.127920
C111	C11	0.566430	0.109330	0.748310
C121	C12	0.575930	0.566430	0.748310
C131	C13	0.433570	0.890670	0.251690
C141	C14	0.424070	0.433570	0.251690
C151	C15	0.200460	0.947260	0.127920
C161	C16	0.224360	0.447260	0.627920
C171	C17	0.775640	0.552740	0.372080
C181	C18	0.447260	0.700460	0.627920
C191	C19	0.390670	0.933570	0.751690
C201	C20	0.799540	0.052740	0.872080
C211	C21	0.933570	0.924070	0.751690
C221	C22	0.075930	0.609330	0.248310
C231	C23	0.109330	0.575930	0.748310
C241	C24	0.890670	0.424070	0.251690
N11	N1	0.697460	0.111660	0.720620
N21	N2	0.078500	0.034400	0.101700
N31	N3	0.921500	0.965600	0.898300
N41	N4	0.802540	0.029740	0.779380
N51	N5	0.785400	0.078500	0.101700
N61	N6	0.534400	0.578500	0.601700
N71	N7	0.302540	0.888340	0.279380
N81	N8	0.714600	0.465600	0.398300
N91	N9	0.888340	0.529740	0.279380
N101	N10	0.508100	0.788600	0.321800
N111	N11	0.788600	0.381500	0.321800
N121	N12	0.991900	0.118500	0.178200
N131	N13	0.285400	0.534400	0.601700
N141	N14	0.965600	0.214600	0.898300
N151	N15	0.465600	0.421500	0.398300
N161	N16	0.529740	0.302540	0.279380
N171	N17	0.578500	0.285400	0.601700
N181	N18	0.211400	0.618500	0.678200
N191	N19	0.288600	0.008100	0.821800
N201	N20	0.008100	0.881500	0.821800
N211	N21	0.388340	0.802540	0.779380
N221	N22	0.381500	0.508100	0.321800
N231	N23	0.214600	0.921500	0.898300
N241	N24	0.197460	0.970260	0.220620
N251	N25	0.118500	0.711400	0.178200
N261	N26	0.470260	0.697460	0.720620
N271	N27	0.970260	0.611660	0.220620
N281	N28	0.029740	0.388340	0.779380
N291	N29	0.711400	0.991900	0.178200
N301	N30	0.611660	0.197460	0.220620
N311	N31	0.881500	0.288600	0.821800
N321	N32	0.421500	0.714600	0.398300
N331	N33	0.491900	0.211400	0.678200
N341	N34	0.034400	0.785400	0.101700
N351	N35	0.111660	0.470260	0.720620
N361	N36	0.618500	0.491900	0.678200
