data_cg8013317_si_003_freeONLY_PM
_symmetry_space_group_name_H-M	'P1'
_cell_length_a	13.517900
_cell_length_b	25.908400
_cell_length_c	30.351000
_cell_angle_alpha	90.000000
_cell_angle_beta	90.000000
_cell_angle_gamma	90.000000
_symmetry_Int_Tables_number 1

loop_
_symmetry_equiv_pos_as_xyz
'x,y,z'

loop_
_atom_site_label
_atom_site_type_symbol
_atom_site_fract_x
_atom_site_fract_y
_atom_site_fract_z
N11	N1	0.508000	0.563550	0.621490
N21	N2	0.412210	0.502270	0.650940
C11	C1	0.414320	0.565070	0.601310
C21	C2	0.377200	0.597540	0.569070
H11	H1	0.416500	0.622800	0.556100
C31	C3	0.279800	0.590930	0.556930
H21	H2	0.252900	0.612400	0.535500
C41	C4	0.220900	0.553080	0.575770
H31	H3	0.155800	0.549700	0.566300
C51	C5	0.255620	0.520160	0.608060
H41	H4	0.215900	0.495000	0.620900
C61	C6	0.353960	0.527210	0.620100
C71	C7	0.501840	0.525830	0.649620
H51	H5	0.554500	0.515800	0.667400
C81	C8	0.381220	0.461700	0.681080
H61	H6	0.439200	0.446500	0.694700
H71	H7	0.347600	0.434800	0.664600
C91	C9	0.312600	0.482090	0.716710
C101	C10	0.337690	0.524040	0.742510
H81	H8	0.397700	0.540600	0.737600
C111	C11	0.223460	0.458300	0.725030
H91	H9	0.204700	0.429800	0.708300
C121	C12	0.635100	0.647600	0.520830
C131	C13	0.619200	0.578200	0.457100
H101	H10	0.673500	0.575800	0.436800
H111	H11	0.557900	0.576800	0.441200
H121	H12	0.622200	0.549800	0.477500
N31	N3	0.508000	0.063550	0.121490
N41	N4	0.412210	0.002270	0.150940
C141	C14	0.414320	0.065070	0.101310
C151	C15	0.377200	0.097540	0.069070
H131	H13	0.416500	0.122800	0.056100
C161	C16	0.279800	0.090930	0.056930
H141	H14	0.252900	0.112400	0.035500
C171	C17	0.220900	0.053080	0.075770
H151	H15	0.155800	0.049700	0.066300
C181	C18	0.255620	0.020160	0.108060
H161	H16	0.215900	0.995000	0.120900
C191	C19	0.353960	0.027210	0.120100
C201	C20	0.501840	0.025830	0.149620
H171	H17	0.554500	0.015800	0.167400
C211	C21	0.381220	0.961700	0.181080
H181	H18	0.439200	0.946500	0.194700
H191	H19	0.347600	0.934800	0.164600
C221	C22	0.312600	0.982090	0.216710
C231	C23	0.337690	0.024040	0.242510
H201	H20	0.397700	0.040600	0.237600
C241	C24	0.223460	0.958300	0.225030
H211	H21	0.204700	0.929800	0.208300
C251	C25	0.635100	0.147600	0.020830
C261	C26	0.619200	0.078200	0.957100
H221	H22	0.673500	0.075800	0.936800
H231	H23	0.557900	0.076800	0.941200
H241	H24	0.622200	0.049800	0.977500
N51	N5	0.008000	0.563550	0.121490
N61	N6	0.912210	0.502270	0.150940
C271	C27	0.914320	0.565070	0.101310
C281	C28	0.877200	0.597540	0.069070
H251	H25	0.916500	0.622800	0.056100
C291	C29	0.779800	0.590930	0.056930
H261	H26	0.752900	0.612400	0.035500
C301	C30	0.720900	0.553080	0.075770
H271	H27	0.655800	0.549700	0.066300
C311	C31	0.755620	0.520160	0.108060
H281	H28	0.715900	0.495000	0.120900
C321	C32	0.853960	0.527210	0.120100
C331	C33	0.001840	0.525830	0.149620
H291	H29	0.054500	0.515800	0.167400
C341	C34	0.881220	0.461700	0.181080
H301	H30	0.939200	0.446500	0.194700
H311	H31	0.847600	0.434800	0.164600
C351	C35	0.812600	0.482090	0.216710
C361	C36	0.837690	0.524040	0.242510
H321	H32	0.897700	0.540600	0.237600
C371	C37	0.723460	0.458300	0.225030
H331	H33	0.704700	0.429800	0.208300
C381	C38	0.135100	0.647600	0.020830
C391	C39	0.119200	0.578200	0.957100
H341	H34	0.173500	0.575800	0.936800
H351	H35	0.057900	0.576800	0.941200
H361	H36	0.122200	0.549800	0.977500
N71	N7	0.008000	0.063550	0.621490
N81	N8	0.912210	0.002270	0.650940
C401	C40	0.914320	0.065070	0.601310
C411	C41	0.877200	0.097540	0.569070
H371	H37	0.916500	0.122800	0.556100
C421	C42	0.779800	0.090930	0.556930
H381	H38	0.752900	0.112400	0.535500
C431	C43	0.720900	0.053080	0.575770
H391	H39	0.655800	0.049700	0.566300
C441	C44	0.755620	0.020160	0.608060
H401	H40	0.715900	0.995000	0.620900
C451	C45	0.853960	0.027210	0.620100
C461	C46	0.001840	0.025830	0.649620
H411	H41	0.054500	0.015800	0.667400
C471	C47	0.881220	0.961700	0.681080
H421	H42	0.939200	0.946500	0.694700
H431	H43	0.847600	0.934800	0.664600
C481	C48	0.812600	0.982090	0.716710
C491	C49	0.837690	0.024040	0.742510
H441	H44	0.897700	0.040600	0.737600
C501	C50	0.723460	0.958300	0.725030
H451	H45	0.704700	0.929800	0.708300
C511	C51	0.135100	0.147600	0.520830
C521	C52	0.119200	0.078200	0.457100
H461	H46	0.173500	0.075800	0.436800
H471	H47	0.057900	0.076800	0.441200
H481	H48	0.122200	0.049800	0.477500
N91	N9	0.242000	0.186450	0.621490
N101	N10	0.337790	0.247730	0.650940
C531	C53	0.335680	0.184930	0.601310
C541	C54	0.372800	0.152460	0.569070
H491	H49	0.333500	0.127200	0.556100
C551	C55	0.470200	0.159070	0.556930
H501	H50	0.497100	0.137600	0.535500
C561	C56	0.529100	0.196920	0.575770
H511	H51	0.594200	0.200300	0.566300
C571	C57	0.494380	0.229840	0.608060
H521	H52	0.534100	0.255000	0.620900
C581	C58	0.396040	0.222790	0.620100
C591	C59	0.248160	0.224170	0.649620
H531	H53	0.195500	0.234200	0.667400
C601	C60	0.368780	0.288300	0.681080
H541	H54	0.310800	0.303500	0.694700
H551	H55	0.402400	0.315200	0.664600
C611	C61	0.437400	0.267910	0.716710
C621	C62	0.412310	0.225960	0.742510
H561	H56	0.352300	0.209400	0.737600
C631	C63	0.526540	0.291700	0.725030
H571	H57	0.545300	0.320200	0.708300
C641	C64	0.114900	0.102400	0.520830
C651	C65	0.130800	0.171800	0.457100
H581	H58	0.076500	0.174200	0.436800
H591	H59	0.192100	0.173200	0.441200
H601	H60	0.127800	0.200200	0.477500
N111	N11	0.242000	0.686450	0.121490
N121	N12	0.337790	0.747730	0.150940
C661	C66	0.335680	0.684930	0.101310
C671	C67	0.372800	0.652460	0.069070
H611	H61	0.333500	0.627200	0.056100
C681	C68	0.470200	0.659070	0.056930
H621	H62	0.497100	0.637600	0.035500
C691	C69	0.529100	0.696920	0.075770
H631	H63	0.594200	0.700300	0.066300
C701	C70	0.494380	0.729840	0.108060
H641	H64	0.534100	0.755000	0.120900
C711	C71	0.396040	0.722790	0.120100
C721	C72	0.248160	0.724170	0.149620
H651	H65	0.195500	0.734200	0.167400
C731	C73	0.368780	0.788300	0.181080
H661	H66	0.310800	0.803500	0.194700
H671	H67	0.402400	0.815200	0.164600
C741	C74	0.437400	0.767910	0.216710
C751	C75	0.412310	0.725960	0.242510
H681	H68	0.352300	0.709400	0.237600
C761	C76	0.526540	0.791700	0.225030
H691	H69	0.545300	0.820200	0.208300
C771	C77	0.114900	0.602400	0.020830
C781	C78	0.130800	0.671800	0.957100
H701	H70	0.076500	0.674200	0.936800
H711	H71	0.192100	0.673200	0.941200
H721	H72	0.127800	0.700200	0.977500
N131	N13	0.742000	0.186450	0.121490
N141	N14	0.837790	0.247730	0.150940
C791	C79	0.835680	0.184930	0.101310
C801	C80	0.872800	0.152460	0.069070
H731	H73	0.833500	0.127200	0.056100
C811	C81	0.970200	0.159070	0.056930
H741	H74	0.997100	0.137600	0.035500
C821	C82	0.029100	0.196920	0.075770
H751	H75	0.094200	0.200300	0.066300
C831	C83	0.994380	0.229840	0.108060
H761	H76	0.034100	0.255000	0.120900
C841	C84	0.896040	0.222790	0.120100
C851	C85	0.748160	0.224170	0.149620
H771	H77	0.695500	0.234200	0.167400
C861	C86	0.868780	0.288300	0.181080
H781	H78	0.810800	0.303500	0.194700
H791	H79	0.902400	0.315200	0.164600
C871	C87	0.937400	0.267910	0.216710
C881	C88	0.912310	0.225960	0.242510
H801	H80	0.852300	0.209400	0.237600
C891	C89	0.026540	0.291700	0.225030
H811	H81	0.045300	0.320200	0.208300
C901	C90	0.614900	0.102400	0.020830
C911	C91	0.630800	0.171800	0.957100
H821	H82	0.576500	0.174200	0.936800
H831	H83	0.692100	0.173200	0.941200
H841	H84	0.627800	0.200200	0.977500
N151	N15	0.742000	0.686450	0.621490
N161	N16	0.837790	0.747730	0.650940
C921	C92	0.835680	0.684930	0.601310
C931	C93	0.872800	0.652460	0.569070
H851	H85	0.833500	0.627200	0.556100
C941	C94	0.970200	0.659070	0.556930
H861	H86	0.997100	0.637600	0.535500
C951	C95	0.029100	0.696920	0.575770
H871	H87	0.094200	0.700300	0.566300
C961	C96	0.994380	0.729840	0.608060
H881	H88	0.034100	0.755000	0.620900
C971	C97	0.896040	0.722790	0.620100
C981	C98	0.748160	0.724170	0.649620
H891	H89	0.695500	0.734200	0.667400
C991	C99	0.868780	0.788300	0.681080
H901	H90	0.810800	0.803500	0.694700
H911	H91	0.902400	0.815200	0.664600
C1001	C100	0.937400	0.767910	0.716710
C1011	C101	0.912310	0.725960	0.742510
H921	H92	0.852300	0.709400	0.737600
C1021	C102	0.026540	0.791700	0.725030
H931	H93	0.045300	0.820200	0.708300
C1031	C103	0.614900	0.602400	0.520830
C1041	C104	0.630800	0.671800	0.457100
H941	H94	0.576500	0.674200	0.436800
H951	H95	0.692100	0.673200	0.441200
H961	H96	0.627800	0.700200	0.477500
N171	N17	0.242000	0.563550	0.128510
N181	N18	0.337790	0.502270	0.099060
C1051	C105	0.335680	0.565070	0.148690
C1061	C106	0.372800	0.597540	0.180930
H971	H97	0.333500	0.622800	0.193900
C1071	C107	0.470200	0.590930	0.193070
H981	H98	0.497100	0.612400	0.214500
C1081	C108	0.529100	0.553080	0.174230
H991	H99	0.594200	0.549700	0.183700
C1091	C109	0.494380	0.520160	0.141940
H1001	H100	0.534100	0.495000	0.129100
C1101	C110	0.396040	0.527210	0.129900
C1111	C111	0.248160	0.525830	0.100380
H1011	H101	0.195500	0.515800	0.082600
C1121	C112	0.368780	0.461700	0.068920
H1021	H102	0.310800	0.446500	0.055300
H1031	H103	0.402400	0.434800	0.085400
C1131	C113	0.437400	0.482090	0.033290
C1141	C114	0.412310	0.524040	0.007490
H1041	H104	0.352300	0.540600	0.012400
C1151	C115	0.526540	0.458300	0.024970
H1051	H105	0.545300	0.429800	0.041700
C1161	C116	0.114900	0.647600	0.229170
C1171	C117	0.130800	0.578200	0.292900
H1061	H106	0.076500	0.575800	0.313200
H1071	H107	0.192100	0.576800	0.308800
H1081	H108	0.127800	0.549800	0.272500
N191	N19	0.242000	0.063550	0.628510
N201	N20	0.337790	0.002270	0.599060
C1181	C118	0.335680	0.065070	0.648690
C1191	C119	0.372800	0.097540	0.680930
H1091	H109	0.333500	0.122800	0.693900
C1201	C120	0.470200	0.090930	0.693070
H1101	H110	0.497100	0.112400	0.714500
C1211	C121	0.529100	0.053080	0.674230
H1111	H111	0.594200	0.049700	0.683700
C1221	C122	0.494380	0.020160	0.641940
H1121	H112	0.534100	0.995000	0.629100
C1231	C123	0.396040	0.027210	0.629900
C1241	C124	0.248160	0.025830	0.600380
H1131	H113	0.195500	0.015800	0.582600
C1251	C125	0.368780	0.961700	0.568920
H1141	H114	0.310800	0.946500	0.555300
H1151	H115	0.402400	0.934800	0.585400
C1261	C126	0.437400	0.982090	0.533290
C1271	C127	0.412310	0.024040	0.507490
H1161	H116	0.352300	0.040600	0.512400
C1281	C128	0.526540	0.958300	0.524970
H1171	H117	0.545300	0.929800	0.541700
C1291	C129	0.114900	0.147600	0.729170
C1301	C130	0.130800	0.078200	0.792900
H1181	H118	0.076500	0.075800	0.813200
H1191	H119	0.192100	0.076800	0.808800
H1201	H120	0.127800	0.049800	0.772500
N211	N21	0.742000	0.563550	0.628510
N221	N22	0.837790	0.502270	0.599060
C1311	C131	0.835680	0.565070	0.648690
C1321	C132	0.872800	0.597540	0.680930
H1211	H121	0.833500	0.622800	0.693900
C1331	C133	0.970200	0.590930	0.693070
H1221	H122	0.997100	0.612400	0.714500
C1341	C134	0.029100	0.553080	0.674230
H1231	H123	0.094200	0.549700	0.683700
C1351	C135	0.994380	0.520160	0.641940
H1241	H124	0.034100	0.495000	0.629100
C1361	C136	0.896040	0.527210	0.629900
C1371	C137	0.748160	0.525830	0.600380
H1251	H125	0.695500	0.515800	0.582600
C1381	C138	0.868780	0.461700	0.568920
H1261	H126	0.810800	0.446500	0.555300
H1271	H127	0.902400	0.434800	0.585400
C1391	C139	0.937400	0.482090	0.533290
C1401	C140	0.912310	0.524040	0.507490
H1281	H128	0.852300	0.540600	0.512400
C1411	C141	0.026540	0.458300	0.524970
H1291	H129	0.045300	0.429800	0.541700
C1421	C142	0.614900	0.647600	0.729170
C1431	C143	0.630800	0.578200	0.792900
H1301	H130	0.576500	0.575800	0.813200
H1311	H131	0.692100	0.576800	0.808800
H1321	H132	0.627800	0.549800	0.772500
N231	N23	0.742000	0.063550	0.128510
N241	N24	0.837790	0.002270	0.099060
C1441	C144	0.835680	0.065070	0.148690
C1451	C145	0.872800	0.097540	0.180930
H1331	H133	0.833500	0.122800	0.193900
C1461	C146	0.970200	0.090930	0.193070
H1341	H134	0.997100	0.112400	0.214500
C1471	C147	0.029100	0.053080	0.174230
H1351	H135	0.094200	0.049700	0.183700
C1481	C148	0.994380	0.020160	0.141940
H1361	H136	0.034100	0.995000	0.129100
C1491	C149	0.896040	0.027210	0.129900
C1501	C150	0.748160	0.025830	0.100380
H1371	H137	0.695500	0.015800	0.082600
C1511	C151	0.868780	0.961700	0.068920
H1381	H138	0.810800	0.946500	0.055300
H1391	H139	0.902400	0.934800	0.085400
C1521	C152	0.937400	0.982090	0.033290
C1531	C153	0.912310	0.024040	0.007490
H1401	H140	0.852300	0.040600	0.012400
C1541	C154	0.026540	0.958300	0.024970
H1411	H141	0.045300	0.929800	0.041700
C1551	C155	0.614900	0.147600	0.229170
C1561	C156	0.630800	0.078200	0.292900
H1421	H142	0.576500	0.075800	0.313200
H1431	H143	0.692100	0.076800	0.308800
H1441	H144	0.627800	0.049800	0.272500
N251	N25	0.508000	0.186450	0.128510
N261	N26	0.412210	0.247730	0.099060
C1571	C157	0.414320	0.184930	0.148690
C1581	C158	0.377200	0.152460	0.180930
H1451	H145	0.416500	0.127200	0.193900
C1591	C159	0.279800	0.159070	0.193070
H1461	H146	0.252900	0.137600	0.214500
C1601	C160	0.220900	0.196920	0.174230
H1471	H147	0.155800	0.200300	0.183700
C1611	C161	0.255620	0.229840	0.141940
H1481	H148	0.215900	0.255000	0.129100
C1621	C162	0.353960	0.222790	0.129900
C1631	C163	0.501840	0.224170	0.100380
H1491	H149	0.554500	0.234200	0.082600
C1641	C164	0.381220	0.288300	0.068920
H1501	H150	0.439200	0.303500	0.055300
H1511	H151	0.347600	0.315200	0.085400
C1651	C165	0.312600	0.267910	0.033290
C1661	C166	0.337690	0.225960	0.007490
H1521	H152	0.397700	0.209400	0.012400
C1671	C167	0.223460	0.291700	0.024970
H1531	H153	0.204700	0.320200	0.041700
C1681	C168	0.635100	0.102400	0.229170
C1691	C169	0.619200	0.171800	0.292900
H1541	H154	0.673500	0.174200	0.313200
H1551	H155	0.557900	0.173200	0.308800
H1561	H156	0.622200	0.200200	0.272500
N271	N27	0.508000	0.686450	0.628510
N281	N28	0.412210	0.747730	0.599060
C1701	C170	0.414320	0.684930	0.648690
C1711	C171	0.377200	0.652460	0.680930
H1571	H157	0.416500	0.627200	0.693900
C1721	C172	0.279800	0.659070	0.693070
H1581	H158	0.252900	0.637600	0.714500
C1731	C173	0.220900	0.696920	0.674230
H1591	H159	0.155800	0.700300	0.683700
C1741	C174	0.255620	0.729840	0.641940
H1601	H160	0.215900	0.755000	0.629100
C1751	C175	0.353960	0.722790	0.629900
C1761	C176	0.501840	0.724170	0.600380
H1611	H161	0.554500	0.734200	0.582600
C1771	C177	0.381220	0.788300	0.568920
H1621	H162	0.439200	0.803500	0.555300
H1631	H163	0.347600	0.815200	0.585400
C1781	C178	0.312600	0.767910	0.533290
C1791	C179	0.337690	0.725960	0.507490
H1641	H164	0.397700	0.709400	0.512400
C1801	C180	0.223460	0.791700	0.524970
H1651	H165	0.204700	0.820200	0.541700
C1811	C181	0.635100	0.602400	0.729170
C1821	C182	0.619200	0.671800	0.792900
H1661	H166	0.673500	0.674200	0.813200
H1671	H167	0.557900	0.673200	0.808800
H1681	H168	0.622200	0.700200	0.772500
N291	N29	0.008000	0.186450	0.628510
N301	N30	0.912210	0.247730	0.599060
C1831	C183	0.914320	0.184930	0.648690
C1841	C184	0.877200	0.152460	0.680930
H1691	H169	0.916500	0.127200	0.693900
C1851	C185	0.779800	0.159070	0.693070
H1701	H170	0.752900	0.137600	0.714500
C1861	C186	0.720900	0.196920	0.674230
H1711	H171	0.655800	0.200300	0.683700
C1871	C187	0.755620	0.229840	0.641940
H1721	H172	0.715900	0.255000	0.629100
C1881	C188	0.853960	0.222790	0.629900
C1891	C189	0.001840	0.224170	0.600380
H1731	H173	0.054500	0.234200	0.582600
C1901	C190	0.881220	0.288300	0.568920
H1741	H174	0.939200	0.303500	0.555300
H1751	H175	0.847600	0.315200	0.585400
C1911	C191	0.812600	0.267910	0.533290
C1921	C192	0.837690	0.225960	0.507490
H1761	H176	0.897700	0.209400	0.512400
C1931	C193	0.723460	0.291700	0.524970
H1771	H177	0.704700	0.320200	0.541700
C1941	C194	0.135100	0.102400	0.729170
C1951	C195	0.119200	0.171800	0.792900
H1781	H178	0.173500	0.174200	0.813200
H1791	H179	0.057900	0.173200	0.808800
H1801	H180	0.122200	0.200200	0.772500
N311	N31	0.008000	0.686450	0.128510
N321	N32	0.912210	0.747730	0.099060
C1961	C196	0.914320	0.684930	0.148690
C1971	C197	0.877200	0.652460	0.180930
H1811	H181	0.916500	0.627200	0.193900
C1981	C198	0.779800	0.659070	0.193070
H1821	H182	0.752900	0.637600	0.214500
C1991	C199	0.720900	0.696920	0.174230
H1831	H183	0.655800	0.700300	0.183700
C2001	C200	0.755620	0.729840	0.141940
H1841	H184	0.715900	0.755000	0.129100
C2011	C201	0.853960	0.722790	0.129900
C2021	C202	0.001840	0.724170	0.100380
H1851	H185	0.054500	0.734200	0.082600
C2031	C203	0.881220	0.788300	0.068920
H1861	H186	0.939200	0.803500	0.055300
H1871	H187	0.847600	0.815200	0.085400
C2041	C204	0.812600	0.767910	0.033290
C2051	C205	0.837690	0.725960	0.007490
H1881	H188	0.897700	0.709400	0.012400
C2061	C206	0.723460	0.791700	0.024970
H1891	H189	0.704700	0.820200	0.041700
C2071	C207	0.135100	0.602400	0.229170
C2081	C208	0.119200	0.671800	0.292900
H1901	H190	0.173500	0.674200	0.313200
H1911	H191	0.057900	0.673200	0.308800
H1921	H192	0.122200	0.700200	0.272500
N331	N33	0.492000	0.436450	0.378510
N341	N34	0.587790	0.497730	0.349060
C2091	C209	0.585680	0.434930	0.398690
C2101	C210	0.622800	0.402460	0.430930
H1931	H193	0.583500	0.377200	0.443900
C2111	C211	0.720200	0.409070	0.443070
H1941	H194	0.747100	0.387600	0.464500
C2121	C212	0.779100	0.446920	0.424230
H1951	H195	0.844200	0.450300	0.433700
C2131	C213	0.744380	0.479840	0.391940
H1961	H196	0.784100	0.505000	0.379100
C2141	C214	0.646040	0.472790	0.379900
C2151	C215	0.498160	0.474170	0.350380
H1971	H197	0.445500	0.484200	0.332600
C2161	C216	0.618780	0.538300	0.318920
H1981	H198	0.560800	0.553500	0.305300
H1991	H199	0.652400	0.565200	0.335400
C2171	C217	0.687400	0.517910	0.283290
C2181	C218	0.662310	0.475960	0.257490
H2001	H200	0.602300	0.459400	0.262400
C2191	C219	0.776540	0.541700	0.274970
H2011	H201	0.795300	0.570200	0.291700
C2201	C220	0.364900	0.352400	0.479170
C2211	C221	0.380800	0.421800	0.542900
H2021	H202	0.326500	0.424200	0.563200
H2031	H203	0.442100	0.423200	0.558800
H2041	H204	0.377800	0.450200	0.522500
N351	N35	0.492000	0.936450	0.878510
N361	N36	0.587790	0.997730	0.849060
C2221	C222	0.585680	0.934930	0.898690
C2231	C223	0.622800	0.902460	0.930930
H2051	H205	0.583500	0.877200	0.943900
C2241	C224	0.720200	0.909070	0.943070
H2061	H206	0.747100	0.887600	0.964500
C2251	C225	0.779100	0.946920	0.924230
H2071	H207	0.844200	0.950300	0.933700
C2261	C226	0.744380	0.979840	0.891940
H2081	H208	0.784100	0.005000	0.879100
C2271	C227	0.646040	0.972790	0.879900
C2281	C228	0.498160	0.974170	0.850380
H2091	H209	0.445500	0.984200	0.832600
C2291	C229	0.618780	0.038300	0.818920
H2101	H210	0.560800	0.053500	0.805300
H2111	H211	0.652400	0.065200	0.835400
C2301	C230	0.687400	0.017910	0.783290
C2311	C231	0.662310	0.975960	0.757490
H2121	H212	0.602300	0.959400	0.762400
C2321	C232	0.776540	0.041700	0.774970
H2131	H213	0.795300	0.070200	0.791700
C2331	C233	0.364900	0.852400	0.979170
C2341	C234	0.380800	0.921800	0.042900
H2141	H214	0.326500	0.924200	0.063200
H2151	H215	0.442100	0.923200	0.058800
H2161	H216	0.377800	0.950200	0.022500
N371	N37	0.992000	0.436450	0.878510
N381	N38	0.087790	0.497730	0.849060
C2351	C235	0.085680	0.434930	0.898690
C2361	C236	0.122800	0.402460	0.930930
H2171	H217	0.083500	0.377200	0.943900
C2371	C237	0.220200	0.409070	0.943070
H2181	H218	0.247100	0.387600	0.964500
C2381	C238	0.279100	0.446920	0.924230
H2191	H219	0.344200	0.450300	0.933700
C2391	C239	0.244380	0.479840	0.891940
H2201	H220	0.284100	0.505000	0.879100
C2401	C240	0.146040	0.472790	0.879900
C2411	C241	0.998160	0.474170	0.850380
H2211	H221	0.945500	0.484200	0.832600
C2421	C242	0.118780	0.538300	0.818920
H2221	H222	0.060800	0.553500	0.805300
H2231	H223	0.152400	0.565200	0.835400
C2431	C243	0.187400	0.517910	0.783290
C2441	C244	0.162310	0.475960	0.757490
H2241	H224	0.102300	0.459400	0.762400
C2451	C245	0.276540	0.541700	0.774970
H2251	H225	0.295300	0.570200	0.791700
C2461	C246	0.864900	0.352400	0.979170
C2471	C247	0.880800	0.421800	0.042900
H2261	H226	0.826500	0.424200	0.063200
H2271	H227	0.942100	0.423200	0.058800
H2281	H228	0.877800	0.450200	0.022500
N391	N39	0.992000	0.936450	0.378510
N401	N40	0.087790	0.997730	0.349060
C2481	C248	0.085680	0.934930	0.398690
C2491	C249	0.122800	0.902460	0.430930
H2291	H229	0.083500	0.877200	0.443900
C2501	C250	0.220200	0.909070	0.443070
H2301	H230	0.247100	0.887600	0.464500
C2511	C251	0.279100	0.946920	0.424230
H2311	H231	0.344200	0.950300	0.433700
C2521	C252	0.244380	0.979840	0.391940
H2321	H232	0.284100	0.005000	0.379100
C2531	C253	0.146040	0.972790	0.379900
C2541	C254	0.998160	0.974170	0.350380
H2331	H233	0.945500	0.984200	0.332600
C2551	C255	0.118780	0.038300	0.318920
H2341	H234	0.060800	0.053500	0.305300
H2351	H235	0.152400	0.065200	0.335400
C2561	C256	0.187400	0.017910	0.283290
C2571	C257	0.162310	0.975960	0.257490
H2361	H236	0.102300	0.959400	0.262400
C2581	C258	0.276540	0.041700	0.274970
H2371	H237	0.295300	0.070200	0.291700
C2591	C259	0.864900	0.852400	0.479170
C2601	C260	0.880800	0.921800	0.542900
H2381	H238	0.826500	0.924200	0.563200
H2391	H239	0.942100	0.923200	0.558800
H2401	H240	0.877800	0.950200	0.522500
N411	N41	0.758000	0.813550	0.378510
N421	N42	0.662210	0.752270	0.349060
C2611	C261	0.664320	0.815070	0.398690
C2621	C262	0.627200	0.847540	0.430930
H2411	H241	0.666500	0.872800	0.443900
C2631	C263	0.529800	0.840930	0.443070
H2421	H242	0.502900	0.862400	0.464500
C2641	C264	0.470900	0.803080	0.424230
H2431	H243	0.405800	0.799700	0.433700
C2651	C265	0.505620	0.770160	0.391940
H2441	H244	0.465900	0.745000	0.379100
C2661	C266	0.603960	0.777210	0.379900
C2671	C267	0.751840	0.775830	0.350380
H2451	H245	0.804500	0.765800	0.332600
C2681	C268	0.631220	0.711700	0.318920
H2461	H246	0.689200	0.696500	0.305300
H2471	H247	0.597600	0.684800	0.335400
C2691	C269	0.562600	0.732090	0.283290
C2701	C270	0.587690	0.774040	0.257490
H2481	H248	0.647700	0.790600	0.262400
C2711	C271	0.473460	0.708300	0.274970
H2491	H249	0.454700	0.679800	0.291700
C2721	C272	0.885100	0.897600	0.479170
C2731	C273	0.869200	0.828200	0.542900
H2501	H250	0.923500	0.825800	0.563200
H2511	H251	0.807900	0.826800	0.558800
H2521	H252	0.872200	0.799800	0.522500
N431	N43	0.758000	0.313550	0.878510
N441	N44	0.662210	0.252270	0.849060
C2741	C274	0.664320	0.315070	0.898690
C2751	C275	0.627200	0.347540	0.930930
H2531	H253	0.666500	0.372800	0.943900
C2761	C276	0.529800	0.340930	0.943070
H2541	H254	0.502900	0.362400	0.964500
C2771	C277	0.470900	0.303080	0.924230
H2551	H255	0.405800	0.299700	0.933700
C2781	C278	0.505620	0.270160	0.891940
H2561	H256	0.465900	0.245000	0.879100
C2791	C279	0.603960	0.277210	0.879900
C2801	C280	0.751840	0.275830	0.850380
H2571	H257	0.804500	0.265800	0.832600
C2811	C281	0.631220	0.211700	0.818920
H2581	H258	0.689200	0.196500	0.805300
H2591	H259	0.597600	0.184800	0.835400
C2821	C282	0.562600	0.232090	0.783290
C2831	C283	0.587690	0.274040	0.757490
H2601	H260	0.647700	0.290600	0.762400
C2841	C284	0.473460	0.208300	0.774970
H2611	H261	0.454700	0.179800	0.791700
C2851	C285	0.885100	0.397600	0.979170
C2861	C286	0.869200	0.328200	0.042900
H2621	H262	0.923500	0.325800	0.063200
H2631	H263	0.807900	0.326800	0.058800
H2641	H264	0.872200	0.299800	0.022500
N451	N45	0.258000	0.813550	0.878510
N461	N46	0.162210	0.752270	0.849060
C2871	C287	0.164320	0.815070	0.898690
C2881	C288	0.127200	0.847540	0.930930
H2651	H265	0.166500	0.872800	0.943900
C2891	C289	0.029800	0.840930	0.943070
H2661	H266	0.002900	0.862400	0.964500
C2901	C290	0.970900	0.803080	0.924230
H2671	H267	0.905800	0.799700	0.933700
C2911	C291	0.005620	0.770160	0.891940
H2681	H268	0.965900	0.745000	0.879100
C2921	C292	0.103960	0.777210	0.879900
C2931	C293	0.251840	0.775830	0.850380
H2691	H269	0.304500	0.765800	0.832600
C2941	C294	0.131220	0.711700	0.818920
H2701	H270	0.189200	0.696500	0.805300
H2711	H271	0.097600	0.684800	0.835400
C2951	C295	0.062600	0.732090	0.783290
C2961	C296	0.087690	0.774040	0.757490
H2721	H272	0.147700	0.790600	0.762400
C2971	C297	0.973460	0.708300	0.774970
H2731	H273	0.954700	0.679800	0.791700
C2981	C298	0.385100	0.897600	0.979170
C2991	C299	0.369200	0.828200	0.042900
H2741	H274	0.423500	0.825800	0.063200
H2751	H275	0.307900	0.826800	0.058800
H2761	H276	0.372200	0.799800	0.022500
N471	N47	0.258000	0.313550	0.378510
N481	N48	0.162210	0.252270	0.349060
C3001	C300	0.164320	0.315070	0.398690
C3011	C301	0.127200	0.347540	0.430930
H2771	H277	0.166500	0.372800	0.443900
C3021	C302	0.029800	0.340930	0.443070
H2781	H278	0.002900	0.362400	0.464500
C3031	C303	0.970900	0.303080	0.424230
H2791	H279	0.905800	0.299700	0.433700
C3041	C304	0.005620	0.270160	0.391940
H2801	H280	0.965900	0.245000	0.379100
C3051	C305	0.103960	0.277210	0.379900
C3061	C306	0.251840	0.275830	0.350380
H2811	H281	0.304500	0.265800	0.332600
C3071	C307	0.131220	0.211700	0.318920
H2821	H282	0.189200	0.196500	0.305300
H2831	H283	0.097600	0.184800	0.335400
C3081	C308	0.062600	0.232090	0.283290
C3091	C309	0.087690	0.274040	0.257490
H2841	H284	0.147700	0.290600	0.262400
C3101	C310	0.973460	0.208300	0.274970
H2851	H285	0.954700	0.179800	0.291700
C3111	C311	0.385100	0.397600	0.479170
C3121	C312	0.369200	0.328200	0.542900
H2861	H286	0.423500	0.325800	0.563200
H2871	H287	0.307900	0.326800	0.558800
H2881	H288	0.372200	0.299800	0.522500
N491	N49	0.758000	0.436450	0.871490
N501	N50	0.662210	0.497730	0.900940
C3131	C313	0.664320	0.434930	0.851310
C3141	C314	0.627200	0.402460	0.819070
H2891	H289	0.666500	0.377200	0.806100
C3151	C315	0.529800	0.409070	0.806930
H2901	H290	0.502900	0.387600	0.785500
C3161	C316	0.470900	0.446920	0.825770
H2911	H291	0.405800	0.450300	0.816300
C3171	C317	0.505620	0.479840	0.858060
H2921	H292	0.465900	0.505000	0.870900
C3181	C318	0.603960	0.472790	0.870100
C3191	C319	0.751840	0.474170	0.899620
H2931	H293	0.804500	0.484200	0.917400
C3201	C320	0.631220	0.538300	0.931080
H2941	H294	0.689200	0.553500	0.944700
H2951	H295	0.597600	0.565200	0.914600
C3211	C321	0.562600	0.517910	0.966710
C3221	C322	0.587690	0.475960	0.992510
H2961	H296	0.647700	0.459400	0.987600
C3231	C323	0.473460	0.541700	0.975030
H2971	H297	0.454700	0.570200	0.958300
C3241	C324	0.885100	0.352400	0.770830
C3251	C325	0.869200	0.421800	0.707100
H2981	H298	0.923500	0.424200	0.686800
H2991	H299	0.807900	0.423200	0.691200
H3001	H300	0.872200	0.450200	0.727500
N511	N51	0.758000	0.936450	0.371490
N521	N52	0.662210	0.997730	0.400940
C3261	C326	0.664320	0.934930	0.351310
C3271	C327	0.627200	0.902460	0.319070
H3011	H301	0.666500	0.877200	0.306100
C3281	C328	0.529800	0.909070	0.306930
H3021	H302	0.502900	0.887600	0.285500
C3291	C329	0.470900	0.946920	0.325770
H3031	H303	0.405800	0.950300	0.316300
C3301	C330	0.505620	0.979840	0.358060
H3041	H304	0.465900	0.005000	0.370900
C3311	C331	0.603960	0.972790	0.370100
C3321	C332	0.751840	0.974170	0.399620
H3051	H305	0.804500	0.984200	0.417400
C3331	C333	0.631220	0.038300	0.431080
H3061	H306	0.689200	0.053500	0.444700
H3071	H307	0.597600	0.065200	0.414600
C3341	C334	0.562600	0.017910	0.466710
C3351	C335	0.587690	0.975960	0.492510
H3081	H308	0.647700	0.959400	0.487600
C3361	C336	0.473460	0.041700	0.475030
H3091	H309	0.454700	0.070200	0.458300
C3371	C337	0.885100	0.852400	0.270830
C3381	C338	0.869200	0.921800	0.207100
H3101	H310	0.923500	0.924200	0.186800
H3111	H311	0.807900	0.923200	0.191200
H3121	H312	0.872200	0.950200	0.227500
N531	N53	0.258000	0.436450	0.371490
N541	N54	0.162210	0.497730	0.400940
C3391	C339	0.164320	0.434930	0.351310
C3401	C340	0.127200	0.402460	0.319070
H3131	H313	0.166500	0.377200	0.306100
C3411	C341	0.029800	0.409070	0.306930
H3141	H314	0.002900	0.387600	0.285500
C3421	C342	0.970900	0.446920	0.325770
H3151	H315	0.905800	0.450300	0.316300
C3431	C343	0.005620	0.479840	0.358060
H3161	H316	0.965900	0.505000	0.370900
C3441	C344	0.103960	0.472790	0.370100
C3451	C345	0.251840	0.474170	0.399620
H3171	H317	0.304500	0.484200	0.417400
C3461	C346	0.131220	0.538300	0.431080
H3181	H318	0.189200	0.553500	0.444700
H3191	H319	0.097600	0.565200	0.414600
C3471	C347	0.062600	0.517910	0.466710
C3481	C348	0.087690	0.475960	0.492510
H3201	H320	0.147700	0.459400	0.487600
C3491	C349	0.973460	0.541700	0.475030
H3211	H321	0.954700	0.570200	0.458300
C3501	C350	0.385100	0.352400	0.270830
C3511	C351	0.369200	0.421800	0.207100
H3221	H322	0.423500	0.424200	0.186800
H3231	H323	0.307900	0.423200	0.191200
H3241	H324	0.372200	0.450200	0.227500
N551	N55	0.258000	0.936450	0.871490
N561	N56	0.162210	0.997730	0.900940
C3521	C352	0.164320	0.934930	0.851310
C3531	C353	0.127200	0.902460	0.819070
H3251	H325	0.166500	0.877200	0.806100
C3541	C354	0.029800	0.909070	0.806930
H3261	H326	0.002900	0.887600	0.785500
C3551	C355	0.970900	0.946920	0.825770
H3271	H327	0.905800	0.950300	0.816300
C3561	C356	0.005620	0.979840	0.858060
H3281	H328	0.965900	0.005000	0.870900
C3571	C357	0.103960	0.972790	0.870100
C3581	C358	0.251840	0.974170	0.899620
H3291	H329	0.304500	0.984200	0.917400
C3591	C359	0.131220	0.038300	0.931080
H3301	H330	0.189200	0.053500	0.944700
H3311	H331	0.097600	0.065200	0.914600
C3601	C360	0.062600	0.017910	0.966710
C3611	C361	0.087690	0.975960	0.992510
H3321	H332	0.147700	0.959400	0.987600
C3621	C362	0.973460	0.041700	0.975030
H3331	H333	0.954700	0.070200	0.958300
C3631	C363	0.385100	0.852400	0.770830
C3641	C364	0.369200	0.921800	0.707100
H3341	H334	0.423500	0.924200	0.686800
H3351	H335	0.307900	0.923200	0.691200
H3361	H336	0.372200	0.950200	0.727500
N571	N57	0.492000	0.813550	0.871490
N581	N58	0.587790	0.752270	0.900940
C3651	C365	0.585680	0.815070	0.851310
C3661	C366	0.622800	0.847540	0.819070
H3371	H337	0.583500	0.872800	0.806100
C3671	C367	0.720200	0.840930	0.806930
H3381	H338	0.747100	0.862400	0.785500
C3681	C368	0.779100	0.803080	0.825770
H3391	H339	0.844200	0.799700	0.816300
C3691	C369	0.744380	0.770160	0.858060
H3401	H340	0.784100	0.745000	0.870900
C3701	C370	0.646040	0.777210	0.870100
C3711	C371	0.498160	0.775830	0.899620
H3411	H341	0.445500	0.765800	0.917400
C3721	C372	0.618780	0.711700	0.931080
H3421	H342	0.560800	0.696500	0.944700
H3431	H343	0.652400	0.684800	0.914600
C3731	C373	0.687400	0.732090	0.966710
C3741	C374	0.662310	0.774040	0.992510
H3441	H344	0.602300	0.790600	0.987600
C3751	C375	0.776540	0.708300	0.975030
H3451	H345	0.795300	0.679800	0.958300
C3761	C376	0.364900	0.897600	0.770830
C3771	C377	0.380800	0.828200	0.707100
H3461	H346	0.326500	0.825800	0.686800
H3471	H347	0.442100	0.826800	0.691200
H3481	H348	0.377800	0.799800	0.727500
N591	N59	0.492000	0.313550	0.371490
N601	N60	0.587790	0.252270	0.400940
C3781	C378	0.585680	0.315070	0.351310
C3791	C379	0.622800	0.347540	0.319070
H3491	H349	0.583500	0.372800	0.306100
C3801	C380	0.720200	0.340930	0.306930
H3501	H350	0.747100	0.362400	0.285500
C3811	C381	0.779100	0.303080	0.325770
H3511	H351	0.844200	0.299700	0.316300
C3821	C382	0.744380	0.270160	0.358060
H3521	H352	0.784100	0.245000	0.370900
C3831	C383	0.646040	0.277210	0.370100
C3841	C384	0.498160	0.275830	0.399620
H3531	H353	0.445500	0.265800	0.417400
C3851	C385	0.618780	0.211700	0.431080
H3541	H354	0.560800	0.196500	0.444700
H3551	H355	0.652400	0.184800	0.414600
C3861	C386	0.687400	0.232090	0.466710
C3871	C387	0.662310	0.274040	0.492510
H3561	H356	0.602300	0.290600	0.487600
C3881	C388	0.776540	0.208300	0.475030
H3571	H357	0.795300	0.179800	0.458300
C3891	C389	0.364900	0.397600	0.270830
C3901	C390	0.380800	0.328200	0.207100
H3581	H358	0.326500	0.325800	0.186800
H3591	H359	0.442100	0.326800	0.191200
H3601	H360	0.377800	0.299800	0.227500
N611	N61	0.992000	0.813550	0.371490
N621	N62	0.087790	0.752270	0.400940
C3911	C391	0.085680	0.815070	0.351310
C3921	C392	0.122800	0.847540	0.319070
H3611	H361	0.083500	0.872800	0.306100
C3931	C393	0.220200	0.840930	0.306930
H3621	H362	0.247100	0.862400	0.285500
C3941	C394	0.279100	0.803080	0.325770
H3631	H363	0.344200	0.799700	0.316300
C3951	C395	0.244380	0.770160	0.358060
H3641	H364	0.284100	0.745000	0.370900
C3961	C396	0.146040	0.777210	0.370100
C3971	C397	0.998160	0.775830	0.399620
H3651	H365	0.945500	0.765800	0.417400
C3981	C398	0.118780	0.711700	0.431080
H3661	H366	0.060800	0.696500	0.444700
H3671	H367	0.152400	0.684800	0.414600
C3991	C399	0.187400	0.732090	0.466710
C4001	C400	0.162310	0.774040	0.492510
H3681	H368	0.102300	0.790600	0.487600
C4011	C401	0.276540	0.708300	0.475030
H3691	H369	0.295300	0.679800	0.458300
C4021	C402	0.864900	0.897600	0.270830
C4031	C403	0.880800	0.828200	0.207100
H3701	H370	0.826500	0.825800	0.186800
H3711	H371	0.942100	0.826800	0.191200
H3721	H372	0.877800	0.799800	0.227500
N631	N63	0.992000	0.313550	0.871490
N641	N64	0.087790	0.252270	0.900940
C4041	C404	0.085680	0.315070	0.851310
C4051	C405	0.122800	0.347540	0.819070
H3731	H373	0.083500	0.372800	0.806100
C4061	C406	0.220200	0.340930	0.806930
H3741	H374	0.247100	0.362400	0.785500
C4071	C407	0.279100	0.303080	0.825770
H3751	H375	0.344200	0.299700	0.816300
C4081	C408	0.244380	0.270160	0.858060
H3761	H376	0.284100	0.245000	0.870900
C4091	C409	0.146040	0.277210	0.870100
C4101	C410	0.998160	0.275830	0.899620
H3771	H377	0.945500	0.265800	0.917400
C4111	C411	0.118780	0.211700	0.931080
H3781	H378	0.060800	0.196500	0.944700
H3791	H379	0.152400	0.184800	0.914600
C4121	C412	0.187400	0.232090	0.966710
C4131	C413	0.162310	0.274040	0.992510
H3801	H380	0.102300	0.290600	0.987600
C4141	C414	0.276540	0.208300	0.975030
H3811	H381	0.295300	0.179800	0.958300
C4151	C415	0.864900	0.397600	0.770830
C4161	C416	0.880800	0.328200	0.707100
H3821	H382	0.826500	0.325800	0.686800
H3831	H383	0.942100	0.326800	0.691200
H3841	H384	0.877800	0.299800	0.727500
Co11	Co1	0.625000	0.625000	0.625000
Co21	Co2	0.125000	0.125000	0.625000
Co31	Co3	0.125000	0.625000	0.125000
Co41	Co4	0.625000	0.125000	0.125000
Co51	Co5	0.375000	0.375000	0.375000
Co61	Co6	0.875000	0.875000	0.375000
Co71	Co7	0.875000	0.375000	0.875000
Co81	Co8	0.375000	0.875000	0.875000
O11	O1	0.625000	0.625000	0.553640
N651	N65	0.625000	0.625000	0.480410
O21	O2	0.625000	0.125000	0.053640
N661	N66	0.625000	0.125000	0.980410
O31	O3	0.125000	0.125000	0.553640
N671	N67	0.125000	0.125000	0.480410
O41	O4	0.125000	0.625000	0.053640
N681	N68	0.125000	0.625000	0.980410
O51	O5	0.125000	0.625000	0.196360
N691	N69	0.125000	0.625000	0.269590
O61	O6	0.125000	0.125000	0.696360
N701	N70	0.125000	0.125000	0.769590
O71	O7	0.625000	0.625000	0.696360
N711	N71	0.625000	0.625000	0.769590
O81	O8	0.625000	0.125000	0.196360
N721	N72	0.625000	0.125000	0.269590
O91	O9	0.375000	0.375000	0.446360
N731	N73	0.375000	0.375000	0.519590
O101	O10	0.375000	0.875000	0.946360
N741	N74	0.375000	0.875000	0.019590
O111	O11	0.875000	0.875000	0.446360
N751	N75	0.875000	0.875000	0.519590
O121	O12	0.875000	0.375000	0.946360
N761	N76	0.875000	0.375000	0.019590
O131	O13	0.875000	0.375000	0.803640
N771	N77	0.875000	0.375000	0.730410
O141	O14	0.875000	0.875000	0.303640
N781	N78	0.875000	0.875000	0.230410
O151	O15	0.375000	0.875000	0.803640
N791	N79	0.375000	0.875000	0.730410
O161	O16	0.375000	0.375000	0.303640
N801	N80	0.375000	0.375000	0.230410
