data_CICSOW_freeONLY_PM
_symmetry_space_group_name_H-M	'P1'
_cell_length_a	11.030000
_cell_length_b	11.030000
_cell_length_c	33.008000
_cell_angle_alpha	90.000000
_cell_angle_beta	90.000000
_cell_angle_gamma	120.000000
_symmetry_Int_Tables_number 1

loop_
_symmetry_equiv_pos_as_xyz
'x,y,z'

loop_
_atom_site_label
_atom_site_type_symbol
_atom_site_fract_x
_atom_site_fract_y
_atom_site_fract_z
N11	N1	0.169200	0.055400	0.034000
N21	N2	0.243400	0.180800	0.055400
N31	N3	0.320300	0.040700	0.071500
N41	N4	0.384100	0.980200	0.091900
N51	N5	0.503000	0.874800	0.102200
N61	N6	0.400500	0.835300	0.131800
C11	C1	0.217500	0.975500	0.043800
C21	C2	0.332500	0.168400	0.077900
C31	C3	0.488100	0.959500	0.078400
C41	C4	0.331700	0.899900	0.125400
H11	H1	0.192000	0.886000	0.030000
H21	H2	0.398000	0.238000	0.094000
H31	H3	0.531000	0.995000	0.058000
H41	H4	0.260000	0.902000	0.139000
N71	N7	0.835870	0.388730	0.367330
N81	N8	0.910070	0.514130	0.388730
N91	N9	0.986970	0.374030	0.404830
N101	N10	0.050770	0.313530	0.425230
N111	N11	0.169670	0.208130	0.435530
N121	N12	0.067170	0.168630	0.465130
C51	C5	0.884170	0.308830	0.377130
C61	C6	0.999170	0.501730	0.411230
C71	C7	0.154770	0.292830	0.411730
C81	C8	0.998370	0.233230	0.458730
H51	H5	0.858670	0.219330	0.363330
H61	H6	0.064670	0.571330	0.427330
H71	H7	0.197670	0.328330	0.391330
H81	H8	0.926670	0.235330	0.472330
N131	N13	0.502530	0.722070	0.700670
N141	N14	0.576730	0.847470	0.722070
N151	N15	0.653630	0.707370	0.738170
N161	N16	0.717430	0.646870	0.758570
N171	N17	0.836330	0.541470	0.768870
N181	N18	0.733830	0.501970	0.798470
C91	C9	0.550830	0.642170	0.710470
C101	C10	0.665830	0.835070	0.744570
C111	C11	0.821430	0.626170	0.745070
C121	C12	0.665030	0.566570	0.792070
H91	H9	0.525330	0.552670	0.696670
H101	H10	0.731330	0.904670	0.760670
H111	H11	0.864330	0.661670	0.724670
H121	H12	0.593330	0.568670	0.805670
N191	N19	0.944600	0.113800	0.034000
N201	N20	0.819200	0.062600	0.055400
N211	N21	0.959300	0.279600	0.071500
N221	N22	0.019800	0.403900	0.091900
N231	N23	0.125200	0.628200	0.102200
N241	N24	0.164700	0.565200	0.131800
C131	C13	0.024500	0.242000	0.043800
C141	C14	0.831600	0.164100	0.077900
C151	C15	0.040500	0.528600	0.078400
C161	C16	0.100100	0.431800	0.125400
H131	H13	0.114000	0.306000	0.030000
H141	H14	0.762000	0.160000	0.094000
H151	H15	0.005000	0.536000	0.058000
H161	H16	0.098000	0.358000	0.139000
N251	N25	0.611270	0.447130	0.367330
N261	N26	0.485870	0.395930	0.388730
N271	N27	0.625970	0.612930	0.404830
N281	N28	0.686470	0.737230	0.425230
N291	N29	0.791870	0.961530	0.435530
N301	N30	0.831370	0.898530	0.465130
C171	C17	0.691170	0.575330	0.377130
C181	C18	0.498270	0.497430	0.411230
C191	C19	0.707170	0.861930	0.411730
C201	C20	0.766770	0.765130	0.458730
H171	H17	0.780670	0.639330	0.363330
H181	H18	0.428670	0.493330	0.427330
H191	H19	0.671670	0.869330	0.391330
H201	H20	0.764670	0.691330	0.472330
N311	N31	0.277930	0.780470	0.700670
N321	N32	0.152530	0.729270	0.722070
N331	N33	0.292630	0.946270	0.738170
N341	N34	0.353130	0.070570	0.758570
N351	N35	0.458530	0.294870	0.768870
N361	N36	0.498030	0.231870	0.798470
C211	C21	0.357830	0.908670	0.710470
C221	C22	0.164930	0.830770	0.744570
C231	C23	0.373830	0.195270	0.745070
C241	C24	0.433430	0.098470	0.792070
H211	H21	0.447330	0.972670	0.696670
H221	H22	0.095330	0.826670	0.760670
H231	H23	0.338330	0.202670	0.724670
H241	H24	0.431330	0.024670	0.805670
N371	N37	0.886200	0.830800	0.034000
N381	N38	0.937400	0.756600	0.055400
N391	N39	0.720400	0.679700	0.071500
N401	N40	0.596100	0.615900	0.091900
N411	N41	0.371800	0.497000	0.102200
N421	N42	0.434800	0.599500	0.131800
C251	C25	0.758000	0.782500	0.043800
C261	C26	0.835900	0.667500	0.077900
C271	C27	0.471400	0.511900	0.078400
C281	C28	0.568200	0.668300	0.125400
H251	H25	0.694000	0.808000	0.030000
H261	H26	0.840000	0.602000	0.094000
H271	H27	0.464000	0.469000	0.058000
H281	H28	0.642000	0.740000	0.139000
N431	N43	0.552870	0.164130	0.367330
N441	N44	0.604070	0.089930	0.388730
N451	N45	0.387070	0.013030	0.404830
N461	N46	0.262770	0.949230	0.425230
N471	N47	0.038470	0.830330	0.435530
N481	N48	0.101470	0.932830	0.465130
C291	C29	0.424670	0.115830	0.377130
C301	C30	0.502570	0.000830	0.411230
C311	C31	0.138070	0.845230	0.411730
C321	C32	0.234870	0.001630	0.458730
H291	H29	0.360670	0.141330	0.363330
H301	H30	0.506670	0.935330	0.427330
H311	H31	0.130670	0.802330	0.391330
H321	H32	0.308670	0.073330	0.472330
N491	N49	0.219530	0.497470	0.700670
N501	N50	0.270730	0.423270	0.722070
N511	N51	0.053730	0.346370	0.738170
N521	N52	0.929430	0.282570	0.758570
N531	N53	0.705130	0.163670	0.768870
N541	N54	0.768130	0.266170	0.798470
C331	C33	0.091330	0.449170	0.710470
C341	C34	0.169230	0.334170	0.744570
C351	C35	0.804730	0.178570	0.745070
C361	C36	0.901530	0.334970	0.792070
H331	H33	0.027330	0.474670	0.696670
H341	H34	0.173330	0.268670	0.760670
H351	H35	0.797330	0.135670	0.724670
H361	H36	0.975330	0.406670	0.805670
N551	N55	0.830800	0.944600	0.966000
N561	N56	0.756600	0.819200	0.944600
N571	N57	0.679700	0.959300	0.928500
N581	N58	0.615900	0.019800	0.908100
N591	N59	0.497000	0.125200	0.897800
N601	N60	0.599500	0.164700	0.868200
C371	C37	0.782500	0.024500	0.956200
C381	C38	0.667500	0.831600	0.922100
C391	C39	0.511900	0.040500	0.921600
C401	C40	0.668300	0.100100	0.874600
H371	H37	0.808000	0.114000	0.970000
H381	H38	0.602000	0.762000	0.906000
H391	H39	0.469000	0.005000	0.942000
H401	H40	0.740000	0.098000	0.861000
N611	N61	0.497470	0.277930	0.299330
N621	N62	0.423270	0.152530	0.277930
N631	N63	0.346370	0.292630	0.261830
N641	N64	0.282570	0.353130	0.241430
N651	N65	0.163670	0.458530	0.231130
N661	N66	0.266170	0.498030	0.201530
C411	C41	0.449170	0.357830	0.289530
C421	C42	0.334170	0.164930	0.255430
C431	C43	0.178570	0.373830	0.254930
C441	C44	0.334970	0.433430	0.207930
H411	H41	0.474670	0.447330	0.303330
H421	H42	0.268670	0.095330	0.239330
H431	H43	0.135670	0.338330	0.275330
H441	H44	0.406670	0.431330	0.194330
N671	N67	0.164130	0.611270	0.632670
N681	N68	0.089930	0.485870	0.611270
N691	N69	0.013030	0.625970	0.595170
N701	N70	0.949230	0.686470	0.574770
N711	N71	0.830330	0.791870	0.564470
N721	N72	0.932830	0.831370	0.534870
C451	C45	0.115830	0.691170	0.622870
C461	C46	0.000830	0.498270	0.588770
C471	C47	0.845230	0.707170	0.588270
C481	C48	0.001630	0.766770	0.541270
H451	H45	0.141330	0.780670	0.636670
H461	H46	0.935330	0.428670	0.572670
H471	H47	0.802330	0.671670	0.608670
H481	H48	0.073330	0.764670	0.527670
N731	N73	0.055400	0.886200	0.966000
N741	N74	0.180800	0.937400	0.944600
N751	N75	0.040700	0.720400	0.928500
N761	N76	0.980200	0.596100	0.908100
N771	N77	0.874800	0.371800	0.897800
N781	N78	0.835300	0.434800	0.868200
C491	C49	0.975500	0.758000	0.956200
C501	C50	0.168400	0.835900	0.922100
C511	C51	0.959500	0.471400	0.921600
C521	C52	0.899900	0.568200	0.874600
H491	H49	0.886000	0.694000	0.970000
H501	H50	0.238000	0.840000	0.906000
H511	H51	0.995000	0.464000	0.942000
H521	H52	0.902000	0.642000	0.861000
N791	N79	0.722070	0.219530	0.299330
N801	N80	0.847470	0.270730	0.277930
N811	N81	0.707370	0.053730	0.261830
N821	N82	0.646870	0.929430	0.241430
N831	N83	0.541470	0.705130	0.231130
N841	N84	0.501970	0.768130	0.201530
C531	C53	0.642170	0.091330	0.289530
C541	C54	0.835070	0.169230	0.255430
C551	C55	0.626170	0.804730	0.254930
C561	C56	0.566570	0.901530	0.207930
H531	H53	0.552670	0.027330	0.303330
H541	H54	0.904670	0.173330	0.239330
H551	H55	0.661670	0.797330	0.275330
H561	H56	0.568670	0.975330	0.194330
N851	N85	0.388730	0.552870	0.632670
N861	N86	0.514130	0.604070	0.611270
N871	N87	0.374030	0.387070	0.595170
N881	N88	0.313530	0.262770	0.574770
N891	N89	0.208130	0.038470	0.564470
N901	N90	0.168630	0.101470	0.534870
C571	C57	0.308830	0.424670	0.622870
C581	C58	0.501730	0.502570	0.588770
C591	C59	0.292830	0.138070	0.588270
C601	C60	0.233230	0.234870	0.541270
H571	H57	0.219330	0.360670	0.636670
H581	H58	0.571330	0.506670	0.572670
H591	H59	0.328330	0.130670	0.608670
H601	H60	0.235330	0.308670	0.527670
N911	N91	0.113800	0.169200	0.966000
N921	N92	0.062600	0.243400	0.944600
N931	N93	0.279600	0.320300	0.928500
N941	N94	0.403900	0.384100	0.908100
N951	N95	0.628200	0.503000	0.897800
N961	N96	0.565200	0.400500	0.868200
C611	C61	0.242000	0.217500	0.956200
C621	C62	0.164100	0.332500	0.922100
C631	C63	0.528600	0.488100	0.921600
C641	C64	0.431800	0.331700	0.874600
H611	H61	0.306000	0.192000	0.970000
H621	H62	0.160000	0.398000	0.906000
H631	H63	0.536000	0.531000	0.942000
H641	H64	0.358000	0.260000	0.861000
N971	N97	0.780470	0.502530	0.299330
N981	N98	0.729270	0.576730	0.277930
N991	N99	0.946270	0.653630	0.261830
N1001	N100	0.070570	0.717430	0.241430
N1011	N101	0.294870	0.836330	0.231130
N1021	N102	0.231870	0.733830	0.201530
C651	C65	0.908670	0.550830	0.289530
C661	C66	0.830770	0.665830	0.255430
C671	C67	0.195270	0.821430	0.254930
C681	C68	0.098470	0.665030	0.207930
H651	H65	0.972670	0.525330	0.303330
H661	H66	0.826670	0.731330	0.239330
H671	H67	0.202670	0.864330	0.275330
H681	H68	0.024670	0.593330	0.194330
N1031	N103	0.447130	0.835870	0.632670
N1041	N104	0.395930	0.910070	0.611270
N1051	N105	0.612930	0.986970	0.595170
N1061	N106	0.737230	0.050770	0.574770
N1071	N107	0.961530	0.169670	0.564470
N1081	N108	0.898530	0.067170	0.534870
C691	C69	0.575330	0.884170	0.622870
C701	C70	0.497430	0.999170	0.588770
C711	C71	0.861930	0.154770	0.588270
C721	C72	0.765130	0.998370	0.541270
H691	H69	0.639330	0.858670	0.636670
H701	H70	0.493330	0.064670	0.572670
H711	H71	0.869330	0.197670	0.608670
H721	H72	0.691330	0.926670	0.527670
Fe11	Fe1	0.000000	0.000000	0.000000
Fe21	Fe2	0.666670	0.333330	0.333330
Fe31	Fe3	0.333330	0.666670	0.666670
Fe41	Fe4	0.666670	0.333330	0.833330
Fe51	Fe5	0.333330	0.666670	0.166670
Fe61	Fe6	0.000000	0.000000	0.500000
