data_CIGXIA_manual_PM
_symmetry_space_group_name_H-M	'P1'
_cell_length_a	51.859300
_cell_length_b	51.859300
_cell_length_c	51.859300
_cell_angle_alpha	60.000000
_cell_angle_beta	60.000000
_cell_angle_gamma	60.000000
_symmetry_Int_Tables_number 1

loop_
_symmetry_equiv_pos_as_xyz
'x,y,z'

loop_
_atom_site_label
_atom_site_type_symbol
_atom_site_fract_x
_atom_site_fract_y
_atom_site_fract_z
Fe11	Fe1	0.746050	0.408300	0.890700
Fe21	Fe2	0.320400	0.664630	0.904220
O11	O1	0.761480	0.579600	0.804490
O21	O2	0.739770	0.644800	0.782770
O31	O3	0.558910	0.505150	0.943150
O41	O4	0.446920	0.502940	0.003610
O51	O5	0.532940	0.478300	0.948220
O61	O6	0.729990	0.485750	0.867290
O71	O7	0.677450	0.467550	0.902750
O81	O8	0.756900	0.442270	0.853860
O91	O9	0.789590	0.392140	0.887630
O101	O10	0.736200	0.371650	0.924640
O111	O11	0.704130	0.423120	0.890820
O121	O12	0.281300	0.655360	0.980680
O131	O13	0.302490	0.594200	0.000540
O141	O14	0.309720	0.681410	0.934740
O151	O15	0.347650	0.567440	0.971600
O161	O16	0.332600	0.652700	0.870010
O171	O17	0.362940	0.649910	0.902390
C11	C1	0.378800	0.539590	0.017300
C21	C2	0.346530	0.560280	0.022320
C31	C3	0.330960	0.574570	0.996910
C41	C4	0.764030	0.521160	0.810690
C51	C5	0.769220	0.489510	0.816630
C61	C6	0.750510	0.471450	0.847580
C71	C7	0.648760	0.419900	0.897500
C81	C8	0.591370	0.436770	0.918150
C91	C9	0.648250	0.445380	0.900790
C101	C10	0.589620	0.463290	0.921200
C111	C11	0.618550	0.467210	0.912270
C121	C12	0.620860	0.414700	0.906790
C131	C13	0.558420	0.483820	0.938100
C141	C14	0.622930	0.384130	0.908500
C151	C15	0.678620	0.445720	0.897260
C161	C16	0.706670	0.323350	0.008350
C171	C17	0.688090	0.303010	0.028470
C181	C18	0.296980	0.674450	0.964510
Fe31	Fe3	0.408300	0.746050	0.954940
Fe41	Fe4	0.664630	0.320400	0.110760
O181	O18	0.579600	0.761480	0.854430
O191	O19	0.644800	0.739770	0.832660
O201	O20	0.505150	0.558910	0.992790
O211	O21	0.502940	0.446920	0.046530
O221	O22	0.478300	0.532940	0.040530
O231	O23	0.485750	0.729990	0.916980
O241	O24	0.467550	0.677450	0.952240
O251	O25	0.442270	0.756900	0.946970
O261	O26	0.392140	0.789590	0.930640
O271	O27	0.371650	0.736200	0.967510
O281	O28	0.423120	0.704130	0.981930
O291	O29	0.655360	0.281300	0.082670
O301	O30	0.594200	0.302490	0.102770
O311	O31	0.681410	0.309720	0.074130
O321	O32	0.567440	0.347650	0.113310
O331	O33	0.652700	0.332600	0.144700
O341	O34	0.649910	0.362940	0.084770
C191	C19	0.539590	0.378800	0.064310
C201	C20	0.560280	0.346530	0.070870
C211	C21	0.574570	0.330960	0.097560
C221	C22	0.521160	0.764030	0.904120
C231	C23	0.489510	0.769220	0.924640
C241	C24	0.471450	0.750510	0.930460
C251	C25	0.419900	0.648760	0.033840
C261	C26	0.436770	0.591370	0.053710
C271	C27	0.445380	0.648250	0.005580
C281	C28	0.463290	0.589620	0.025890
C291	C29	0.467210	0.618550	0.001980
C301	C30	0.414700	0.620860	0.057650
C311	C31	0.483820	0.558420	0.019660
C321	C32	0.384130	0.622930	0.084450
C331	C33	0.445720	0.678620	0.978400
C341	C34	0.323350	0.706670	0.961630
C351	C35	0.303010	0.688090	0.980440
C361	C36	0.674450	0.296980	0.064060
Fe51	Fe5	0.890700	0.954940	0.746050
Fe61	Fe6	0.904220	0.110760	0.320400
O351	O35	0.804490	0.854430	0.761480
O361	O36	0.782770	0.832660	0.739770
O371	O37	0.943150	0.992790	0.558910
O381	O38	0.003610	0.046530	0.446920
O391	O39	0.948220	0.040530	0.532940
O401	O40	0.867290	0.916980	0.729990
O411	O41	0.902750	0.952240	0.677450
O421	O42	0.853860	0.946970	0.756900
O431	O43	0.887630	0.930640	0.789590
O441	O44	0.924640	0.967510	0.736200
O451	O45	0.890820	0.981930	0.704130
O461	O46	0.980680	0.082670	0.281300
O471	O47	0.000540	0.102770	0.302490
O481	O48	0.934740	0.074130	0.309720
O491	O49	0.971600	0.113310	0.347650
O501	O50	0.870010	0.144700	0.332600
O511	O51	0.902390	0.084770	0.362940
C371	C37	0.017300	0.064310	0.378800
C381	C38	0.022320	0.070870	0.346530
C391	C39	0.996910	0.097560	0.330960
C401	C40	0.810690	0.904120	0.764030
C411	C41	0.816630	0.924640	0.769220
C421	C42	0.847580	0.930460	0.750510
C431	C43	0.897500	0.033840	0.648760
C441	C44	0.918150	0.053710	0.591370
C451	C45	0.900790	0.005580	0.648250
C461	C46	0.921200	0.025890	0.589620
C471	C47	0.912270	0.001980	0.618550
C481	C48	0.906790	0.057650	0.620860
C491	C49	0.938100	0.019660	0.558420
C501	C50	0.908500	0.084450	0.622930
C511	C51	0.897260	0.978400	0.678620
C521	C52	0.008350	0.961630	0.706670
C531	C53	0.028470	0.980440	0.688090
C541	C54	0.964510	0.064060	0.296980
Fe71	Fe7	0.954940	0.890700	0.408300
Fe81	Fe8	0.110760	0.904220	0.664630
O521	O52	0.854430	0.804490	0.579600
O531	O53	0.832660	0.782770	0.644800
O541	O54	0.992790	0.943150	0.505150
O551	O55	0.046530	0.003610	0.502940
O561	O56	0.040530	0.948220	0.478300
O571	O57	0.916980	0.867290	0.485750
O581	O58	0.952240	0.902750	0.467550
O591	O59	0.946970	0.853860	0.442270
O601	O60	0.930640	0.887630	0.392140
O611	O61	0.967510	0.924640	0.371650
O621	O62	0.981930	0.890820	0.423120
O631	O63	0.082670	0.980680	0.655360
O641	O64	0.102770	0.000540	0.594200
O651	O65	0.074130	0.934740	0.681410
O661	O66	0.113310	0.971600	0.567440
O671	O67	0.144700	0.870010	0.652700
O681	O68	0.084770	0.902390	0.649910
C551	C55	0.064310	0.017300	0.539590
C561	C56	0.070870	0.022320	0.560280
C571	C57	0.097560	0.996910	0.574570
C581	C58	0.904120	0.810690	0.521160
C591	C59	0.924640	0.816630	0.489510
C601	C60	0.930460	0.847580	0.471450
C611	C61	0.033840	0.897500	0.419900
C621	C62	0.053710	0.918150	0.436770
C631	C63	0.005580	0.900790	0.445380
C641	C64	0.025890	0.921200	0.463290
C651	C65	0.001980	0.912270	0.467210
C661	C66	0.057650	0.906790	0.414700
C671	C67	0.019660	0.938100	0.483820
C681	C68	0.084450	0.908500	0.384130
C691	C69	0.978400	0.897260	0.445720
C701	C70	0.961630	0.008350	0.323350
C711	C71	0.980440	0.028470	0.303010
C721	C72	0.064060	0.964510	0.674450
Fe91	Fe9	0.890700	0.746050	0.408300
Fe101	Fe10	0.904220	0.320400	0.664630
O691	O69	0.804490	0.761480	0.579600
O701	O70	0.782770	0.739770	0.644800
O711	O71	0.943150	0.558910	0.505150
O721	O72	0.003610	0.446920	0.502940
O731	O73	0.948220	0.532940	0.478300
O741	O74	0.867290	0.729990	0.485750
O751	O75	0.902750	0.677450	0.467550
O761	O76	0.853860	0.756900	0.442270
O771	O77	0.887630	0.789590	0.392140
O781	O78	0.924640	0.736200	0.371650
O791	O79	0.890820	0.704130	0.423120
O801	O80	0.980680	0.281300	0.655360
O811	O81	0.000540	0.302490	0.594200
O821	O82	0.934740	0.309720	0.681410
O831	O83	0.971600	0.347650	0.567440
O841	O84	0.870010	0.332600	0.652700
O851	O85	0.902390	0.362940	0.649910
C731	C73	0.017300	0.378800	0.539590
C741	C74	0.022320	0.346530	0.560280
C751	C75	0.996910	0.330960	0.574570
C761	C76	0.810690	0.764030	0.521160
C771	C77	0.816630	0.769220	0.489510
C781	C78	0.847580	0.750510	0.471450
C791	C79	0.897500	0.648760	0.419900
C801	C80	0.918150	0.591370	0.436770
C811	C81	0.900790	0.648250	0.445380
C821	C82	0.921200	0.589620	0.463290
C831	C83	0.912270	0.618550	0.467210
C841	C84	0.906790	0.620860	0.414700
C851	C85	0.938100	0.558420	0.483820
C861	C86	0.908500	0.622930	0.384130
C871	C87	0.897260	0.678620	0.445720
C881	C88	0.008350	0.706670	0.323350
C891	C89	0.028470	0.688090	0.303010
C901	C90	0.964510	0.296980	0.674450
Fe111	Fe11	0.954940	0.408300	0.746050
Fe121	Fe12	0.110760	0.664630	0.320400
O861	O86	0.854430	0.579600	0.761480
O871	O87	0.832660	0.644800	0.739770
O881	O88	0.992790	0.505150	0.558910
O891	O89	0.046530	0.502940	0.446920
O901	O90	0.040530	0.478300	0.532940
O911	O91	0.916980	0.485750	0.729990
O921	O92	0.952240	0.467550	0.677450
O931	O93	0.946970	0.442270	0.756900
O941	O94	0.930640	0.392140	0.789590
O951	O95	0.967510	0.371650	0.736200
O961	O96	0.981930	0.423120	0.704130
O971	O97	0.082670	0.655360	0.281300
O981	O98	0.102770	0.594200	0.302490
O991	O99	0.074130	0.681410	0.309720
O1001	O100	0.113310	0.567440	0.347650
O1011	O101	0.144700	0.652700	0.332600
O1021	O102	0.084770	0.649910	0.362940
C911	C91	0.064310	0.539590	0.378800
C921	C92	0.070870	0.560280	0.346530
C931	C93	0.097560	0.574570	0.330960
C941	C94	0.904120	0.521160	0.764030
C951	C95	0.924640	0.489510	0.769220
C961	C96	0.930460	0.471450	0.750510
C971	C97	0.033840	0.419900	0.648760
C981	C98	0.053710	0.436770	0.591370
C991	C99	0.005580	0.445380	0.648250
C1001	C100	0.025890	0.463290	0.589620
C1011	C101	0.001980	0.467210	0.618550
C1021	C102	0.057650	0.414700	0.620860
C1031	C103	0.019660	0.483820	0.558420
C1041	C104	0.084450	0.384130	0.622930
C1051	C105	0.978400	0.445720	0.678620
C1061	C106	0.961630	0.323350	0.706670
C1071	C107	0.980440	0.303010	0.688090
C1081	C108	0.064060	0.674450	0.296980
Fe131	Fe13	0.746050	0.890700	0.954940
Fe141	Fe14	0.320400	0.904220	0.110760
O1031	O103	0.761480	0.804490	0.854430
O1041	O104	0.739770	0.782770	0.832660
O1051	O105	0.558910	0.943150	0.992790
O1061	O106	0.446920	0.003610	0.046530
O1071	O107	0.532940	0.948220	0.040530
O1081	O108	0.729990	0.867290	0.916980
O1091	O109	0.677450	0.902750	0.952240
O1101	O110	0.756900	0.853860	0.946970
O1111	O111	0.789590	0.887630	0.930640
O1121	O112	0.736200	0.924640	0.967510
O1131	O113	0.704130	0.890820	0.981930
O1141	O114	0.281300	0.980680	0.082670
O1151	O115	0.302490	0.000540	0.102770
O1161	O116	0.309720	0.934740	0.074130
O1171	O117	0.347650	0.971600	0.113310
O1181	O118	0.332600	0.870010	0.144700
O1191	O119	0.362940	0.902390	0.084770
C1091	C109	0.378800	0.017300	0.064310
C1101	C110	0.346530	0.022320	0.070870
C1111	C111	0.330960	0.996910	0.097560
C1121	C112	0.764030	0.810690	0.904120
C1131	C113	0.769220	0.816630	0.924640
C1141	C114	0.750510	0.847580	0.930460
C1151	C115	0.648760	0.897500	0.033840
C1161	C116	0.591370	0.918150	0.053710
C1171	C117	0.648250	0.900790	0.005580
C1181	C118	0.589620	0.921200	0.025890
C1191	C119	0.618550	0.912270	0.001980
C1201	C120	0.620860	0.906790	0.057650
C1211	C121	0.558420	0.938100	0.019660
C1221	C122	0.622930	0.908500	0.084450
C1231	C123	0.678620	0.897260	0.978400
C1241	C124	0.706670	0.008350	0.961630
C1251	C125	0.688090	0.028470	0.980440
C1261	C126	0.296980	0.964510	0.064060
Fe151	Fe15	0.408300	0.954940	0.890700
Fe161	Fe16	0.664630	0.110760	0.904220
O1201	O120	0.579600	0.854430	0.804490
O1211	O121	0.644800	0.832660	0.782770
O1221	O122	0.505150	0.992790	0.943150
O1231	O123	0.502940	0.046530	0.003610
O1241	O124	0.478300	0.040530	0.948220
O1251	O125	0.485750	0.916980	0.867290
O1261	O126	0.467550	0.952240	0.902750
O1271	O127	0.442270	0.946970	0.853860
O1281	O128	0.392140	0.930640	0.887630
O1291	O129	0.371650	0.967510	0.924640
O1301	O130	0.423120	0.981930	0.890820
O1311	O131	0.655360	0.082670	0.980680
O1321	O132	0.594200	0.102770	0.000540
O1331	O133	0.681410	0.074130	0.934740
O1341	O134	0.567440	0.113310	0.971600
O1351	O135	0.652700	0.144700	0.870010
O1361	O136	0.649910	0.084770	0.902390
C1271	C127	0.539590	0.064310	0.017300
C1281	C128	0.560280	0.070870	0.022320
C1291	C129	0.574570	0.097560	0.996910
C1301	C130	0.521160	0.904120	0.810690
C1311	C131	0.489510	0.924640	0.816630
C1321	C132	0.471450	0.930460	0.847580
C1331	C133	0.419900	0.033840	0.897500
C1341	C134	0.436770	0.053710	0.918150
C1351	C135	0.445380	0.005580	0.900790
C1361	C136	0.463290	0.025890	0.921200
C1371	C137	0.467210	0.001980	0.912270
C1381	C138	0.414700	0.057650	0.906790
C1391	C139	0.483820	0.019660	0.938100
C1401	C140	0.384130	0.084450	0.908500
C1411	C141	0.445720	0.978400	0.897260
C1421	C142	0.323350	0.961630	0.008350
C1431	C143	0.303010	0.980440	0.028470
C1441	C144	0.674450	0.064060	0.964510
Fe171	Fe17	0.408300	0.890700	0.746050
Fe181	Fe18	0.664630	0.904220	0.320400
O1371	O137	0.579600	0.804490	0.761480
O1381	O138	0.644800	0.782770	0.739770
O1391	O139	0.505150	0.943150	0.558910
O1401	O140	0.502940	0.003610	0.446920
O1411	O141	0.478300	0.948220	0.532940
O1421	O142	0.485750	0.867290	0.729990
O1431	O143	0.467550	0.902750	0.677450
O1441	O144	0.442270	0.853860	0.756900
O1451	O145	0.392140	0.887630	0.789590
O1461	O146	0.371650	0.924640	0.736200
O1471	O147	0.423120	0.890820	0.704130
O1481	O148	0.655360	0.980680	0.281300
O1491	O149	0.594200	0.000540	0.302490
O1501	O150	0.681410	0.934740	0.309720
O1511	O151	0.567440	0.971600	0.347650
O1521	O152	0.652700	0.870010	0.332600
O1531	O153	0.649910	0.902390	0.362940
C1451	C145	0.539590	0.017300	0.378800
C1461	C146	0.560280	0.022320	0.346530
C1471	C147	0.574570	0.996910	0.330960
C1481	C148	0.521160	0.810690	0.764030
C1491	C149	0.489510	0.816630	0.769220
C1501	C150	0.471450	0.847580	0.750510
C1511	C151	0.419900	0.897500	0.648760
C1521	C152	0.436770	0.918150	0.591370
C1531	C153	0.445380	0.900790	0.648250
C1541	C154	0.463290	0.921200	0.589620
C1551	C155	0.467210	0.912270	0.618550
C1561	C156	0.414700	0.906790	0.620860
C1571	C157	0.483820	0.938100	0.558420
C1581	C158	0.384130	0.908500	0.622930
C1591	C159	0.445720	0.897260	0.678620
C1601	C160	0.323350	0.008350	0.706670
C1611	C161	0.303010	0.028470	0.688090
C1621	C162	0.674450	0.964510	0.296980
Fe191	Fe19	0.746050	0.954940	0.408300
Fe201	Fe20	0.320400	0.110760	0.664630
O1541	O154	0.761480	0.854430	0.579600
O1551	O155	0.739770	0.832660	0.644800
O1561	O156	0.558910	0.992790	0.505150
O1571	O157	0.446920	0.046530	0.502940
O1581	O158	0.532940	0.040530	0.478300
O1591	O159	0.729990	0.916980	0.485750
O1601	O160	0.677450	0.952240	0.467550
O1611	O161	0.756900	0.946970	0.442270
O1621	O162	0.789590	0.930640	0.392140
O1631	O163	0.736200	0.967510	0.371650
O1641	O164	0.704130	0.981930	0.423120
O1651	O165	0.281300	0.082670	0.655360
O1661	O166	0.302490	0.102770	0.594200
O1671	O167	0.309720	0.074130	0.681410
O1681	O168	0.347650	0.113310	0.567440
O1691	O169	0.332600	0.144700	0.652700
O1701	O170	0.362940	0.084770	0.649910
C1631	C163	0.378800	0.064310	0.539590
C1641	C164	0.346530	0.070870	0.560280
C1651	C165	0.330960	0.097560	0.574570
C1661	C166	0.764030	0.904120	0.521160
C1671	C167	0.769220	0.924640	0.489510
C1681	C168	0.750510	0.930460	0.471450
C1691	C169	0.648760	0.033840	0.419900
C1701	C170	0.591370	0.053710	0.436770
C1711	C171	0.648250	0.005580	0.445380
C1721	C172	0.589620	0.025890	0.463290
C1731	C173	0.618550	0.001980	0.467210
C1741	C174	0.620860	0.057650	0.414700
C1751	C175	0.558420	0.019660	0.483820
C1761	C176	0.622930	0.084450	0.384130
C1771	C177	0.678620	0.978400	0.445720
C1781	C178	0.706670	0.961630	0.323350
C1791	C179	0.688090	0.980440	0.303010
C1801	C180	0.296980	0.064060	0.674450
Fe211	Fe21	0.954940	0.746050	0.890700
Fe221	Fe22	0.110760	0.320400	0.904220
O1711	O171	0.854430	0.761480	0.804490
O1721	O172	0.832660	0.739770	0.782770
O1731	O173	0.992790	0.558910	0.943150
O1741	O174	0.046530	0.446920	0.003610
O1751	O175	0.040530	0.532940	0.948220
O1761	O176	0.916980	0.729990	0.867290
O1771	O177	0.952240	0.677450	0.902750
O1781	O178	0.946970	0.756900	0.853860
O1791	O179	0.930640	0.789590	0.887630
O1801	O180	0.967510	0.736200	0.924640
O1811	O181	0.981930	0.704130	0.890820
O1821	O182	0.082670	0.281300	0.980680
O1831	O183	0.102770	0.302490	0.000540
O1841	O184	0.074130	0.309720	0.934740
O1851	O185	0.113310	0.347650	0.971600
O1861	O186	0.144700	0.332600	0.870010
O1871	O187	0.084770	0.362940	0.902390
C1811	C181	0.064310	0.378800	0.017300
C1821	C182	0.070870	0.346530	0.022320
C1831	C183	0.097560	0.330960	0.996910
C1841	C184	0.904120	0.764030	0.810690
C1851	C185	0.924640	0.769220	0.816630
C1861	C186	0.930460	0.750510	0.847580
C1871	C187	0.033840	0.648760	0.897500
C1881	C188	0.053710	0.591370	0.918150
C1891	C189	0.005580	0.648250	0.900790
C1901	C190	0.025890	0.589620	0.921200
C1911	C191	0.001980	0.618550	0.912270
C1921	C192	0.057650	0.620860	0.906790
C1931	C193	0.019660	0.558420	0.938100
C1941	C194	0.084450	0.622930	0.908500
C1951	C195	0.978400	0.678620	0.897260
C1961	C196	0.961630	0.706670	0.008350
C1971	C197	0.980440	0.688090	0.028470
C1981	C198	0.064060	0.296980	0.964510
Fe231	Fe23	0.890700	0.408300	0.954940
Fe241	Fe24	0.904220	0.664630	0.110760
O1881	O188	0.804490	0.579600	0.854430
O1891	O189	0.782770	0.644800	0.832660
O1901	O190	0.943150	0.505150	0.992790
O1911	O191	0.003610	0.502940	0.046530
O1921	O192	0.948220	0.478300	0.040530
O1931	O193	0.867290	0.485750	0.916980
O1941	O194	0.902750	0.467550	0.952240
O1951	O195	0.853860	0.442270	0.946970
O1961	O196	0.887630	0.392140	0.930640
O1971	O197	0.924640	0.371650	0.967510
O1981	O198	0.890820	0.423120	0.981930
O1991	O199	0.980680	0.655360	0.082670
O2001	O200	0.000540	0.594200	0.102770
O2011	O201	0.934740	0.681410	0.074130
O2021	O202	0.971600	0.567440	0.113310
O2031	O203	0.870010	0.652700	0.144700
O2041	O204	0.902390	0.649910	0.084770
C1991	C199	0.017300	0.539590	0.064310
C2001	C200	0.022320	0.560280	0.070870
C2011	C201	0.996910	0.574570	0.097560
C2021	C202	0.810690	0.521160	0.904120
C2031	C203	0.816630	0.489510	0.924640
C2041	C204	0.847580	0.471450	0.930460
C2051	C205	0.897500	0.419900	0.033840
C2061	C206	0.918150	0.436770	0.053710
C2071	C207	0.900790	0.445380	0.005580
C2081	C208	0.921200	0.463290	0.025890
C2091	C209	0.912270	0.467210	0.001980
C2101	C210	0.906790	0.414700	0.057650
C2111	C211	0.938100	0.483820	0.019660
C2121	C212	0.908500	0.384130	0.084450
C2131	C213	0.897260	0.445720	0.978400
C2141	C214	0.008350	0.323350	0.961630
C2151	C215	0.028470	0.303010	0.980440
C2161	C216	0.964510	0.674450	0.064060
Fe251	Fe25	0.503950	0.841700	0.295060
Fe261	Fe26	0.929600	0.585370	0.139240
O2051	O205	0.488520	0.670400	0.395570
O2061	O206	0.510230	0.605200	0.417340
O2071	O207	0.691090	0.744850	0.257210
O2081	O208	0.803080	0.747060	0.203470
O2091	O209	0.717060	0.771700	0.209470
O2101	O210	0.520010	0.764250	0.333020
O2111	O211	0.572550	0.782450	0.297760
O2121	O212	0.493100	0.807730	0.303030
O2131	O213	0.460410	0.857860	0.319360
O2141	O214	0.513800	0.878350	0.282490
O2151	O215	0.545870	0.826880	0.268070
O2161	O216	0.968700	0.594640	0.167330
O2171	O217	0.947510	0.655800	0.147230
O2181	O218	0.940280	0.568590	0.175870
O2191	O219	0.902350	0.682560	0.136690
O2201	O220	0.917400	0.597300	0.105300
O2211	O221	0.887060	0.600090	0.165230
C2171	C217	0.871200	0.710410	0.185690
C2181	C218	0.903470	0.689720	0.179130
C2191	C219	0.919040	0.675430	0.152440
C2201	C220	0.485970	0.728840	0.345880
C2211	C221	0.480780	0.760490	0.325360
C2221	C222	0.499490	0.778550	0.319540
C2231	C223	0.601240	0.830100	0.216160
C2241	C224	0.658630	0.813230	0.196290
C2251	C225	0.601750	0.804620	0.244420
C2261	C226	0.660380	0.786710	0.224110
C2271	C227	0.631450	0.782790	0.248020
C2281	C228	0.629140	0.835300	0.192350
C2291	C229	0.691580	0.766180	0.230340
C2301	C230	0.627070	0.865870	0.165550
C2311	C231	0.571380	0.804280	0.271600
C2321	C232	0.543330	0.926650	0.288370
C2331	C233	0.561910	0.946990	0.269560
C2341	C234	0.953020	0.575550	0.185940
Fe271	Fe27	0.841700	0.503950	0.359300
Fe281	Fe28	0.585370	0.929600	0.345780
O2221	O222	0.670400	0.488520	0.445510
O2231	O223	0.605200	0.510230	0.467230
O2241	O224	0.744850	0.691090	0.306850
O2251	O225	0.747060	0.803080	0.246390
O2261	O226	0.771700	0.717060	0.301780
O2271	O227	0.764250	0.520010	0.382710
O2281	O228	0.782450	0.572550	0.347250
O2291	O229	0.807730	0.493100	0.396140
O2301	O230	0.857860	0.460410	0.362370
O2311	O231	0.878350	0.513800	0.325360
O2321	O232	0.826880	0.545870	0.359180
O2331	O233	0.594640	0.968700	0.269320
O2341	O234	0.655800	0.947510	0.249460
O2351	O235	0.568590	0.940280	0.315260
O2361	O236	0.682560	0.902350	0.278400
O2371	O237	0.597300	0.917400	0.379990
O2381	O238	0.600090	0.887060	0.347610
C2351	C235	0.710410	0.871200	0.232700
C2361	C236	0.689720	0.903470	0.227680
C2371	C237	0.675430	0.919040	0.253090
C2381	C238	0.728840	0.485970	0.439310
C2391	C239	0.760490	0.480780	0.433370
C2401	C240	0.778550	0.499490	0.402420
C2411	C241	0.830100	0.601240	0.352500
C2421	C242	0.813230	0.658630	0.331850
C2431	C243	0.804620	0.601750	0.349210
C2441	C244	0.786710	0.660380	0.328800
C2451	C245	0.782790	0.631450	0.337730
C2461	C246	0.835300	0.629140	0.343210
C2471	C247	0.766180	0.691580	0.311900
C2481	C248	0.865870	0.627070	0.341500
C2491	C249	0.804280	0.571380	0.352740
C2501	C250	0.926650	0.543330	0.241650
C2511	C251	0.946990	0.561910	0.221530
C2521	C252	0.575550	0.953020	0.285490
Fe291	Fe29	0.359300	0.295060	0.841700
Fe301	Fe30	0.345780	0.139240	0.585370
O2391	O239	0.445510	0.395570	0.670400
O2401	O240	0.467230	0.417340	0.605200
O2411	O241	0.306850	0.257210	0.744850
O2421	O242	0.246390	0.203470	0.747060
O2431	O243	0.301780	0.209470	0.771700
O2441	O244	0.382710	0.333020	0.764250
O2451	O245	0.347250	0.297760	0.782450
O2461	O246	0.396140	0.303030	0.807730
O2471	O247	0.362370	0.319360	0.857860
O2481	O248	0.325360	0.282490	0.878350
O2491	O249	0.359180	0.268070	0.826880
O2501	O250	0.269320	0.167330	0.594640
O2511	O251	0.249460	0.147230	0.655800
O2521	O252	0.315260	0.175870	0.568590
O2531	O253	0.278400	0.136690	0.682560
O2541	O254	0.379990	0.105300	0.597300
O2551	O255	0.347610	0.165230	0.600090
C2531	C253	0.232700	0.185690	0.710410
C2541	C254	0.227680	0.179130	0.689720
C2551	C255	0.253090	0.152440	0.675430
C2561	C256	0.439310	0.345880	0.728840
C2571	C257	0.433370	0.325360	0.760490
C2581	C258	0.402420	0.319540	0.778550
C2591	C259	0.352500	0.216160	0.830100
C2601	C260	0.331850	0.196290	0.813230
C2611	C261	0.349210	0.244420	0.804620
C2621	C262	0.328800	0.224110	0.786710
C2631	C263	0.337730	0.248020	0.782790
C2641	C264	0.343210	0.192350	0.835300
C2651	C265	0.311900	0.230340	0.766180
C2661	C266	0.341500	0.165550	0.865870
C2671	C267	0.352740	0.271600	0.804280
C2681	C268	0.241650	0.288370	0.926650
C2691	C269	0.221530	0.269560	0.946990
C2701	C270	0.285490	0.185940	0.575550
Fe311	Fe31	0.295060	0.359300	0.503950
Fe321	Fe32	0.139240	0.345780	0.929600
O2561	O256	0.395570	0.445510	0.488520
O2571	O257	0.417340	0.467230	0.510230
O2581	O258	0.257210	0.306850	0.691090
O2591	O259	0.203470	0.246390	0.803080
O2601	O260	0.209470	0.301780	0.717060
O2611	O261	0.333020	0.382710	0.520010
O2621	O262	0.297760	0.347250	0.572550
O2631	O263	0.303030	0.396140	0.493100
O2641	O264	0.319360	0.362370	0.460410
O2651	O265	0.282490	0.325360	0.513800
O2661	O266	0.268070	0.359180	0.545870
O2671	O267	0.167330	0.269320	0.968700
O2681	O268	0.147230	0.249460	0.947510
O2691	O269	0.175870	0.315260	0.940280
O2701	O270	0.136690	0.278400	0.902350
O2711	O271	0.105300	0.379990	0.917400
O2721	O272	0.165230	0.347610	0.887060
C2711	C271	0.185690	0.232700	0.871200
C2721	C272	0.179130	0.227680	0.903470
C2731	C273	0.152440	0.253090	0.919040
C2741	C274	0.345880	0.439310	0.485970
C2751	C275	0.325360	0.433370	0.480780
C2761	C276	0.319540	0.402420	0.499490
C2771	C277	0.216160	0.352500	0.601240
C2781	C278	0.196290	0.331850	0.658630
C2791	C279	0.244420	0.349210	0.601750
C2801	C280	0.224110	0.328800	0.660380
C2811	C281	0.248020	0.337730	0.631450
C2821	C282	0.192350	0.343210	0.629140
C2831	C283	0.230340	0.311900	0.691580
C2841	C284	0.165550	0.341500	0.627070
C2851	C285	0.271600	0.352740	0.571380
C2861	C286	0.288370	0.241650	0.543330
C2871	C287	0.269560	0.221530	0.561910
C2881	C288	0.185940	0.285490	0.953020
Fe331	Fe33	0.359300	0.503950	0.295060
Fe341	Fe34	0.345780	0.929600	0.139240
O2731	O273	0.445510	0.488520	0.395570
O2741	O274	0.467230	0.510230	0.417340
O2751	O275	0.306850	0.691090	0.257210
O2761	O276	0.246390	0.803080	0.203470
O2771	O277	0.301780	0.717060	0.209470
O2781	O278	0.382710	0.520010	0.333020
O2791	O279	0.347250	0.572550	0.297760
O2801	O280	0.396140	0.493100	0.303030
O2811	O281	0.362370	0.460410	0.319360
O2821	O282	0.325360	0.513800	0.282490
O2831	O283	0.359180	0.545870	0.268070
O2841	O284	0.269320	0.968700	0.167330
O2851	O285	0.249460	0.947510	0.147230
O2861	O286	0.315260	0.940280	0.175870
O2871	O287	0.278400	0.902350	0.136690
O2881	O288	0.379990	0.917400	0.105300
O2891	O289	0.347610	0.887060	0.165230
C2891	C289	0.232700	0.871200	0.185690
C2901	C290	0.227680	0.903470	0.179130
C2911	C291	0.253090	0.919040	0.152440
C2921	C292	0.439310	0.485970	0.345880
C2931	C293	0.433370	0.480780	0.325360
C2941	C294	0.402420	0.499490	0.319540
C2951	C295	0.352500	0.601240	0.216160
C2961	C296	0.331850	0.658630	0.196290
C2971	C297	0.349210	0.601750	0.244420
C2981	C298	0.328800	0.660380	0.224110
C2991	C299	0.337730	0.631450	0.248020
C3001	C300	0.343210	0.629140	0.192350
C3011	C301	0.311900	0.691580	0.230340
C3021	C302	0.341500	0.627070	0.165550
C3031	C303	0.352740	0.571380	0.271600
C3041	C304	0.241650	0.543330	0.288370
C3051	C305	0.221530	0.561910	0.269560
C3061	C306	0.285490	0.953020	0.185940
Fe351	Fe35	0.295060	0.841700	0.359300
Fe361	Fe36	0.139240	0.585370	0.345780
O2901	O290	0.395570	0.670400	0.445510
O2911	O291	0.417340	0.605200	0.467230
O2921	O292	0.257210	0.744850	0.306850
O2931	O293	0.203470	0.747060	0.246390
O2941	O294	0.209470	0.771700	0.301780
O2951	O295	0.333020	0.764250	0.382710
O2961	O296	0.297760	0.782450	0.347250
O2971	O297	0.303030	0.807730	0.396140
O2981	O298	0.319360	0.857860	0.362370
O2991	O299	0.282490	0.878350	0.325360
O3001	O300	0.268070	0.826880	0.359180
O3011	O301	0.167330	0.594640	0.269320
O3021	O302	0.147230	0.655800	0.249460
O3031	O303	0.175870	0.568590	0.315260
O3041	O304	0.136690	0.682560	0.278400
O3051	O305	0.105300	0.597300	0.379990
O3061	O306	0.165230	0.600090	0.347610
C3071	C307	0.185690	0.710410	0.232700
C3081	C308	0.179130	0.689720	0.227680
C3091	C309	0.152440	0.675430	0.253090
C3101	C310	0.345880	0.728840	0.439310
C3111	C311	0.325360	0.760490	0.433370
C3121	C312	0.319540	0.778550	0.402420
C3131	C313	0.216160	0.830100	0.352500
C3141	C314	0.196290	0.813230	0.331850
C3151	C315	0.244420	0.804620	0.349210
C3161	C316	0.224110	0.786710	0.328800
C3171	C317	0.248020	0.782790	0.337730
C3181	C318	0.192350	0.835300	0.343210
C3191	C319	0.230340	0.766180	0.311900
C3201	C320	0.165550	0.865870	0.341500
C3211	C321	0.271600	0.804280	0.352740
C3221	C322	0.288370	0.926650	0.241650
C3231	C323	0.269560	0.946990	0.221530
C3241	C324	0.185940	0.575550	0.285490
Fe371	Fe37	0.503950	0.359300	0.841700
Fe381	Fe38	0.929600	0.345780	0.585370
O3071	O307	0.488520	0.445510	0.670400
O3081	O308	0.510230	0.467230	0.605200
O3091	O309	0.691090	0.306850	0.744850
O3101	O310	0.803080	0.246390	0.747060
O3111	O311	0.717060	0.301780	0.771700
O3121	O312	0.520010	0.382710	0.764250
O3131	O313	0.572550	0.347250	0.782450
O3141	O314	0.493100	0.396140	0.807730
O3151	O315	0.460410	0.362370	0.857860
O3161	O316	0.513800	0.325360	0.878350
O3171	O317	0.545870	0.359180	0.826880
O3181	O318	0.968700	0.269320	0.594640
O3191	O319	0.947510	0.249460	0.655800
O3201	O320	0.940280	0.315260	0.568590
O3211	O321	0.902350	0.278400	0.682560
O3221	O322	0.917400	0.379990	0.597300
O3231	O323	0.887060	0.347610	0.600090
C3251	C325	0.871200	0.232700	0.710410
C3261	C326	0.903470	0.227680	0.689720
C3271	C327	0.919040	0.253090	0.675430
C3281	C328	0.485970	0.439310	0.728840
C3291	C329	0.480780	0.433370	0.760490
C3301	C330	0.499490	0.402420	0.778550
C3311	C331	0.601240	0.352500	0.830100
C3321	C332	0.658630	0.331850	0.813230
C3331	C333	0.601750	0.349210	0.804620
C3341	C334	0.660380	0.328800	0.786710
C3351	C335	0.631450	0.337730	0.782790
C3361	C336	0.629140	0.343210	0.835300
C3371	C337	0.691580	0.311900	0.766180
C3381	C338	0.627070	0.341500	0.865870
C3391	C339	0.571380	0.352740	0.804280
C3401	C340	0.543330	0.241650	0.926650
C3411	C341	0.561910	0.221530	0.946990
C3421	C342	0.953020	0.285490	0.575550
Fe391	Fe39	0.841700	0.295060	0.503950
Fe401	Fe40	0.585370	0.139240	0.929600
O3241	O324	0.670400	0.395570	0.488520
O3251	O325	0.605200	0.417340	0.510230
O3261	O326	0.744850	0.257210	0.691090
O3271	O327	0.747060	0.203470	0.803080
O3281	O328	0.771700	0.209470	0.717060
O3291	O329	0.764250	0.333020	0.520010
O3301	O330	0.782450	0.297760	0.572550
O3311	O331	0.807730	0.303030	0.493100
O3321	O332	0.857860	0.319360	0.460410
O3331	O333	0.878350	0.282490	0.513800
O3341	O334	0.826880	0.268070	0.545870
O3351	O335	0.594640	0.167330	0.968700
O3361	O336	0.655800	0.147230	0.947510
O3371	O337	0.568590	0.175870	0.940280
O3381	O338	0.682560	0.136690	0.902350
O3391	O339	0.597300	0.105300	0.917400
O3401	O340	0.600090	0.165230	0.887060
C3431	C343	0.710410	0.185690	0.871200
C3441	C344	0.689720	0.179130	0.903470
C3451	C345	0.675430	0.152440	0.919040
C3461	C346	0.728840	0.345880	0.485970
C3471	C347	0.760490	0.325360	0.480780
C3481	C348	0.778550	0.319540	0.499490
C3491	C349	0.830100	0.216160	0.601240
C3501	C350	0.813230	0.196290	0.658630
C3511	C351	0.804620	0.244420	0.601750
C3521	C352	0.786710	0.224110	0.660380
C3531	C353	0.782790	0.248020	0.631450
C3541	C354	0.835300	0.192350	0.629140
C3551	C355	0.766180	0.230340	0.691580
C3561	C356	0.865870	0.165550	0.627070
C3571	C357	0.804280	0.271600	0.571380
C3581	C358	0.926650	0.288370	0.543330
C3591	C359	0.946990	0.269560	0.561910
C3601	C360	0.575550	0.185940	0.953020
Fe411	Fe41	0.841700	0.359300	0.295060
Fe421	Fe42	0.585370	0.345780	0.139240
O3411	O341	0.670400	0.445510	0.395570
O3421	O342	0.605200	0.467230	0.417340
O3431	O343	0.744850	0.306850	0.257210
O3441	O344	0.747060	0.246390	0.203470
O3451	O345	0.771700	0.301780	0.209470
O3461	O346	0.764250	0.382710	0.333020
O3471	O347	0.782450	0.347250	0.297760
O3481	O348	0.807730	0.396140	0.303030
O3491	O349	0.857860	0.362370	0.319360
O3501	O350	0.878350	0.325360	0.282490
O3511	O351	0.826880	0.359180	0.268070
O3521	O352	0.594640	0.269320	0.167330
O3531	O353	0.655800	0.249460	0.147230
O3541	O354	0.568590	0.315260	0.175870
O3551	O355	0.682560	0.278400	0.136690
O3561	O356	0.597300	0.379990	0.105300
O3571	O357	0.600090	0.347610	0.165230
C3611	C361	0.710410	0.232700	0.185690
C3621	C362	0.689720	0.227680	0.179130
C3631	C363	0.675430	0.253090	0.152440
C3641	C364	0.728840	0.439310	0.345880
C3651	C365	0.760490	0.433370	0.325360
C3661	C366	0.778550	0.402420	0.319540
C3671	C367	0.830100	0.352500	0.216160
C3681	C368	0.813230	0.331850	0.196290
C3691	C369	0.804620	0.349210	0.244420
C3701	C370	0.786710	0.328800	0.224110
C3711	C371	0.782790	0.337730	0.248020
C3721	C372	0.835300	0.343210	0.192350
C3731	C373	0.766180	0.311900	0.230340
C3741	C374	0.865870	0.341500	0.165550
C3751	C375	0.804280	0.352740	0.271600
C3761	C376	0.926650	0.241650	0.288370
C3771	C377	0.946990	0.221530	0.269560
C3781	C378	0.575550	0.285490	0.185940
Fe431	Fe43	0.503950	0.295060	0.359300
Fe441	Fe44	0.929600	0.139240	0.345780
O3581	O358	0.488520	0.395570	0.445510
O3591	O359	0.510230	0.417340	0.467230
O3601	O360	0.691090	0.257210	0.306850
O3611	O361	0.803080	0.203470	0.246390
O3621	O362	0.717060	0.209470	0.301780
O3631	O363	0.520010	0.333020	0.382710
O3641	O364	0.572550	0.297760	0.347250
O3651	O365	0.493100	0.303030	0.396140
O3661	O366	0.460410	0.319360	0.362370
O3671	O367	0.513800	0.282490	0.325360
O3681	O368	0.545870	0.268070	0.359180
O3691	O369	0.968700	0.167330	0.269320
O3701	O370	0.947510	0.147230	0.249460
O3711	O371	0.940280	0.175870	0.315260
O3721	O372	0.902350	0.136690	0.278400
O3731	O373	0.917400	0.105300	0.379990
O3741	O374	0.887060	0.165230	0.347610
C3791	C379	0.871200	0.185690	0.232700
C3801	C380	0.903470	0.179130	0.227680
C3811	C381	0.919040	0.152440	0.253090
C3821	C382	0.485970	0.345880	0.439310
C3831	C383	0.480780	0.325360	0.433370
C3841	C384	0.499490	0.319540	0.402420
C3851	C385	0.601240	0.216160	0.352500
C3861	C386	0.658630	0.196290	0.331850
C3871	C387	0.601750	0.244420	0.349210
C3881	C388	0.660380	0.224110	0.328800
C3891	C389	0.631450	0.248020	0.337730
C3901	C390	0.629140	0.192350	0.343210
C3911	C391	0.691580	0.230340	0.311900
C3921	C392	0.627070	0.165550	0.341500
C3931	C393	0.571380	0.271600	0.352740
C3941	C394	0.543330	0.288370	0.241650
C3951	C395	0.561910	0.269560	0.221530
C3961	C396	0.953020	0.185940	0.285490
Fe451	Fe45	0.295060	0.503950	0.841700
Fe461	Fe46	0.139240	0.929600	0.585370
O3751	O375	0.395570	0.488520	0.670400
O3761	O376	0.417340	0.510230	0.605200
O3771	O377	0.257210	0.691090	0.744850
O3781	O378	0.203470	0.803080	0.747060
O3791	O379	0.209470	0.717060	0.771700
O3801	O380	0.333020	0.520010	0.764250
O3811	O381	0.297760	0.572550	0.782450
O3821	O382	0.303030	0.493100	0.807730
O3831	O383	0.319360	0.460410	0.857860
O3841	O384	0.282490	0.513800	0.878350
O3851	O385	0.268070	0.545870	0.826880
O3861	O386	0.167330	0.968700	0.594640
O3871	O387	0.147230	0.947510	0.655800
O3881	O388	0.175870	0.940280	0.568590
O3891	O389	0.136690	0.902350	0.682560
O3901	O390	0.105300	0.917400	0.597300
O3911	O391	0.165230	0.887060	0.600090
C3971	C397	0.185690	0.871200	0.710410
C3981	C398	0.179130	0.903470	0.689720
C3991	C399	0.152440	0.919040	0.675430
C4001	C400	0.345880	0.485970	0.728840
C4011	C401	0.325360	0.480780	0.760490
C4021	C402	0.319540	0.499490	0.778550
C4031	C403	0.216160	0.601240	0.830100
C4041	C404	0.196290	0.658630	0.813230
C4051	C405	0.244420	0.601750	0.804620
C4061	C406	0.224110	0.660380	0.786710
C4071	C407	0.248020	0.631450	0.782790
C4081	C408	0.192350	0.629140	0.835300
C4091	C409	0.230340	0.691580	0.766180
C4101	C410	0.165550	0.627070	0.865870
C4111	C411	0.271600	0.571380	0.804280
C4121	C412	0.288370	0.543330	0.926650
C4131	C413	0.269560	0.561910	0.946990
C4141	C414	0.185940	0.953020	0.575550
Fe471	Fe47	0.359300	0.841700	0.503950
Fe481	Fe48	0.345780	0.585370	0.929600
O3921	O392	0.445510	0.670400	0.488520
O3931	O393	0.467230	0.605200	0.510230
O3941	O394	0.306850	0.744850	0.691090
O3951	O395	0.246390	0.747060	0.803080
O3961	O396	0.301780	0.771700	0.717060
O3971	O397	0.382710	0.764250	0.520010
O3981	O398	0.347250	0.782450	0.572550
O3991	O399	0.396140	0.807730	0.493100
O4001	O400	0.362370	0.857860	0.460410
O4011	O401	0.325360	0.878350	0.513800
O4021	O402	0.359180	0.826880	0.545870
O4031	O403	0.269320	0.594640	0.968700
O4041	O404	0.249460	0.655800	0.947510
O4051	O405	0.315260	0.568590	0.940280
O4061	O406	0.278400	0.682560	0.902350
O4071	O407	0.379990	0.597300	0.917400
O4081	O408	0.347610	0.600090	0.887060
C4151	C415	0.232700	0.710410	0.871200
C4161	C416	0.227680	0.689720	0.903470
C4171	C417	0.253090	0.675430	0.919040
C4181	C418	0.439310	0.728840	0.485970
C4191	C419	0.433370	0.760490	0.480780
C4201	C420	0.402420	0.778550	0.499490
C4211	C421	0.352500	0.830100	0.601240
C4221	C422	0.331850	0.813230	0.658630
C4231	C423	0.349210	0.804620	0.601750
C4241	C424	0.328800	0.786710	0.660380
C4251	C425	0.337730	0.782790	0.631450
C4261	C426	0.343210	0.835300	0.629140
C4271	C427	0.311900	0.766180	0.691580
C4281	C428	0.341500	0.865870	0.627070
C4291	C429	0.352740	0.804280	0.571380
C4301	C430	0.241650	0.926650	0.543330
C4311	C431	0.221530	0.946990	0.561910
C4321	C432	0.285490	0.575550	0.953020
Fe491	Fe49	0.503950	0.841700	0.359300
Fe501	Fe50	0.929600	0.585370	0.345780
O4091	O409	0.488520	0.670400	0.445510
O4101	O410	0.510230	0.605200	0.467230
O4111	O411	0.691090	0.744850	0.306850
O4121	O412	0.803080	0.747060	0.246390
O4131	O413	0.717060	0.771690	0.301780
O4141	O414	0.520010	0.764250	0.382710
O4151	O415	0.572550	0.782450	0.347250
O4161	O416	0.493100	0.807730	0.396140
O4171	O417	0.460410	0.857860	0.362370
O4181	O418	0.513800	0.878350	0.325360
O4191	O419	0.545870	0.826880	0.359180
O4201	O420	0.968700	0.594640	0.269320
O4211	O421	0.947510	0.655800	0.249460
O4221	O422	0.940280	0.568590	0.315260
O4231	O423	0.902350	0.682560	0.278400
O4241	O424	0.917400	0.597300	0.379990
O4251	O425	0.887060	0.600090	0.347610
C4331	C433	0.871200	0.710410	0.232700
C4341	C434	0.903470	0.689720	0.227680
C4351	C435	0.919040	0.675430	0.253090
C4361	C436	0.485970	0.728840	0.439310
C4371	C437	0.480780	0.760490	0.433370
C4381	C438	0.499490	0.778550	0.402420
C4391	C439	0.601240	0.830100	0.352500
C4401	C440	0.658630	0.813230	0.331850
C4411	C441	0.601750	0.804620	0.349210
C4421	C442	0.660380	0.786710	0.328800
C4431	C443	0.631450	0.782790	0.337730
C4441	C444	0.629140	0.835300	0.343210
C4451	C445	0.691580	0.766180	0.311900
C4461	C446	0.627070	0.865870	0.341500
C4471	C447	0.571380	0.804280	0.352740
C4481	C448	0.543330	0.926650	0.241650
C4491	C449	0.561910	0.946990	0.221530
C4501	C450	0.953020	0.575550	0.285490
Fe511	Fe51	0.841700	0.503950	0.295060
Fe521	Fe52	0.585370	0.929600	0.139240
O4261	O426	0.670400	0.488520	0.395570
O4271	O427	0.605200	0.510230	0.417340
O4281	O428	0.744850	0.691090	0.257210
O4291	O429	0.747060	0.803080	0.203470
O4301	O430	0.771690	0.717060	0.209470
O4311	O431	0.764250	0.520010	0.333020
O4321	O432	0.782450	0.572550	0.297760
O4331	O433	0.807730	0.493100	0.303030
O4341	O434	0.857860	0.460410	0.319360
O4351	O435	0.878350	0.513800	0.282490
O4361	O436	0.826880	0.545870	0.268070
O4371	O437	0.594640	0.968700	0.167330
O4381	O438	0.655800	0.947510	0.147230
O4391	O439	0.568590	0.940280	0.175870
O4401	O440	0.682560	0.902350	0.136690
O4411	O441	0.597300	0.917400	0.105300
O4421	O442	0.600090	0.887060	0.165230
C4511	C451	0.710410	0.871200	0.185690
C4521	C452	0.689720	0.903470	0.179130
C4531	C453	0.675430	0.919040	0.152440
C4541	C454	0.728840	0.485970	0.345880
C4551	C455	0.760490	0.480780	0.325360
C4561	C456	0.778550	0.499490	0.319540
C4571	C457	0.830100	0.601240	0.216160
C4581	C458	0.813230	0.658630	0.196290
C4591	C459	0.804620	0.601750	0.244420
C4601	C460	0.786710	0.660380	0.224110
C4611	C461	0.782790	0.631450	0.248020
C4621	C462	0.835300	0.629140	0.192350
C4631	C463	0.766180	0.691580	0.230340
C4641	C464	0.865870	0.627070	0.165550
C4651	C465	0.804280	0.571380	0.271600
C4661	C466	0.926650	0.543330	0.288370
C4671	C467	0.946990	0.561910	0.269560
C4681	C468	0.575550	0.953020	0.185940
Fe531	Fe53	0.359300	0.295060	0.503950
Fe541	Fe54	0.345780	0.139240	0.929600
O4431	O443	0.445510	0.395570	0.488520
O4441	O444	0.467230	0.417340	0.510230
O4451	O445	0.306850	0.257210	0.691090
O4461	O446	0.246390	0.203470	0.803080
O4471	O447	0.301780	0.209470	0.717060
O4481	O448	0.382710	0.333020	0.520010
O4491	O449	0.347250	0.297760	0.572550
O4501	O450	0.396140	0.303030	0.493100
O4511	O451	0.362370	0.319360	0.460410
O4521	O452	0.325360	0.282490	0.513800
O4531	O453	0.359180	0.268070	0.545870
O4541	O454	0.269320	0.167330	0.968700
O4551	O455	0.249460	0.147230	0.947510
O4561	O456	0.315260	0.175870	0.940280
O4571	O457	0.278400	0.136690	0.902350
O4581	O458	0.379990	0.105300	0.917400
O4591	O459	0.347610	0.165230	0.887060
C4691	C469	0.232700	0.185690	0.871200
C4701	C470	0.227680	0.179130	0.903470
C4711	C471	0.253090	0.152440	0.919040
C4721	C472	0.439310	0.345880	0.485970
C4731	C473	0.433370	0.325360	0.480780
C4741	C474	0.402420	0.319540	0.499490
C4751	C475	0.352500	0.216160	0.601240
C4761	C476	0.331850	0.196290	0.658630
C4771	C477	0.349210	0.244420	0.601750
C4781	C478	0.328800	0.224110	0.660380
C4791	C479	0.337730	0.248020	0.631450
C4801	C480	0.343210	0.192350	0.629140
C4811	C481	0.311900	0.230340	0.691580
C4821	C482	0.341500	0.165550	0.627070
C4831	C483	0.352740	0.271600	0.571380
C4841	C484	0.241650	0.288370	0.543330
C4851	C485	0.221530	0.269560	0.561910
C4861	C486	0.285490	0.185940	0.953020
Fe551	Fe55	0.295060	0.359300	0.841700
Fe561	Fe56	0.139240	0.345780	0.585370
O4601	O460	0.395570	0.445510	0.670400
O4611	O461	0.417340	0.467230	0.605200
O4621	O462	0.257210	0.306850	0.744850
O4631	O463	0.203470	0.246390	0.747060
O4641	O464	0.209470	0.301780	0.771690
O4651	O465	0.333020	0.382710	0.764250
O4661	O466	0.297760	0.347250	0.782450
O4671	O467	0.303030	0.396140	0.807730
O4681	O468	0.319360	0.362370	0.857860
O4691	O469	0.282490	0.325360	0.878350
O4701	O470	0.268070	0.359180	0.826880
O4711	O471	0.167330	0.269320	0.594640
O4721	O472	0.147230	0.249460	0.655800
O4731	O473	0.175870	0.315260	0.568590
O4741	O474	0.136690	0.278400	0.682560
O4751	O475	0.105300	0.379990	0.597300
O4761	O476	0.165230	0.347610	0.600090
C4871	C487	0.185690	0.232700	0.710410
C4881	C488	0.179130	0.227680	0.689720
C4891	C489	0.152440	0.253090	0.675430
C4901	C490	0.345880	0.439310	0.728840
C4911	C491	0.325360	0.433370	0.760490
C4921	C492	0.319540	0.402420	0.778550
C4931	C493	0.216160	0.352500	0.830100
C4941	C494	0.196290	0.331850	0.813230
C4951	C495	0.244420	0.349210	0.804620
C4961	C496	0.224110	0.328800	0.786710
C4971	C497	0.248020	0.337730	0.782790
C4981	C498	0.192350	0.343210	0.835300
C4991	C499	0.230340	0.311900	0.766180
C5001	C500	0.165550	0.341500	0.865870
C5011	C501	0.271600	0.352740	0.804280
C5021	C502	0.288370	0.241650	0.926650
C5031	C503	0.269560	0.221530	0.946990
C5041	C504	0.185940	0.285490	0.575550
Fe571	Fe57	0.359300	0.503950	0.841700
Fe581	Fe58	0.345780	0.929600	0.585370
O4771	O477	0.445510	0.488520	0.670400
O4781	O478	0.467230	0.510230	0.605200
O4791	O479	0.306850	0.691090	0.744850
O4801	O480	0.246390	0.803080	0.747060
O4811	O481	0.301780	0.717060	0.771690
O4821	O482	0.382710	0.520010	0.764250
O4831	O483	0.347250	0.572550	0.782450
O4841	O484	0.396140	0.493100	0.807730
O4851	O485	0.362370	0.460410	0.857860
O4861	O486	0.325360	0.513800	0.878350
O4871	O487	0.359180	0.545870	0.826880
O4881	O488	0.269320	0.968700	0.594640
O4891	O489	0.249460	0.947510	0.655800
O4901	O490	0.315260	0.940280	0.568590
O4911	O491	0.278400	0.902350	0.682560
O4921	O492	0.379990	0.917400	0.597300
O4931	O493	0.347610	0.887060	0.600090
C5051	C505	0.232700	0.871200	0.710410
C5061	C506	0.227680	0.903470	0.689720
C5071	C507	0.253090	0.919040	0.675430
C5081	C508	0.439310	0.485970	0.728840
C5091	C509	0.433370	0.480780	0.760490
C5101	C510	0.402420	0.499490	0.778550
C5111	C511	0.352500	0.601240	0.830100
C5121	C512	0.331850	0.658630	0.813230
C5131	C513	0.349210	0.601750	0.804620
C5141	C514	0.328800	0.660380	0.786710
C5151	C515	0.337730	0.631450	0.782790
C5161	C516	0.343210	0.629140	0.835300
C5171	C517	0.311900	0.691580	0.766180
C5181	C518	0.341500	0.627070	0.865870
C5191	C519	0.352740	0.571380	0.804280
C5201	C520	0.241650	0.543330	0.926650
C5211	C521	0.221530	0.561910	0.946990
C5221	C522	0.285490	0.953020	0.575550
Fe591	Fe59	0.295060	0.841700	0.503950
Fe601	Fe60	0.139240	0.585370	0.929600
O4941	O494	0.395570	0.670400	0.488520
O4951	O495	0.417340	0.605200	0.510230
O4961	O496	0.257210	0.744850	0.691090
O4971	O497	0.203470	0.747060	0.803080
O4981	O498	0.209470	0.771690	0.717060
O4991	O499	0.333020	0.764250	0.520010
O5001	O500	0.297760	0.782450	0.572550
O5011	O501	0.303030	0.807730	0.493100
O5021	O502	0.319360	0.857860	0.460410
O5031	O503	0.282490	0.878350	0.513800
O5041	O504	0.268070	0.826880	0.545870
O5051	O505	0.167330	0.594640	0.968700
O5061	O506	0.147230	0.655800	0.947510
O5071	O507	0.175870	0.568590	0.940280
O5081	O508	0.136690	0.682560	0.902350
O5091	O509	0.105300	0.597300	0.917400
O5101	O510	0.165230	0.600090	0.887060
C5231	C523	0.185690	0.710410	0.871200
C5241	C524	0.179130	0.689720	0.903470
C5251	C525	0.152440	0.675430	0.919040
C5261	C526	0.345880	0.728840	0.485970
C5271	C527	0.325360	0.760490	0.480780
C5281	C528	0.319540	0.778550	0.499490
C5291	C529	0.216160	0.830100	0.601240
C5301	C530	0.196290	0.813230	0.658630
C5311	C531	0.244420	0.804620	0.601750
C5321	C532	0.224110	0.786710	0.660380
C5331	C533	0.248020	0.782790	0.631450
C5341	C534	0.192350	0.835300	0.629140
C5351	C535	0.230340	0.766180	0.691580
C5361	C536	0.165550	0.865870	0.627070
C5371	C537	0.271600	0.804280	0.571380
C5381	C538	0.288370	0.926650	0.543330
C5391	C539	0.269560	0.946990	0.561910
C5401	C540	0.185940	0.575550	0.953020
Fe611	Fe61	0.503950	0.359300	0.295060
Fe621	Fe62	0.929600	0.345780	0.139240
O5111	O511	0.488520	0.445510	0.395570
O5121	O512	0.510230	0.467230	0.417340
O5131	O513	0.691090	0.306850	0.257210
O5141	O514	0.803080	0.246390	0.203470
O5151	O515	0.717060	0.301780	0.209470
O5161	O516	0.520010	0.382710	0.333020
O5171	O517	0.572550	0.347250	0.297760
O5181	O518	0.493100	0.396140	0.303030
O5191	O519	0.460410	0.362370	0.319360
O5201	O520	0.513800	0.325360	0.282490
O5211	O521	0.545870	0.359180	0.268070
O5221	O522	0.968700	0.269320	0.167330
O5231	O523	0.947510	0.249460	0.147230
O5241	O524	0.940280	0.315260	0.175870
O5251	O525	0.902350	0.278400	0.136690
O5261	O526	0.917400	0.379990	0.105300
O5271	O527	0.887060	0.347610	0.165230
C5411	C541	0.871200	0.232700	0.185690
C5421	C542	0.903470	0.227680	0.179130
C5431	C543	0.919040	0.253090	0.152440
C5441	C544	0.485970	0.439310	0.345880
C5451	C545	0.480780	0.433370	0.325360
C5461	C546	0.499490	0.402420	0.319540
C5471	C547	0.601240	0.352500	0.216160
C5481	C548	0.658630	0.331850	0.196290
C5491	C549	0.601750	0.349210	0.244420
C5501	C550	0.660380	0.328800	0.224110
C5511	C551	0.631450	0.337730	0.248020
C5521	C552	0.629140	0.343210	0.192350
C5531	C553	0.691580	0.311900	0.230340
C5541	C554	0.627070	0.341500	0.165550
C5551	C555	0.571380	0.352740	0.271600
C5561	C556	0.543330	0.241650	0.288370
C5571	C557	0.561910	0.221530	0.269560
C5581	C558	0.953020	0.285490	0.185940
Fe631	Fe63	0.841700	0.295060	0.359300
Fe641	Fe64	0.585370	0.139240	0.345780
O5281	O528	0.670400	0.395570	0.445510
O5291	O529	0.605200	0.417340	0.467230
O5301	O530	0.744850	0.257210	0.306850
O5311	O531	0.747060	0.203470	0.246390
O5321	O532	0.771690	0.209470	0.301780
O5331	O533	0.764250	0.333020	0.382710
O5341	O534	0.782450	0.297760	0.347250
O5351	O535	0.807730	0.303030	0.396140
O5361	O536	0.857860	0.319360	0.362370
O5371	O537	0.878350	0.282490	0.325360
O5381	O538	0.826880	0.268070	0.359180
O5391	O539	0.594640	0.167330	0.269320
O5401	O540	0.655800	0.147230	0.249460
O5411	O541	0.568590	0.175870	0.315260
O5421	O542	0.682560	0.136690	0.278400
O5431	O543	0.597300	0.105300	0.379990
O5441	O544	0.600090	0.165230	0.347610
C5591	C559	0.710410	0.185690	0.232700
C5601	C560	0.689720	0.179130	0.227680
C5611	C561	0.675430	0.152440	0.253090
C5621	C562	0.728840	0.345880	0.439310
C5631	C563	0.760490	0.325360	0.433370
C5641	C564	0.778550	0.319540	0.402420
C5651	C565	0.830100	0.216160	0.352500
C5661	C566	0.813230	0.196290	0.331850
C5671	C567	0.804620	0.244420	0.349210
C5681	C568	0.786710	0.224110	0.328800
C5691	C569	0.782790	0.248020	0.337730
C5701	C570	0.835300	0.192350	0.343210
C5711	C571	0.766180	0.230340	0.311900
C5721	C572	0.865870	0.165550	0.341500
C5731	C573	0.804280	0.271600	0.352740
C5741	C574	0.926650	0.288370	0.241650
C5751	C575	0.946990	0.269560	0.221530
C5761	C576	0.575550	0.185940	0.285490
Fe651	Fe65	0.841700	0.359300	0.503950
Fe661	Fe66	0.585370	0.345780	0.929600
O5451	O545	0.670400	0.445510	0.488520
O5461	O546	0.605200	0.467230	0.510230
O5471	O547	0.744850	0.306850	0.691090
O5481	O548	0.747060	0.246390	0.803080
O5491	O549	0.771690	0.301780	0.717060
O5501	O550	0.764250	0.382710	0.520010
O5511	O551	0.782450	0.347250	0.572550
O5521	O552	0.807730	0.396140	0.493100
O5531	O553	0.857860	0.362370	0.460410
O5541	O554	0.878350	0.325360	0.513800
O5551	O555	0.826880	0.359180	0.545870
O5561	O556	0.594640	0.269320	0.968700
O5571	O557	0.655800	0.249460	0.947510
O5581	O558	0.568590	0.315260	0.940280
O5591	O559	0.682560	0.278400	0.902350
O5601	O560	0.597300	0.379990	0.917400
O5611	O561	0.600090	0.347610	0.887060
C5771	C577	0.710410	0.232700	0.871200
C5781	C578	0.689720	0.227680	0.903470
C5791	C579	0.675430	0.253090	0.919040
C5801	C580	0.728840	0.439310	0.485970
C5811	C581	0.760490	0.433370	0.480780
C5821	C582	0.778550	0.402420	0.499490
C5831	C583	0.830100	0.352500	0.601240
C5841	C584	0.813230	0.331850	0.658630
C5851	C585	0.804620	0.349210	0.601750
C5861	C586	0.786710	0.328800	0.660380
C5871	C587	0.782790	0.337730	0.631450
C5881	C588	0.835300	0.343210	0.629140
C5891	C589	0.766180	0.311900	0.691580
C5901	C590	0.865870	0.341500	0.627070
C5911	C591	0.804280	0.352740	0.571380
C5921	C592	0.926650	0.241650	0.543330
C5931	C593	0.946990	0.221530	0.561910
C5941	C594	0.575550	0.285490	0.953020
Fe671	Fe67	0.503950	0.295060	0.841700
Fe681	Fe68	0.929600	0.139240	0.585370
O5621	O562	0.488520	0.395570	0.670400
O5631	O563	0.510230	0.417340	0.605200
O5641	O564	0.691090	0.257210	0.744850
O5651	O565	0.803080	0.203470	0.747060
O5661	O566	0.717060	0.209470	0.771690
O5671	O567	0.520010	0.333020	0.764250
O5681	O568	0.572550	0.297760	0.782450
O5691	O569	0.493100	0.303030	0.807730
O5701	O570	0.460410	0.319360	0.857860
O5711	O571	0.513800	0.282490	0.878350
O5721	O572	0.545870	0.268070	0.826880
O5731	O573	0.968700	0.167330	0.594640
O5741	O574	0.947510	0.147230	0.655800
O5751	O575	0.940280	0.175870	0.568590
O5761	O576	0.902350	0.136690	0.682560
O5771	O577	0.917400	0.105300	0.597300
O5781	O578	0.887060	0.165230	0.600090
C5951	C595	0.871200	0.185690	0.710410
C5961	C596	0.903470	0.179130	0.689720
C5971	C597	0.919040	0.152440	0.675430
C5981	C598	0.485970	0.345880	0.728840
C5991	C599	0.480780	0.325360	0.760490
C6001	C600	0.499490	0.319540	0.778550
C6011	C601	0.601240	0.216160	0.830100
C6021	C602	0.658630	0.196290	0.813230
C6031	C603	0.601750	0.244420	0.804620
C6041	C604	0.660380	0.224110	0.786710
C6051	C605	0.631450	0.248020	0.782790
C6061	C606	0.629140	0.192350	0.835300
C6071	C607	0.691580	0.230340	0.766180
C6081	C608	0.627070	0.165550	0.865870
C6091	C609	0.571380	0.271600	0.804280
C6101	C610	0.543330	0.288370	0.926650
C6111	C611	0.561910	0.269560	0.946990
C6121	C612	0.953020	0.185940	0.575550
Fe691	Fe69	0.295060	0.503950	0.359300
Fe701	Fe70	0.139240	0.929600	0.345780
O5791	O579	0.395570	0.488520	0.445510
O5801	O580	0.417340	0.510230	0.467230
O5811	O581	0.257210	0.691090	0.306850
O5821	O582	0.203470	0.803080	0.246390
O5831	O583	0.209470	0.717060	0.301780
O5841	O584	0.333020	0.520010	0.382710
O5851	O585	0.297760	0.572550	0.347250
O5861	O586	0.303030	0.493100	0.396140
O5871	O587	0.319360	0.460410	0.362370
O5881	O588	0.282490	0.513800	0.325360
O5891	O589	0.268070	0.545870	0.359180
O5901	O590	0.167330	0.968700	0.269320
O5911	O591	0.147230	0.947510	0.249460
O5921	O592	0.175870	0.940280	0.315260
O5931	O593	0.136690	0.902350	0.278400
O5941	O594	0.105300	0.917400	0.379990
O5951	O595	0.165230	0.887060	0.347610
C6131	C613	0.185690	0.871200	0.232700
C6141	C614	0.179130	0.903470	0.227680
C6151	C615	0.152440	0.919040	0.253090
C6161	C616	0.345880	0.485970	0.439310
C6171	C617	0.325360	0.480780	0.433370
C6181	C618	0.319540	0.499490	0.402420
C6191	C619	0.216160	0.601240	0.352500
C6201	C620	0.196290	0.658630	0.331850
C6211	C621	0.244420	0.601750	0.349210
C6221	C622	0.224110	0.660380	0.328800
C6231	C623	0.248020	0.631450	0.337730
C6241	C624	0.192350	0.629140	0.343210
C6251	C625	0.230340	0.691580	0.311900
C6261	C626	0.165550	0.627070	0.341500
C6271	C627	0.271600	0.571380	0.352740
C6281	C628	0.288370	0.543330	0.241650
C6291	C629	0.269560	0.561910	0.221530
C6301	C630	0.185940	0.953020	0.285490
Fe711	Fe71	0.359300	0.841700	0.295060
Fe721	Fe72	0.345780	0.585370	0.139240
O5961	O596	0.445510	0.670400	0.395570
O5971	O597	0.467230	0.605200	0.417340
O5981	O598	0.306850	0.744850	0.257210
O5991	O599	0.246390	0.747060	0.203470
O6001	O600	0.301780	0.771690	0.209470
O6011	O601	0.382710	0.764250	0.333020
O6021	O602	0.347250	0.782450	0.297760
O6031	O603	0.396140	0.807730	0.303030
O6041	O604	0.362370	0.857860	0.319360
O6051	O605	0.325360	0.878350	0.282490
O6061	O606	0.359180	0.826880	0.268070
O6071	O607	0.269320	0.594640	0.167330
O6081	O608	0.249460	0.655800	0.147230
O6091	O609	0.315260	0.568590	0.175870
O6101	O610	0.278400	0.682560	0.136690
O6111	O611	0.379990	0.597300	0.105300
O6121	O612	0.347610	0.600090	0.165230
C6311	C631	0.232700	0.710410	0.185690
C6321	C632	0.227680	0.689720	0.179130
C6331	C633	0.253090	0.675430	0.152440
C6341	C634	0.439310	0.728840	0.345880
C6351	C635	0.433370	0.760490	0.325360
C6361	C636	0.402420	0.778550	0.319540
C6371	C637	0.352500	0.830100	0.216160
C6381	C638	0.331850	0.813230	0.196290
C6391	C639	0.349210	0.804620	0.244420
C6401	C640	0.328800	0.786710	0.224110
C6411	C641	0.337730	0.782790	0.248020
C6421	C642	0.343210	0.835300	0.192350
C6431	C643	0.311900	0.766180	0.230340
C6441	C644	0.341500	0.865870	0.165550
C6451	C645	0.352740	0.804280	0.271600
C6461	C646	0.241650	0.926650	0.288370
C6471	C647	0.221530	0.946990	0.269560
C6481	C648	0.285490	0.575550	0.185940
Fe731	Fe73	0.746050	0.408300	0.954940
Fe741	Fe74	0.320400	0.664630	0.110760
O6131	O613	0.761480	0.579600	0.854430
O6141	O614	0.739770	0.644800	0.832660
O6151	O615	0.558910	0.505150	0.992790
O6161	O616	0.446920	0.502940	0.046530
O6171	O617	0.532940	0.478310	0.040530
O6181	O618	0.729990	0.485750	0.916980
O6191	O619	0.677450	0.467550	0.952240
O6201	O620	0.756900	0.442270	0.946970
O6211	O621	0.789590	0.392140	0.930640
O6221	O622	0.736200	0.371650	0.967510
O6231	O623	0.704130	0.423120	0.981930
O6241	O624	0.281300	0.655360	0.082670
O6251	O625	0.302490	0.594200	0.102770
O6261	O626	0.309720	0.681410	0.074130
O6271	O627	0.347650	0.567440	0.113310
O6281	O628	0.332600	0.652700	0.144700
O6291	O629	0.362940	0.649910	0.084770
C6491	C649	0.378800	0.539590	0.064310
C6501	C650	0.346530	0.560280	0.070870
C6511	C651	0.330960	0.574570	0.097560
C6521	C652	0.764030	0.521160	0.904120
C6531	C653	0.769220	0.489510	0.924640
C6541	C654	0.750510	0.471450	0.930460
C6551	C655	0.648760	0.419900	0.033840
C6561	C656	0.591370	0.436770	0.053710
C6571	C657	0.648250	0.445380	0.005580
C6581	C658	0.589620	0.463290	0.025890
C6591	C659	0.618550	0.467210	0.001980
C6601	C660	0.620860	0.414700	0.057650
C6611	C661	0.558420	0.483820	0.019660
C6621	C662	0.622930	0.384130	0.084450
C6631	C663	0.678620	0.445720	0.978400
C6641	C664	0.706670	0.323350	0.961630
C6651	C665	0.688090	0.303010	0.980440
C6661	C666	0.296980	0.674450	0.064060
Fe751	Fe75	0.408300	0.746050	0.890700
Fe761	Fe76	0.664630	0.320400	0.904220
O6301	O630	0.579600	0.761480	0.804490
O6311	O631	0.644800	0.739770	0.782770
O6321	O632	0.505150	0.558910	0.943150
O6331	O633	0.502940	0.446920	0.003610
O6341	O634	0.478310	0.532940	0.948220
O6351	O635	0.485750	0.729990	0.867290
O6361	O636	0.467550	0.677450	0.902750
O6371	O637	0.442270	0.756900	0.853860
O6381	O638	0.392140	0.789590	0.887630
O6391	O639	0.371650	0.736200	0.924640
O6401	O640	0.423120	0.704130	0.890820
O6411	O641	0.655360	0.281300	0.980680
O6421	O642	0.594200	0.302490	0.000540
O6431	O643	0.681410	0.309720	0.934740
O6441	O644	0.567440	0.347650	0.971600
O6451	O645	0.652700	0.332600	0.870010
O6461	O646	0.649910	0.362940	0.902390
C6671	C667	0.539590	0.378800	0.017300
C6681	C668	0.560280	0.346530	0.022320
C6691	C669	0.574570	0.330960	0.996910
C6701	C670	0.521160	0.764030	0.810690
C6711	C671	0.489510	0.769220	0.816630
C6721	C672	0.471450	0.750510	0.847580
C6731	C673	0.419900	0.648760	0.897500
C6741	C674	0.436770	0.591370	0.918150
C6751	C675	0.445380	0.648250	0.900790
C6761	C676	0.463290	0.589620	0.921200
C6771	C677	0.467210	0.618550	0.912270
C6781	C678	0.414700	0.620860	0.906790
C6791	C679	0.483820	0.558420	0.938100
C6801	C680	0.384130	0.622930	0.908500
C6811	C681	0.445720	0.678620	0.897260
C6821	C682	0.323350	0.706670	0.008350
C6831	C683	0.303010	0.688090	0.028470
C6841	C684	0.674450	0.296980	0.964510
Fe771	Fe77	0.890700	0.954940	0.408300
Fe781	Fe78	0.904220	0.110760	0.664630
O6471	O647	0.804490	0.854430	0.579600
O6481	O648	0.782770	0.832660	0.644800
O6491	O649	0.943150	0.992790	0.505150
O6501	O650	0.003610	0.046530	0.502940
O6511	O651	0.948220	0.040530	0.478310
O6521	O652	0.867290	0.916980	0.485750
O6531	O653	0.902750	0.952240	0.467550
O6541	O654	0.853860	0.946970	0.442270
O6551	O655	0.887630	0.930640	0.392140
O6561	O656	0.924640	0.967510	0.371650
O6571	O657	0.890820	0.981930	0.423120
O6581	O658	0.980680	0.082670	0.655360
O6591	O659	0.000540	0.102770	0.594200
O6601	O660	0.934740	0.074130	0.681410
O6611	O661	0.971600	0.113310	0.567440
O6621	O662	0.870010	0.144700	0.652700
O6631	O663	0.902390	0.084770	0.649910
C6851	C685	0.017300	0.064310	0.539590
C6861	C686	0.022320	0.070870	0.560280
C6871	C687	0.996910	0.097560	0.574570
C6881	C688	0.810690	0.904120	0.521160
C6891	C689	0.816630	0.924640	0.489510
C6901	C690	0.847580	0.930460	0.471450
C6911	C691	0.897500	0.033840	0.419900
C6921	C692	0.918150	0.053710	0.436770
C6931	C693	0.900790	0.005580	0.445380
C6941	C694	0.921200	0.025890	0.463290
C6951	C695	0.912270	0.001980	0.467210
C6961	C696	0.906790	0.057650	0.414700
C6971	C697	0.938100	0.019660	0.483820
C6981	C698	0.908500	0.084450	0.384130
C6991	C699	0.897260	0.978400	0.445720
C7001	C700	0.008350	0.961630	0.323350
C7011	C701	0.028470	0.980440	0.303010
C7021	C702	0.964510	0.064060	0.674450
Fe791	Fe79	0.954940	0.890700	0.746050
Fe801	Fe80	0.110760	0.904220	0.320400
O6641	O664	0.854430	0.804490	0.761480
O6651	O665	0.832660	0.782770	0.739770
O6661	O666	0.992790	0.943150	0.558910
O6671	O667	0.046530	0.003610	0.446920
O6681	O668	0.040530	0.948220	0.532940
O6691	O669	0.916980	0.867290	0.729990
O6701	O670	0.952240	0.902750	0.677450
O6711	O671	0.946970	0.853860	0.756900
O6721	O672	0.930640	0.887630	0.789590
O6731	O673	0.967510	0.924640	0.736200
O6741	O674	0.981930	0.890820	0.704130
O6751	O675	0.082670	0.980680	0.281300
O6761	O676	0.102770	0.000540	0.302490
O6771	O677	0.074130	0.934740	0.309720
O6781	O678	0.113310	0.971600	0.347650
O6791	O679	0.144700	0.870010	0.332600
O6801	O680	0.084770	0.902390	0.362940
C7031	C703	0.064310	0.017300	0.378800
C7041	C704	0.070870	0.022320	0.346530
C7051	C705	0.097560	0.996910	0.330960
C7061	C706	0.904120	0.810690	0.764030
C7071	C707	0.924640	0.816630	0.769220
C7081	C708	0.930460	0.847580	0.750510
C7091	C709	0.033840	0.897500	0.648760
C7101	C710	0.053710	0.918150	0.591370
C7111	C711	0.005580	0.900790	0.648250
C7121	C712	0.025890	0.921200	0.589620
C7131	C713	0.001980	0.912270	0.618550
C7141	C714	0.057650	0.906790	0.620860
C7151	C715	0.019660	0.938100	0.558420
C7161	C716	0.084450	0.908500	0.622930
C7171	C717	0.978400	0.897260	0.678620
C7181	C718	0.961630	0.008350	0.706670
C7191	C719	0.980440	0.028470	0.688090
C7201	C720	0.064060	0.964510	0.296980
Fe811	Fe81	0.890700	0.746050	0.954940
Fe821	Fe82	0.904220	0.320400	0.110760
O6811	O681	0.804490	0.761480	0.854430
O6821	O682	0.782770	0.739770	0.832660
O6831	O683	0.943150	0.558910	0.992790
O6841	O684	0.003610	0.446920	0.046530
O6851	O685	0.948220	0.532940	0.040530
O6861	O686	0.867290	0.729990	0.916980
O6871	O687	0.902750	0.677450	0.952240
O6881	O688	0.853860	0.756900	0.946970
O6891	O689	0.887630	0.789590	0.930640
O6901	O690	0.924640	0.736200	0.967510
O6911	O691	0.890820	0.704130	0.981930
O6921	O692	0.980680	0.281300	0.082670
O6931	O693	0.000540	0.302490	0.102770
O6941	O694	0.934740	0.309720	0.074130
O6951	O695	0.971600	0.347650	0.113310
O6961	O696	0.870010	0.332600	0.144700
O6971	O697	0.902390	0.362940	0.084770
C7211	C721	0.017300	0.378800	0.064310
C7221	C722	0.022320	0.346530	0.070870
C7231	C723	0.996910	0.330960	0.097560
C7241	C724	0.810690	0.764030	0.904120
C7251	C725	0.816630	0.769220	0.924640
C7261	C726	0.847580	0.750510	0.930460
C7271	C727	0.897500	0.648760	0.033840
C7281	C728	0.918150	0.591370	0.053710
C7291	C729	0.900790	0.648250	0.005580
C7301	C730	0.921200	0.589620	0.025890
C7311	C731	0.912270	0.618550	0.001980
C7321	C732	0.906790	0.620860	0.057650
C7331	C733	0.938100	0.558420	0.019660
C7341	C734	0.908500	0.622930	0.084450
C7351	C735	0.897260	0.678620	0.978400
C7361	C736	0.008350	0.706670	0.961630
C7371	C737	0.028470	0.688090	0.980440
C7381	C738	0.964510	0.296980	0.064060
Fe831	Fe83	0.954940	0.408300	0.890700
Fe841	Fe84	0.110760	0.664630	0.904220
O6981	O698	0.854430	0.579600	0.804490
O6991	O699	0.832660	0.644800	0.782770
O7001	O700	0.992790	0.505150	0.943150
O7011	O701	0.046530	0.502940	0.003610
O7021	O702	0.040530	0.478310	0.948220
O7031	O703	0.916980	0.485750	0.867290
O7041	O704	0.952240	0.467550	0.902750
O7051	O705	0.946970	0.442270	0.853860
O7061	O706	0.930640	0.392140	0.887630
O7071	O707	0.967510	0.371650	0.924640
O7081	O708	0.981930	0.423120	0.890820
O7091	O709	0.082670	0.655360	0.980680
O7101	O710	0.102770	0.594200	0.000540
O7111	O711	0.074130	0.681410	0.934740
O7121	O712	0.113310	0.567440	0.971600
O7131	O713	0.144700	0.652700	0.870010
O7141	O714	0.084770	0.649910	0.902390
C7391	C739	0.064310	0.539590	0.017300
C7401	C740	0.070870	0.560280	0.022320
C7411	C741	0.097560	0.574570	0.996910
C7421	C742	0.904120	0.521160	0.810690
C7431	C743	0.924640	0.489510	0.816630
C7441	C744	0.930460	0.471450	0.847580
C7451	C745	0.033840	0.419900	0.897500
C7461	C746	0.053710	0.436770	0.918150
C7471	C747	0.005580	0.445380	0.900790
C7481	C748	0.025890	0.463290	0.921200
C7491	C749	0.001980	0.467210	0.912270
C7501	C750	0.057650	0.414700	0.906790
C7511	C751	0.019660	0.483820	0.938100
C7521	C752	0.084450	0.384130	0.908500
C7531	C753	0.978400	0.445720	0.897260
C7541	C754	0.961630	0.323350	0.008350
C7551	C755	0.980440	0.303010	0.028470
C7561	C756	0.064060	0.674450	0.964510
Fe851	Fe85	0.746050	0.890700	0.408300
Fe861	Fe86	0.320400	0.904220	0.664630
O7151	O715	0.761480	0.804490	0.579600
O7161	O716	0.739770	0.782770	0.644800
O7171	O717	0.558910	0.943150	0.505150
O7181	O718	0.446920	0.003610	0.502940
O7191	O719	0.532940	0.948220	0.478310
O7201	O720	0.729990	0.867290	0.485750
O7211	O721	0.677450	0.902750	0.467550
O7221	O722	0.756900	0.853860	0.442270
O7231	O723	0.789590	0.887630	0.392140
O7241	O724	0.736200	0.924640	0.371650
O7251	O725	0.704130	0.890820	0.423120
O7261	O726	0.281300	0.980680	0.655360
O7271	O727	0.302490	0.000540	0.594200
O7281	O728	0.309720	0.934740	0.681410
O7291	O729	0.347650	0.971600	0.567440
O7301	O730	0.332600	0.870010	0.652700
O7311	O731	0.362940	0.902390	0.649910
C7571	C757	0.378800	0.017300	0.539590
C7581	C758	0.346530	0.022320	0.560280
C7591	C759	0.330960	0.996910	0.574570
C7601	C760	0.764030	0.810690	0.521160
C7611	C761	0.769220	0.816630	0.489510
C7621	C762	0.750510	0.847580	0.471450
C7631	C763	0.648760	0.897500	0.419900
C7641	C764	0.591370	0.918150	0.436770
C7651	C765	0.648250	0.900790	0.445380
C7661	C766	0.589620	0.921200	0.463290
C7671	C767	0.618550	0.912270	0.467210
C7681	C768	0.620860	0.906790	0.414700
C7691	C769	0.558420	0.938100	0.483820
C7701	C770	0.622930	0.908500	0.384130
C7711	C771	0.678620	0.897260	0.445720
C7721	C772	0.706670	0.008350	0.323350
C7731	C773	0.688090	0.028470	0.303010
C7741	C774	0.296980	0.964510	0.674450
Fe871	Fe87	0.408300	0.954940	0.746050
Fe881	Fe88	0.664630	0.110760	0.320400
O7321	O732	0.579600	0.854430	0.761480
O7331	O733	0.644800	0.832660	0.739770
O7341	O734	0.505150	0.992790	0.558910
O7351	O735	0.502940	0.046530	0.446920
O7361	O736	0.478310	0.040530	0.532940
O7371	O737	0.485750	0.916980	0.729990
O7381	O738	0.467550	0.952240	0.677450
O7391	O739	0.442270	0.946970	0.756900
O7401	O740	0.392140	0.930640	0.789590
O7411	O741	0.371650	0.967510	0.736200
O7421	O742	0.423120	0.981930	0.704130
O7431	O743	0.655360	0.082670	0.281300
O7441	O744	0.594200	0.102770	0.302490
O7451	O745	0.681410	0.074130	0.309720
O7461	O746	0.567440	0.113310	0.347650
O7471	O747	0.652700	0.144700	0.332600
O7481	O748	0.649910	0.084770	0.362940
C7751	C775	0.539590	0.064310	0.378800
C7761	C776	0.560280	0.070870	0.346530
C7771	C777	0.574570	0.097560	0.330960
C7781	C778	0.521160	0.904120	0.764030
C7791	C779	0.489510	0.924640	0.769220
C7801	C780	0.471450	0.930460	0.750510
C7811	C781	0.419900	0.033840	0.648760
C7821	C782	0.436770	0.053710	0.591370
C7831	C783	0.445380	0.005580	0.648250
C7841	C784	0.463290	0.025890	0.589620
C7851	C785	0.467210	0.001980	0.618550
C7861	C786	0.414700	0.057650	0.620860
C7871	C787	0.483820	0.019660	0.558420
C7881	C788	0.384130	0.084450	0.622930
C7891	C789	0.445720	0.978400	0.678620
C7901	C790	0.323350	0.961630	0.706670
C7911	C791	0.303010	0.980440	0.688090
C7921	C792	0.674450	0.064060	0.296980
Fe891	Fe89	0.408300	0.890700	0.954940
Fe901	Fe90	0.664630	0.904220	0.110760
O7491	O749	0.579600	0.804490	0.854430
O7501	O750	0.644800	0.782770	0.832660
O7511	O751	0.505150	0.943150	0.992790
O7521	O752	0.502940	0.003610	0.046530
O7531	O753	0.478310	0.948220	0.040530
O7541	O754	0.485750	0.867290	0.916980
O7551	O755	0.467550	0.902750	0.952240
O7561	O756	0.442270	0.853860	0.946970
O7571	O757	0.392140	0.887630	0.930640
O7581	O758	0.371650	0.924640	0.967510
O7591	O759	0.423120	0.890820	0.981930
O7601	O760	0.655360	0.980680	0.082670
O7611	O761	0.594200	0.000540	0.102770
O7621	O762	0.681410	0.934740	0.074130
O7631	O763	0.567440	0.971600	0.113310
O7641	O764	0.652700	0.870010	0.144700
O7651	O765	0.649910	0.902390	0.084770
C7931	C793	0.539590	0.017300	0.064310
C7941	C794	0.560280	0.022320	0.070870
C7951	C795	0.574570	0.996910	0.097560
C7961	C796	0.521160	0.810690	0.904120
C7971	C797	0.489510	0.816630	0.924640
C7981	C798	0.471450	0.847580	0.930460
C7991	C799	0.419900	0.897500	0.033840
C8001	C800	0.436770	0.918150	0.053710
C8011	C801	0.445380	0.900790	0.005580
C8021	C802	0.463290	0.921200	0.025890
C8031	C803	0.467210	0.912270	0.001980
C8041	C804	0.414700	0.906790	0.057650
C8051	C805	0.483820	0.938100	0.019660
C8061	C806	0.384130	0.908500	0.084450
C8071	C807	0.445720	0.897260	0.978400
C8081	C808	0.323350	0.008350	0.961630
C8091	C809	0.303010	0.028470	0.980440
C8101	C810	0.674450	0.964510	0.064060
Fe911	Fe91	0.746050	0.954940	0.890700
Fe921	Fe92	0.320400	0.110760	0.904220
O7661	O766	0.761480	0.854430	0.804490
O7671	O767	0.739770	0.832660	0.782770
O7681	O768	0.558910	0.992790	0.943150
O7691	O769	0.446920	0.046530	0.003610
O7701	O770	0.532940	0.040530	0.948220
O7711	O771	0.729990	0.916980	0.867290
O7721	O772	0.677450	0.952240	0.902750
O7731	O773	0.756900	0.946970	0.853860
O7741	O774	0.789590	0.930640	0.887630
O7751	O775	0.736200	0.967510	0.924640
O7761	O776	0.704130	0.981930	0.890820
O7771	O777	0.281300	0.082670	0.980680
O7781	O778	0.302490	0.102770	0.000540
O7791	O779	0.309720	0.074130	0.934740
O7801	O780	0.347650	0.113310	0.971600
O7811	O781	0.332600	0.144700	0.870010
O7821	O782	0.362940	0.084770	0.902390
C8111	C811	0.378800	0.064310	0.017300
C8121	C812	0.346530	0.070870	0.022320
C8131	C813	0.330960	0.097560	0.996910
C8141	C814	0.764030	0.904120	0.810690
C8151	C815	0.769220	0.924640	0.816630
C8161	C816	0.750510	0.930460	0.847580
C8171	C817	0.648760	0.033840	0.897500
C8181	C818	0.591370	0.053710	0.918150
C8191	C819	0.648250	0.005580	0.900790
C8201	C820	0.589620	0.025890	0.921200
C8211	C821	0.618550	0.001980	0.912270
C8221	C822	0.620860	0.057650	0.906790
C8231	C823	0.558420	0.019660	0.938100
C8241	C824	0.622930	0.084450	0.908500
C8251	C825	0.678620	0.978400	0.897260
C8261	C826	0.706670	0.961630	0.008350
C8271	C827	0.688090	0.980440	0.028470
C8281	C828	0.296980	0.064060	0.964510
Fe931	Fe93	0.954940	0.746050	0.408300
Fe941	Fe94	0.110760	0.320400	0.664630
O7831	O783	0.854430	0.761480	0.579600
O7841	O784	0.832660	0.739770	0.644800
O7851	O785	0.992790	0.558910	0.505150
O7861	O786	0.046530	0.446920	0.502940
O7871	O787	0.040530	0.532940	0.478310
O7881	O788	0.916980	0.729990	0.485750
O7891	O789	0.952240	0.677450	0.467550
O7901	O790	0.946970	0.756900	0.442270
O7911	O791	0.930640	0.789590	0.392140
O7921	O792	0.967510	0.736200	0.371650
O7931	O793	0.981930	0.704130	0.423120
O7941	O794	0.082670	0.281300	0.655360
O7951	O795	0.102770	0.302490	0.594200
O7961	O796	0.074130	0.309720	0.681410
O7971	O797	0.113310	0.347650	0.567440
O7981	O798	0.144700	0.332600	0.652700
O7991	O799	0.084770	0.362940	0.649910
C8291	C829	0.064310	0.378800	0.539590
C8301	C830	0.070870	0.346530	0.560280
C8311	C831	0.097560	0.330960	0.574570
C8321	C832	0.904120	0.764030	0.521160
C8331	C833	0.924640	0.769220	0.489510
C8341	C834	0.930460	0.750510	0.471450
C8351	C835	0.033840	0.648760	0.419900
C8361	C836	0.053710	0.591370	0.436770
C8371	C837	0.005580	0.648250	0.445380
C8381	C838	0.025890	0.589620	0.463290
C8391	C839	0.001980	0.618550	0.467210
C8401	C840	0.057650	0.620860	0.414700
C8411	C841	0.019660	0.558420	0.483820
C8421	C842	0.084450	0.622930	0.384130
C8431	C843	0.978400	0.678620	0.445720
C8441	C844	0.961630	0.706670	0.323350
C8451	C845	0.980440	0.688090	0.303010
C8461	C846	0.064060	0.296980	0.674450
Fe951	Fe95	0.890700	0.408300	0.746050
Fe961	Fe96	0.904220	0.664630	0.320400
O8001	O800	0.804490	0.579600	0.761480
O8011	O801	0.782770	0.644800	0.739770
O8021	O802	0.943150	0.505150	0.558910
O8031	O803	0.003610	0.502940	0.446920
O8041	O804	0.948220	0.478310	0.532940
O8051	O805	0.867290	0.485750	0.729990
O8061	O806	0.902750	0.467550	0.677450
O8071	O807	0.853860	0.442270	0.756900
O8081	O808	0.887630	0.392140	0.789590
O8091	O809	0.924640	0.371650	0.736200
O8101	O810	0.890820	0.423120	0.704130
O8111	O811	0.980680	0.655360	0.281300
O8121	O812	0.000540	0.594200	0.302490
O8131	O813	0.934740	0.681410	0.309720
O8141	O814	0.971600	0.567440	0.347650
O8151	O815	0.870010	0.652700	0.332600
O8161	O816	0.902390	0.649910	0.362940
C8471	C847	0.017300	0.539590	0.378800
C8481	C848	0.022320	0.560280	0.346530
C8491	C849	0.996910	0.574570	0.330960
C8501	C850	0.810690	0.521160	0.764030
C8511	C851	0.816630	0.489510	0.769220
C8521	C852	0.847580	0.471450	0.750510
C8531	C853	0.897500	0.419900	0.648760
C8541	C854	0.918150	0.436770	0.591370
C8551	C855	0.900790	0.445380	0.648250
C8561	C856	0.921200	0.463290	0.589620
C8571	C857	0.912270	0.467210	0.618550
C8581	C858	0.906790	0.414700	0.620860
C8591	C859	0.938100	0.483820	0.558420
C8601	C860	0.908500	0.384130	0.622930
C8611	C861	0.897260	0.445720	0.678620
C8621	C862	0.008350	0.323350	0.706670
C8631	C863	0.028470	0.303010	0.688090
C8641	C864	0.964510	0.674450	0.296980
Fe971	Fe97	0.752880	0.612190	0.817460
Fe981	Fe98	0.705270	0.474220	0.910260
O8171	O817	0.732450	0.430270	0.918640
C8651	C865	0.839810	0.384150	0.888020
C8661	C866	0.804250	0.389230	0.903260
C8671	C867	0.679050	0.293100	0.013920
C8681	C868	0.715810	0.334310	0.974940
C8691	C869	0.730810	0.360430	0.954380
Fe991	Fe99	0.612190	0.752880	0.817460
Fe1001	Fe100	0.474220	0.705270	0.910260
O8181	O818	0.430270	0.732450	0.918640
C8701	C870	0.384150	0.839810	0.888020
C8711	C871	0.389230	0.804250	0.903260
C8721	C872	0.293100	0.679050	0.013920
C8731	C873	0.334310	0.715810	0.974940
C8741	C874	0.360430	0.730810	0.954380
Fe1011	Fe101	0.817460	0.817460	0.752880
Fe1021	Fe102	0.910260	0.910260	0.705270
O8191	O819	0.918640	0.918640	0.732450
C8751	C875	0.888020	0.888020	0.839810
C8761	C876	0.903260	0.903260	0.804250
C8771	C877	0.013920	0.013920	0.679050
C8781	C878	0.974940	0.974940	0.715810
C8791	C879	0.954380	0.954380	0.730810
Fe1031	Fe103	0.817460	0.817460	0.612190
Fe1041	Fe104	0.910260	0.910260	0.474220
O8201	O820	0.918640	0.918640	0.430270
C8801	C880	0.888020	0.888020	0.384150
C8811	C881	0.903260	0.903260	0.389230
C8821	C882	0.013920	0.013920	0.293100
C8831	C883	0.974940	0.974940	0.334310
C8841	C884	0.954380	0.954380	0.360430
Fe1051	Fe105	0.817460	0.752880	0.612190
Fe1061	Fe106	0.910260	0.705270	0.474220
O8211	O821	0.918640	0.732450	0.430270
C8851	C885	0.888020	0.839810	0.384150
C8861	C886	0.903260	0.804250	0.389230
C8871	C887	0.013920	0.679050	0.293100
C8881	C888	0.974940	0.715810	0.334310
C8891	C889	0.954380	0.730810	0.360430
Fe1071	Fe107	0.817460	0.612190	0.752880
Fe1081	Fe108	0.910260	0.474220	0.705270
O8221	O822	0.918640	0.430270	0.732450
C8901	C890	0.888020	0.384150	0.839810
C8911	C891	0.903260	0.389230	0.804250
C8921	C892	0.013920	0.293100	0.679050
C8931	C893	0.974940	0.334310	0.715810
C8941	C894	0.954380	0.360430	0.730810
Fe1091	Fe109	0.752880	0.817460	0.817460
Fe1101	Fe110	0.705270	0.910260	0.910260
O8231	O823	0.732450	0.918640	0.918640
C8951	C895	0.839810	0.888020	0.888020
C8961	C896	0.804250	0.903260	0.903260
C8971	C897	0.679050	0.013920	0.013920
C8981	C898	0.715810	0.974940	0.974940
C8991	C899	0.730810	0.954380	0.954380
Fe1111	Fe111	0.612190	0.817460	0.817460
Fe1121	Fe112	0.474220	0.910260	0.910260
O8241	O824	0.430270	0.918640	0.918640
C9001	C900	0.384150	0.888020	0.888020
C9011	C901	0.389230	0.903260	0.903260
C9021	C902	0.293100	0.013920	0.013920
C9031	C903	0.334310	0.974940	0.974940
C9041	C904	0.360430	0.954380	0.954380
Fe1131	Fe113	0.612190	0.817460	0.752880
Fe1141	Fe114	0.474220	0.910260	0.705270
O8251	O825	0.430270	0.918640	0.732450
C9051	C905	0.384150	0.888020	0.839810
C9061	C906	0.389230	0.903260	0.804250
C9071	C907	0.293100	0.013920	0.679050
C9081	C908	0.334310	0.974940	0.715810
C9091	C909	0.360430	0.954380	0.730810
Fe1151	Fe115	0.752880	0.817460	0.612190
Fe1161	Fe116	0.705270	0.910260	0.474220
O8261	O826	0.732450	0.918640	0.430270
C9101	C910	0.839810	0.888020	0.384150
C9111	C911	0.804250	0.903260	0.389230
C9121	C912	0.679050	0.013920	0.293100
C9131	C913	0.715810	0.974940	0.334310
C9141	C914	0.730810	0.954380	0.360430
Fe1171	Fe117	0.817460	0.752880	0.817460
Fe1181	Fe118	0.910260	0.705270	0.910260
O8271	O827	0.918640	0.732450	0.918640
C9151	C915	0.888020	0.839810	0.888020
C9161	C916	0.903260	0.804250	0.903260
C9171	C917	0.013920	0.679050	0.013920
C9181	C918	0.974940	0.715810	0.974940
C9191	C919	0.954380	0.730810	0.954380
Fe1191	Fe119	0.817460	0.612190	0.817460
Fe1201	Fe120	0.910260	0.474220	0.910260
O8281	O828	0.918640	0.430270	0.918640
C9201	C920	0.888020	0.384150	0.888020
C9211	C921	0.903260	0.389230	0.903260
C9221	C922	0.013920	0.293100	0.013920
C9231	C923	0.974940	0.334310	0.974940
C9241	C924	0.954380	0.360430	0.954380
Fe1211	Fe121	0.497120	0.637810	0.432540
Fe1221	Fe122	0.544730	0.775780	0.339740
O8291	O829	0.517550	0.819730	0.331360
C9251	C925	0.410190	0.865850	0.361980
C9261	C926	0.445750	0.860770	0.346740
C9271	C927	0.570950	0.956900	0.236080
C9281	C928	0.534190	0.915690	0.275060
C9291	C929	0.519190	0.889570	0.295620
Fe1231	Fe123	0.637810	0.497120	0.432540
Fe1241	Fe124	0.775780	0.544730	0.339740
O8301	O830	0.819730	0.517550	0.331360
C9301	C930	0.865850	0.410190	0.361980
C9311	C931	0.860770	0.445750	0.346740
C9321	C932	0.956900	0.570950	0.236080
C9331	C933	0.915690	0.534190	0.275060
C9341	C934	0.889570	0.519190	0.295620
Fe1251	Fe125	0.432540	0.432540	0.637810
Fe1261	Fe126	0.339740	0.339740	0.775780
O8311	O831	0.331360	0.331360	0.819730
C9351	C935	0.361980	0.361980	0.865850
C9361	C936	0.346740	0.346740	0.860770
C9371	C937	0.236080	0.236080	0.956900
C9381	C938	0.275060	0.275060	0.915690
C9391	C939	0.295620	0.295620	0.889570
Fe1271	Fe127	0.432540	0.432540	0.497120
Fe1281	Fe128	0.339740	0.339740	0.544730
O8321	O832	0.331360	0.331360	0.517550
C9401	C940	0.361980	0.361980	0.410190
C9411	C941	0.346740	0.346740	0.445750
C9421	C942	0.236080	0.236080	0.570950
C9431	C943	0.275060	0.275060	0.534190
C9441	C944	0.295620	0.295620	0.519190
Fe1291	Fe129	0.432540	0.497120	0.432540
Fe1301	Fe130	0.339740	0.544730	0.339740
O8331	O833	0.331360	0.517550	0.331360
C9451	C945	0.361980	0.410190	0.361980
C9461	C946	0.346740	0.445750	0.346740
C9471	C947	0.236080	0.570950	0.236080
C9481	C948	0.275060	0.534190	0.275060
C9491	C949	0.295620	0.519190	0.295620
Fe1311	Fe131	0.432540	0.637810	0.432540
Fe1321	Fe132	0.339740	0.775780	0.339740
O8341	O834	0.331360	0.819730	0.331360
C9501	C950	0.361980	0.865850	0.361980
C9511	C951	0.346740	0.860770	0.346740
C9521	C952	0.236080	0.956900	0.236080
C9531	C953	0.275060	0.915690	0.275060
C9541	C954	0.295620	0.889570	0.295620
Fe1331	Fe133	0.497120	0.432540	0.637810
Fe1341	Fe134	0.544730	0.339740	0.775780
O8351	O835	0.517550	0.331360	0.819730
C9551	C955	0.410190	0.361980	0.865850
C9561	C956	0.445750	0.346740	0.860770
C9571	C957	0.570950	0.236080	0.956900
C9581	C958	0.534190	0.275060	0.915690
C9591	C959	0.519190	0.295620	0.889570
Fe1351	Fe135	0.637810	0.432540	0.497120
Fe1361	Fe136	0.775780	0.339740	0.544730
O8361	O836	0.819730	0.331360	0.517550
C9601	C960	0.865850	0.361980	0.410190
C9611	C961	0.860770	0.346740	0.445750
C9621	C962	0.956900	0.236080	0.570950
C9631	C963	0.915690	0.275060	0.534190
C9641	C964	0.889570	0.295620	0.519190
Fe1371	Fe137	0.637810	0.432540	0.432540
Fe1381	Fe138	0.775780	0.339740	0.339740
O8371	O837	0.819730	0.331360	0.331360
C9651	C965	0.865850	0.361980	0.361980
C9661	C966	0.860770	0.346740	0.346740
C9671	C967	0.956900	0.236080	0.236080
C9681	C968	0.915690	0.275060	0.275060
C9691	C969	0.889570	0.295620	0.295620
Fe1391	Fe139	0.497120	0.432540	0.432540
Fe1401	Fe140	0.544730	0.339740	0.339740
O8381	O838	0.517550	0.331360	0.331360
C9701	C970	0.410190	0.361980	0.361980
C9711	C971	0.445750	0.346740	0.346740
C9721	C972	0.570950	0.236080	0.236080
C9731	C973	0.534190	0.275060	0.275060
C9741	C974	0.519190	0.295620	0.295620
Fe1411	Fe141	0.432540	0.497120	0.637810
Fe1421	Fe142	0.339740	0.544730	0.775780
O8391	O839	0.331360	0.517550	0.819730
C9751	C975	0.361980	0.410190	0.865850
C9761	C976	0.346740	0.445750	0.860770
C9771	C977	0.236080	0.570950	0.956900
C9781	C978	0.275060	0.534190	0.915690
C9791	C979	0.295620	0.519190	0.889570
Fe1431	Fe143	0.432540	0.637810	0.497120
Fe1441	Fe144	0.339740	0.775780	0.544730
O8401	O840	0.331360	0.819730	0.517550
C9801	C980	0.361980	0.865850	0.410190
C9811	C981	0.346740	0.860770	0.445750
C9821	C982	0.236080	0.956900	0.570950
C9831	C983	0.275060	0.915690	0.534190
C9841	C984	0.295620	0.889570	0.519190
C9851	C985	0.431980	0.510020	0.029000
C9861	C986	0.395760	0.528840	0.037700
C9871	C987	0.331060	0.570120	0.049410
C9881	C988	0.510020	0.431980	0.029000
C9891	C989	0.528840	0.395760	0.037700
C9901	C990	0.570120	0.331060	0.049410
C9911	C991	0.029000	0.029000	0.431980
C9921	C992	0.037700	0.037700	0.395760
C9931	C993	0.049410	0.049410	0.331060
C9941	C994	0.029000	0.029000	0.510020
C9951	C995	0.037700	0.037700	0.528840
C9961	C996	0.049410	0.049410	0.570120
C9971	C997	0.029000	0.431980	0.510020
C9981	C998	0.037700	0.395760	0.528840
C9991	C999	0.049410	0.331060	0.570120
C10001	C1000	0.029000	0.510020	0.431980
C10011	C1001	0.037700	0.528840	0.395760
C10021	C1002	0.049410	0.570120	0.331060
C10031	C1003	0.431980	0.029000	0.029000
C10041	C1004	0.395760	0.037700	0.037700
C10051	C1005	0.331060	0.049410	0.049410
C10061	C1006	0.510020	0.029000	0.029000
C10071	C1007	0.528840	0.037700	0.037700
C10081	C1008	0.570120	0.049410	0.049410
C10091	C1009	0.510020	0.029000	0.431980
C10101	C1010	0.528840	0.037700	0.395760
C10111	C1011	0.570120	0.049410	0.331060
C10121	C1012	0.431980	0.029000	0.510020
C10131	C1013	0.395760	0.037700	0.528840
C10141	C1014	0.331060	0.049410	0.570120
C10151	C1015	0.029000	0.431980	0.029000
C10161	C1016	0.037700	0.395760	0.037700
C10171	C1017	0.049410	0.331060	0.049410
C10181	C1018	0.029000	0.510020	0.029000
C10191	C1019	0.037700	0.528840	0.037700
C10201	C1020	0.049410	0.570120	0.049410
C10211	C1021	0.818020	0.739980	0.221000
C10221	C1022	0.854240	0.721160	0.212300
C10231	C1023	0.918940	0.679880	0.200590
C10241	C1024	0.739980	0.818020	0.221000
C10251	C1025	0.721160	0.854240	0.212300
C10261	C1026	0.679880	0.918940	0.200590
C10271	C1027	0.221000	0.221000	0.739980
C10281	C1028	0.212300	0.212300	0.721160
C10291	C1029	0.200590	0.200590	0.679880
C10301	C1030	0.221000	0.221000	0.818020
C10311	C1031	0.212300	0.212300	0.854240
C10321	C1032	0.200590	0.200590	0.918940
C10331	C1033	0.221000	0.818020	0.221000
C10341	C1034	0.212300	0.854240	0.212300
C10351	C1035	0.200590	0.918940	0.200590
C10361	C1036	0.221000	0.739980	0.221000
C10371	C1037	0.212300	0.721160	0.212300
C10381	C1038	0.200590	0.679880	0.200590
C10391	C1039	0.818020	0.221000	0.739980
C10401	C1040	0.854240	0.212300	0.721160
C10411	C1041	0.918940	0.200590	0.679880
C10421	C1042	0.739980	0.221000	0.818020
C10431	C1043	0.721160	0.212300	0.854240
C10441	C1044	0.679880	0.200590	0.918940
C10451	C1045	0.739980	0.221000	0.221000
C10461	C1046	0.721160	0.212300	0.212300
C10471	C1047	0.679880	0.200590	0.200590
C10481	C1048	0.818020	0.221000	0.221000
C10491	C1049	0.854240	0.212300	0.212300
C10501	C1050	0.918940	0.200590	0.200590
C10511	C1051	0.221000	0.818020	0.739980
C10521	C1052	0.212300	0.854240	0.721160
C10531	C1053	0.200590	0.918940	0.679880
C10541	C1054	0.221000	0.739980	0.818020
C10551	C1055	0.212300	0.721160	0.854240
C10561	C1056	0.200590	0.679880	0.918940
Fe1451	Fe145	0.530580	0.530580	0.969420
O8411	O841	0.504110	0.504110	0.995890
Fe1461	Fe146	0.969420	0.969420	0.530580
O8421	O842	0.995890	0.995890	0.504110
Fe1471	Fe147	0.969420	0.530580	0.530580
O8431	O843	0.995890	0.504110	0.504110
Fe1481	Fe148	0.530580	0.969420	0.969420
O8441	O844	0.504110	0.995890	0.995890
Fe1491	Fe149	0.530580	0.969420	0.530580
O8451	O845	0.504110	0.995890	0.504110
Fe1501	Fe150	0.969420	0.530580	0.969420
O8461	O846	0.995890	0.504110	0.995890
Fe1511	Fe151	0.719420	0.719420	0.280580
O8471	O847	0.745890	0.745890	0.254110
Fe1521	Fe152	0.280580	0.280580	0.719420
O8481	O848	0.254110	0.254110	0.745890
Fe1531	Fe153	0.280580	0.719420	0.280580
O8491	O849	0.254110	0.745890	0.254110
Fe1541	Fe154	0.719420	0.280580	0.719420
O8501	O850	0.745890	0.254110	0.745890
Fe1551	Fe155	0.719420	0.280580	0.280580
O8511	O851	0.745890	0.254110	0.254110
Fe1561	Fe156	0.280580	0.719420	0.719420
O8521	O852	0.254110	0.745890	0.745890
Fe1571	Fe157	0.490860	0.490860	0.976980
C10571	C1057	0.703380	0.703380	0.750180
Fe1581	Fe158	0.490860	0.490860	0.041300
C10581	C1058	0.703380	0.703380	0.843060
Fe1591	Fe159	0.976980	0.041300	0.490860
C10591	C1059	0.750180	0.843060	0.703380
Fe1601	Fe160	0.041300	0.976980	0.490860
C10601	C1060	0.843060	0.750180	0.703380
Fe1611	Fe161	0.976980	0.490860	0.490860
C10611	C1061	0.750180	0.703380	0.703380
Fe1621	Fe162	0.041300	0.490860	0.490860
C10621	C1062	0.843060	0.703380	0.703380
Fe1631	Fe163	0.490860	0.976980	0.041300
C10631	C1063	0.703380	0.750180	0.843060
Fe1641	Fe164	0.490860	0.041300	0.976980
C10641	C1064	0.703380	0.843060	0.750180
Fe1651	Fe165	0.490860	0.976980	0.490860
C10651	C1065	0.703380	0.750180	0.703380
Fe1661	Fe166	0.490860	0.041300	0.490860
C10661	C1066	0.703380	0.843060	0.703380
Fe1671	Fe167	0.041300	0.490860	0.976980
C10671	C1067	0.843060	0.703380	0.750180
Fe1681	Fe168	0.976980	0.490860	0.041300
C10681	C1068	0.750180	0.703380	0.843060
Fe1691	Fe169	0.759140	0.759140	0.208700
C10691	C1069	0.546620	0.546620	0.406940
Fe1701	Fe170	0.759140	0.759140	0.273020
C10701	C1070	0.546620	0.546620	0.499820
Fe1711	Fe171	0.273020	0.208700	0.759140
C10711	C1071	0.499820	0.406940	0.546620
Fe1721	Fe172	0.208700	0.273020	0.759140
C10721	C1072	0.406940	0.499820	0.546620
Fe1731	Fe173	0.273020	0.759140	0.208700
C10731	C1073	0.499820	0.546620	0.406940
Fe1741	Fe174	0.208700	0.759140	0.273020
C10741	C1074	0.406940	0.546620	0.499820
Fe1751	Fe175	0.759140	0.273020	0.759140
C10751	C1075	0.546620	0.499820	0.546620
Fe1761	Fe176	0.759140	0.208700	0.759140
C10761	C1076	0.546620	0.406940	0.546620
Fe1771	Fe177	0.759140	0.273020	0.208700
C10771	C1077	0.546620	0.499820	0.406940
Fe1781	Fe178	0.759140	0.208700	0.273020
C10781	C1078	0.546620	0.406940	0.499820
Fe1791	Fe179	0.208700	0.759140	0.759140
C10791	C1079	0.406940	0.546620	0.546620
Fe1801	Fe180	0.273020	0.759140	0.759140
C10801	C1080	0.499820	0.546620	0.546620
Fe1811	Fe181	0.277360	0.625000	0.972640
O8531	O853	0.314540	0.625000	0.935460
Fe1821	Fe182	0.625000	0.277360	0.125000
O8541	O854	0.625000	0.314540	0.125000
Fe1831	Fe183	0.972640	0.125000	0.277360
O8551	O855	0.935460	0.125000	0.314540
Fe1841	Fe184	0.125000	0.972640	0.625000
O8561	O856	0.125000	0.935460	0.625000
Fe1851	Fe185	0.972640	0.277360	0.625000
O8571	O857	0.935460	0.314540	0.625000
Fe1861	Fe186	0.125000	0.625000	0.277360
O8581	O858	0.125000	0.625000	0.314540
Fe1871	Fe187	0.277360	0.972640	0.125000
O8591	O859	0.314540	0.935460	0.125000
Fe1881	Fe188	0.625000	0.125000	0.972640
O8601	O860	0.625000	0.125000	0.935460
Fe1891	Fe189	0.625000	0.972640	0.277360
O8611	O861	0.625000	0.935460	0.314540
Fe1901	Fe190	0.277360	0.125000	0.625000
O8621	O862	0.314540	0.125000	0.625000
Fe1911	Fe191	0.125000	0.277360	0.972640
O8631	O863	0.125000	0.314540	0.935460
Fe1921	Fe192	0.972640	0.625000	0.125000
O8641	O864	0.935460	0.625000	0.125000
Fe1931	Fe193	0.972640	0.625000	0.277360
O8651	O865	0.935460	0.625000	0.314540
Fe1941	Fe194	0.625000	0.972640	0.125000
O8661	O866	0.625000	0.935460	0.125000
Fe1951	Fe195	0.277360	0.125000	0.972640
O8671	O867	0.314540	0.125000	0.935460
Fe1961	Fe196	0.125000	0.277360	0.625000
O8681	O868	0.125000	0.314540	0.625000
Fe1971	Fe197	0.277360	0.972640	0.625000
O8691	O869	0.314540	0.935460	0.625000
Fe1981	Fe198	0.125000	0.625000	0.972640
O8701	O870	0.125000	0.625000	0.935460
Fe1991	Fe199	0.972640	0.277360	0.125000
O8711	O871	0.935460	0.314540	0.125000
Fe2001	Fe200	0.625000	0.125000	0.277360
O8721	O872	0.625000	0.125000	0.314540
Fe2011	Fe201	0.625000	0.277360	0.972640
O8731	O873	0.625000	0.314540	0.935460
Fe2021	Fe202	0.972640	0.125000	0.625000
O8741	O874	0.935460	0.125000	0.625000
Fe2031	Fe203	0.125000	0.972640	0.277360
O8751	O875	0.125000	0.935460	0.314540
Fe2041	Fe204	0.277360	0.625000	0.125000
O8761	O876	0.314540	0.625000	0.125000
O8771	O877	0.795940	0.612180	0.795940
O8781	O878	0.612180	0.795940	0.795940
O8791	O879	0.795940	0.795940	0.795940
O8801	O880	0.795940	0.795940	0.612180
O8811	O881	0.454060	0.637820	0.454060
O8821	O882	0.637820	0.454060	0.454060
O8831	O883	0.454060	0.454060	0.637820
O8841	O884	0.454060	0.454060	0.454060
C10811	C1081	0.856320	0.384000	0.856320
C10821	C1082	0.783150	0.567670	0.783150
C10831	C1083	0.784950	0.537050	0.784950
C10841	C1084	0.795430	0.474090	0.795430
C10851	C1085	0.384000	0.856320	0.903350
C10861	C1086	0.567670	0.783150	0.866040
C10871	C1087	0.537050	0.784950	0.893040
C10881	C1088	0.474090	0.795430	0.935050
C10891	C1089	0.856320	0.903350	0.856320
C10901	C1090	0.783150	0.866040	0.783150
C10911	C1091	0.784950	0.893040	0.784950
C10921	C1092	0.795430	0.935050	0.795430
C10931	C1093	0.903350	0.856320	0.384000
C10941	C1094	0.866040	0.783150	0.567670
C10951	C1095	0.893040	0.784950	0.537050
C10961	C1096	0.935050	0.795430	0.474090
C10971	C1097	0.856320	0.856320	0.384000
C10981	C1098	0.783150	0.783150	0.567670
C10991	C1099	0.784950	0.784950	0.537050
C11001	C1100	0.795430	0.795430	0.474090
C11011	C1101	0.903350	0.384000	0.856320
C11021	C1102	0.866040	0.567670	0.783150
C11031	C1103	0.893040	0.537050	0.784950
C11041	C1104	0.935050	0.474090	0.795430
C11051	C1105	0.856320	0.856320	0.903350
C11061	C1106	0.783150	0.783150	0.866040
C11071	C1107	0.784950	0.784950	0.893040
C11081	C1108	0.795430	0.795430	0.935050
C11091	C1109	0.384000	0.903350	0.856320
C11101	C1110	0.567670	0.866040	0.783150
C11111	C1111	0.537050	0.893040	0.784950
C11121	C1112	0.474090	0.935050	0.795430
C11131	C1113	0.384000	0.856320	0.856320
C11141	C1114	0.567670	0.783150	0.783150
C11151	C1115	0.537050	0.784950	0.784950
C11161	C1116	0.474090	0.795430	0.795430
C11171	C1117	0.856320	0.903350	0.384000
C11181	C1118	0.783150	0.866040	0.567670
C11191	C1119	0.784950	0.893040	0.537050
C11201	C1120	0.795430	0.935050	0.474090
C11211	C1121	0.903350	0.856320	0.856320
C11221	C1122	0.866040	0.783150	0.783150
C11231	C1123	0.893040	0.784950	0.784950
C11241	C1124	0.935050	0.795430	0.795430
C11251	C1125	0.856320	0.384000	0.903350
C11261	C1126	0.783150	0.567670	0.866040
C11271	C1127	0.784950	0.537050	0.893040
C11281	C1128	0.795430	0.474090	0.935050
C11291	C1129	0.393680	0.866000	0.346650
C11301	C1130	0.466850	0.682330	0.383960
C11311	C1131	0.465050	0.712950	0.356960
C11321	C1132	0.454570	0.775910	0.314950
C11331	C1133	0.866000	0.393680	0.393680
C11341	C1134	0.682330	0.466850	0.466850
C11351	C1135	0.712950	0.465050	0.465050
C11361	C1136	0.775910	0.454570	0.454570
C11371	C1137	0.393680	0.346650	0.866000
C11381	C1138	0.466850	0.383960	0.682330
C11391	C1139	0.465050	0.356960	0.712950
C11401	C1140	0.454570	0.314950	0.775910
C11411	C1141	0.346650	0.393680	0.393680
C11421	C1142	0.383960	0.466850	0.466850
C11431	C1143	0.356960	0.465050	0.465050
C11441	C1144	0.314950	0.454570	0.454570
C11451	C1145	0.393680	0.393680	0.346650
C11461	C1146	0.466850	0.466850	0.383960
C11471	C1147	0.465050	0.465050	0.356960
C11481	C1148	0.454570	0.454570	0.314950
C11491	C1149	0.346650	0.866000	0.393680
C11501	C1150	0.383960	0.682330	0.466850
C11511	C1151	0.356960	0.712950	0.465050
C11521	C1152	0.314950	0.775910	0.454570
C11531	C1153	0.393680	0.393680	0.866000
C11541	C1154	0.466850	0.466850	0.682330
C11551	C1155	0.465050	0.465050	0.712950
C11561	C1156	0.454570	0.454570	0.775910
C11571	C1157	0.866000	0.346650	0.393680
C11581	C1158	0.682330	0.383960	0.466850
C11591	C1159	0.712950	0.356960	0.465050
C11601	C1160	0.775910	0.314950	0.454570
C11611	C1161	0.866000	0.393680	0.346650
C11621	C1162	0.682330	0.466850	0.383960
C11631	C1163	0.712950	0.465050	0.356960
C11641	C1164	0.775910	0.454570	0.314950
C11651	C1165	0.393680	0.346650	0.393680
C11661	C1166	0.466850	0.383960	0.466850
C11671	C1167	0.465050	0.356960	0.465050
C11681	C1168	0.454570	0.314950	0.454570
C11691	C1169	0.346650	0.393680	0.866000
C11701	C1170	0.383960	0.466850	0.682330
C11711	C1171	0.356960	0.465050	0.712950
C11721	C1172	0.314950	0.454570	0.775910
C11731	C1173	0.393680	0.866000	0.393680
C11741	C1174	0.466850	0.682330	0.466850
C11751	C1175	0.465050	0.712950	0.465050
C11761	C1176	0.454570	0.775910	0.454570
C11771	C1177	0.734940	0.687460	0.734940
C11781	C1178	0.753490	0.656780	0.753490
C11791	C1179	0.687460	0.734940	0.842660
C11801	C1180	0.656780	0.753490	0.836230
C11811	C1181	0.734940	0.842660	0.734940
C11821	C1182	0.753490	0.836230	0.753490
C11831	C1183	0.842660	0.734940	0.687460
C11841	C1184	0.836230	0.753490	0.656780
C11851	C1185	0.734940	0.734940	0.687460
C11861	C1186	0.753490	0.753490	0.656780
C11871	C1187	0.842660	0.687460	0.734940
C11881	C1188	0.836230	0.656780	0.753490
C11891	C1189	0.734940	0.734940	0.842660
C11901	C1190	0.753490	0.753490	0.836230
C11911	C1191	0.687460	0.842660	0.734940
C11921	C1192	0.656780	0.836230	0.753490
C11931	C1193	0.687460	0.734940	0.734940
C11941	C1194	0.656780	0.753490	0.753490
C11951	C1195	0.734940	0.842660	0.687460
C11961	C1196	0.753490	0.836230	0.656780
C11971	C1197	0.842660	0.734940	0.734940
C11981	C1198	0.836230	0.753490	0.753490
C11991	C1199	0.734940	0.687460	0.842660
C12001	C1200	0.753490	0.656780	0.836230
C12011	C1201	0.515060	0.562540	0.407340
C12021	C1202	0.496510	0.593220	0.413770
C12031	C1203	0.562540	0.515060	0.515060
C12041	C1204	0.593220	0.496510	0.496510
C12051	C1205	0.515060	0.407340	0.562540
C12061	C1206	0.496510	0.413770	0.593220
C12071	C1207	0.407340	0.515060	0.515060
C12081	C1208	0.413770	0.496510	0.496510
C12091	C1209	0.515060	0.515060	0.407340
C12101	C1210	0.496510	0.496510	0.413770
C12111	C1211	0.407340	0.562540	0.515060
C12121	C1212	0.413770	0.593220	0.496510
C12131	C1213	0.515060	0.515060	0.562540
C12141	C1214	0.496510	0.496510	0.593220
C12151	C1215	0.562540	0.407340	0.515060
C12161	C1216	0.593220	0.413770	0.496510
C12171	C1217	0.562540	0.515060	0.407340
C12181	C1218	0.593220	0.496510	0.413770
C12191	C1219	0.515060	0.407340	0.515060
C12201	C1220	0.496510	0.413770	0.496510
C12211	C1221	0.407340	0.515060	0.562540
C12221	C1222	0.413770	0.496510	0.593220
C12231	C1223	0.515060	0.562540	0.515060
C12241	C1224	0.496510	0.593220	0.496510
H11	H1	0.391380	0.532760	0.996400
H21	H2	0.744780	0.532810	0.827470
H31	H3	0.671250	0.402700	0.889530
H41	H4	0.569770	0.432360	0.926260
H51	H5	0.618010	0.486310	0.915920
H61	H6	0.712670	0.332230	0.018880
H71	H7	0.532760	0.391380	0.079470
H81	H8	0.532810	0.744780	0.894940
H91	H9	0.402700	0.671250	0.036520
H101	H10	0.432360	0.569770	0.071600
H111	H11	0.486310	0.618010	0.979760
H121	H12	0.332230	0.712670	0.936220
H131	H13	0.996400	0.079470	0.391380
H141	H14	0.827470	0.894940	0.744780
H151	H15	0.889530	0.036520	0.671250
H161	H16	0.926260	0.071600	0.569770
H171	H17	0.915920	0.979760	0.618010
H181	H18	0.018880	0.936220	0.712670
H191	H19	0.079470	0.996400	0.532760
H201	H20	0.894940	0.827470	0.532810
H211	H21	0.036520	0.889530	0.402700
H221	H22	0.071600	0.926260	0.432360
H231	H23	0.979760	0.915920	0.486310
H241	H24	0.936220	0.018880	0.332230
H251	H25	0.996400	0.391380	0.532760
H261	H26	0.827470	0.744780	0.532810
H271	H27	0.889530	0.671250	0.402700
H281	H28	0.926260	0.569770	0.432360
H291	H29	0.915920	0.618010	0.486310
H301	H30	0.018880	0.712670	0.332230
H311	H31	0.079470	0.532760	0.391380
H321	H32	0.894940	0.532810	0.744780
H331	H33	0.036520	0.402700	0.671250
H341	H34	0.071600	0.432360	0.569770
H351	H35	0.979760	0.486310	0.618010
H361	H36	0.936220	0.332230	0.712670
H371	H37	0.391380	0.996400	0.079470
H381	H38	0.744780	0.827470	0.894940
H391	H39	0.671250	0.889530	0.036520
H401	H40	0.569770	0.926260	0.071600
H411	H41	0.618010	0.915920	0.979760
H421	H42	0.712670	0.018880	0.936220
H431	H43	0.532760	0.079470	0.996400
H441	H44	0.532810	0.894940	0.827470
H451	H45	0.402700	0.036520	0.889530
H461	H46	0.432360	0.071600	0.926260
H471	H47	0.486310	0.979760	0.915920
H481	H48	0.332230	0.936220	0.018880
H491	H49	0.532760	0.996400	0.391380
H501	H50	0.532810	0.827470	0.744780
H511	H51	0.402700	0.889530	0.671250
H521	H52	0.432360	0.926260	0.569770
H531	H53	0.486310	0.915920	0.618010
H541	H54	0.332230	0.018880	0.712670
H551	H55	0.391380	0.079470	0.532760
H561	H56	0.744780	0.894940	0.532810
H571	H57	0.671250	0.036520	0.402700
H581	H58	0.569770	0.071600	0.432360
H591	H59	0.618010	0.979760	0.486310
H601	H60	0.712670	0.936220	0.332230
H611	H61	0.079470	0.391380	0.996400
H621	H62	0.894940	0.744780	0.827470
H631	H63	0.036520	0.671250	0.889530
H641	H64	0.071600	0.569770	0.926260
H651	H65	0.979760	0.618010	0.915920
H661	H66	0.936220	0.712670	0.018880
H671	H67	0.996400	0.532760	0.079470
H681	H68	0.827470	0.532810	0.894940
H691	H69	0.889530	0.402700	0.036520
H701	H70	0.926260	0.432360	0.071600
H711	H71	0.915920	0.486310	0.979760
H721	H72	0.018880	0.332230	0.936220
H731	H73	0.858620	0.717240	0.170530
H741	H74	0.505220	0.717190	0.355060
H751	H75	0.578750	0.847300	0.213480
H761	H76	0.680230	0.817640	0.178400
H771	H77	0.631990	0.763690	0.270240
H781	H78	0.537330	0.917770	0.313780
H791	H79	0.717240	0.858620	0.253600
H801	H80	0.717190	0.505220	0.422530
H811	H81	0.847300	0.578750	0.360470
H821	H82	0.817640	0.680230	0.323740
H831	H83	0.763690	0.631990	0.334080
H841	H84	0.917770	0.537330	0.231120
H851	H85	0.253600	0.170530	0.717240
H861	H86	0.422530	0.355060	0.717190
H871	H87	0.360470	0.213480	0.847300
H881	H88	0.323740	0.178400	0.817640
H891	H89	0.334080	0.270240	0.763690
H901	H90	0.231120	0.313780	0.917770
H911	H91	0.170530	0.253600	0.858620
H921	H92	0.355060	0.422530	0.505220
H931	H93	0.213480	0.360470	0.578750
H941	H94	0.178400	0.323740	0.680230
H951	H95	0.270240	0.334080	0.631990
H961	H96	0.313780	0.231120	0.537330
H971	H97	0.253600	0.858620	0.170530
H981	H98	0.422530	0.505220	0.355060
H991	H99	0.360470	0.578750	0.213480
H1001	H100	0.323740	0.680230	0.178400
H1011	H101	0.334080	0.631990	0.270240
H1021	H102	0.231120	0.537330	0.313780
H1031	H103	0.170530	0.717240	0.253600
H1041	H104	0.355060	0.717190	0.422530
H1051	H105	0.213480	0.847300	0.360470
H1061	H106	0.178400	0.817640	0.323740
H1071	H107	0.270240	0.763690	0.334080
H1081	H108	0.313780	0.917770	0.231120
H1091	H109	0.858620	0.253600	0.717240
H1101	H110	0.505220	0.422530	0.717190
H1111	H111	0.578750	0.360470	0.847300
H1121	H112	0.680230	0.323740	0.817640
H1131	H113	0.631990	0.334080	0.763690
H1141	H114	0.537330	0.231120	0.917770
H1151	H115	0.717240	0.170530	0.858620
H1161	H116	0.717190	0.355060	0.505220
H1171	H117	0.847300	0.213480	0.578750
H1181	H118	0.817640	0.178400	0.680230
H1191	H119	0.763690	0.270240	0.631990
H1201	H120	0.917770	0.313780	0.537330
H1211	H121	0.717240	0.253600	0.170530
H1221	H122	0.717190	0.422530	0.355060
H1231	H123	0.847300	0.360470	0.213480
H1241	H124	0.817640	0.323740	0.178400
H1251	H125	0.763690	0.334080	0.270240
H1261	H126	0.917770	0.231120	0.313780
H1271	H127	0.858620	0.170530	0.253600
H1281	H128	0.505220	0.355060	0.422530
H1291	H129	0.578750	0.213480	0.360470
H1301	H130	0.680230	0.178400	0.323740
H1311	H131	0.631990	0.270240	0.334080
H1321	H132	0.537330	0.313780	0.231120
H1331	H133	0.170530	0.858620	0.717240
H1341	H134	0.355060	0.505220	0.717190
H1351	H135	0.213480	0.578750	0.847300
H1361	H136	0.178400	0.680230	0.817640
H1371	H137	0.270240	0.631990	0.763690
H1381	H138	0.313780	0.537330	0.917770
H1391	H139	0.253600	0.717240	0.858620
H1401	H140	0.422530	0.717190	0.505220
H1411	H141	0.360470	0.847300	0.578750
H1421	H142	0.323740	0.817640	0.680230
H1431	H143	0.334080	0.763690	0.631990
H1441	H144	0.231120	0.917770	0.537330
H1451	H145	0.858620	0.717240	0.253600
H1461	H146	0.505220	0.717190	0.422530
H1471	H147	0.578750	0.847300	0.360470
H1481	H148	0.680230	0.817640	0.323740
H1491	H149	0.631990	0.763690	0.334080
H1501	H150	0.537330	0.917770	0.231120
H1511	H151	0.717240	0.858620	0.170530
H1521	H152	0.717190	0.505220	0.355060
H1531	H153	0.847300	0.578750	0.213480
H1541	H154	0.817640	0.680230	0.178400
H1551	H155	0.763690	0.631990	0.270240
H1561	H156	0.917770	0.537330	0.313780
H1571	H157	0.253600	0.170530	0.858620
H1581	H158	0.422530	0.355060	0.505220
H1591	H159	0.360470	0.213480	0.578750
H1601	H160	0.323740	0.178400	0.680230
H1611	H161	0.334080	0.270240	0.631990
H1621	H162	0.231120	0.313780	0.537330
H1631	H163	0.170530	0.253600	0.717240
H1641	H164	0.355060	0.422530	0.717190
H1651	H165	0.213480	0.360470	0.847300
H1661	H166	0.178400	0.323740	0.817640
H1671	H167	0.270240	0.334080	0.763690
H1681	H168	0.313780	0.231120	0.917770
H1691	H169	0.253600	0.858620	0.717240
H1701	H170	0.422530	0.505220	0.717190
H1711	H171	0.360470	0.578750	0.847300
H1721	H172	0.323740	0.680230	0.817640
H1731	H173	0.334080	0.631990	0.763690
H1741	H174	0.231120	0.537330	0.917770
H1751	H175	0.170530	0.717240	0.858620
H1761	H176	0.355060	0.717190	0.505220
H1771	H177	0.213480	0.847300	0.578750
H1781	H178	0.178400	0.817640	0.680230
H1791	H179	0.270240	0.763690	0.631990
H1801	H180	0.313780	0.917770	0.537330
H1811	H181	0.858620	0.253600	0.170530
H1821	H182	0.505220	0.422530	0.355060
H1831	H183	0.578750	0.360470	0.213480
H1841	H184	0.680230	0.323740	0.178400
H1851	H185	0.631990	0.334080	0.270240
H1861	H186	0.537330	0.231120	0.313780
H1871	H187	0.717240	0.170530	0.253600
H1881	H188	0.717190	0.355060	0.422530
H1891	H189	0.847300	0.213480	0.360470
H1901	H190	0.817640	0.178400	0.323740
H1911	H191	0.763690	0.270240	0.334080
H1921	H192	0.917770	0.313780	0.231120
H1931	H193	0.717240	0.253600	0.858620
H1941	H194	0.717190	0.422530	0.505220
H1951	H195	0.847300	0.360470	0.578750
H1961	H196	0.817640	0.323740	0.680230
H1971	H197	0.763690	0.334080	0.631990
H1981	H198	0.917770	0.231120	0.537330
H1991	H199	0.858620	0.170530	0.717240
H2001	H200	0.505220	0.355060	0.717190
H2011	H201	0.578750	0.213480	0.847300
H2021	H202	0.680230	0.178400	0.817640
H2031	H203	0.631990	0.270240	0.763690
H2041	H204	0.537330	0.313780	0.917770
H2051	H205	0.170530	0.858620	0.253600
H2061	H206	0.355060	0.505220	0.422530
H2071	H207	0.213480	0.578750	0.360470
H2081	H208	0.178400	0.680230	0.323740
H2091	H209	0.270240	0.631990	0.334080
H2101	H210	0.313780	0.537330	0.231120
H2111	H211	0.253600	0.717240	0.170530
H2121	H212	0.422530	0.717190	0.355060
H2131	H213	0.360470	0.847300	0.213480
H2141	H214	0.323740	0.817640	0.178400
H2151	H215	0.334080	0.763690	0.270240
H2161	H216	0.231120	0.917770	0.313780
H2171	H217	0.391380	0.532760	0.079470
H2181	H218	0.744780	0.532810	0.894940
H2191	H219	0.671250	0.402700	0.036520
H2201	H220	0.569770	0.432360	0.071600
H2211	H221	0.618010	0.486310	0.979760
H2221	H222	0.712670	0.332230	0.936220
H2231	H223	0.532760	0.391380	0.996400
H2241	H224	0.532810	0.744780	0.827470
H2251	H225	0.402700	0.671250	0.889530
H2261	H226	0.432360	0.569770	0.926260
H2271	H227	0.486310	0.618010	0.915920
H2281	H228	0.332230	0.712670	0.018880
H2291	H229	0.996400	0.079470	0.532760
H2301	H230	0.827470	0.894940	0.532810
H2311	H231	0.889530	0.036520	0.402700
H2321	H232	0.926260	0.071600	0.432360
H2331	H233	0.915920	0.979760	0.486310
H2341	H234	0.018880	0.936220	0.332230
H2351	H235	0.079470	0.996400	0.391380
H2361	H236	0.894940	0.827470	0.744780
H2371	H237	0.036520	0.889530	0.671250
H2381	H238	0.071600	0.926260	0.569770
H2391	H239	0.979760	0.915920	0.618010
H2401	H240	0.936220	0.018880	0.712670
H2411	H241	0.996400	0.391380	0.079470
H2421	H242	0.827470	0.744780	0.894940
H2431	H243	0.889530	0.671250	0.036520
H2441	H244	0.926260	0.569770	0.071600
H2451	H245	0.915920	0.618010	0.979760
H2461	H246	0.018880	0.712670	0.936220
H2471	H247	0.079470	0.532760	0.996400
H2481	H248	0.894940	0.532810	0.827470
H2491	H249	0.036520	0.402700	0.889530
H2501	H250	0.071600	0.432360	0.926260
H2511	H251	0.979760	0.486310	0.915920
H2521	H252	0.936220	0.332230	0.018880
H2531	H253	0.391380	0.996400	0.532760
H2541	H254	0.744780	0.827470	0.532810
H2551	H255	0.671250	0.889530	0.402700
H2561	H256	0.569770	0.926260	0.432360
H2571	H257	0.618010	0.915920	0.486310
H2581	H258	0.712670	0.018880	0.332230
H2591	H259	0.532760	0.079470	0.391380
H2601	H260	0.532810	0.894940	0.744780
H2611	H261	0.402700	0.036520	0.671250
H2621	H262	0.432360	0.071600	0.569770
H2631	H263	0.486310	0.979760	0.618010
H2641	H264	0.332230	0.936220	0.712670
H2651	H265	0.532760	0.996400	0.079470
H2661	H266	0.532810	0.827470	0.894940
H2671	H267	0.402700	0.889530	0.036520
H2681	H268	0.432360	0.926260	0.071600
H2691	H269	0.486310	0.915920	0.979760
H2701	H270	0.332230	0.018880	0.936220
H2711	H271	0.391380	0.079470	0.996400
H2721	H272	0.744780	0.894940	0.827470
H2731	H273	0.671250	0.036520	0.889530
H2741	H274	0.569770	0.071600	0.926260
H2751	H275	0.618010	0.979760	0.915920
H2761	H276	0.712670	0.936220	0.018880
H2771	H277	0.079470	0.391380	0.532760
H2781	H278	0.894940	0.744780	0.532810
H2791	H279	0.036520	0.671250	0.402700
H2801	H280	0.071600	0.569770	0.432360
H2811	H281	0.979760	0.618010	0.486310
H2821	H282	0.936220	0.712670	0.332230
H2831	H283	0.996400	0.532760	0.391380
H2841	H284	0.827470	0.532810	0.744780
H2851	H285	0.889530	0.402700	0.671250
H2861	H286	0.926260	0.432360	0.569770
H2871	H287	0.915920	0.486310	0.618010
H2881	H288	0.018880	0.332230	0.712670
H2891	H289	0.663640	0.279000	0.028680
H2901	H290	0.279000	0.663640	0.028680
H2911	H291	0.028680	0.028680	0.663640
H2921	H292	0.028680	0.028680	0.279000
H2931	H293	0.028680	0.663640	0.279000
H2941	H294	0.028680	0.279000	0.663640
H2951	H295	0.663640	0.028680	0.028680
H2961	H296	0.279000	0.028680	0.028680
H2971	H297	0.279000	0.028680	0.663640
H2981	H298	0.663640	0.028680	0.279000
H2991	H299	0.028680	0.663640	0.028680
H3001	H300	0.028680	0.279000	0.028680
H3011	H301	0.586360	0.971000	0.221320
H3021	H302	0.971000	0.586360	0.221320
H3031	H303	0.221320	0.221320	0.971000
H3041	H304	0.221320	0.221320	0.586360
H3051	H305	0.221320	0.586360	0.221320
H3061	H306	0.221320	0.971000	0.221320
H3071	H307	0.586360	0.221320	0.971000
H3081	H308	0.971000	0.221320	0.586360
H3091	H309	0.971000	0.221320	0.221320
H3101	H310	0.586360	0.221320	0.221320
H3111	H311	0.221320	0.586360	0.971000
H3121	H312	0.221320	0.971000	0.586360
H3131	H313	0.307190	0.586720	0.053050
H3141	H314	0.586720	0.307190	0.053050
H3151	H315	0.053050	0.053050	0.307190
H3161	H316	0.053050	0.053050	0.586720
H3171	H317	0.053050	0.307190	0.586720
H3181	H318	0.053050	0.586720	0.307190
H3191	H319	0.307190	0.053050	0.053050
H3201	H320	0.586720	0.053050	0.053050
H3211	H321	0.586720	0.053050	0.307190
H3221	H322	0.307190	0.053050	0.586720
H3231	H323	0.053050	0.307190	0.053050
H3241	H324	0.053050	0.586720	0.053050
H3251	H325	0.942810	0.663280	0.196950
H3261	H326	0.663280	0.942810	0.196950
H3271	H327	0.196950	0.196950	0.663280
H3281	H328	0.196950	0.196950	0.942810
H3291	H329	0.196950	0.942810	0.196950
H3301	H330	0.196950	0.663280	0.196950
H3311	H331	0.942810	0.196950	0.663280
H3321	H332	0.663280	0.196950	0.942810
H3331	H333	0.663280	0.196950	0.196950
H3341	H334	0.942810	0.196950	0.196950
H3351	H335	0.196950	0.942810	0.663280
H3361	H336	0.196950	0.663280	0.942810
H3371	H337	0.691890	0.691890	0.774780
H3381	H338	0.691890	0.691890	0.841440
H3391	H339	0.774780	0.841440	0.691890
H3401	H340	0.841440	0.774780	0.691890
H3411	H341	0.774780	0.691890	0.691890
H3421	H342	0.841440	0.691890	0.691890
H3431	H343	0.691890	0.774780	0.841440
H3441	H344	0.691890	0.841440	0.774780
H3451	H345	0.691890	0.774780	0.691890
H3461	H346	0.691890	0.841440	0.691890
H3471	H347	0.841440	0.691890	0.774780
H3481	H348	0.774780	0.691890	0.841440
H3491	H349	0.558110	0.558110	0.408560
H3501	H350	0.558110	0.558110	0.475220
H3511	H351	0.475220	0.408560	0.558110
H3521	H352	0.408560	0.475220	0.558110
H3531	H353	0.475220	0.558110	0.408560
H3541	H354	0.408560	0.558110	0.475220
H3551	H355	0.558110	0.475220	0.558110
H3561	H356	0.558110	0.408560	0.558110
H3571	H357	0.558110	0.475220	0.408560
H3581	H358	0.558110	0.408560	0.475220
H3591	H359	0.408560	0.558110	0.558110
H3601	H360	0.475220	0.558110	0.558110
H3611	H361	0.843820	0.385410	0.843820
H3621	H362	0.800500	0.449400	0.800500
H3631	H363	0.385410	0.843820	0.926950
H3641	H364	0.449400	0.800500	0.949590
H3651	H365	0.843820	0.926950	0.843820
H3661	H366	0.800500	0.949590	0.800500
H3671	H367	0.926950	0.843820	0.385410
H3681	H368	0.949590	0.800500	0.449400
H3691	H369	0.843820	0.843820	0.385410
H3701	H370	0.800500	0.800500	0.449400
H3711	H371	0.926950	0.385410	0.843820
H3721	H372	0.949590	0.449400	0.800500
H3731	H373	0.843820	0.843820	0.926950
H3741	H374	0.800500	0.800500	0.949590
H3751	H375	0.385410	0.926950	0.843820
H3761	H376	0.449400	0.949590	0.800500
H3771	H377	0.385410	0.843820	0.843820
H3781	H378	0.449400	0.800500	0.800500
H3791	H379	0.843820	0.926950	0.385410
H3801	H380	0.800500	0.949590	0.449400
H3811	H381	0.926950	0.843820	0.843820
H3821	H382	0.949590	0.800500	0.800500
H3831	H383	0.843820	0.385410	0.926950
H3841	H384	0.800500	0.449400	0.949590
H3851	H385	0.406180	0.864590	0.323050
H3861	H386	0.449500	0.800600	0.300410
H3871	H387	0.864590	0.406180	0.406180
H3881	H388	0.800600	0.449500	0.449500
H3891	H389	0.406180	0.323050	0.864590
H3901	H390	0.449500	0.300410	0.800600
H3911	H391	0.323050	0.406180	0.406180
H3921	H392	0.300410	0.449500	0.449500
H3931	H393	0.406180	0.406180	0.323050
H3941	H394	0.449500	0.449500	0.300410
H3951	H395	0.323050	0.864590	0.406180
H3961	H396	0.300410	0.800600	0.449500
H3971	H397	0.406180	0.406180	0.864590
H3981	H398	0.449500	0.449500	0.800600
H3991	H399	0.864590	0.323050	0.406180
H4001	H400	0.800600	0.300410	0.449500
H4011	H401	0.864590	0.406180	0.323050
H4021	H402	0.800600	0.449500	0.300410
H4031	H403	0.406180	0.323050	0.406180
H4041	H404	0.449500	0.300410	0.449500
H4051	H405	0.323050	0.406180	0.864590
H4061	H406	0.300410	0.449500	0.800600
H4071	H407	0.406180	0.864590	0.406180
H4081	H408	0.449500	0.800600	0.449500
