data_CIJVOH01_freeONLY_PM
_symmetry_space_group_name_H-M	'P1'
_cell_length_a	8.414900
_cell_length_b	9.813000
_cell_length_c	21.028000
_cell_angle_alpha	90.000000
_cell_angle_beta	90.000000
_cell_angle_gamma	90.000000
_symmetry_Int_Tables_number 1

loop_
_symmetry_equiv_pos_as_xyz
'x,y,z'

loop_
_atom_site_label
_atom_site_type_symbol
_atom_site_fract_x
_atom_site_fract_y
_atom_site_fract_z
Cd11	Cd1	0.495990	0.107710	0.783020
Cd21	Cd2	0.305720	0.662710	0.977260
Cd31	Cd3	0.004010	0.892290	0.283020
Cd41	Cd4	0.194280	0.337290	0.477260
Cd51	Cd5	0.504010	0.607710	0.716980
Cd61	Cd6	0.694280	0.162710	0.522740
Cd71	Cd7	0.995990	0.392290	0.216980
Cd81	Cd8	0.805720	0.837290	0.022740
H11	H1	0.782900	0.503600	0.846100
H21	H2	0.663700	0.415300	0.937500
H31	H3	0.018000	0.559000	0.943000
H41	H4	0.109000	0.462000	0.912500
H51	H5	0.459000	0.923000	0.879200
H61	H6	0.739000	0.029100	0.718700
H71	H7	0.232000	0.810000	0.864000
H81	H8	0.436000	0.406300	0.917000
H91	H9	0.690000	0.674000	0.810100
H101	H10	0.340000	0.702000	0.864000
H111	H11	0.816000	0.125000	0.755000
H121	H12	0.608400	0.979000	0.883400
H131	H13	0.391000	0.565000	0.090300
H141	H14	0.343000	0.450000	0.058000
H151	H15	0.717100	0.496400	0.346100
H161	H16	0.836300	0.584700	0.437500
H171	H17	0.482000	0.441000	0.443000
H181	H18	0.391000	0.538000	0.412500
H191	H19	0.041000	0.077000	0.379200
H201	H20	0.761000	0.970900	0.218700
H211	H21	0.268000	0.190000	0.364000
H221	H22	0.064000	0.593700	0.417000
H231	H23	0.810000	0.326000	0.310100
H241	H24	0.160000	0.298000	0.364000
H251	H25	0.684000	0.875000	0.255000
H261	H26	0.891600	0.021000	0.383400
H271	H27	0.109000	0.435000	0.590300
H281	H28	0.157000	0.550000	0.558000
H291	H29	0.217100	0.003600	0.653900
H301	H30	0.336300	0.915300	0.562500
H311	H31	0.982000	0.059000	0.557000
H321	H32	0.891000	0.962000	0.587500
H331	H33	0.541000	0.423000	0.620800
H341	H34	0.261000	0.529100	0.781300
H351	H35	0.768000	0.310000	0.636000
H361	H36	0.564000	0.906300	0.583000
H371	H37	0.310000	0.174000	0.689900
H381	H38	0.660000	0.202000	0.636000
H391	H39	0.184000	0.625000	0.745000
H401	H40	0.391600	0.479000	0.616600
H411	H41	0.609000	0.065000	0.409700
H421	H42	0.657000	0.950000	0.442000
H431	H43	0.282900	0.996400	0.153900
H441	H44	0.163700	0.084700	0.062500
H451	H45	0.518000	0.941000	0.057000
H461	H46	0.609000	0.038000	0.087500
H471	H47	0.959000	0.577000	0.120800
H481	H48	0.239000	0.470900	0.281300
H491	H49	0.732000	0.690000	0.136000
H501	H50	0.936000	0.093700	0.083000
H511	H51	0.190000	0.826000	0.189900
H521	H52	0.840000	0.798000	0.136000
H531	H53	0.316000	0.375000	0.245000
H541	H54	0.108400	0.521000	0.116600
H551	H55	0.891000	0.935000	0.909700
H561	H56	0.843000	0.050000	0.942000
C11	C1	0.598900	0.383100	0.812940
C21	C2	0.666700	0.506400	0.848570
C31	C3	0.616300	0.497200	0.918720
C41	C4	0.673900	0.621500	0.955480
C51	C5	0.901100	0.616900	0.312940
C61	C6	0.833300	0.493600	0.348570
C71	C7	0.883700	0.502800	0.418720
C81	C8	0.826100	0.378500	0.455480
C91	C9	0.401100	0.883100	0.687060
C101	C10	0.333300	0.006400	0.651430
C111	C11	0.383700	0.997200	0.581280
C121	C12	0.326100	0.121500	0.544520
C131	C13	0.098900	0.116900	0.187060
C141	C14	0.166700	0.993600	0.151430
C151	C15	0.116300	0.002800	0.081280
C161	C16	0.173900	0.878500	0.044520
S11	S1	0.131670	0.260240	0.792820
S21	S2	0.368330	0.739760	0.292820
S31	S3	0.868330	0.760240	0.707180
S41	S4	0.631670	0.239760	0.207180
O11	O1	0.602400	0.272470	0.842280
O21	O2	0.545700	0.396900	0.757790
O31	O3	0.612700	0.630700	0.821910
O41	O4	0.448500	0.487930	0.923580
O51	O5	0.578100	0.698550	0.983070
O61	O6	0.821300	0.643100	0.956630
O71	O7	0.235800	0.146400	0.812390
O81	O8	0.510900	0.997200	0.880550
O91	O9	0.735600	0.112100	0.731400
O101	O10	0.173900	0.383700	0.827710
O111	O11	0.967600	0.223500	0.807400
O121	O12	0.153200	0.283200	0.723900
O131	O13	0.310700	0.775200	0.882190
O141	O14	0.109400	0.522100	0.941890
O151	O15	0.315100	0.532700	0.067440
O161	O16	0.897600	0.727530	0.342280
O171	O17	0.954300	0.603100	0.257790
O181	O18	0.887300	0.369300	0.321910
O191	O19	0.051500	0.512070	0.423580
O201	O20	0.921900	0.301450	0.483070
O211	O21	0.678700	0.356900	0.456630
O221	O22	0.264200	0.853600	0.312390
O231	O23	0.989100	0.002800	0.380550
O241	O24	0.764400	0.887900	0.231400
O251	O25	0.326100	0.616300	0.327710
O261	O26	0.532400	0.776500	0.307400
O271	O27	0.346800	0.716800	0.223900
O281	O28	0.189300	0.224800	0.382190
O291	O29	0.390600	0.477900	0.441890
O301	O30	0.184900	0.467300	0.567440
O311	O31	0.397600	0.772470	0.657720
O321	O32	0.454300	0.896900	0.742210
O331	O33	0.387300	0.130700	0.678090
O341	O34	0.551500	0.987930	0.576420
O351	O35	0.421900	0.198550	0.516930
O361	O36	0.178700	0.143100	0.543370
O371	O37	0.764200	0.646400	0.687610
O381	O38	0.489100	0.497200	0.619450
O391	O39	0.264400	0.612100	0.768600
O401	O40	0.826100	0.883700	0.672290
O411	O41	0.032400	0.723500	0.692600
O421	O42	0.846800	0.783200	0.776100
O431	O43	0.689300	0.275200	0.617810
O441	O44	0.890600	0.022100	0.558110
O451	O45	0.684900	0.032700	0.432560
O461	O46	0.102400	0.227530	0.157720
O471	O47	0.045700	0.103100	0.242210
O481	O48	0.112700	0.869300	0.178090
O491	O49	0.948500	0.012070	0.076420
O501	O50	0.078100	0.801450	0.016930
O511	O51	0.321300	0.856900	0.043370
O521	O52	0.735800	0.353600	0.187610
O531	O53	0.010900	0.502800	0.119450
O541	O54	0.235600	0.387900	0.268600
O551	O55	0.673900	0.116300	0.172290
O561	O56	0.467600	0.276500	0.192600
O571	O57	0.653200	0.216800	0.276100
O581	O58	0.810700	0.724800	0.117810
O591	O59	0.609400	0.977900	0.058110
O601	O60	0.815100	0.967300	0.932560
