data_CIJVOH_freeONLY_PM
_symmetry_space_group_name_H-M	'P1'
_cell_length_a	8.365000
_cell_length_b	9.795000
_cell_length_c	20.946000
_cell_angle_alpha	90.000000
_cell_angle_beta	90.000000
_cell_angle_gamma	90.000000
_symmetry_Int_Tables_number 1

loop_
_symmetry_equiv_pos_as_xyz
'x,y,z'

loop_
_atom_site_label
_atom_site_type_symbol
_atom_site_fract_x
_atom_site_fract_y
_atom_site_fract_z
Cd11	Cd1	0.507680	0.603380	0.716770
Cd21	Cd2	0.308310	0.659420	0.978660
Cd31	Cd3	0.992320	0.396620	0.216770
Cd41	Cd4	0.191690	0.340580	0.478660
Cd51	Cd5	0.492320	0.103380	0.783230
Cd61	Cd6	0.691690	0.159420	0.521340
Cd71	Cd7	0.007680	0.896620	0.283230
Cd81	Cd8	0.808310	0.840580	0.021340
H11	H1	0.535300	0.416900	0.615100
H21	H2	0.401400	0.491900	0.602600
H31	H3	0.331900	0.466500	0.045300
H41	H4	0.399000	0.576300	0.076500
H51	H5	0.243200	0.537900	0.787700
H61	H6	0.189200	0.642000	0.748900
H71	H7	0.134700	0.471800	0.910900
H81	H8	0.019300	0.545000	0.942600
H91	H9	0.234400	0.814600	0.869200
H101	H10	0.338700	0.711400	0.854900
H111	H11	0.424800	0.400100	0.924100
H121	H12	0.694300	0.678100	0.815600
H131	H13	0.672100	0.410000	0.939700
H141	H14	0.788800	0.497500	0.846000
H151	H15	0.964700	0.583100	0.115100
H161	H16	0.098600	0.508100	0.102600
H171	H17	0.168100	0.533500	0.545300
H181	H18	0.101000	0.423700	0.576500
H191	H19	0.256800	0.462100	0.287700
H201	H20	0.310800	0.358000	0.248900
H211	H21	0.365300	0.528200	0.410900
H221	H22	0.480700	0.455000	0.442600
H231	H23	0.265600	0.185400	0.369200
H241	H24	0.161300	0.288600	0.354900
H251	H25	0.075200	0.599900	0.424100
H261	H26	0.805700	0.321900	0.315600
H271	H27	0.827900	0.590000	0.439700
H281	H28	0.711200	0.502500	0.346000
H291	H29	0.464700	0.916900	0.884900
H301	H30	0.598600	0.991900	0.897400
H311	H31	0.668100	0.966500	0.454700
H321	H32	0.601000	0.076300	0.423500
H331	H33	0.756800	0.037900	0.712300
H341	H34	0.810800	0.142000	0.751100
H351	H35	0.865300	0.971800	0.589100
H361	H36	0.980700	0.045000	0.557400
H371	H37	0.765600	0.314600	0.630800
H381	H38	0.661300	0.211400	0.645100
H391	H39	0.575200	0.900100	0.575900
H401	H40	0.305700	0.178100	0.684400
H411	H41	0.327900	0.910000	0.560300
H421	H42	0.211200	0.997500	0.654000
H431	H43	0.035300	0.083100	0.384900
H441	H44	0.901400	0.008100	0.397400
H451	H45	0.831900	0.033500	0.954700
H461	H46	0.899000	0.923700	0.923500
H471	H47	0.743200	0.962100	0.212300
H481	H48	0.689200	0.858000	0.251100
H491	H49	0.634700	0.028200	0.089100
H501	H50	0.519300	0.955000	0.057400
H511	H51	0.734400	0.685400	0.130800
H521	H52	0.838700	0.788600	0.145100
H531	H53	0.924800	0.099900	0.075900
H541	H54	0.194300	0.821900	0.184400
H551	H55	0.172100	0.090000	0.060300
H561	H56	0.288800	0.002500	0.154000
C11	C1	0.678400	0.620300	0.955510
C21	C2	0.621400	0.492400	0.920170
C31	C3	0.669700	0.501500	0.849190
C41	C4	0.598900	0.379000	0.814040
C51	C5	0.821600	0.379700	0.455510
C61	C6	0.878600	0.507600	0.420170
C71	C7	0.830300	0.498500	0.349190
C81	C8	0.901100	0.621000	0.314040
C91	C9	0.321600	0.120300	0.544490
C101	C10	0.378600	0.992400	0.579830
C111	C11	0.330300	0.001500	0.650810
C121	C12	0.401100	0.879000	0.685960
C131	C13	0.178400	0.879700	0.044490
C141	C14	0.121400	0.007600	0.079830
C151	C15	0.169700	0.998500	0.150810
C161	C16	0.098900	0.121000	0.185960
S11	S1	0.871170	0.760090	0.707250
S21	S2	0.628830	0.239910	0.207250
S31	S3	0.128830	0.260090	0.792750
S41	S4	0.371170	0.739910	0.292750
O11	O1	0.770500	0.641500	0.687940
O21	O2	0.820100	0.882400	0.671780
O31	O3	0.849800	0.782700	0.776630
O41	O4	0.039500	0.729800	0.692530
O51	O5	0.493600	0.494600	0.618380
O61	O6	0.315000	0.530700	0.071070
O71	O7	0.267700	0.611100	0.769230
O81	O8	0.113100	0.514700	0.944560
O91	O9	0.312800	0.769400	0.882590
O101	O10	0.581400	0.697600	0.983540
O111	O11	0.827900	0.643600	0.955450
O121	O12	0.452300	0.482400	0.926090
O131	O13	0.615700	0.626700	0.822190
O141	O14	0.599700	0.266700	0.844020
O151	O15	0.544900	0.390800	0.757920
O161	O16	0.729500	0.358500	0.187940
O171	O17	0.679900	0.117600	0.171780
O181	O18	0.650200	0.217300	0.276630
O191	O19	0.460500	0.270200	0.192530
O201	O20	0.006400	0.505400	0.118380
O211	O21	0.185000	0.469300	0.571070
O221	O22	0.232300	0.388900	0.269230
O231	O23	0.386900	0.485300	0.444560
O241	O24	0.187200	0.230600	0.382590
O251	O25	0.918600	0.302400	0.483540
O261	O26	0.672100	0.356400	0.455450
O271	O27	0.047700	0.517600	0.426090
O281	O28	0.884300	0.373300	0.322190
O291	O29	0.900300	0.733300	0.344020
O301	O30	0.955100	0.609200	0.257920
O311	O31	0.229500	0.141500	0.812060
O321	O32	0.179900	0.382400	0.828220
O331	O33	0.150200	0.282700	0.723370
O341	O34	0.960500	0.229800	0.807470
O351	O35	0.506400	0.994600	0.881620
O361	O36	0.685000	0.030700	0.428930
O371	O37	0.732300	0.111100	0.730770
O381	O38	0.886900	0.014700	0.555440
O391	O39	0.687200	0.269400	0.617410
O401	O40	0.418600	0.197600	0.516460
O411	O41	0.172100	0.143600	0.544550
O421	O42	0.547700	0.982400	0.573910
O431	O43	0.384300	0.126700	0.677810
O441	O44	0.400300	0.766700	0.655980
O451	O45	0.455100	0.890800	0.742080
O461	O46	0.270500	0.858500	0.312060
O471	O47	0.320100	0.617600	0.328220
O481	O48	0.349800	0.717300	0.223370
O491	O49	0.539500	0.770200	0.307470
O501	O50	0.993600	0.005400	0.381620
O511	O51	0.815000	0.969300	0.928930
O521	O52	0.767700	0.888900	0.230770
O531	O53	0.613100	0.985300	0.055440
O541	O54	0.812800	0.730600	0.117410
O551	O55	0.081400	0.802400	0.016460
O561	O56	0.327900	0.856400	0.044550
O571	O57	0.952300	0.017600	0.073910
O581	O58	0.115700	0.873300	0.177810
O591	O59	0.099700	0.233300	0.155980
O601	O60	0.044900	0.109200	0.242080
