data_CILDAD_freeONLY_PM
_symmetry_space_group_name_H-M	'P1'
_cell_length_a	9.276100
_cell_length_b	11.550600
_cell_length_c	17.267100
_cell_angle_alpha	104.827000
_cell_angle_beta	90.000000
_cell_angle_gamma	113.675000
_symmetry_Int_Tables_number 1

loop_
_symmetry_equiv_pos_as_xyz
'x,y,z'

loop_
_atom_site_label
_atom_site_type_symbol
_atom_site_fract_x
_atom_site_fract_y
_atom_site_fract_z
Nd11	Nd1	0.670540	0.972940	0.926940
Nd21	Nd2	0.697600	0.027060	0.573060
Nd31	Nd3	0.329460	0.027060	0.073060
Nd41	Nd4	0.302400	0.972940	0.426940
Cu11	Cu1	0.094110	0.328440	0.134520
Cu21	Cu2	0.765670	0.671560	0.365480
Cu31	Cu3	0.905890	0.671560	0.865480
Cu41	Cu4	0.234330	0.328440	0.634520
H11	H1	0.562100	0.196800	0.779300
H21	H2	0.503200	0.297400	0.692600
H31	H3	0.088900	0.227200	0.765600
H41	H4	0.139100	0.131600	0.857400
H51	H5	0.182500	0.718600	0.054600
H61	H6	0.081400	0.563000	0.123100
H71	H7	0.279500	0.352200	0.996300
H81	H8	0.389900	0.504600	0.925600
H91	H9	0.365300	0.803200	0.720700
H101	H10	0.205800	0.702600	0.807400
H111	H11	0.861700	0.772800	0.734400
H121	H12	0.007500	0.868400	0.642600
H131	H13	0.463900	0.281400	0.445400
H141	H14	0.518400	0.437000	0.376900
H151	H15	0.927300	0.647800	0.503700
H161	H16	0.885300	0.495400	0.574400
H171	H17	0.437900	0.803200	0.220700
H181	H18	0.496800	0.702600	0.307400
H191	H19	0.911100	0.772800	0.234400
H201	H20	0.860900	0.868400	0.142600
H211	H21	0.817500	0.281400	0.945400
H221	H22	0.918600	0.437000	0.876900
H231	H23	0.720500	0.647800	0.003700
H241	H24	0.610100	0.495400	0.074400
H251	H25	0.634700	0.196800	0.279300
H261	H26	0.794200	0.297400	0.192600
H271	H27	0.138300	0.227200	0.265600
H281	H28	0.992500	0.131600	0.357400
H291	H29	0.536100	0.718600	0.554600
H301	H30	0.481600	0.563000	0.623100
H311	H31	0.072700	0.352200	0.496300
H321	H32	0.114700	0.504600	0.425600
C11	C1	0.389440	0.080680	0.882900
C21	C2	0.354640	0.149880	0.826880
C31	C3	0.464500	0.201600	0.777400
C41	C4	0.427600	0.260800	0.725000
C51	C5	0.185300	0.220600	0.768200
C61	C6	0.214000	0.162200	0.823200
C71	C7	0.393890	0.744380	0.949610
C81	C8	0.305780	0.633360	0.985800
C91	C9	0.207800	0.646200	0.043000
C101	C10	0.146600	0.551800	0.083600
C111	C11	0.262800	0.428800	0.009700
C121	C12	0.329600	0.520000	0.966800
C131	C13	0.980310	0.928020	0.976480
C141	C14	0.706600	0.925200	0.732120
C151	C15	0.308760	0.919320	0.617100
C161	C16	0.204760	0.850120	0.673120
C171	C17	0.262900	0.798400	0.722600
C181	C18	0.166800	0.739200	0.775000
C191	C19	0.964700	0.779400	0.731800
C201	C20	0.051800	0.837800	0.676800
C211	C21	0.649510	0.255620	0.550390
C221	C22	0.672420	0.366640	0.514200
C231	C23	0.561600	0.353800	0.457000
C241	C24	0.594800	0.448200	0.416400
C251	C25	0.834000	0.571200	0.490300
C261	C26	0.809600	0.480000	0.533200
C271	C27	0.052290	0.071980	0.523520
C281	C28	0.781400	0.074800	0.767880
C291	C29	0.610560	0.919320	0.117100
C301	C30	0.645360	0.850120	0.173120
C311	C31	0.535500	0.798400	0.222600
C321	C32	0.572400	0.739200	0.275000
C331	C33	0.814700	0.779400	0.231800
C341	C34	0.786000	0.837800	0.176800
C351	C35	0.606110	0.255620	0.050390
C361	C36	0.694220	0.366640	0.014200
C371	C37	0.792200	0.353800	0.957000
C381	C38	0.853400	0.448200	0.916400
C391	C39	0.737200	0.571200	0.990300
C401	C40	0.670400	0.480000	0.033200
C411	C41	0.019690	0.071980	0.023520
C421	C42	0.293400	0.074800	0.267880
C431	C43	0.691240	0.080680	0.382900
C441	C44	0.795240	0.149880	0.326880
C451	C45	0.737100	0.201600	0.277400
C461	C46	0.833200	0.260800	0.225000
C471	C47	0.035300	0.220600	0.268200
C481	C48	0.948200	0.162200	0.323200
C491	C49	0.350490	0.744380	0.449610
C501	C50	0.327580	0.633360	0.485800
C511	C51	0.438400	0.646200	0.543000
C521	C52	0.405200	0.551800	0.583600
C531	C53	0.166000	0.428800	0.509700
C541	C54	0.190400	0.520000	0.466800
C551	C55	0.947710	0.928020	0.476480
C561	C56	0.218600	0.925200	0.232120
N11	N1	0.288480	0.267760	0.718800
N21	N2	0.176500	0.445200	0.068800
N31	N3	0.020720	0.732240	0.781200
N41	N4	0.731300	0.554800	0.431200
N51	N5	0.711520	0.732240	0.281200
N61	N6	0.823500	0.554800	0.931200
N71	N7	0.979280	0.267760	0.218800
N81	N8	0.268700	0.445200	0.568800
O11	O1	0.490510	0.035420	0.864440
O21	O2	0.315930	0.077260	0.943600
O31	O3	0.489820	0.732040	0.901140
O41	O4	0.375450	0.850100	0.973120
O51	O5	0.863350	0.870900	0.923160
O61	O6	0.066280	0.877360	0.995820
O71	O7	0.655020	0.857440	0.780600
O81	O8	0.706620	0.883240	0.657700
O91	O9	0.455090	0.964580	0.635560
O101	O10	0.238670	0.922740	0.556400
O111	O11	0.757780	0.267960	0.598860
O121	O12	0.525350	0.149900	0.526880
O131	O13	0.992450	0.129100	0.576840
O141	O14	0.188920	0.122640	0.504180
O151	O15	0.797580	0.142560	0.719400
O161	O16	0.823380	0.116760	0.842300
O171	O17	0.509490	0.964580	0.135560
O181	O18	0.684070	0.922740	0.056400
O191	O19	0.510180	0.267960	0.098860
O201	O20	0.624550	0.149900	0.026880
O211	O21	0.136650	0.129100	0.076840
O221	O22	0.933720	0.122640	0.004180
O231	O23	0.344980	0.142560	0.219400
O241	O24	0.293380	0.116760	0.342300
O251	O25	0.544910	0.035420	0.364440
O261	O26	0.761330	0.077260	0.443600
O271	O27	0.242220	0.732040	0.401140
O281	O28	0.474650	0.850100	0.473120
O291	O29	0.007550	0.870900	0.423160
O301	O30	0.811080	0.877360	0.495820
O311	O31	0.202420	0.857440	0.280600
O321	O32	0.176620	0.883240	0.157700
