data_CIPREZ_charged_PM
_symmetry_space_group_name_H-M	'P1'
_cell_length_a	14.506000
_cell_length_b	15.912000
_cell_length_c	16.689000
_cell_angle_alpha	90.000000
_cell_angle_beta	90.000000
_cell_angle_gamma	90.000000
_symmetry_Int_Tables_number 1

loop_
_symmetry_equiv_pos_as_xyz
'x,y,z'

loop_
_atom_site_label
_atom_site_type_symbol
_atom_site_fract_x
_atom_site_fract_y
_atom_site_fract_z
La11	La1	0.107060	0.750000	0.750000
La21	La2	0.392940	0.250000	0.250000
La31	La3	0.892940	0.250000	0.250000
La41	La4	0.607060	0.750000	0.750000
Cu11	Cu1	0.287680	0.562780	0.886060
Cu21	Cu2	0.287680	0.937220	0.613940
Cu31	Cu3	0.212320	0.437220	0.386060
Cu41	Cu4	0.212320	0.062780	0.113940
Cu51	Cu5	0.712320	0.437220	0.113940
Cu61	Cu6	0.712320	0.062780	0.386060
Cu71	Cu7	0.787680	0.562780	0.613940
Cu81	Cu8	0.787680	0.937220	0.886060
H11	H1	0.092200	0.732100	0.572600
H21	H2	0.003500	0.770100	0.595000
H31	H3	0.294400	0.759200	0.666700
H41	H4	0.242300	0.693600	0.624600
H51	H5	0.224200	0.462700	0.692800
H61	H6	0.182000	0.441000	0.777000
H71	H7	0.423500	0.503700	0.714800
H81	H8	0.339400	0.554300	0.681000
H91	H9	0.303800	0.378300	0.833300
H101	H10	0.376700	0.385600	0.764100
H111	H11	0.475300	0.461000	0.846400
H121	H12	0.449900	0.376400	0.889600
H131	H13	0.361300	0.365600	0.990800
H141	H14	0.353700	0.440000	0.051800
H151	H15	0.490800	0.565100	0.943100
H161	H16	0.435100	0.561400	0.023500
H171	H17	0.092200	0.767900	0.927400
H181	H18	0.003500	0.729900	0.905000
H191	H19	0.294400	0.740800	0.833300
H201	H20	0.242300	0.806400	0.875400
H211	H21	0.224200	0.037300	0.807200
H221	H22	0.182000	0.059000	0.723000
H231	H23	0.423500	0.996300	0.785200
H241	H24	0.339400	0.945700	0.819000
H251	H25	0.303800	0.121700	0.666700
H261	H26	0.376700	0.114400	0.735900
H271	H27	0.475300	0.039000	0.653600
H281	H28	0.449900	0.123600	0.610400
H291	H29	0.361300	0.134400	0.509200
H301	H30	0.353700	0.060000	0.448200
H311	H31	0.490800	0.934900	0.556900
H321	H32	0.435100	0.938600	0.476500
H331	H33	0.407800	0.267900	0.072600
H341	H34	0.496500	0.229900	0.095000
H351	H35	0.205600	0.240800	0.166700
H361	H36	0.257700	0.306400	0.124600
H371	H37	0.275800	0.537300	0.192800
H381	H38	0.318000	0.559000	0.277000
H391	H39	0.076500	0.496300	0.214800
H401	H40	0.160600	0.445700	0.181000
H411	H41	0.196200	0.621700	0.333300
H421	H42	0.123300	0.614400	0.264100
H431	H43	0.024700	0.539000	0.346400
H441	H44	0.050100	0.623600	0.389600
H451	H45	0.138700	0.634400	0.490800
H461	H46	0.146300	0.560000	0.551800
H471	H47	0.009200	0.434900	0.443100
H481	H48	0.064900	0.438600	0.523500
H491	H49	0.407800	0.232100	0.427400
H501	H50	0.496500	0.270100	0.405000
H511	H51	0.205600	0.259200	0.333300
H521	H52	0.257700	0.193600	0.375400
H531	H53	0.275800	0.962700	0.307200
H541	H54	0.318000	0.941000	0.223000
H551	H55	0.076500	0.003700	0.285200
H561	H56	0.160600	0.054300	0.319000
H571	H57	0.196200	0.878300	0.166700
H581	H58	0.123300	0.885600	0.235900
H591	H59	0.024700	0.961000	0.153600
H601	H60	0.050100	0.876400	0.110400
H611	H61	0.138700	0.865600	0.009200
H621	H62	0.146300	0.940000	0.948200
H631	H63	0.009200	0.065100	0.056900
H641	H64	0.064900	0.061400	0.976500
H651	H65	0.907800	0.267900	0.427400
H661	H66	0.996500	0.229900	0.405000
H671	H67	0.705600	0.240800	0.333300
H681	H68	0.757700	0.306400	0.375400
H691	H69	0.775800	0.537300	0.307200
H701	H70	0.818000	0.559000	0.223000
H711	H71	0.576500	0.496300	0.285200
H721	H72	0.660600	0.445700	0.319000
H731	H73	0.696200	0.621700	0.166700
H741	H74	0.623300	0.614400	0.235900
H751	H75	0.524700	0.539000	0.153600
H761	H76	0.550100	0.623600	0.110400
H771	H77	0.638700	0.634400	0.009200
H781	H78	0.646300	0.560000	0.948200
H791	H79	0.509200	0.434900	0.056900
H801	H80	0.564900	0.438600	0.976500
H811	H81	0.907800	0.232100	0.072600
H821	H82	0.996500	0.270100	0.095000
H831	H83	0.705600	0.259200	0.166700
H841	H84	0.757700	0.193600	0.124600
H851	H85	0.775800	0.962700	0.192800
H861	H86	0.818000	0.941000	0.277000
H871	H87	0.576500	0.003700	0.214800
H881	H88	0.660600	0.054300	0.181000
H891	H89	0.696200	0.878300	0.333300
H901	H90	0.623300	0.885600	0.264100
H911	H91	0.524700	0.961000	0.346400
H921	H92	0.550100	0.876400	0.389600
H931	H93	0.638700	0.865600	0.490800
H941	H94	0.646300	0.940000	0.551800
H951	H95	0.509200	0.065100	0.443100
H961	H96	0.564900	0.061400	0.523500
H971	H97	0.592200	0.732100	0.927400
H981	H98	0.503500	0.770100	0.905000
H991	H99	0.794400	0.759200	0.833300
H1001	H100	0.742300	0.693600	0.875400
H1011	H101	0.724200	0.462700	0.807200
H1021	H102	0.682000	0.441000	0.723000
H1031	H103	0.923500	0.503700	0.785200
H1041	H104	0.839400	0.554300	0.819000
H1051	H105	0.803800	0.378300	0.666700
H1061	H106	0.876700	0.385600	0.735900
H1071	H107	0.975300	0.461000	0.653600
H1081	H108	0.949900	0.376400	0.610400
H1091	H109	0.861300	0.365600	0.509200
H1101	H110	0.853700	0.440000	0.448200
H1111	H111	0.990800	0.565100	0.556900
H1121	H112	0.935100	0.561400	0.476500
H1131	H113	0.592200	0.767900	0.572600
H1141	H114	0.503500	0.729900	0.595000
H1151	H115	0.794400	0.740800	0.666700
H1161	H116	0.742300	0.806400	0.624600
H1171	H117	0.724200	0.037300	0.692800
H1181	H118	0.682000	0.059000	0.777000
H1191	H119	0.923500	0.996300	0.714800
H1201	H120	0.839400	0.945700	0.681000
H1211	H121	0.803800	0.121700	0.833300
H1221	H122	0.876700	0.114400	0.764100
H1231	H123	0.975300	0.039000	0.846400
H1241	H124	0.949900	0.123600	0.889600
H1251	H125	0.861300	0.134400	0.990800
H1261	H126	0.853700	0.060000	0.051800
H1271	H127	0.990800	0.934900	0.943100
H1281	H128	0.935100	0.938600	0.023500
C11	C1	0.166400	0.564500	0.747300
C21	C2	0.217000	0.482600	0.747300
C31	C3	0.372900	0.540300	0.729600
C41	C4	0.412000	0.620600	0.765400
C51	C5	0.350900	0.414200	0.810300
C61	C6	0.425400	0.429700	0.871100
C71	C7	0.339000	0.422600	0.997600
C81	C8	0.235900	0.422900	0.987500
C91	C9	0.462700	0.527400	0.981700
C101	C10	0.227100	0.657100	0.026000
C111	C11	0.166400	0.935500	0.752700
C121	C12	0.217000	0.017400	0.752700
C131	C13	0.372900	0.959700	0.770400
C141	C14	0.412000	0.879400	0.734600
C151	C15	0.350900	0.085800	0.689700
C161	C16	0.425400	0.070300	0.628900
C171	C17	0.339000	0.077400	0.502400
C181	C18	0.235900	0.077100	0.512500
C191	C19	0.462700	0.972600	0.518300
C201	C20	0.227100	0.842900	0.474000
C211	C21	0.333600	0.435500	0.247300
C221	C22	0.283000	0.517400	0.247300
C231	C23	0.127100	0.459700	0.229600
C241	C24	0.088000	0.379400	0.265400
C251	C25	0.149100	0.585800	0.310300
C261	C26	0.074600	0.570300	0.371100
C271	C27	0.161000	0.577400	0.497600
C281	C28	0.264100	0.577100	0.487500
C291	C29	0.037300	0.472600	0.481700
C301	C30	0.272900	0.342900	0.526000
C311	C31	0.333600	0.064500	0.252700
C321	C32	0.283000	0.982600	0.252700
C331	C33	0.127100	0.040300	0.270400
C341	C34	0.088000	0.120600	0.234600
C351	C35	0.149100	0.914200	0.189700
C361	C36	0.074600	0.929700	0.128900
C371	C37	0.161000	0.922600	0.002400
C381	C38	0.264100	0.922900	0.012500
C391	C39	0.037300	0.027400	0.018300
C401	C40	0.272900	0.157100	0.974000
C411	C41	0.833600	0.435500	0.252700
C421	C42	0.783000	0.517400	0.252700
C431	C43	0.627100	0.459700	0.270400
C441	C44	0.588000	0.379400	0.234600
C451	C45	0.649100	0.585800	0.189700
C461	C46	0.574600	0.570300	0.128900
C471	C47	0.661000	0.577400	0.002400
C481	C48	0.764100	0.577100	0.012500
C491	C49	0.537300	0.472600	0.018300
C501	C50	0.772900	0.342900	0.974000
C511	C51	0.833600	0.064500	0.247300
C521	C52	0.783000	0.982600	0.247300
C531	C53	0.627100	0.040300	0.229600
C541	C54	0.588000	0.120600	0.265400
C551	C55	0.649100	0.914200	0.310300
C561	C56	0.574600	0.929700	0.371100
C571	C57	0.661000	0.922600	0.497600
C581	C58	0.764100	0.922900	0.487500
C591	C59	0.537300	0.027400	0.481700
C601	C60	0.772900	0.157100	0.526000
C611	C61	0.666400	0.564500	0.752700
C621	C62	0.717000	0.482600	0.752700
C631	C63	0.872900	0.540300	0.770400
C641	C64	0.912000	0.620600	0.734600
C651	C65	0.850900	0.414200	0.689700
C661	C66	0.925400	0.429700	0.628900
C671	C67	0.839000	0.422600	0.502400
C681	C68	0.735900	0.422900	0.512500
C691	C69	0.962700	0.527400	0.518300
C701	C70	0.727100	0.657100	0.474000
C711	C71	0.666400	0.935500	0.747300
C721	C72	0.717000	0.017400	0.747300
C731	C73	0.872900	0.959700	0.729600
C741	C74	0.912000	0.879400	0.765400
C751	C75	0.850900	0.085800	0.810300
C761	C76	0.925400	0.070300	0.871100
C771	C77	0.839000	0.077400	0.997600
C781	C78	0.735900	0.077100	0.987500
C791	C79	0.962700	0.972600	0.981700
C801	C80	0.727100	0.842900	0.026000
S11	S1	0.183600	0.702100	0.114100
S21	S2	0.183600	0.797900	0.385900
S31	S3	0.316400	0.297900	0.614100
S41	S4	0.316400	0.202100	0.885900
S51	S5	0.816400	0.297900	0.885900
S61	S6	0.816400	0.202100	0.614100
S71	S7	0.683600	0.702100	0.385900
S81	S8	0.683600	0.797900	0.114100
N11	N1	0.309600	0.493700	0.785000
N21	N2	0.388500	0.478000	0.940800
N31	N3	0.263400	0.631000	0.974100
N41	N4	0.309600	0.006300	0.715000
N51	N5	0.388500	0.022000	0.559200
N61	N6	0.263400	0.869000	0.525900
N71	N7	0.190400	0.506300	0.285000
N81	N8	0.111500	0.522000	0.440800
N91	N9	0.236600	0.369000	0.474100
N101	N10	0.190400	0.993700	0.215000
N111	N11	0.111500	0.978000	0.059200
N121	N12	0.236600	0.131000	0.025900
N131	N13	0.690400	0.506300	0.215000
N141	N14	0.611500	0.522000	0.059200
N151	N15	0.736600	0.369000	0.025900
N161	N16	0.690400	0.993700	0.285000
N171	N17	0.611500	0.978000	0.440800
N181	N18	0.736600	0.131000	0.474100
N191	N19	0.809600	0.493700	0.715000
N201	N20	0.888500	0.478000	0.559200
N211	N21	0.763400	0.631000	0.525900
N221	N22	0.809600	0.006300	0.785000
N231	N23	0.888500	0.022000	0.940800
N241	N24	0.763400	0.869000	0.974100
O11	O1	0.179400	0.612400	0.808900
O21	O2	0.116200	0.584900	0.690800
O31	O3	0.387600	0.642300	0.835100
O41	O4	0.468600	0.658200	0.723000
O51	O5	0.199600	0.465700	0.934300
O61	O6	0.193200	0.378700	0.038300
O71	O7	0.046200	0.734100	0.605900
O81	O8	0.254800	0.719400	0.667800
O91	O9	0.179400	0.887600	0.691100
O101	O10	0.116200	0.915100	0.809200
O111	O11	0.387600	0.857700	0.664900
O121	O12	0.468600	0.841800	0.777000
O131	O13	0.199600	0.034300	0.565700
O141	O14	0.193200	0.121300	0.461700
O151	O15	0.046200	0.765900	0.894100
O161	O16	0.254800	0.780600	0.832200
O171	O17	0.320600	0.387600	0.308900
O181	O18	0.383800	0.415100	0.190800
O191	O19	0.112400	0.357700	0.335100
O201	O20	0.031400	0.341800	0.223000
O211	O21	0.300400	0.534300	0.434300
O221	O22	0.306800	0.621300	0.538300
O231	O23	0.453800	0.265900	0.105900
O241	O24	0.245200	0.280600	0.167800
O251	O25	0.320600	0.112400	0.191100
O261	O26	0.383800	0.084900	0.309200
O271	O27	0.112400	0.142300	0.164900
O281	O28	0.031400	0.158200	0.277000
O291	O29	0.300400	0.965700	0.065700
O301	O30	0.306800	0.878700	0.961700
O311	O31	0.453800	0.234100	0.394100
O321	O32	0.245200	0.219400	0.332200
O331	O33	0.820600	0.387600	0.191100
O341	O34	0.883800	0.415100	0.309200
O351	O35	0.612400	0.357700	0.164900
O361	O36	0.531400	0.341800	0.277000
O371	O37	0.800400	0.534300	0.065700
O381	O38	0.806800	0.621300	0.961700
O391	O39	0.953800	0.265900	0.394100
O401	O40	0.745200	0.280600	0.332200
O411	O41	0.820600	0.112400	0.308900
O421	O42	0.883800	0.084900	0.190800
O431	O43	0.612400	0.142300	0.335100
O441	O44	0.531400	0.158200	0.223000
O451	O45	0.800400	0.965700	0.434300
O461	O46	0.806800	0.878700	0.538300
O471	O47	0.953800	0.234100	0.105900
O481	O48	0.745200	0.219400	0.167800
O491	O49	0.679400	0.612400	0.691100
O501	O50	0.616200	0.584900	0.809200
O511	O51	0.887600	0.642300	0.664900
O521	O52	0.968600	0.658200	0.777000
O531	O53	0.699600	0.465700	0.565700
O541	O54	0.693200	0.378700	0.461700
O551	O55	0.546200	0.734100	0.894100
O561	O56	0.754800	0.719400	0.832200
O571	O57	0.679400	0.887600	0.808900
O581	O58	0.616200	0.915100	0.690800
O591	O59	0.887600	0.857700	0.835100
O601	O60	0.968600	0.841800	0.723000
O611	O61	0.699600	0.034300	0.934300
O621	O62	0.693200	0.121300	0.038300
O631	O63	0.546200	0.765900	0.605900
O641	O64	0.754800	0.780600	0.667800
