data_CIXCAO_freeONLY_PM
_symmetry_space_group_name_H-M	'P1'
_cell_length_a	13.675000
_cell_length_b	27.881000
_cell_length_c	45.714000
_cell_angle_alpha	90.000000
_cell_angle_beta	90.000000
_cell_angle_gamma	90.000000
_symmetry_Int_Tables_number 1

loop_
_symmetry_equiv_pos_as_xyz
'x,y,z'

loop_
_atom_site_label
_atom_site_type_symbol
_atom_site_fract_x
_atom_site_fract_y
_atom_site_fract_z
Zn11	Zn1	0.144800	0.744040	0.188940
Zn21	Zn2	0.160890	0.557250	0.929530
Zn31	Zn3	0.350310	0.527770	0.087200
Zn41	Zn4	0.855200	0.755960	0.688940
Zn51	Zn5	0.839110	0.942750	0.429530
Zn61	Zn6	0.649690	0.972230	0.587200
Zn71	Zn7	0.644800	0.255960	0.311060
Zn81	Zn8	0.660890	0.442750	0.570470
Zn91	Zn9	0.850310	0.472230	0.412800
Zn101	Zn10	0.355200	0.244040	0.811060
Zn111	Zn11	0.339110	0.057250	0.070460
Zn121	Zn12	0.149690	0.027770	0.912800
H11	H1	0.182400	0.688900	0.135800
H21	H2	0.100800	0.653500	0.096500
H31	H3	0.933100	0.718600	0.174500
H41	H4	0.845000	0.682900	0.136900
H51	H5	0.499200	0.587000	0.119400
H61	H6	0.655000	0.617100	0.113600
H71	H7	0.500000	0.535700	0.038900
H81	H8	0.656400	0.564900	0.030900
H91	H9	0.961600	0.537500	0.955400
H101	H10	0.867200	0.557800	0.995400
H111	H11	0.190800	0.603800	0.988200
H121	H12	0.101800	0.627200	0.029000
H131	H13	0.845800	0.835700	0.438500
H141	H14	0.876700	0.765500	0.413100
H151	H15	0.912400	0.913900	0.369700
H161	H16	0.939500	0.846100	0.341700
H171	H17	0.029500	0.803200	0.232100
H181	H18	0.969700	0.795800	0.279600
H191	H19	0.083500	0.664300	0.228400
H201	H20	0.021300	0.653300	0.275300
H211	H21	0.893000	0.512700	0.352900
H221	H22	0.921200	0.585800	0.330000
H231	H23	0.882500	0.575300	0.430000
H241	H24	0.906500	0.649700	0.408800
H251	H25	0.817600	0.811100	0.635800
H261	H26	0.899200	0.846500	0.596500
H271	H27	0.066900	0.781400	0.674500
H281	H28	0.155000	0.817100	0.636900
H291	H29	0.500800	0.913000	0.619400
H301	H30	0.345000	0.882900	0.613600
H311	H31	0.500000	0.964300	0.538900
H321	H32	0.343600	0.935100	0.530900
H331	H33	0.038400	0.962500	0.455400
H341	H34	0.132800	0.942200	0.495400
H351	H35	0.809200	0.896200	0.488200
H361	H36	0.898200	0.872800	0.529000
H371	H37	0.154200	0.664300	0.938500
H381	H38	0.123300	0.734500	0.913100
H391	H39	0.087600	0.586100	0.869700
H401	H40	0.060500	0.653900	0.841700
H411	H41	0.970500	0.696800	0.732100
H421	H42	0.030300	0.704200	0.779600
H431	H43	0.916500	0.835700	0.728400
H441	H44	0.978700	0.846700	0.775300
H451	H45	0.107000	0.987300	0.852900
H461	H46	0.078800	0.914200	0.830000
H471	H47	0.117500	0.924700	0.930000
H481	H48	0.093500	0.850300	0.908800
H491	H49	0.682400	0.311100	0.364200
H501	H50	0.600800	0.346500	0.403500
H511	H51	0.433100	0.281400	0.325500
H521	H52	0.345000	0.317100	0.363100
H531	H53	0.999200	0.413000	0.380600
H541	H54	0.155000	0.382900	0.386400
H551	H55	0.000000	0.464300	0.461100
H561	H56	0.156400	0.435100	0.469100
H571	H57	0.461600	0.462500	0.544600
H581	H58	0.367200	0.442200	0.504600
H591	H59	0.690800	0.396200	0.511800
H601	H60	0.601800	0.372800	0.471000
H611	H61	0.345800	0.164300	0.061500
H621	H62	0.376700	0.234500	0.086900
H631	H63	0.412400	0.086100	0.130300
H641	H64	0.439500	0.153900	0.158300
H651	H65	0.529500	0.196800	0.267900
H661	H66	0.469700	0.204200	0.220400
H671	H67	0.583500	0.335700	0.271600
H681	H68	0.521300	0.346700	0.224700
H691	H69	0.393000	0.487300	0.147100
H701	H70	0.421200	0.414200	0.170000
H711	H71	0.382500	0.424700	0.070000
H721	H72	0.406500	0.350300	0.091200
H731	H73	0.317600	0.188900	0.864200
H741	H74	0.399200	0.153500	0.903500
H751	H75	0.566900	0.218600	0.825500
H761	H76	0.655000	0.182900	0.863100
H771	H77	0.000800	0.087000	0.880600
H781	H78	0.845000	0.117100	0.886400
H791	H79	0.000000	0.035700	0.961100
H801	H80	0.843600	0.064900	0.969100
H811	H81	0.538400	0.037500	0.044600
H821	H82	0.632800	0.057800	0.004600
H831	H83	0.309200	0.103800	0.011800
H841	H84	0.398200	0.127200	0.971000
H851	H85	0.654200	0.335700	0.561500
H861	H86	0.623300	0.265500	0.586900
H871	H87	0.587600	0.413900	0.630300
H881	H88	0.560500	0.346100	0.658300
H891	H89	0.470500	0.303200	0.767900
H901	H90	0.530300	0.295800	0.720400
H911	H91	0.416500	0.164300	0.771600
H921	H92	0.478700	0.153300	0.724700
H931	H93	0.607000	0.012700	0.647100
H941	H94	0.578800	0.085800	0.670000
H951	H95	0.617500	0.075300	0.570000
H961	H96	0.593500	0.149700	0.591200
C11	C1	0.113000	0.688300	0.135700
C21	C2	0.064800	0.666770	0.112290
C31	C3	0.967400	0.705400	0.158300
C41	C4	0.914300	0.684230	0.136010
C51	C5	0.964300	0.665010	0.112430
C61	C6	0.911600	0.642200	0.087620
C71	C7	0.532100	0.582200	0.101300
C81	C8	0.624700	0.600200	0.098070
C91	C9	0.532600	0.552250	0.054210
C101	C10	0.625500	0.569400	0.049290
C111	C11	0.673600	0.593460	0.071760
C121	C12	0.776600	0.609380	0.068280
C131	C13	0.990000	0.556250	0.970490
C141	C14	0.933200	0.568270	0.994190
C151	C15	0.123700	0.595100	0.989520
C161	C16	0.071200	0.609000	0.013990
C171	C17	0.974000	0.596140	0.016420
C181	C18	0.916200	0.609810	0.042680
C191	C19	0.865800	0.837600	0.418580
C201	C20	0.882800	0.795610	0.403570
C211	C21	0.903900	0.883270	0.378390
C221	C22	0.920500	0.843120	0.361570
C231	C23	0.909000	0.798180	0.374270
C241	C24	0.923900	0.753960	0.356780
C251	C25	0.029400	0.772560	0.241270
C261	C26	0.993200	0.768380	0.269460
C271	C27	0.060500	0.691280	0.239040
C281	C28	0.024000	0.684530	0.267010
C291	C29	0.991800	0.723790	0.282680
C301	C30	0.960500	0.719010	0.313720
C311	C31	0.896000	0.540950	0.364460
C321	C32	0.912000	0.584520	0.350570
C331	C33	0.889300	0.577370	0.409400
C341	C34	0.903800	0.621880	0.396810
C351	C35	0.914200	0.625940	0.367150
C361	C36	0.926600	0.673290	0.353180
C371	C37	0.887000	0.811700	0.635700
C381	C38	0.935200	0.833230	0.612290
C391	C39	0.032600	0.794600	0.658300
C401	C40	0.085700	0.815770	0.636010
C411	C41	0.035700	0.834990	0.612430
C421	C42	0.088400	0.857800	0.587620
C431	C43	0.467900	0.917800	0.601300
C441	C44	0.375300	0.899800	0.598070
C451	C45	0.467400	0.947750	0.554210
C461	C46	0.374500	0.930600	0.549290
C471	C47	0.326400	0.906540	0.571760
C481	C48	0.223400	0.890620	0.568280
C491	C49	0.010000	0.943750	0.470490
C501	C50	0.066800	0.931730	0.494190
C511	C51	0.876300	0.904900	0.489520
C521	C52	0.928800	0.891000	0.513990
C531	C53	0.026000	0.903860	0.516420
C541	C54	0.083800	0.890190	0.542680
C551	C55	0.134200	0.662400	0.918580
C561	C56	0.117200	0.704390	0.903570
C571	C57	0.096100	0.616730	0.878390
C581	C58	0.079500	0.656880	0.861570
C591	C59	0.091000	0.701820	0.874270
C601	C60	0.076100	0.746040	0.856780
C611	C61	0.970600	0.727440	0.741270
C621	C62	0.006800	0.731620	0.769460
C631	C63	0.939500	0.808720	0.739040
C641	C64	0.976000	0.815470	0.767010
C651	C65	0.008200	0.776210	0.782680
C661	C66	0.039500	0.780990	0.813720
C671	C67	0.104000	0.959050	0.864460
C681	C68	0.088000	0.915480	0.850570
C691	C69	0.110700	0.922630	0.909400
C701	C70	0.096200	0.878120	0.896810
C711	C71	0.085800	0.874060	0.867150
C721	C72	0.073400	0.826710	0.853180
C731	C73	0.613000	0.311700	0.364300
C741	C74	0.564800	0.333230	0.387710
C751	C75	0.467400	0.294600	0.341700
C761	C76	0.414300	0.315770	0.363990
C771	C77	0.464300	0.334990	0.387570
C781	C78	0.411600	0.357800	0.412380
C791	C79	0.032100	0.417800	0.398700
C801	C80	0.124700	0.399800	0.401930
C811	C81	0.032600	0.447750	0.445790
C821	C82	0.125500	0.430600	0.450710
C831	C83	0.173600	0.406540	0.428240
C841	C84	0.276600	0.390620	0.431720
C851	C85	0.490000	0.443750	0.529510
C861	C86	0.433200	0.431730	0.505810
C871	C87	0.623700	0.404900	0.510480
C881	C88	0.571200	0.391000	0.486010
C891	C89	0.474000	0.403860	0.483580
C901	C90	0.416200	0.390190	0.457320
C911	C91	0.365800	0.162400	0.081420
C921	C92	0.382800	0.204390	0.096430
C931	C93	0.403900	0.116730	0.121610
C941	C94	0.420500	0.156880	0.138430
C951	C95	0.409000	0.201820	0.125730
C961	C96	0.423900	0.246040	0.143220
C971	C97	0.529400	0.227440	0.258730
C981	C98	0.493200	0.231620	0.230540
C991	C99	0.560500	0.308720	0.260960
C1001	C100	0.524000	0.315470	0.232990
C1011	C101	0.491800	0.276210	0.217320
C1021	C102	0.460500	0.280990	0.186280
C1031	C103	0.396000	0.459050	0.135540
C1041	C104	0.412000	0.415480	0.149430
C1051	C105	0.389300	0.422630	0.090600
C1061	C106	0.403800	0.378120	0.103190
C1071	C107	0.414200	0.374060	0.132850
C1081	C108	0.426600	0.326710	0.146820
C1091	C109	0.387000	0.188300	0.864300
C1101	C110	0.435200	0.166770	0.887710
C1111	C111	0.532600	0.205400	0.841700
C1121	C112	0.585700	0.184230	0.863990
C1131	C113	0.535700	0.165010	0.887570
C1141	C114	0.588400	0.142200	0.912380
C1151	C115	0.967900	0.082200	0.898700
C1161	C116	0.875300	0.100200	0.901930
C1171	C117	0.967400	0.052250	0.945790
C1181	C118	0.874500	0.069400	0.950710
C1191	C119	0.826400	0.093460	0.928240
C1201	C120	0.723400	0.109380	0.931720
C1211	C121	0.510000	0.056250	0.029510
C1221	C122	0.566800	0.068270	0.005810
C1231	C123	0.376300	0.095100	0.010480
C1241	C124	0.428800	0.109000	0.986010
C1251	C125	0.526000	0.096140	0.983580
C1261	C126	0.583800	0.109810	0.957320
C1271	C127	0.634200	0.337600	0.581420
C1281	C128	0.617200	0.295610	0.596430
C1291	C129	0.596100	0.383270	0.621610
C1301	C130	0.579500	0.343120	0.638430
C1311	C131	0.591000	0.298180	0.625730
C1321	C132	0.576100	0.253960	0.643220
C1331	C133	0.470600	0.272560	0.758730
C1341	C134	0.506800	0.268380	0.730540
C1351	C135	0.439500	0.191280	0.760960
C1361	C136	0.476000	0.184530	0.732990
C1371	C137	0.508200	0.223790	0.717320
C1381	C138	0.539500	0.219010	0.686280
C1391	C139	0.604000	0.040950	0.635540
C1401	C140	0.588000	0.084520	0.649430
C1411	C141	0.610700	0.077370	0.590600
C1421	C142	0.596200	0.121880	0.603190
C1431	C143	0.585800	0.125940	0.632850
C1441	C144	0.573400	0.173290	0.646820
I11	I1	0.303080	0.696520	0.195440
I21	I2	0.152940	0.833020	0.176840
I31	I3	0.341890	0.566530	0.941400
I41	I4	0.079020	0.489300	0.902040
I51	I5	0.274020	0.510720	0.037480
I61	I6	0.266020	0.576490	0.126910
I71	I7	0.696920	0.803480	0.695440
I81	I8	0.847060	0.666980	0.676840
I91	I9	0.658110	0.933470	0.441400
I101	I10	0.920980	0.010700	0.402040
I111	I11	0.725980	0.989280	0.537480
I121	I12	0.733980	0.923510	0.626910
I131	I13	0.803080	0.303480	0.304560
I141	I14	0.652940	0.166980	0.323160
I151	I15	0.841890	0.433470	0.558600
I161	I16	0.579020	0.510700	0.597960
I171	I17	0.774020	0.489280	0.462520
I181	I18	0.766020	0.423510	0.373090
I191	I19	0.196920	0.196520	0.804560
I201	I20	0.347060	0.333020	0.823160
I211	I21	0.158110	0.066530	0.058600
I221	I22	0.420980	0.989300	0.097960
I231	I23	0.225980	0.010720	0.962520
I241	I24	0.233980	0.076490	0.873090
N11	N1	0.064900	0.708010	0.157940
N21	N2	0.485900	0.557950	0.079910
N31	N3	0.083700	0.569850	0.967730
N41	N4	0.816800	0.632300	0.090880
N51	N5	0.821900	0.597910	0.043410
N61	N6	0.964900	0.632080	0.063990
N71	N7	0.876100	0.880990	0.406500
N81	N8	0.064200	0.734780	0.226560
N91	N9	0.884500	0.537020	0.393460
N101	N10	0.947800	0.759820	0.328520
N111	N11	0.951200	0.674720	0.324830
N121	N12	0.912700	0.711920	0.370170
N131	N13	0.935100	0.791990	0.657940
N141	N14	0.514100	0.942050	0.579910
N151	N15	0.916300	0.930150	0.467730
N161	N16	0.183200	0.867700	0.590880
N171	N17	0.178100	0.902090	0.543410
N181	N18	0.035100	0.867920	0.563990
N191	N19	0.123900	0.619010	0.906500
N201	N20	0.935800	0.765220	0.726560
N211	N21	0.115500	0.962980	0.893460
N221	N22	0.052200	0.740180	0.828520
N231	N23	0.048800	0.825280	0.824830
N241	N24	0.087300	0.788080	0.870170
N251	N25	0.564900	0.291990	0.342060
N261	N26	0.985900	0.442050	0.420090
N271	N27	0.583700	0.430150	0.532270
N281	N28	0.316800	0.367700	0.409120
N291	N29	0.321900	0.402090	0.456590
N301	N30	0.464900	0.367920	0.436010
N311	N31	0.376100	0.119010	0.093500
N321	N32	0.564200	0.265220	0.273440
N331	N33	0.384500	0.462980	0.106540
N341	N34	0.447800	0.240180	0.171480
N351	N35	0.451200	0.325280	0.175170
N361	N36	0.412700	0.288080	0.129830
N371	N37	0.435100	0.208010	0.842060
N381	N38	0.014100	0.057950	0.920090
N391	N39	0.416300	0.069850	0.032270
N401	N40	0.683200	0.132300	0.909120
N411	N41	0.678100	0.097910	0.956590
N421	N42	0.535100	0.132080	0.936010
N431	N43	0.623900	0.380990	0.593500
N441	N44	0.435800	0.234780	0.773440
N451	N45	0.615500	0.037020	0.606540
N461	N46	0.552200	0.259820	0.671480
N471	N47	0.548800	0.174720	0.675170
N481	N48	0.587300	0.211920	0.629830
Zn131	Zn13	0.855200	0.255960	0.811060
Zn141	Zn14	0.839110	0.442750	0.070460
Zn151	Zn15	0.649690	0.472230	0.912800
Zn161	Zn16	0.144800	0.244040	0.311060
Zn171	Zn17	0.160890	0.057250	0.570470
Zn181	Zn18	0.350310	0.027770	0.412800
Zn191	Zn19	0.355200	0.744040	0.688940
Zn201	Zn20	0.339110	0.557250	0.429530
Zn211	Zn21	0.149690	0.527770	0.587200
Zn221	Zn22	0.644800	0.755960	0.188940
Zn231	Zn23	0.660890	0.942750	0.929530
Zn241	Zn24	0.850310	0.972230	0.087200
H971	H97	0.817600	0.311100	0.864200
H981	H98	0.899200	0.346500	0.903500
H991	H99	0.066900	0.281400	0.825500
H1001	H100	0.155000	0.317100	0.863100
H1011	H101	0.500800	0.413000	0.880600
H1021	H102	0.345000	0.382900	0.886400
H1031	H103	0.500000	0.464300	0.961100
H1041	H104	0.343600	0.435100	0.969100
H1051	H105	0.038400	0.462500	0.044600
H1061	H106	0.132800	0.442200	0.004600
H1071	H107	0.809200	0.396200	0.011800
H1081	H108	0.898200	0.372800	0.971000
H1091	H109	0.154200	0.164300	0.561500
H1101	H110	0.123300	0.234500	0.586900
H1111	H111	0.087600	0.086100	0.630300
H1121	H112	0.060500	0.153900	0.658300
H1131	H113	0.970500	0.196800	0.767900
H1141	H114	0.030300	0.204200	0.720400
H1151	H115	0.916500	0.335700	0.771600
H1161	H116	0.978700	0.346700	0.724700
H1171	H117	0.107000	0.487300	0.647100
H1181	H118	0.078800	0.414200	0.670000
H1191	H119	0.117500	0.424700	0.570000
H1201	H120	0.093500	0.350300	0.591200
H1211	H121	0.182400	0.188900	0.364200
H1221	H122	0.100800	0.153500	0.403500
H1231	H123	0.933100	0.218600	0.325500
H1241	H124	0.845000	0.182900	0.363100
H1251	H125	0.499200	0.087000	0.380600
H1261	H126	0.655000	0.117100	0.386400
H1271	H127	0.500000	0.035700	0.461100
H1281	H128	0.656400	0.064900	0.469100
H1291	H129	0.961600	0.037500	0.544600
H1301	H130	0.867200	0.057800	0.504600
H1311	H131	0.190800	0.103800	0.511800
H1321	H132	0.101800	0.127200	0.471000
H1331	H133	0.845800	0.335700	0.061500
H1341	H134	0.876700	0.265500	0.086900
H1351	H135	0.912400	0.413900	0.130300
H1361	H136	0.939500	0.346100	0.158300
H1371	H137	0.029500	0.303200	0.267900
H1381	H138	0.969700	0.295800	0.220400
H1391	H139	0.083500	0.164300	0.271600
H1401	H140	0.021300	0.153300	0.224700
H1411	H141	0.893000	0.012700	0.147100
H1421	H142	0.921200	0.085800	0.170000
H1431	H143	0.882500	0.075300	0.070000
H1441	H144	0.906500	0.149700	0.091200
H1451	H145	0.317600	0.688900	0.635800
H1461	H146	0.399200	0.653500	0.596500
H1471	H147	0.566900	0.718600	0.674500
H1481	H148	0.655000	0.682900	0.636900
H1491	H149	0.000800	0.587000	0.619400
H1501	H150	0.845000	0.617100	0.613600
H1511	H151	0.000000	0.535700	0.538900
H1521	H152	0.843600	0.564900	0.530900
H1531	H153	0.538400	0.537500	0.455400
H1541	H154	0.632800	0.557800	0.495400
H1551	H155	0.309200	0.603800	0.488200
H1561	H156	0.398200	0.627200	0.529000
H1571	H157	0.654200	0.835700	0.938500
H1581	H158	0.623300	0.765500	0.913100
H1591	H159	0.587600	0.913900	0.869700
H1601	H160	0.560500	0.846100	0.841700
H1611	H161	0.470500	0.803200	0.732100
H1621	H162	0.530300	0.795800	0.779600
H1631	H163	0.416500	0.664300	0.728400
H1641	H164	0.478700	0.653300	0.775300
H1651	H165	0.607000	0.512700	0.852900
H1661	H166	0.578800	0.585800	0.830000
H1671	H167	0.617500	0.575300	0.930000
H1681	H168	0.593500	0.649700	0.908800
H1691	H169	0.682400	0.811100	0.135800
H1701	H170	0.600800	0.846500	0.096500
H1711	H171	0.433100	0.781400	0.174500
H1721	H172	0.345000	0.817100	0.136900
H1731	H173	0.999200	0.913000	0.119400
H1741	H174	0.155000	0.882900	0.113600
H1751	H175	0.000000	0.964300	0.038900
H1761	H176	0.156400	0.935100	0.030900
H1771	H177	0.461600	0.962500	0.955400
H1781	H178	0.367200	0.942200	0.995400
H1791	H179	0.690800	0.896200	0.988200
H1801	H180	0.601800	0.872800	0.029000
H1811	H181	0.345800	0.664300	0.438500
H1821	H182	0.376700	0.734500	0.413100
H1831	H183	0.412400	0.586100	0.369700
H1841	H184	0.439500	0.653900	0.341700
H1851	H185	0.529500	0.696800	0.232100
H1861	H186	0.469700	0.704200	0.279600
H1871	H187	0.583500	0.835700	0.228400
H1881	H188	0.521300	0.846700	0.275300
H1891	H189	0.393000	0.987300	0.352900
H1901	H190	0.421200	0.914200	0.330000
H1911	H191	0.382500	0.924700	0.430000
H1921	H192	0.406500	0.850300	0.408800
C1451	C145	0.887000	0.311700	0.864300
C1461	C146	0.935200	0.333230	0.887710
C1471	C147	0.032600	0.294600	0.841700
C1481	C148	0.085700	0.315770	0.863990
C1491	C149	0.035700	0.334990	0.887570
C1501	C150	0.088400	0.357800	0.912380
C1511	C151	0.467900	0.417800	0.898700
C1521	C152	0.375300	0.399800	0.901930
C1531	C153	0.467400	0.447750	0.945790
C1541	C154	0.374500	0.430600	0.950710
C1551	C155	0.326400	0.406540	0.928240
C1561	C156	0.223400	0.390620	0.931720
C1571	C157	0.010000	0.443750	0.029510
C1581	C158	0.066800	0.431730	0.005810
C1591	C159	0.876300	0.404900	0.010480
C1601	C160	0.928800	0.391000	0.986010
C1611	C161	0.026000	0.403860	0.983580
C1621	C162	0.083800	0.390190	0.957320
C1631	C163	0.134200	0.162400	0.581420
C1641	C164	0.117200	0.204390	0.596430
C1651	C165	0.096100	0.116730	0.621610
C1661	C166	0.079500	0.156880	0.638430
C1671	C167	0.091000	0.201820	0.625730
C1681	C168	0.076100	0.246040	0.643220
C1691	C169	0.970600	0.227440	0.758730
C1701	C170	0.006800	0.231620	0.730540
C1711	C171	0.939500	0.308720	0.760960
C1721	C172	0.976000	0.315470	0.732990
C1731	C173	0.008200	0.276210	0.717320
C1741	C174	0.039500	0.280990	0.686280
C1751	C175	0.104000	0.459050	0.635540
C1761	C176	0.088000	0.415480	0.649430
C1771	C177	0.110700	0.422630	0.590600
C1781	C178	0.096200	0.378120	0.603190
C1791	C179	0.085800	0.374060	0.632850
C1801	C180	0.073400	0.326710	0.646820
C1811	C181	0.113000	0.188300	0.364300
C1821	C182	0.064800	0.166770	0.387710
C1831	C183	0.967400	0.205400	0.341700
C1841	C184	0.914300	0.184230	0.363990
C1851	C185	0.964300	0.165010	0.387570
C1861	C186	0.911600	0.142200	0.412380
C1871	C187	0.532100	0.082200	0.398700
C1881	C188	0.624700	0.100200	0.401930
C1891	C189	0.532600	0.052250	0.445790
C1901	C190	0.625500	0.069400	0.450710
C1911	C191	0.673600	0.093460	0.428240
C1921	C192	0.776600	0.109380	0.431720
C1931	C193	0.990000	0.056250	0.529510
C1941	C194	0.933200	0.068270	0.505810
C1951	C195	0.123700	0.095100	0.510480
C1961	C196	0.071200	0.109000	0.486010
C1971	C197	0.974000	0.096140	0.483580
C1981	C198	0.916200	0.109810	0.457320
C1991	C199	0.865800	0.337600	0.081420
C2001	C200	0.882800	0.295610	0.096430
C2011	C201	0.903900	0.383270	0.121610
C2021	C202	0.920500	0.343120	0.138430
C2031	C203	0.909000	0.298180	0.125730
C2041	C204	0.923900	0.253960	0.143220
C2051	C205	0.029400	0.272560	0.258730
C2061	C206	0.993200	0.268380	0.230540
C2071	C207	0.060500	0.191280	0.260960
C2081	C208	0.024000	0.184530	0.232990
C2091	C209	0.991800	0.223790	0.217320
C2101	C210	0.960500	0.219010	0.186280
C2111	C211	0.896000	0.040950	0.135540
C2121	C212	0.912000	0.084520	0.149430
C2131	C213	0.889300	0.077370	0.090600
C2141	C214	0.903800	0.121880	0.103190
C2151	C215	0.914200	0.125940	0.132850
C2161	C216	0.926600	0.173290	0.146820
C2171	C217	0.387000	0.688300	0.635700
C2181	C218	0.435200	0.666770	0.612290
C2191	C219	0.532600	0.705400	0.658300
C2201	C220	0.585700	0.684230	0.636010
C2211	C221	0.535700	0.665010	0.612430
C2221	C222	0.588400	0.642200	0.587620
C2231	C223	0.967900	0.582200	0.601300
C2241	C224	0.875300	0.600200	0.598070
C2251	C225	0.967400	0.552250	0.554210
C2261	C226	0.874500	0.569400	0.549290
C2271	C227	0.826400	0.593460	0.571760
C2281	C228	0.723400	0.609380	0.568280
C2291	C229	0.510000	0.556250	0.470490
C2301	C230	0.566800	0.568270	0.494190
C2311	C231	0.376300	0.595100	0.489520
C2321	C232	0.428800	0.609000	0.513990
C2331	C233	0.526000	0.596140	0.516420
C2341	C234	0.583800	0.609810	0.542680
C2351	C235	0.634200	0.837600	0.918580
C2361	C236	0.617200	0.795610	0.903570
C2371	C237	0.596100	0.883270	0.878390
C2381	C238	0.579500	0.843120	0.861570
C2391	C239	0.591000	0.798180	0.874270
C2401	C240	0.576100	0.753960	0.856780
C2411	C241	0.470600	0.772560	0.741270
C2421	C242	0.506800	0.768380	0.769460
C2431	C243	0.439500	0.691280	0.739040
C2441	C244	0.476000	0.684530	0.767010
C2451	C245	0.508200	0.723790	0.782680
C2461	C246	0.539500	0.719010	0.813720
C2471	C247	0.604000	0.540950	0.864460
C2481	C248	0.588000	0.584520	0.850570
C2491	C249	0.610700	0.577370	0.909400
C2501	C250	0.596200	0.621880	0.896810
C2511	C251	0.585800	0.625940	0.867150
C2521	C252	0.573400	0.673290	0.853180
C2531	C253	0.613000	0.811700	0.135700
C2541	C254	0.564800	0.833230	0.112290
C2551	C255	0.467400	0.794600	0.158300
C2561	C256	0.414300	0.815770	0.136010
C2571	C257	0.464300	0.834990	0.112430
C2581	C258	0.411600	0.857800	0.087620
C2591	C259	0.032100	0.917800	0.101300
C2601	C260	0.124700	0.899800	0.098070
C2611	C261	0.032600	0.947750	0.054210
C2621	C262	0.125500	0.930600	0.049290
C2631	C263	0.173600	0.906540	0.071760
C2641	C264	0.276600	0.890620	0.068280
C2651	C265	0.490000	0.943750	0.970490
C2661	C266	0.433200	0.931730	0.994190
C2671	C267	0.623700	0.904900	0.989520
C2681	C268	0.571200	0.891000	0.013990
C2691	C269	0.474000	0.903860	0.016420
C2701	C270	0.416200	0.890190	0.042680
C2711	C271	0.365800	0.662400	0.418580
C2721	C272	0.382800	0.704390	0.403570
C2731	C273	0.403900	0.616730	0.378390
C2741	C274	0.420500	0.656880	0.361570
C2751	C275	0.409000	0.701820	0.374270
C2761	C276	0.423900	0.746040	0.356780
C2771	C277	0.529400	0.727440	0.241270
C2781	C278	0.493200	0.731620	0.269460
C2791	C279	0.560500	0.808720	0.239040
C2801	C280	0.524000	0.815470	0.267010
C2811	C281	0.491800	0.776210	0.282680
C2821	C282	0.460500	0.780990	0.313720
C2831	C283	0.396000	0.959050	0.364460
C2841	C284	0.412000	0.915480	0.350570
C2851	C285	0.389300	0.922630	0.409400
C2861	C286	0.403800	0.878120	0.396810
C2871	C287	0.414200	0.874060	0.367150
C2881	C288	0.426600	0.826710	0.353180
I251	I25	0.696920	0.303480	0.804560
I261	I26	0.847060	0.166980	0.823160
I271	I27	0.658110	0.433470	0.058600
I281	I28	0.920980	0.510700	0.097960
I291	I29	0.725980	0.489280	0.962520
I301	I30	0.733980	0.423510	0.873090
I311	I31	0.303080	0.196520	0.304560
I321	I32	0.152940	0.333020	0.323160
I331	I33	0.341890	0.066530	0.558600
I341	I34	0.079020	0.989300	0.597960
I351	I35	0.274020	0.010720	0.462520
I361	I36	0.266020	0.076490	0.373090
I371	I37	0.196920	0.696520	0.695440
I381	I38	0.347060	0.833020	0.676840
I391	I39	0.158110	0.566530	0.441400
I401	I40	0.420980	0.489300	0.402040
I411	I41	0.225980	0.510720	0.537480
I421	I42	0.233980	0.576490	0.626910
I431	I43	0.803080	0.803480	0.195440
I441	I44	0.652940	0.666980	0.176840
I451	I45	0.841890	0.933470	0.941400
I461	I46	0.579020	0.010700	0.902040
I471	I47	0.774020	0.989280	0.037480
I481	I48	0.766020	0.923510	0.126910
N491	N49	0.935100	0.291990	0.842060
N501	N50	0.514100	0.442050	0.920090
N511	N51	0.916300	0.430150	0.032270
N521	N52	0.183200	0.367700	0.909120
N531	N53	0.178100	0.402090	0.956590
N541	N54	0.035100	0.367920	0.936010
N551	N55	0.123900	0.119010	0.593500
N561	N56	0.935800	0.265220	0.773440
N571	N57	0.115500	0.462980	0.606540
N581	N58	0.052200	0.240180	0.671480
N591	N59	0.048800	0.325280	0.675170
N601	N60	0.087300	0.288080	0.629830
N611	N61	0.064900	0.208010	0.342060
N621	N62	0.485900	0.057950	0.420090
N631	N63	0.083700	0.069850	0.532270
N641	N64	0.816800	0.132300	0.409120
N651	N65	0.821900	0.097910	0.456590
N661	N66	0.964900	0.132080	0.436010
N671	N67	0.876100	0.380990	0.093500
N681	N68	0.064200	0.234780	0.273440
N691	N69	0.884500	0.037020	0.106540
N701	N70	0.947800	0.259820	0.171480
N711	N71	0.951200	0.174720	0.175170
N721	N72	0.912700	0.211920	0.129830
N731	N73	0.435100	0.708010	0.657940
N741	N74	0.014100	0.557950	0.579910
N751	N75	0.416300	0.569850	0.467730
N761	N76	0.683200	0.632300	0.590880
N771	N77	0.678100	0.597910	0.543410
N781	N78	0.535100	0.632080	0.563990
N791	N79	0.623900	0.880990	0.906500
N801	N80	0.435800	0.734780	0.726560
N811	N81	0.615500	0.537020	0.893460
N821	N82	0.552200	0.759820	0.828520
N831	N83	0.548800	0.674720	0.824830
N841	N84	0.587300	0.711920	0.870170
N851	N85	0.564900	0.791990	0.157940
N861	N86	0.985900	0.942050	0.079910
N871	N87	0.583700	0.930150	0.967730
N881	N88	0.316800	0.867700	0.090880
N891	N89	0.321900	0.902090	0.043410
N901	N90	0.464900	0.867920	0.063990
N911	N91	0.376100	0.619010	0.406500
N921	N92	0.564200	0.765220	0.226560
N931	N93	0.384500	0.962980	0.393460
N941	N94	0.447800	0.740180	0.328520
N951	N95	0.451200	0.825280	0.324830
N961	N96	0.412700	0.788080	0.370170
