data_cm303749m_si_002_freeONLY_PM
_symmetry_space_group_name_H-M	'P1'
_cell_length_a	11.653300
_cell_length_b	15.464800
_cell_length_c	15.464800
_cell_angle_alpha	90.000000
_cell_angle_beta	90.205000
_cell_angle_gamma	90.000000
_symmetry_Int_Tables_number 1

loop_
_symmetry_equiv_pos_as_xyz
'x,y,z'

loop_
_atom_site_label
_atom_site_type_symbol
_atom_site_fract_x
_atom_site_fract_y
_atom_site_fract_z
Zn11	Zn1	0.510890	0.500000	0.596450
Zn21	Zn2	0.489110	0.500000	0.403550
H11	H1	0.797740	0.334300	0.616920
H21	H2	0.342240	0.500000	0.723800
H31	H3	0.201630	0.139460	0.637820
H41	H4	0.349470	0.500000	0.882100
H51	H5	0.790370	0.000000	0.472760
H61	H6	0.324330	0.731200	0.638410
H71	H7	0.675670	0.268800	0.361590
H81	H8	0.798370	0.139460	0.362180
H91	H9	0.797740	0.665700	0.616920
H101	H10	0.798370	0.860540	0.362180
H111	H11	0.202260	0.665700	0.383080
H121	H12	0.279610	0.500000	0.130570
H131	H13	0.720390	0.500000	0.869430
H141	H14	0.675670	0.731200	0.361590
H151	H15	0.650530	0.500000	0.117900
H161	H16	0.201630	0.860540	0.637820
H171	H17	0.295080	0.500000	0.290410
H181	H18	0.078010	0.206130	0.383700
H191	H19	0.704920	0.500000	0.709590
H201	H20	0.921990	0.206130	0.616300
H211	H21	0.078010	0.793870	0.383700
H221	H22	0.657760	0.500000	0.276200
H231	H23	0.202260	0.334300	0.383080
H241	H24	0.921990	0.793870	0.616300
H251	H25	0.209630	0.000000	0.527240
H261	H26	0.324330	0.268800	0.638410
C11	C1	0.362940	0.500000	0.161800
C21	C2	0.129470	0.837410	0.510920
C31	C3	0.726500	0.312490	0.489160
C41	C4	0.869590	0.780290	0.559940
C51	C5	0.575850	0.500000	0.243070
C61	C6	0.798020	0.706900	0.560300
C71	C7	0.799910	0.817810	0.417640
C81	C8	0.882390	0.000000	0.483240
C91	C9	0.371570	0.500000	0.250970
C101	C10	0.729940	0.743430	0.417240
C111	C11	0.939860	0.919620	0.491880
C121	C12	0.129470	0.162590	0.510920
C131	C13	0.130410	0.780290	0.440060
C141	C14	0.200090	0.817810	0.582360
C151	C15	0.424150	0.500000	0.756930
C161	C16	0.729940	0.256570	0.417240
C171	C17	0.060140	0.080380	0.508120
C181	C18	0.117610	0.000000	0.516760
C191	C19	0.870530	0.837410	0.489080
C201	C20	0.060140	0.919620	0.508120
C211	C21	0.200090	0.182190	0.582360
C221	C22	0.536460	0.500000	0.886440
C231	C23	0.571260	0.500000	0.154210
C241	C24	0.869590	0.219710	0.559940
C251	C25	0.637060	0.500000	0.838200
C261	C26	0.428740	0.500000	0.845790
C271	C27	0.799910	0.182190	0.417640
C281	C28	0.130410	0.219710	0.440060
C291	C29	0.939860	0.080380	0.491880
C301	C30	0.201980	0.293100	0.439700
C311	C31	0.270060	0.256570	0.582760
C321	C32	0.870530	0.162590	0.489080
C331	C33	0.643570	0.613120	0.492580
C341	C34	0.270060	0.743430	0.582760
C351	C35	0.201980	0.706900	0.439700
C361	C36	0.726500	0.687510	0.489160
C371	C37	0.273500	0.312490	0.510840
C381	C38	0.273500	0.687510	0.510840
C391	C39	0.643570	0.386880	0.492580
C401	C40	0.798020	0.293100	0.560300
C411	C41	0.463540	0.500000	0.113560
C421	C42	0.628430	0.500000	0.749030
C431	C43	0.356430	0.613120	0.507420
C441	C44	0.356430	0.386880	0.507420
N11	N1	0.523070	0.500000	0.711470
N21	N2	0.455120	0.500000	0.022850
N31	N3	0.544880	0.500000	0.977150
N41	N4	0.476930	0.500000	0.288530
O11	O1	0.401780	0.416410	0.576190
O21	O2	0.615380	0.418470	0.565100
O31	O3	0.401780	0.583590	0.576190
O41	O4	0.598220	0.416410	0.423810
O51	O5	0.615380	0.581530	0.565100
O61	O6	0.384620	0.581530	0.434900
O71	O7	0.598220	0.583590	0.423810
O81	O8	0.384620	0.418470	0.434900
