data_cm301726k_si_004_freeONLY_PM
_symmetry_space_group_name_H-M	'P1'
_cell_length_a	12.573800
_cell_length_b	12.573800
_cell_length_c	14.334000
_cell_angle_alpha	90.000000
_cell_angle_beta	90.000000
_cell_angle_gamma	120.000000
_symmetry_Int_Tables_number 1

loop_
_symmetry_equiv_pos_as_xyz
'x,y,z'

loop_
_atom_site_label
_atom_site_type_symbol
_atom_site_fract_x
_atom_site_fract_y
_atom_site_fract_z
Mg11	Mg1	0.206100	0.486500	0.500000
Mg21	Mg2	0.486500	0.280400	0.500000
Mg31	Mg3	0.280400	0.793900	0.500000
Mg41	Mg4	0.793900	0.513500	0.500000
Mg51	Mg5	0.719600	0.206100	0.500000
Mg61	Mg6	0.513500	0.719600	0.500000
C11	C1	0.489900	0.880400	0.647100
C21	C2	0.393500	0.481900	0.948500
C31	C3	0.911600	0.393800	0.948600
C41	C4	0.489400	0.880300	0.353000
C51	C5	0.708000	0.534600	0.102000
C61	C6	0.510100	0.119600	0.352900
C71	C7	0.500100	0.499900	0.102100
C81	C8	0.907700	0.393600	0.750000
C91	C9	0.606200	0.517800	0.948600
C101	C10	0.911600	0.393500	0.051500
C111	C11	0.485900	0.092200	0.250400
C121	C12	0.390900	0.510600	0.353000
C131	C13	0.499900	0.999800	0.897900
C141	C14	0.999800	0.499900	0.102100
C151	C15	0.088400	0.606200	0.051400
C161	C16	0.880400	0.390500	0.352900
C171	C17	0.708100	0.533300	0.800400
C181	C18	0.609100	0.489400	0.647000
C191	C19	0.173500	0.708000	0.101800
C201	C20	0.174400	0.707500	0.800500
C211	C21	0.088400	0.606500	0.948500
C221	C22	0.500200	0.000000	0.797400
C231	C23	0.510600	0.119700	0.647000
C241	C24	0.174800	0.708100	0.199600
C251	C25	0.499800	0.499800	0.797400
C261	C26	0.517800	0.911600	0.051400
C271	C27	0.092300	0.606400	0.250000
C281	C28	0.000200	0.500100	0.897900
C291	C29	0.500100	0.000200	0.102100
C301	C30	0.606500	0.518100	0.051500
C311	C31	0.393700	0.485900	0.749600
C321	C32	0.514100	0.907800	0.749600
C331	C33	0.609500	0.489900	0.352900
C341	C34	0.000000	0.500200	0.797400
C351	C35	0.825600	0.292500	0.199500
C361	C36	0.500200	0.500200	0.202600
C371	C37	0.465400	0.173400	0.102000
C381	C38	0.707500	0.533100	0.199500
C391	C39	0.606300	0.514100	0.250400
C401	C40	0.393600	0.485900	0.250000
C411	C41	0.292000	0.465400	0.898000
C421	C42	0.533100	0.825600	0.800500
C431	C43	0.485900	0.092300	0.750000
C441	C44	0.826600	0.292000	0.102000
C451	C45	0.292000	0.465500	0.101800
C461	C46	0.482200	0.088400	0.948600
C471	C47	0.092200	0.606300	0.749600
C481	C48	0.533300	0.825200	0.199600
C491	C49	0.466700	0.174800	0.800400
C501	C50	0.825200	0.291900	0.800400
C511	C51	0.514100	0.907700	0.250000
C521	C52	0.534600	0.826600	0.898000
C531	C53	0.907800	0.393700	0.250400
C541	C54	0.534500	0.826500	0.101800
C551	C55	0.119600	0.609500	0.647100
C561	C56	0.466900	0.174400	0.199500
C571	C57	0.606400	0.514100	0.750000
C581	C58	0.826500	0.292000	0.898200
C591	C59	0.465500	0.173500	0.898200
C601	C60	0.499900	0.500100	0.897900
C611	C61	0.518100	0.911600	0.948500
C621	C62	0.292500	0.466900	0.800500
C631	C63	0.119700	0.609100	0.353000
C641	C64	0.393800	0.482200	0.051400
C651	C65	0.291900	0.466700	0.199600
C661	C66	0.390500	0.510100	0.647100
C671	C67	0.880300	0.390900	0.647000
C681	C68	0.000000	0.499800	0.202600
C691	C69	0.499800	0.000000	0.202600
C701	C70	0.708000	0.534500	0.898200
C711	C71	0.173400	0.708000	0.898000
C721	C72	0.481900	0.088400	0.051500
O11	O1	0.482100	0.604400	0.386300
O21	O2	0.307200	0.246300	0.499900
O31	O3	0.604100	0.122200	0.386200
O41	O4	0.877800	0.481900	0.386200
O51	O5	0.145600	0.706900	0.603500
O61	O6	0.692800	0.753700	0.500100
O71	O7	0.145600	0.707000	0.396600
O81	O8	0.707000	0.561400	0.603400
O91	O9	0.246300	0.939100	0.500100
O101	O10	0.706900	0.561300	0.396500
O111	O11	0.854400	0.293000	0.603400
O121	O12	0.561300	0.854400	0.603500
O131	O13	0.122200	0.518100	0.613800
O141	O14	0.438700	0.145600	0.396500
O151	O15	0.122300	0.517900	0.386300
O161	O16	0.333330	0.666660	0.500100
O171	O17	0.517900	0.395600	0.613700
O181	O18	0.561400	0.854400	0.396600
O191	O19	0.666670	0.333340	0.499900
O201	O20	0.060900	0.307200	0.500100
O211	O21	0.604400	0.122300	0.613700
O221	O22	0.293100	0.438700	0.603500
O231	O23	0.518100	0.395900	0.386200
O241	O24	0.438600	0.145600	0.603400
O251	O25	0.395900	0.877800	0.613800
O261	O26	0.753700	0.060900	0.499900
O271	O27	0.854400	0.293100	0.396500
O281	O28	0.939100	0.692800	0.499900
O291	O29	0.293000	0.438600	0.396600
O301	O30	0.395600	0.877700	0.386300
O311	O31	0.877700	0.482100	0.613700
O321	O32	0.481900	0.604100	0.613800
