data_cm503311x_alf350K_freeONLY_PM
_symmetry_space_group_name_H-M	'P1'
_cell_length_a	6.567500
_cell_length_b	16.402600
_cell_length_c	13.164300
_cell_angle_alpha	90.000000
_cell_angle_beta	90.000000
_cell_angle_gamma	90.000000
_symmetry_Int_Tables_number 1

loop_
_symmetry_equiv_pos_as_xyz
'x,y,z'

loop_
_atom_site_label
_atom_site_type_symbol
_atom_site_fract_x
_atom_site_fract_y
_atom_site_fract_z
O11	O1	0.167200	0.169030	0.840360
C11	C1	0.806100	0.026400	0.953700
O21	O2	0.667200	0.669030	0.340360
C21	C2	0.306100	0.526400	0.453700
O31	O3	0.832800	0.330970	0.840360
C31	C3	0.193900	0.473600	0.953700
O41	O4	0.332800	0.830970	0.340360
C41	C4	0.693900	0.973600	0.453700
O51	O5	0.832800	0.669030	0.159640
C51	C5	0.193900	0.526400	0.046300
O61	O6	0.332800	0.169030	0.659640
C61	C6	0.693900	0.026400	0.546300
O71	O7	0.167200	0.830970	0.159640
C71	C7	0.806100	0.973600	0.046300
O81	O8	0.667200	0.330970	0.659640
C81	C8	0.306100	0.473600	0.546300
O91	O9	0.832800	0.830970	0.159640
C91	C9	0.193900	0.973600	0.046300
O101	O10	0.332800	0.330970	0.659640
C101	C10	0.693900	0.473600	0.546300
O111	O11	0.167200	0.669030	0.159640
C111	C11	0.806100	0.526400	0.046300
O121	O12	0.667200	0.169030	0.659640
C121	C12	0.306100	0.026400	0.546300
O131	O13	0.167200	0.330970	0.840360
C131	C13	0.806100	0.473600	0.953700
O141	O14	0.667200	0.830970	0.340360
C141	C14	0.306100	0.973600	0.453700
O151	O15	0.832800	0.169030	0.840360
C151	C15	0.193900	0.026400	0.953700
O161	O16	0.332800	0.669030	0.340360
C161	C16	0.693900	0.526400	0.453700
Al11	Al1	0.250000	0.250000	0.750000
Al21	Al2	0.750000	0.250000	0.750000
Al31	Al3	0.750000	0.750000	0.250000
Al41	Al4	0.250000	0.750000	0.250000
F11	F1	0.000000	0.250000	0.693100
F21	F2	0.500000	0.750000	0.193100
F31	F3	0.000000	0.750000	0.306900
F41	F4	0.500000	0.250000	0.806900
C171	C17	0.000000	0.064100	0.949000
C181	C18	0.000000	0.136300	0.868300
C191	C19	0.500000	0.564100	0.449000
C201	C20	0.500000	0.636300	0.368300
C211	C21	0.000000	0.435900	0.949000
C221	C22	0.000000	0.363700	0.868300
C231	C23	0.500000	0.935900	0.449000
C241	C24	0.500000	0.863700	0.368300
C251	C25	0.000000	0.564100	0.051000
C261	C26	0.000000	0.636300	0.131700
C271	C27	0.500000	0.064100	0.551000
C281	C28	0.500000	0.136300	0.631700
C291	C29	0.000000	0.935900	0.051000
C301	C30	0.000000	0.863700	0.131700
C311	C31	0.500000	0.435900	0.551000
C321	C32	0.500000	0.363700	0.631700
