data_cm503311x_alf225K_freeONLY_PM
_symmetry_space_group_name_H-M	'P1'
_cell_length_a	6.568000
_cell_length_b	16.401800
_cell_length_c	13.183000
_cell_angle_alpha	90.000000
_cell_angle_beta	90.000000
_cell_angle_gamma	90.000000
_symmetry_Int_Tables_number 1

loop_
_symmetry_equiv_pos_as_xyz
'x,y,z'

loop_
_atom_site_label
_atom_site_type_symbol
_atom_site_fract_x
_atom_site_fract_y
_atom_site_fract_z
O11	O1	0.169900	0.168250	0.841300
C11	C1	0.804100	0.029100	0.956700
O21	O2	0.669900	0.668250	0.341300
C21	C2	0.304100	0.529100	0.456700
O31	O3	0.830100	0.331750	0.841300
C31	C3	0.195900	0.470900	0.956700
O41	O4	0.330100	0.831750	0.341300
C41	C4	0.695900	0.970900	0.456700
O51	O5	0.830100	0.668250	0.158700
C51	C5	0.195900	0.529100	0.043300
O61	O6	0.330100	0.168250	0.658700
C61	C6	0.695900	0.029100	0.543300
O71	O7	0.169900	0.831750	0.158700
C71	C7	0.804100	0.970900	0.043300
O81	O8	0.669900	0.331750	0.658700
C81	C8	0.304100	0.470900	0.543300
O91	O9	0.830100	0.831750	0.158700
C91	C9	0.195900	0.970900	0.043300
O101	O10	0.330100	0.331750	0.658700
C101	C10	0.695900	0.470900	0.543300
O111	O11	0.169900	0.668250	0.158700
C111	C11	0.804100	0.529100	0.043300
O121	O12	0.669900	0.168250	0.658700
C121	C12	0.304100	0.029100	0.543300
O131	O13	0.169900	0.331750	0.841300
C131	C13	0.804100	0.470900	0.956700
O141	O14	0.669900	0.831750	0.341300
C141	C14	0.304100	0.970900	0.456700
O151	O15	0.830100	0.168250	0.841300
C151	C15	0.195900	0.029100	0.956700
O161	O16	0.330100	0.668250	0.341300
C161	C16	0.695900	0.529100	0.456700
Al11	Al1	0.250000	0.250000	0.750000
Al21	Al2	0.750000	0.250000	0.750000
Al31	Al3	0.750000	0.750000	0.250000
Al41	Al4	0.250000	0.750000	0.250000
F11	F1	0.000000	0.250000	0.694600
F21	F2	0.500000	0.750000	0.194600
F31	F3	0.000000	0.750000	0.305400
F41	F4	0.500000	0.250000	0.805400
C171	C17	0.000000	0.062900	0.946400
C181	C18	0.000000	0.137200	0.866200
C191	C19	0.500000	0.562900	0.446400
C201	C20	0.500000	0.637200	0.366200
C211	C21	0.000000	0.437100	0.946400
C221	C22	0.000000	0.362800	0.866200
C231	C23	0.500000	0.937100	0.446400
C241	C24	0.500000	0.862800	0.366200
C251	C25	0.000000	0.562900	0.053600
C261	C26	0.000000	0.637200	0.133800
C271	C27	0.500000	0.062900	0.553600
C281	C28	0.500000	0.137200	0.633800
C291	C29	0.000000	0.937100	0.053600
C301	C30	0.000000	0.862800	0.133800
C311	C31	0.500000	0.437100	0.553600
C321	C32	0.500000	0.362800	0.633800
