data_cm503311x_aloh300K_freeONLY_PM
_symmetry_space_group_name_H-M	'P1'
_cell_length_a	6.629500
_cell_length_b	16.757900
_cell_length_c	12.793600
_cell_angle_alpha	90.000000
_cell_angle_beta	90.000000
_cell_angle_gamma	90.000000
_symmetry_Int_Tables_number 1

loop_
_symmetry_equiv_pos_as_xyz
'x,y,z'

loop_
_atom_site_label
_atom_site_type_symbol
_atom_site_fract_x
_atom_site_fract_y
_atom_site_fract_z
O11	O1	0.166770	0.167700	0.843620
C11	C1	0.807800	0.035440	0.967900
O21	O2	0.666770	0.667700	0.343620
C21	C2	0.307800	0.535440	0.467900
O31	O3	0.833230	0.332300	0.843620
C31	C3	0.192200	0.464560	0.967900
O41	O4	0.333230	0.832300	0.343620
C41	C4	0.692200	0.964560	0.467900
O51	O5	0.833230	0.667700	0.156380
C51	C5	0.192200	0.535440	0.032100
O61	O6	0.333230	0.167700	0.656380
C61	C6	0.692200	0.035440	0.532100
O71	O7	0.166770	0.832300	0.156380
C71	C7	0.807800	0.964560	0.032100
O81	O8	0.666770	0.332300	0.656380
C81	C8	0.307800	0.464560	0.532100
O91	O9	0.833230	0.832300	0.156380
C91	C9	0.192200	0.964560	0.032100
O101	O10	0.333230	0.332300	0.656380
C101	C10	0.692200	0.464560	0.532100
O111	O11	0.166770	0.667700	0.156380
C111	C11	0.807800	0.535440	0.032100
O121	O12	0.666770	0.167700	0.656380
C121	C12	0.307800	0.035440	0.532100
O131	O13	0.166770	0.332300	0.843620
C131	C13	0.807800	0.464560	0.967900
O141	O14	0.666770	0.832300	0.343620
C141	C14	0.307800	0.964560	0.467900
O151	O15	0.833230	0.167700	0.843620
C151	C15	0.192200	0.035440	0.967900
O161	O16	0.333230	0.667700	0.343620
C161	C16	0.692200	0.535440	0.467900
Al11	Al1	0.250000	0.250000	0.750000
Al21	Al2	0.750000	0.250000	0.750000
Al31	Al3	0.750000	0.750000	0.250000
Al41	Al4	0.250000	0.750000	0.250000
O171	O17	0.000000	0.250000	0.684700
O181	O18	0.500000	0.750000	0.184700
O191	O19	0.000000	0.750000	0.315300
O201	O20	0.500000	0.250000	0.815300
C171	C17	0.000000	0.062000	0.944800
C181	C18	0.000000	0.138200	0.870300
C191	C19	0.500000	0.562000	0.444800
C201	C20	0.500000	0.638200	0.370300
C211	C21	0.000000	0.438000	0.944800
C221	C22	0.000000	0.361800	0.870300
C231	C23	0.500000	0.938000	0.444800
C241	C24	0.500000	0.861800	0.370300
C251	C25	0.000000	0.562000	0.055200
C261	C26	0.000000	0.638200	0.129700
C271	C27	0.500000	0.062000	0.555200
C281	C28	0.500000	0.138200	0.629700
C291	C29	0.000000	0.938000	0.055200
C301	C30	0.000000	0.861800	0.129700
C311	C31	0.500000	0.438000	0.555200
C321	C32	0.500000	0.361800	0.629700
