data_cm501138g_si_006_freeONLY_PM
_symmetry_space_group_name_H-M	'P1'
_cell_length_a	26.323800
_cell_length_b	26.323800
_cell_length_c	26.323800
_cell_angle_alpha	90.000000
_cell_angle_beta	90.000000
_cell_angle_gamma	90.000000
_symmetry_Int_Tables_number 1

loop_
_symmetry_equiv_pos_as_xyz
'x,y,z'

loop_
_atom_site_label
_atom_site_type_symbol
_atom_site_fract_x
_atom_site_fract_y
_atom_site_fract_z
O11	O1	0.243220	0.316800	0.052460
O21	O2	0.243220	0.816800	0.552460
O31	O3	0.743220	0.316800	0.552460
O41	O4	0.743220	0.816800	0.052460
O51	O5	0.756780	0.683200	0.052460
O61	O6	0.756780	0.183200	0.552460
O71	O7	0.256780	0.683200	0.552460
O81	O8	0.256780	0.183200	0.052460
O91	O9	0.756780	0.316800	0.947540
O101	O10	0.756780	0.816800	0.447540
O111	O11	0.256780	0.316800	0.447540
O121	O12	0.256780	0.816800	0.947540
O131	O13	0.243220	0.683200	0.947540
O141	O14	0.243220	0.183200	0.447540
O151	O15	0.743220	0.683200	0.447540
O161	O16	0.743220	0.183200	0.947540
O171	O17	0.052460	0.243220	0.316800
O181	O18	0.052460	0.743220	0.816800
O191	O19	0.552460	0.243220	0.816800
O201	O20	0.552460	0.743220	0.316800
O211	O21	0.052460	0.756780	0.683200
O221	O22	0.052460	0.256780	0.183200
O231	O23	0.552460	0.756780	0.183200
O241	O24	0.552460	0.256780	0.683200
O251	O25	0.947540	0.756780	0.316800
O261	O26	0.947540	0.256780	0.816800
O271	O27	0.447540	0.756780	0.816800
O281	O28	0.447540	0.256780	0.316800
O291	O29	0.947540	0.243220	0.683200
O301	O30	0.947540	0.743220	0.183200
O311	O31	0.447540	0.243220	0.183200
O321	O32	0.447540	0.743220	0.683200
O331	O33	0.316800	0.052460	0.243220
O341	O34	0.316800	0.552460	0.743220
O351	O35	0.816800	0.052460	0.743220
O361	O36	0.816800	0.552460	0.243220
O371	O37	0.683200	0.052460	0.756780
O381	O38	0.683200	0.552460	0.256780
O391	O39	0.183200	0.052460	0.256780
O401	O40	0.183200	0.552460	0.756780
O411	O41	0.316800	0.947540	0.756780
O421	O42	0.316800	0.447540	0.256780
O431	O43	0.816800	0.947540	0.256780
O441	O44	0.816800	0.447540	0.756780
O451	O45	0.683200	0.947540	0.243220
O461	O46	0.683200	0.447540	0.743220
O471	O47	0.183200	0.947540	0.743220
O481	O48	0.183200	0.447540	0.243220
O491	O49	0.316800	0.243220	0.947540
O501	O50	0.316800	0.743220	0.447540
O511	O51	0.816800	0.243220	0.447540
O521	O52	0.816800	0.743220	0.947540
O531	O53	0.683200	0.756780	0.947540
O541	O54	0.683200	0.256780	0.447540
O551	O55	0.183200	0.756780	0.447540
O561	O56	0.183200	0.256780	0.947540
O571	O57	0.316800	0.756780	0.052460
O581	O58	0.316800	0.256780	0.552460
O591	O59	0.816800	0.756780	0.552460
O601	O60	0.816800	0.256780	0.052460
O611	O61	0.683200	0.243220	0.052460
O621	O62	0.683200	0.743220	0.552460
O631	O63	0.183200	0.243220	0.552460
O641	O64	0.183200	0.743220	0.052460
O651	O65	0.243220	0.052460	0.683200
O661	O66	0.243220	0.552460	0.183200
O671	O67	0.743220	0.052460	0.183200
O681	O68	0.743220	0.552460	0.683200
O691	O69	0.756780	0.052460	0.316800
O701	O70	0.756780	0.552460	0.816800
O711	O71	0.256780	0.052460	0.816800
O721	O72	0.256780	0.552460	0.316800
O731	O73	0.756780	0.947540	0.683200
O741	O74	0.756780	0.447540	0.183200
O751	O75	0.256780	0.947540	0.183200
O761	O76	0.256780	0.447540	0.683200
O771	O77	0.243220	0.947540	0.316800
O781	O78	0.243220	0.447540	0.816800
O791	O79	0.743220	0.947540	0.816800
O801	O80	0.743220	0.447540	0.316800
O811	O81	0.052460	0.316800	0.756780
O821	O82	0.052460	0.816800	0.256780
O831	O83	0.552460	0.316800	0.256780
O841	O84	0.552460	0.816800	0.756780
O851	O85	0.052460	0.683200	0.243220
O861	O86	0.052460	0.183200	0.743220
O871	O87	0.552460	0.683200	0.743220
O881	O88	0.552460	0.183200	0.243220
O891	O89	0.947540	0.316800	0.243220
O901	O90	0.947540	0.816800	0.743220
O911	O91	0.447540	0.316800	0.743220
O921	O92	0.447540	0.816800	0.243220
O931	O93	0.947540	0.683200	0.756780
O941	O94	0.947540	0.183200	0.256780
O951	O95	0.447540	0.683200	0.256780
O961	O96	0.447540	0.183200	0.756780
O971	O97	0.756780	0.683200	0.947540
O981	O98	0.756780	0.183200	0.447540
O991	O99	0.256780	0.683200	0.447540
O1001	O100	0.256780	0.183200	0.947540
O1011	O101	0.243220	0.316800	0.947540
O1021	O102	0.243220	0.816800	0.447540
O1031	O103	0.743220	0.316800	0.447540
O1041	O104	0.743220	0.816800	0.947540
O1051	O105	0.243220	0.683200	0.052460
O1061	O106	0.243220	0.183200	0.552460
O1071	O107	0.743220	0.683200	0.552460
O1081	O108	0.743220	0.183200	0.052460
O1091	O109	0.756780	0.316800	0.052460
O1101	O110	0.756780	0.816800	0.552460
O1111	O111	0.256780	0.316800	0.552460
O1121	O112	0.256780	0.816800	0.052460
O1131	O113	0.947540	0.756780	0.683200
O1141	O114	0.947540	0.256780	0.183200
O1151	O115	0.447540	0.756780	0.183200
O1161	O116	0.447540	0.256780	0.683200
O1171	O117	0.947540	0.243220	0.316800
O1181	O118	0.947540	0.743220	0.816800
O1191	O119	0.447540	0.243220	0.816800
O1201	O120	0.447540	0.743220	0.316800
O1211	O121	0.052460	0.243220	0.683200
O1221	O122	0.052460	0.743220	0.183200
O1231	O123	0.552460	0.243220	0.183200
O1241	O124	0.552460	0.743220	0.683200
O1251	O125	0.052460	0.756780	0.316800
O1261	O126	0.052460	0.256780	0.816800
O1271	O127	0.552460	0.756780	0.816800
O1281	O128	0.552460	0.256780	0.316800
O1291	O129	0.683200	0.947540	0.756780
O1301	O130	0.683200	0.447540	0.256780
O1311	O131	0.183200	0.947540	0.256780
O1321	O132	0.183200	0.447540	0.756780
O1331	O133	0.316800	0.947540	0.243220
O1341	O134	0.316800	0.447540	0.743220
O1351	O135	0.816800	0.947540	0.743220
O1361	O136	0.816800	0.447540	0.243220
O1371	O137	0.683200	0.052460	0.243220
O1381	O138	0.683200	0.552460	0.743220
O1391	O139	0.183200	0.052460	0.743220
O1401	O140	0.183200	0.552460	0.243220
O1411	O141	0.316800	0.052460	0.756780
O1421	O142	0.316800	0.552460	0.256780
O1431	O143	0.816800	0.052460	0.256780
O1441	O144	0.816800	0.552460	0.756780
O1451	O145	0.683200	0.756780	0.052460
O1461	O146	0.683200	0.256780	0.552460
O1471	O147	0.183200	0.756780	0.552460
O1481	O148	0.183200	0.256780	0.052460
O1491	O149	0.316800	0.243220	0.052460
O1501	O150	0.316800	0.743220	0.552460
O1511	O151	0.816800	0.243220	0.552460
O1521	O152	0.816800	0.743220	0.052460
O1531	O153	0.683200	0.243220	0.947540
O1541	O154	0.683200	0.743220	0.447540
O1551	O155	0.183200	0.243220	0.447540
O1561	O156	0.183200	0.743220	0.947540
O1571	O157	0.316800	0.756780	0.947540
O1581	O158	0.316800	0.256780	0.447540
O1591	O159	0.816800	0.756780	0.447540
O1601	O160	0.816800	0.256780	0.947540
O1611	O161	0.756780	0.947540	0.316800
O1621	O162	0.756780	0.447540	0.816800
O1631	O163	0.256780	0.947540	0.816800
O1641	O164	0.256780	0.447540	0.316800
O1651	O165	0.243220	0.947540	0.683200
O1661	O166	0.243220	0.447540	0.183200
O1671	O167	0.743220	0.947540	0.183200
O1681	O168	0.743220	0.447540	0.683200
O1691	O169	0.243220	0.052460	0.316800
O1701	O170	0.243220	0.552460	0.816800
O1711	O171	0.743220	0.052460	0.816800
O1721	O172	0.743220	0.552460	0.316800
O1731	O173	0.756780	0.052460	0.683200
O1741	O174	0.756780	0.552460	0.183200
O1751	O175	0.256780	0.052460	0.183200
O1761	O176	0.256780	0.552460	0.683200
O1771	O177	0.947540	0.683200	0.243220
O1781	O178	0.947540	0.183200	0.743220
O1791	O179	0.447540	0.683200	0.743220
O1801	O180	0.447540	0.183200	0.243220
O1811	O181	0.947540	0.316800	0.756780
O1821	O182	0.947540	0.816800	0.256780
O1831	O183	0.447540	0.316800	0.256780
O1841	O184	0.447540	0.816800	0.756780
O1851	O185	0.052460	0.683200	0.756780
O1861	O186	0.052460	0.183200	0.256780
O1871	O187	0.552460	0.683200	0.256780
O1881	O188	0.552460	0.183200	0.756780
O1891	O189	0.052460	0.316800	0.243220
O1901	O190	0.052460	0.816800	0.743220
O1911	O191	0.552460	0.316800	0.743220
O1921	O192	0.552460	0.816800	0.243220
Cu11	Cu1	0.284950	0.284950	0.000000
O1931	O193	0.344400	0.344400	0.000000
Cu21	Cu2	0.284950	0.784950	0.500000
O1941	O194	0.344400	0.844400	0.500000
Cu31	Cu3	0.784950	0.284950	0.500000
O1951	O195	0.844400	0.344400	0.500000
Cu41	Cu4	0.784950	0.784950	0.000000
O1961	O196	0.844400	0.844400	0.000000
Cu51	Cu5	0.715050	0.715050	0.000000
O1971	O197	0.655600	0.655600	0.000000
Cu61	Cu6	0.715050	0.215050	0.500000
O1981	O198	0.655600	0.155600	0.500000
Cu71	Cu7	0.215050	0.715050	0.500000
O1991	O199	0.155600	0.655600	0.500000
Cu81	Cu8	0.215050	0.215050	0.000000
O2001	O200	0.155600	0.155600	0.000000
Cu91	Cu9	0.715050	0.284950	0.000000
O2011	O201	0.655600	0.344400	0.000000
Cu101	Cu10	0.715050	0.784950	0.500000
O2021	O202	0.655600	0.844400	0.500000
Cu111	Cu11	0.215050	0.284950	0.500000
O2031	O203	0.155600	0.344400	0.500000
Cu121	Cu12	0.215050	0.784950	0.000000
O2041	O204	0.155600	0.844400	0.000000
Cu131	Cu13	0.284950	0.715050	0.000000
O2051	O205	0.344400	0.655600	0.000000
Cu141	Cu14	0.284950	0.215050	0.500000
O2061	O206	0.344400	0.155600	0.500000
Cu151	Cu15	0.784950	0.715050	0.500000
O2071	O207	0.844400	0.655600	0.500000
Cu161	Cu16	0.784950	0.215050	0.000000
O2081	O208	0.844400	0.155600	0.000000
Cu171	Cu17	0.000000	0.284950	0.284950
O2091	O209	0.000000	0.344400	0.344400
Cu181	Cu18	0.000000	0.784950	0.784950
O2101	O210	0.000000	0.844400	0.844400
Cu191	Cu19	0.500000	0.284950	0.784950
O2111	O211	0.500000	0.344400	0.844400
Cu201	Cu20	0.500000	0.784950	0.284950
O2121	O212	0.500000	0.844400	0.344400
Cu211	Cu21	0.000000	0.715050	0.715050
O2131	O213	0.000000	0.655600	0.655600
Cu221	Cu22	0.000000	0.215050	0.215050
O2141	O214	0.000000	0.155600	0.155600
Cu231	Cu23	0.500000	0.715050	0.215050
O2151	O215	0.500000	0.655600	0.155600
Cu241	Cu24	0.500000	0.215050	0.715050
O2161	O216	0.500000	0.155600	0.655600
Cu251	Cu25	0.000000	0.715050	0.284950
O2171	O217	0.000000	0.655600	0.344400
Cu261	Cu26	0.000000	0.215050	0.784950
O2181	O218	0.000000	0.155600	0.844400
Cu271	Cu27	0.500000	0.715050	0.784950
O2191	O219	0.500000	0.655600	0.844400
Cu281	Cu28	0.500000	0.215050	0.284950
O2201	O220	0.500000	0.155600	0.344400
Cu291	Cu29	0.000000	0.284950	0.715050
O2211	O221	0.000000	0.344400	0.655600
Cu301	Cu30	0.000000	0.784950	0.215050
O2221	O222	0.000000	0.844400	0.155600
Cu311	Cu31	0.500000	0.284950	0.215050
O2231	O223	0.500000	0.344400	0.155600
Cu321	Cu32	0.500000	0.784950	0.715050
O2241	O224	0.500000	0.844400	0.655600
Cu331	Cu33	0.284950	0.000000	0.284950
O2251	O225	0.344400	0.000000	0.344400
Cu341	Cu34	0.284950	0.500000	0.784950
O2261	O226	0.344400	0.500000	0.844400
Cu351	Cu35	0.784950	0.000000	0.784950
O2271	O227	0.844400	0.000000	0.844400
Cu361	Cu36	0.784950	0.500000	0.284950
O2281	O228	0.844400	0.500000	0.344400
Cu371	Cu37	0.715050	0.000000	0.715050
O2291	O229	0.655600	0.000000	0.655600
Cu381	Cu38	0.715050	0.500000	0.215050
O2301	O230	0.655600	0.500000	0.155600
Cu391	Cu39	0.215050	0.000000	0.215050
O2311	O231	0.155600	0.000000	0.155600
Cu401	Cu40	0.215050	0.500000	0.715050
O2321	O232	0.155600	0.500000	0.655600
Cu411	Cu41	0.284950	0.000000	0.715050
O2331	O233	0.344400	0.000000	0.655600
Cu421	Cu42	0.284950	0.500000	0.215050
O2341	O234	0.344400	0.500000	0.155600
Cu431	Cu43	0.784950	0.000000	0.215050
O2351	O235	0.844400	0.000000	0.155600
Cu441	Cu44	0.784950	0.500000	0.715050
O2361	O236	0.844400	0.500000	0.655600
Cu451	Cu45	0.715050	0.000000	0.284950
O2371	O237	0.655600	0.000000	0.344400
Cu461	Cu46	0.715050	0.500000	0.784950
O2381	O238	0.655600	0.500000	0.844400
Cu471	Cu47	0.215050	0.000000	0.784950
O2391	O239	0.155600	0.000000	0.844400
Cu481	Cu48	0.215050	0.500000	0.284950
O2401	O240	0.155600	0.500000	0.344400
C11	C1	0.177790	0.322210	0.112860
C21	C2	0.203270	0.296730	0.068870
C31	C3	0.177790	0.822210	0.612860
C41	C4	0.203270	0.796730	0.568870
C51	C5	0.822210	0.677790	0.112860
C61	C6	0.796730	0.703270	0.068870
C71	C7	0.822210	0.177790	0.612860
C81	C8	0.796730	0.203270	0.568870
C91	C9	0.322210	0.177790	0.112860
C101	C10	0.296730	0.203270	0.068870
C111	C11	0.822210	0.322210	0.887140
C121	C12	0.796730	0.296730	0.931130
C131	C13	0.822210	0.822210	0.387140
C141	C14	0.796730	0.796730	0.431130
C151	C15	0.322210	0.322210	0.387140
C161	C16	0.296730	0.296730	0.431130
C171	C17	0.177790	0.677790	0.887140
C181	C18	0.203270	0.703270	0.931130
C191	C19	0.177790	0.177790	0.387140
C201	C20	0.203270	0.203270	0.431130
C211	C21	0.112860	0.177790	0.322210
C221	C22	0.068870	0.203270	0.296730
C231	C23	0.612860	0.177790	0.822210
C241	C24	0.568870	0.203270	0.796730
C251	C25	0.112860	0.822210	0.677790
C261	C26	0.068870	0.796730	0.703270
C271	C27	0.112860	0.322210	0.177790
C281	C28	0.068870	0.296730	0.203270
C291	C29	0.612860	0.822210	0.177790
C301	C30	0.568870	0.796730	0.203270
C311	C31	0.887140	0.822210	0.322210
C321	C32	0.931130	0.796730	0.296730
C331	C33	0.387140	0.822210	0.822210
C341	C34	0.431130	0.796730	0.796730
C351	C35	0.387140	0.322210	0.322210
C361	C36	0.431130	0.296730	0.296730
C371	C37	0.887140	0.177790	0.677790
C381	C38	0.931130	0.203270	0.703270
C391	C39	0.387140	0.177790	0.177790
C401	C40	0.431130	0.203270	0.203270
C411	C41	0.322210	0.112860	0.177790
C421	C42	0.296730	0.068870	0.203270
C431	C43	0.322210	0.612860	0.677790
C441	C44	0.296730	0.568870	0.703270
C451	C45	0.677790	0.112860	0.822210
C461	C46	0.703270	0.068870	0.796730
C471	C47	0.677790	0.612860	0.322210
C481	C48	0.703270	0.568870	0.296730
C491	C49	0.177790	0.112860	0.322210
C501	C50	0.203270	0.068870	0.296730
C511	C51	0.322210	0.887140	0.822210
C521	C52	0.296730	0.931130	0.796730
C531	C53	0.322210	0.387140	0.322210
C541	C54	0.296730	0.431130	0.296730
C551	C55	0.677790	0.887140	0.177790
C561	C56	0.703270	0.931130	0.203270
C571	C57	0.677790	0.387140	0.677790
C581	C58	0.703270	0.431130	0.703270
C591	C59	0.177790	0.387140	0.177790
C601	C60	0.203270	0.431130	0.203270
C611	C61	0.322210	0.177790	0.887140
C621	C62	0.296730	0.203270	0.931130
C631	C63	0.322210	0.677790	0.387140
C641	C64	0.296730	0.703270	0.431130
C651	C65	0.677790	0.822210	0.887140
C661	C66	0.703270	0.796730	0.931130
C671	C67	0.677790	0.322210	0.387140
C681	C68	0.703270	0.296730	0.431130
C691	C69	0.177790	0.322210	0.887140
C701	C70	0.203270	0.296730	0.931130
C711	C71	0.322210	0.822210	0.112860
C721	C72	0.296730	0.796730	0.068870
C731	C73	0.322210	0.322210	0.612860
C741	C74	0.296730	0.296730	0.568870
C751	C75	0.677790	0.177790	0.112860
C761	C76	0.703270	0.203270	0.068870
C771	C77	0.677790	0.677790	0.612860
C781	C78	0.703270	0.703270	0.568870
C791	C79	0.177790	0.177790	0.612860
C801	C80	0.203270	0.203270	0.568870
C811	C81	0.177790	0.112860	0.677790
C821	C82	0.203270	0.068870	0.703270
C831	C83	0.177790	0.612860	0.177790
C841	C84	0.203270	0.568870	0.203270
C851	C85	0.822210	0.112860	0.322210
C861	C86	0.796730	0.068870	0.296730
C871	C87	0.822210	0.612860	0.822210
C881	C88	0.796730	0.568870	0.796730
C891	C89	0.322210	0.612860	0.322210
C901	C90	0.296730	0.568870	0.296730
C911	C91	0.822210	0.887140	0.677790
C921	C92	0.796730	0.931130	0.703270
C931	C93	0.822210	0.387140	0.177790
C941	C94	0.796730	0.431130	0.203270
C951	C95	0.322210	0.887140	0.177790
C961	C96	0.296730	0.931130	0.203270
C971	C97	0.177790	0.887140	0.322210
C981	C98	0.203270	0.931130	0.296730
C991	C99	0.177790	0.387140	0.822210
C1001	C100	0.203270	0.431130	0.796730
C1011	C101	0.112860	0.322210	0.822210
C1021	C102	0.068870	0.296730	0.796730
C1031	C103	0.612860	0.322210	0.322210
C1041	C104	0.568870	0.296730	0.296730
C1051	C105	0.112860	0.677790	0.177790
C1061	C106	0.068870	0.703270	0.203270
C1071	C107	0.612860	0.677790	0.677790
C1081	C108	0.568870	0.703270	0.703270
C1091	C109	0.612860	0.177790	0.177790
C1101	C110	0.568870	0.203270	0.203270
C1111	C111	0.887140	0.322210	0.177790
C1121	C112	0.931130	0.296730	0.203270
C1131	C113	0.387140	0.322210	0.677790
C1141	C114	0.431130	0.296730	0.703270
C1151	C115	0.887140	0.677790	0.822210
C1161	C116	0.931130	0.703270	0.796730
C1171	C117	0.887140	0.177790	0.322210
C1181	C118	0.931130	0.203270	0.296730
C1191	C119	0.387140	0.677790	0.322210
C1201	C120	0.431130	0.703270	0.296730
C1211	C121	0.822210	0.677790	0.887140
C1221	C122	0.796730	0.703270	0.931130
C1231	C123	0.822210	0.177790	0.387140
C1241	C124	0.796730	0.203270	0.431130
C1251	C125	0.177790	0.822210	0.387140
C1261	C126	0.203270	0.796730	0.431130
C1271	C127	0.177790	0.677790	0.112860
C1281	C128	0.203270	0.703270	0.068870
C1291	C129	0.822210	0.322210	0.112860
C1301	C130	0.796730	0.296730	0.068870
C1311	C131	0.822210	0.822210	0.612860
C1321	C132	0.796730	0.796730	0.568870
C1331	C133	0.887140	0.822210	0.677790
C1341	C134	0.931130	0.796730	0.703270
C1351	C135	0.387140	0.822210	0.177790
C1361	C136	0.431130	0.796730	0.203270
C1371	C137	0.387140	0.177790	0.822210
C1381	C138	0.431130	0.203270	0.796730
C1391	C139	0.112860	0.177790	0.677790
C1401	C140	0.068870	0.203270	0.703270
C1411	C141	0.112860	0.822210	0.322210
C1421	C142	0.068870	0.796730	0.296730
C1431	C143	0.612860	0.822210	0.822210
C1441	C144	0.568870	0.796730	0.796730
C1451	C145	0.677790	0.887140	0.822210
C1461	C146	0.703270	0.931130	0.796730
C1471	C147	0.677790	0.387140	0.322210
C1481	C148	0.703270	0.431130	0.296730
C1491	C149	0.322210	0.387140	0.677790
C1501	C150	0.296730	0.431130	0.703270
C1511	C151	0.677790	0.112860	0.177790
C1521	C152	0.703270	0.068870	0.203270
C1531	C153	0.677790	0.612860	0.677790
C1541	C154	0.703270	0.568870	0.703270
C1551	C155	0.322210	0.112860	0.822210
C1561	C156	0.296730	0.068870	0.796730
C1571	C157	0.677790	0.822210	0.112860
C1581	C158	0.703270	0.796730	0.068870
C1591	C159	0.677790	0.322210	0.612860
C1601	C160	0.703270	0.296730	0.568870
C1611	C161	0.322210	0.677790	0.612860
C1621	C162	0.296730	0.703270	0.568870
C1631	C163	0.677790	0.177790	0.887140
C1641	C164	0.703270	0.203270	0.931130
C1651	C165	0.677790	0.677790	0.387140
C1661	C166	0.703270	0.703270	0.431130
C1671	C167	0.322210	0.822210	0.887140
C1681	C168	0.296730	0.796730	0.931130
C1691	C169	0.822210	0.887140	0.322210
C1701	C170	0.796730	0.931130	0.296730
C1711	C171	0.822210	0.387140	0.822210
C1721	C172	0.796730	0.431130	0.796730
C1731	C173	0.177790	0.887140	0.677790
C1741	C174	0.203270	0.931130	0.703270
C1751	C175	0.177790	0.612860	0.822210
C1761	C176	0.203270	0.568870	0.796730
C1771	C177	0.822210	0.112860	0.677790
C1781	C178	0.796730	0.068870	0.703270
C1791	C179	0.822210	0.612860	0.177790
C1801	C180	0.796730	0.568870	0.203270
C1811	C181	0.887140	0.677790	0.177790
C1821	C182	0.931130	0.703270	0.203270
C1831	C183	0.387140	0.677790	0.677790
C1841	C184	0.431130	0.703270	0.703270
C1851	C185	0.887140	0.322210	0.822210
C1861	C186	0.931130	0.296730	0.796730
C1871	C187	0.112860	0.677790	0.822210
C1881	C188	0.068870	0.703270	0.796730
C1891	C189	0.612860	0.677790	0.322210
C1901	C190	0.568870	0.703270	0.296730
C1911	C191	0.612860	0.322210	0.677790
C1921	C192	0.568870	0.296730	0.703270
C1931	C193	0.134410	0.300950	0.134410
H11	H1	0.119700	0.272400	0.119700
C1941	C194	0.134410	0.800950	0.634410
H21	H2	0.119700	0.772400	0.619700
C1951	C195	0.634410	0.300950	0.634410
H31	H3	0.619700	0.272400	0.619700
C1961	C196	0.634410	0.800950	0.134410
H41	H4	0.619700	0.772400	0.119700
C1971	C197	0.865590	0.699050	0.134410
H51	H5	0.880300	0.727600	0.119700
C1981	C198	0.865590	0.199050	0.634410
H61	H6	0.880300	0.227600	0.619700
C1991	C199	0.365590	0.699050	0.634410
H71	H7	0.380300	0.727600	0.619700
C2001	C200	0.365590	0.199050	0.134410
H81	H8	0.380300	0.227600	0.119700
C2011	C201	0.865590	0.300950	0.865590
H91	H9	0.880300	0.272400	0.880300
C2021	C202	0.865590	0.800950	0.365590
H101	H10	0.880300	0.772400	0.380300
C2031	C203	0.365590	0.300950	0.365590
H111	H11	0.380300	0.272400	0.380300
C2041	C204	0.365590	0.800950	0.865590
H121	H12	0.380300	0.772400	0.880300
C2051	C205	0.134410	0.699050	0.865590
H131	H13	0.119700	0.727600	0.880300
C2061	C206	0.134410	0.199050	0.365590
H141	H14	0.119700	0.227600	0.380300
C2071	C207	0.634410	0.699050	0.365590
H151	H15	0.619700	0.727600	0.380300
C2081	C208	0.634410	0.199050	0.865590
H161	H16	0.619700	0.227600	0.880300
C2091	C209	0.134410	0.134410	0.300950
H171	H17	0.119700	0.119700	0.272400
C2101	C210	0.134410	0.634410	0.800950
H181	H18	0.119700	0.619700	0.772400
C2111	C211	0.634410	0.134410	0.800950
H191	H19	0.619700	0.119700	0.772400
C2121	C212	0.634410	0.634410	0.300950
H201	H20	0.619700	0.619700	0.272400
C2131	C213	0.134410	0.865590	0.699050
H211	H21	0.119700	0.880300	0.727600
C2141	C214	0.134410	0.365590	0.199050
H221	H22	0.119700	0.380300	0.227600
C2151	C215	0.634410	0.865590	0.199050
H231	H23	0.619700	0.880300	0.227600
C2161	C216	0.634410	0.365590	0.699050
H241	H24	0.619700	0.380300	0.727600
C2171	C217	0.865590	0.865590	0.300950
H251	H25	0.880300	0.880300	0.272400
C2181	C218	0.865590	0.365590	0.800950
H261	H26	0.880300	0.380300	0.772400
C2191	C219	0.365590	0.865590	0.800950
H271	H27	0.380300	0.880300	0.772400
C2201	C220	0.365590	0.365590	0.300950
H281	H28	0.380300	0.380300	0.272400
C2211	C221	0.865590	0.134410	0.699050
H291	H29	0.880300	0.119700	0.727600
C2221	C222	0.865590	0.634410	0.199050
H301	H30	0.880300	0.619700	0.227600
C2231	C223	0.365590	0.134410	0.199050
H311	H31	0.380300	0.119700	0.227600
C2241	C224	0.365590	0.634410	0.699050
H321	H32	0.380300	0.619700	0.727600
C2251	C225	0.300950	0.134410	0.134410
H331	H33	0.272400	0.119700	0.119700
C2261	C226	0.300950	0.634410	0.634410
H341	H34	0.272400	0.619700	0.619700
C2271	C227	0.800950	0.134410	0.634410
H351	H35	0.772400	0.119700	0.619700
C2281	C228	0.800950	0.634410	0.134410
H361	H36	0.772400	0.619700	0.119700
C2291	C229	0.699050	0.134410	0.865590
H371	H37	0.727600	0.119700	0.880300
C2301	C230	0.699050	0.634410	0.365590
H381	H38	0.727600	0.619700	0.380300
C2311	C231	0.199050	0.134410	0.365590
H391	H39	0.227600	0.119700	0.380300
C2321	C232	0.199050	0.634410	0.865590
H401	H40	0.227600	0.619700	0.880300
C2331	C233	0.300950	0.865590	0.865590
H411	H41	0.272400	0.880300	0.880300
C2341	C234	0.300950	0.365590	0.365590
H421	H42	0.272400	0.380300	0.380300
C2351	C235	0.800950	0.865590	0.365590
H431	H43	0.772400	0.880300	0.380300
C2361	C236	0.800950	0.365590	0.865590
H441	H44	0.772400	0.380300	0.880300
C2371	C237	0.699050	0.865590	0.134410
H451	H45	0.727600	0.880300	0.119700
C2381	C238	0.699050	0.365590	0.634410
H461	H46	0.727600	0.380300	0.619700
C2391	C239	0.199050	0.865590	0.634410
H471	H47	0.227600	0.880300	0.619700
C2401	C240	0.199050	0.365590	0.134410
H481	H48	0.227600	0.380300	0.119700
C2411	C241	0.300950	0.134410	0.865590
H491	H49	0.272400	0.119700	0.880300
C2421	C242	0.300950	0.634410	0.365590
H501	H50	0.272400	0.619700	0.380300
C2431	C243	0.800950	0.134410	0.365590
H511	H51	0.772400	0.119700	0.380300
C2441	C244	0.800950	0.634410	0.865590
H521	H52	0.772400	0.619700	0.880300
C2451	C245	0.699050	0.865590	0.865590
H531	H53	0.727600	0.880300	0.880300
C2461	C246	0.699050	0.365590	0.365590
H541	H54	0.727600	0.380300	0.380300
C2471	C247	0.199050	0.865590	0.365590
H551	H55	0.227600	0.880300	0.380300
C2481	C248	0.199050	0.365590	0.865590
H561	H56	0.227600	0.380300	0.880300
C2491	C249	0.300950	0.865590	0.134410
H571	H57	0.272400	0.880300	0.119700
C2501	C250	0.300950	0.365590	0.634410
H581	H58	0.272400	0.380300	0.619700
C2511	C251	0.800950	0.865590	0.634410
H591	H59	0.772400	0.880300	0.619700
C2521	C252	0.800950	0.365590	0.134410
H601	H60	0.772400	0.380300	0.119700
C2531	C253	0.699050	0.134410	0.134410
H611	H61	0.727600	0.119700	0.119700
C2541	C254	0.699050	0.634410	0.634410
H621	H62	0.727600	0.619700	0.619700
C2551	C255	0.199050	0.134410	0.634410
H631	H63	0.227600	0.119700	0.619700
C2561	C256	0.199050	0.634410	0.134410
H641	H64	0.227600	0.619700	0.119700
C2571	C257	0.134410	0.134410	0.699050
H651	H65	0.119700	0.119700	0.727600
C2581	C258	0.134410	0.634410	0.199050
H661	H66	0.119700	0.619700	0.227600
C2591	C259	0.634410	0.134410	0.199050
H671	H67	0.619700	0.119700	0.227600
C2601	C260	0.634410	0.634410	0.699050
H681	H68	0.619700	0.619700	0.727600
C2611	C261	0.865590	0.134410	0.300950
H691	H69	0.880300	0.119700	0.272400
C2621	C262	0.865590	0.634410	0.800950
H701	H70	0.880300	0.619700	0.772400
C2631	C263	0.365590	0.134410	0.800950
H711	H71	0.380300	0.119700	0.772400
C2641	C264	0.365590	0.634410	0.300950
H721	H72	0.380300	0.619700	0.272400
C2651	C265	0.865590	0.865590	0.699050
H731	H73	0.880300	0.880300	0.727600
C2661	C266	0.865590	0.365590	0.199050
H741	H74	0.880300	0.380300	0.227600
C2671	C267	0.365590	0.865590	0.199050
H751	H75	0.380300	0.880300	0.227600
C2681	C268	0.365590	0.365590	0.699050
H761	H76	0.380300	0.380300	0.727600
C2691	C269	0.134410	0.865590	0.300950
H771	H77	0.119700	0.880300	0.272400
C2701	C270	0.134410	0.365590	0.800950
H781	H78	0.119700	0.380300	0.772400
C2711	C271	0.634410	0.865590	0.800950
H791	H79	0.619700	0.880300	0.772400
C2721	C272	0.634410	0.365590	0.300950
H801	H80	0.619700	0.380300	0.272400
C2731	C273	0.134410	0.300950	0.865590
H811	H81	0.119700	0.272400	0.880300
C2741	C274	0.134410	0.800950	0.365590
H821	H82	0.119700	0.772400	0.380300
C2751	C275	0.634410	0.300950	0.365590
H831	H83	0.619700	0.272400	0.380300
C2761	C276	0.634410	0.800950	0.865590
H841	H84	0.619700	0.772400	0.880300
C2771	C277	0.134410	0.699050	0.134410
H851	H85	0.119700	0.727600	0.119700
C2781	C278	0.134410	0.199050	0.634410
H861	H86	0.119700	0.227600	0.619700
C2791	C279	0.634410	0.699050	0.634410
H871	H87	0.619700	0.727600	0.619700
C2801	C280	0.634410	0.199050	0.134410
H881	H88	0.619700	0.227600	0.119700
C2811	C281	0.865590	0.300950	0.134410
H891	H89	0.880300	0.272400	0.119700
C2821	C282	0.865590	0.800950	0.634410
H901	H90	0.880300	0.772400	0.619700
C2831	C283	0.365590	0.300950	0.634410
H911	H91	0.380300	0.272400	0.619700
C2841	C284	0.365590	0.800950	0.134410
H921	H92	0.380300	0.772400	0.119700
C2851	C285	0.865590	0.699050	0.865590
H931	H93	0.880300	0.727600	0.880300
C2861	C286	0.865590	0.199050	0.365590
H941	H94	0.880300	0.227600	0.380300
C2871	C287	0.365590	0.699050	0.365590
H951	H95	0.380300	0.727600	0.380300
C2881	C288	0.365590	0.199050	0.865590
H961	H96	0.380300	0.227600	0.880300
C2891	C289	0.399800	0.350800	0.000000
C2901	C290	0.431000	0.399000	0.000000
C2911	C291	0.423700	0.299000	0.000000
C2921	C292	0.399800	0.850800	0.500000
C2931	C293	0.431000	0.899000	0.500000
C2941	C294	0.423700	0.799000	0.500000
C2951	C295	0.899800	0.350800	0.500000
C2961	C296	0.931000	0.399000	0.500000
C2971	C297	0.923700	0.299000	0.500000
C2981	C298	0.899800	0.850800	0.000000
C2991	C299	0.931000	0.899000	0.000000
C3001	C300	0.923700	0.799000	0.000000
C3011	C301	0.600200	0.649200	0.000000
C3021	C302	0.569000	0.601000	0.000000
C3031	C303	0.576300	0.701000	0.000000
C3041	C304	0.600200	0.149200	0.500000
C3051	C305	0.569000	0.101000	0.500000
C3061	C306	0.576300	0.201000	0.500000
C3071	C307	0.100200	0.649200	0.500000
C3081	C308	0.069000	0.601000	0.500000
C3091	C309	0.076300	0.701000	0.500000
C3101	C310	0.100200	0.149200	0.000000
C3111	C311	0.069000	0.101000	0.000000
C3121	C312	0.076300	0.201000	0.000000
C3131	C313	0.600200	0.350800	0.000000
C3141	C314	0.569000	0.399000	0.000000
C3151	C315	0.576300	0.299000	0.000000
C3161	C316	0.600200	0.850800	0.500000
C3171	C317	0.569000	0.899000	0.500000
C3181	C318	0.576300	0.799000	0.500000
C3191	C319	0.100200	0.350800	0.500000
C3201	C320	0.069000	0.399000	0.500000
C3211	C321	0.076300	0.299000	0.500000
C3221	C322	0.100200	0.850800	0.000000
C3231	C323	0.069000	0.899000	0.000000
C3241	C324	0.076300	0.799000	0.000000
C3251	C325	0.399800	0.649200	0.000000
C3261	C326	0.431000	0.601000	0.000000
C3271	C327	0.423700	0.701000	0.000000
C3281	C328	0.399800	0.149200	0.500000
C3291	C329	0.431000	0.101000	0.500000
C3301	C330	0.423700	0.201000	0.500000
C3311	C331	0.899800	0.649200	0.500000
C3321	C332	0.931000	0.601000	0.500000
C3331	C333	0.923700	0.701000	0.500000
C3341	C334	0.899800	0.149200	0.000000
C3351	C335	0.931000	0.101000	0.000000
C3361	C336	0.923700	0.201000	0.000000
C3371	C337	0.000000	0.399800	0.350800
C3381	C338	0.000000	0.431000	0.399000
C3391	C339	0.000000	0.423700	0.299000
C3401	C340	0.000000	0.899800	0.850800
C3411	C341	0.000000	0.931000	0.899000
C3421	C342	0.000000	0.923700	0.799000
C3431	C343	0.500000	0.399800	0.850800
C3441	C344	0.500000	0.431000	0.899000
C3451	C345	0.500000	0.423700	0.799000
C3461	C346	0.500000	0.899800	0.350800
C3471	C347	0.500000	0.931000	0.399000
C3481	C348	0.500000	0.923700	0.299000
C3491	C349	0.000000	0.600200	0.649200
C3501	C350	0.000000	0.569000	0.601000
C3511	C351	0.000000	0.576300	0.701000
C3521	C352	0.000000	0.100200	0.149200
C3531	C353	0.000000	0.069000	0.101000
C3541	C354	0.000000	0.076300	0.201000
C3551	C355	0.500000	0.600200	0.149200
C3561	C356	0.500000	0.569000	0.101000
C3571	C357	0.500000	0.576300	0.201000
C3581	C358	0.500000	0.100200	0.649200
C3591	C359	0.500000	0.069000	0.601000
C3601	C360	0.500000	0.076300	0.701000
C3611	C361	0.000000	0.600200	0.350800
C3621	C362	0.000000	0.569000	0.399000
C3631	C363	0.000000	0.576300	0.299000
C3641	C364	0.000000	0.100200	0.850800
C3651	C365	0.000000	0.069000	0.899000
C3661	C366	0.000000	0.076300	0.799000
C3671	C367	0.500000	0.600200	0.850800
C3681	C368	0.500000	0.569000	0.899000
C3691	C369	0.500000	0.576300	0.799000
C3701	C370	0.500000	0.100200	0.350800
C3711	C371	0.500000	0.069000	0.399000
C3721	C372	0.500000	0.076300	0.299000
C3731	C373	0.000000	0.399800	0.649200
C3741	C374	0.000000	0.431000	0.601000
C3751	C375	0.000000	0.423700	0.701000
C3761	C376	0.000000	0.899800	0.149200
C3771	C377	0.000000	0.931000	0.101000
C3781	C378	0.000000	0.923700	0.201000
C3791	C379	0.500000	0.399800	0.149200
C3801	C380	0.500000	0.431000	0.101000
C3811	C381	0.500000	0.423700	0.201000
C3821	C382	0.500000	0.899800	0.649200
C3831	C383	0.500000	0.931000	0.601000
C3841	C384	0.500000	0.923700	0.701000
C3851	C385	0.350800	0.000000	0.399800
C3861	C386	0.399000	0.000000	0.431000
C3871	C387	0.299000	0.000000	0.423700
C3881	C388	0.350800	0.500000	0.899800
C3891	C389	0.399000	0.500000	0.931000
C3901	C390	0.299000	0.500000	0.923700
C3911	C391	0.850800	0.000000	0.899800
C3921	C392	0.899000	0.000000	0.931000
C3931	C393	0.799000	0.000000	0.923700
C3941	C394	0.850800	0.500000	0.399800
C3951	C395	0.899000	0.500000	0.431000
C3961	C396	0.799000	0.500000	0.423700
C3971	C397	0.649200	0.000000	0.600200
C3981	C398	0.601000	0.000000	0.569000
C3991	C399	0.701000	0.000000	0.576300
C4001	C400	0.649200	0.500000	0.100200
C4011	C401	0.601000	0.500000	0.069000
C4021	C402	0.701000	0.500000	0.076300
C4031	C403	0.149200	0.000000	0.100200
C4041	C404	0.101000	0.000000	0.069000
C4051	C405	0.201000	0.000000	0.076300
C4061	C406	0.149200	0.500000	0.600200
C4071	C407	0.101000	0.500000	0.569000
C4081	C408	0.201000	0.500000	0.576300
C4091	C409	0.350800	0.000000	0.600200
C4101	C410	0.399000	0.000000	0.569000
C4111	C411	0.299000	0.000000	0.576300
C4121	C412	0.350800	0.500000	0.100200
C4131	C413	0.399000	0.500000	0.069000
C4141	C414	0.299000	0.500000	0.076300
C4151	C415	0.850800	0.000000	0.100200
C4161	C416	0.899000	0.000000	0.069000
C4171	C417	0.799000	0.000000	0.076300
C4181	C418	0.850800	0.500000	0.600200
C4191	C419	0.899000	0.500000	0.569000
C4201	C420	0.799000	0.500000	0.576300
C4211	C421	0.649200	0.000000	0.399800
C4221	C422	0.601000	0.000000	0.431000
C4231	C423	0.701000	0.000000	0.423700
C4241	C424	0.649200	0.500000	0.899800
C4251	C425	0.601000	0.500000	0.931000
C4261	C426	0.701000	0.500000	0.923700
C4271	C427	0.149200	0.000000	0.899800
C4281	C428	0.101000	0.000000	0.931000
C4291	C429	0.201000	0.000000	0.923700
C4301	C430	0.149200	0.500000	0.399800
C4311	C431	0.101000	0.500000	0.431000
C4321	C432	0.201000	0.500000	0.423700
C4331	C433	0.350800	0.399800	0.000000
C4341	C434	0.399000	0.431000	0.000000
C4351	C435	0.299000	0.423700	0.000000
C4361	C436	0.350800	0.899800	0.500000
C4371	C437	0.399000	0.931000	0.500000
C4381	C438	0.299000	0.923700	0.500000
C4391	C439	0.850800	0.399800	0.500000
C4401	C440	0.899000	0.431000	0.500000
C4411	C441	0.799000	0.423700	0.500000
C4421	C442	0.850800	0.899800	0.000000
C4431	C443	0.899000	0.931000	0.000000
C4441	C444	0.799000	0.923700	0.000000
C4451	C445	0.649200	0.600200	0.000000
C4461	C446	0.601000	0.569000	0.000000
C4471	C447	0.701000	0.576300	0.000000
C4481	C448	0.649200	0.100200	0.500000
C4491	C449	0.601000	0.069000	0.500000
C4501	C450	0.701000	0.076300	0.500000
C4511	C451	0.149200	0.600200	0.500000
C4521	C452	0.101000	0.569000	0.500000
C4531	C453	0.201000	0.576300	0.500000
C4541	C454	0.149200	0.100200	0.000000
C4551	C455	0.101000	0.069000	0.000000
C4561	C456	0.201000	0.076300	0.000000
C4571	C457	0.350800	0.600200	0.000000
C4581	C458	0.399000	0.569000	0.000000
C4591	C459	0.299000	0.576300	0.000000
C4601	C460	0.350800	0.100200	0.500000
C4611	C461	0.399000	0.069000	0.500000
C4621	C462	0.299000	0.076300	0.500000
C4631	C463	0.850800	0.600200	0.500000
C4641	C464	0.899000	0.569000	0.500000
C4651	C465	0.799000	0.576300	0.500000
C4661	C466	0.850800	0.100200	0.000000
C4671	C467	0.899000	0.069000	0.000000
C4681	C468	0.799000	0.076300	0.000000
C4691	C469	0.649200	0.399800	0.000000
C4701	C470	0.601000	0.431000	0.000000
C4711	C471	0.701000	0.423700	0.000000
C4721	C472	0.649200	0.899800	0.500000
C4731	C473	0.601000	0.931000	0.500000
C4741	C474	0.701000	0.923700	0.500000
C4751	C475	0.149200	0.399800	0.500000
C4761	C476	0.101000	0.431000	0.500000
C4771	C477	0.201000	0.423700	0.500000
C4781	C478	0.149200	0.899800	0.000000
C4791	C479	0.101000	0.931000	0.000000
C4801	C480	0.201000	0.923700	0.000000
C4811	C481	0.399800	0.000000	0.649200
C4821	C482	0.431000	0.000000	0.601000
C4831	C483	0.423700	0.000000	0.701000
C4841	C484	0.399800	0.500000	0.149200
C4851	C485	0.431000	0.500000	0.101000
C4861	C486	0.423700	0.500000	0.201000
C4871	C487	0.899800	0.000000	0.149200
C4881	C488	0.931000	0.000000	0.101000
C4891	C489	0.923700	0.000000	0.201000
C4901	C490	0.899800	0.500000	0.649200
C4911	C491	0.931000	0.500000	0.601000
C4921	C492	0.923700	0.500000	0.701000
C4931	C493	0.600200	0.000000	0.350800
C4941	C494	0.569000	0.000000	0.399000
C4951	C495	0.576300	0.000000	0.299000
C4961	C496	0.600200	0.500000	0.850800
C4971	C497	0.569000	0.500000	0.899000
C4981	C498	0.576300	0.500000	0.799000
C4991	C499	0.100200	0.000000	0.850800
C5001	C500	0.069000	0.000000	0.899000
C5011	C501	0.076300	0.000000	0.799000
C5021	C502	0.100200	0.500000	0.350800
C5031	C503	0.069000	0.500000	0.399000
C5041	C504	0.076300	0.500000	0.299000
C5051	C505	0.600200	0.000000	0.649200
C5061	C506	0.569000	0.000000	0.601000
C5071	C507	0.576300	0.000000	0.701000
C5081	C508	0.600200	0.500000	0.149200
C5091	C509	0.569000	0.500000	0.101000
C5101	C510	0.576300	0.500000	0.201000
C5111	C511	0.100200	0.000000	0.149200
C5121	C512	0.069000	0.000000	0.101000
C5131	C513	0.076300	0.000000	0.201000
C5141	C514	0.100200	0.500000	0.649200
C5151	C515	0.069000	0.500000	0.601000
C5161	C516	0.076300	0.500000	0.701000
C5171	C517	0.399800	0.000000	0.350800
C5181	C518	0.431000	0.000000	0.399000
C5191	C519	0.423700	0.000000	0.299000
C5201	C520	0.399800	0.500000	0.850800
C5211	C521	0.431000	0.500000	0.899000
C5221	C522	0.423700	0.500000	0.799000
C5231	C523	0.899800	0.000000	0.850800
C5241	C524	0.931000	0.000000	0.899000
C5251	C525	0.923700	0.000000	0.799000
C5261	C526	0.899800	0.500000	0.350800
C5271	C527	0.931000	0.500000	0.399000
C5281	C528	0.923700	0.500000	0.299000
C5291	C529	0.000000	0.350800	0.600200
C5301	C530	0.000000	0.399000	0.569000
C5311	C531	0.000000	0.299000	0.576300
C5321	C532	0.000000	0.850800	0.100200
C5331	C533	0.000000	0.899000	0.069000
C5341	C534	0.000000	0.799000	0.076300
C5351	C535	0.500000	0.350800	0.100200
C5361	C536	0.500000	0.399000	0.069000
C5371	C537	0.500000	0.299000	0.076300
C5381	C538	0.500000	0.850800	0.600200
C5391	C539	0.500000	0.899000	0.569000
C5401	C540	0.500000	0.799000	0.576300
C5411	C541	0.000000	0.649200	0.399800
C5421	C542	0.000000	0.601000	0.431000
C5431	C543	0.000000	0.701000	0.423700
C5441	C544	0.000000	0.149200	0.899800
C5451	C545	0.000000	0.101000	0.931000
C5461	C546	0.000000	0.201000	0.923700
C5471	C547	0.500000	0.649200	0.899800
C5481	C548	0.500000	0.601000	0.931000
C5491	C549	0.500000	0.701000	0.923700
C5501	C550	0.500000	0.149200	0.399800
C5511	C551	0.500000	0.101000	0.431000
C5521	C552	0.500000	0.201000	0.423700
C5531	C553	0.000000	0.350800	0.399800
C5541	C554	0.000000	0.399000	0.431000
C5551	C555	0.000000	0.299000	0.423700
C5561	C556	0.000000	0.850800	0.899800
C5571	C557	0.000000	0.899000	0.931000
C5581	C558	0.000000	0.799000	0.923700
C5591	C559	0.500000	0.350800	0.899800
C5601	C560	0.500000	0.399000	0.931000
C5611	C561	0.500000	0.299000	0.923700
C5621	C562	0.500000	0.850800	0.399800
C5631	C563	0.500000	0.899000	0.431000
C5641	C564	0.500000	0.799000	0.423700
C5651	C565	0.000000	0.649200	0.600200
C5661	C566	0.000000	0.601000	0.569000
C5671	C567	0.000000	0.701000	0.576300
C5681	C568	0.000000	0.149200	0.100200
C5691	C569	0.000000	0.101000	0.069000
C5701	C570	0.000000	0.201000	0.076300
C5711	C571	0.500000	0.649200	0.100200
C5721	C572	0.500000	0.601000	0.069000
C5731	C573	0.500000	0.701000	0.076300
C5741	C574	0.500000	0.149200	0.600200
C5751	C575	0.500000	0.101000	0.569000
C5761	C576	0.500000	0.201000	0.576300
