data_cm503311x_alf250K_freeONLY_PM
_symmetry_space_group_name_H-M	'P1'
_cell_length_a	6.568500
_cell_length_b	16.403200
_cell_length_c	13.179600
_cell_angle_alpha	90.000000
_cell_angle_beta	90.000000
_cell_angle_gamma	90.000000
_symmetry_Int_Tables_number 1

loop_
_symmetry_equiv_pos_as_xyz
'x,y,z'

loop_
_atom_site_label
_atom_site_type_symbol
_atom_site_fract_x
_atom_site_fract_y
_atom_site_fract_z
O11	O1	0.170300	0.167980	0.839500
C11	C1	0.805100	0.029400	0.957700
O21	O2	0.670300	0.667980	0.339500
C21	C2	0.305100	0.529400	0.457700
O31	O3	0.829700	0.332020	0.839500
C31	C3	0.194900	0.470600	0.957700
O41	O4	0.329700	0.832020	0.339500
C41	C4	0.694900	0.970600	0.457700
O51	O5	0.829700	0.667980	0.160500
C51	C5	0.194900	0.529400	0.042300
O61	O6	0.329700	0.167980	0.660500
C61	C6	0.694900	0.029400	0.542300
O71	O7	0.170300	0.832020	0.160500
C71	C7	0.805100	0.970600	0.042300
O81	O8	0.670300	0.332020	0.660500
C81	C8	0.305100	0.470600	0.542300
O91	O9	0.829700	0.832020	0.160500
C91	C9	0.194900	0.970600	0.042300
O101	O10	0.329700	0.332020	0.660500
C101	C10	0.694900	0.470600	0.542300
O111	O11	0.170300	0.667980	0.160500
C111	C11	0.805100	0.529400	0.042300
O121	O12	0.670300	0.167980	0.660500
C121	C12	0.305100	0.029400	0.542300
O131	O13	0.170300	0.332020	0.839500
C131	C13	0.805100	0.470600	0.957700
O141	O14	0.670300	0.832020	0.339500
C141	C14	0.305100	0.970600	0.457700
O151	O15	0.829700	0.167980	0.839500
C151	C15	0.194900	0.029400	0.957700
O161	O16	0.329700	0.667980	0.339500
C161	C16	0.694900	0.529400	0.457700
Al11	Al1	0.250000	0.250000	0.750000
Al21	Al2	0.750000	0.250000	0.750000
Al31	Al3	0.750000	0.750000	0.250000
Al41	Al4	0.250000	0.750000	0.250000
F11	F1	0.000000	0.250000	0.694600
F21	F2	0.500000	0.750000	0.194600
F31	F3	0.000000	0.750000	0.305400
F41	F4	0.500000	0.250000	0.805400
C171	C17	0.000000	0.063200	0.943900
C181	C18	0.000000	0.138800	0.868600
C191	C19	0.500000	0.563200	0.443900
C201	C20	0.500000	0.638800	0.368600
C211	C21	0.000000	0.436800	0.943900
C221	C22	0.000000	0.361200	0.868600
C231	C23	0.500000	0.936800	0.443900
C241	C24	0.500000	0.861200	0.368600
C251	C25	0.000000	0.563200	0.056100
C261	C26	0.000000	0.638800	0.131400
C271	C27	0.500000	0.063200	0.556100
C281	C28	0.500000	0.138800	0.631400
C291	C29	0.000000	0.936800	0.056100
C301	C30	0.000000	0.861200	0.131400
C311	C31	0.500000	0.436800	0.556100
C321	C32	0.500000	0.361200	0.631400
