data_cm503311x_F-mil-53-Al-lp-ortho_freeONLY_PM
_symmetry_space_group_name_H-M	'P1'
_cell_length_a	13.148500
_cell_length_b	16.408000
_cell_length_c	13.344000
_cell_angle_alpha	90.000000
_cell_angle_beta	90.000000
_cell_angle_gamma	90.000000
_symmetry_Int_Tables_number 1

loop_
_symmetry_equiv_pos_as_xyz
'x,y,z'

loop_
_atom_site_label
_atom_site_type_symbol
_atom_site_fract_x
_atom_site_fract_y
_atom_site_fract_z
H11	H1	0.404440	0.457650	0.584130
H21	H2	0.402170	0.578940	0.468990
H31	H3	0.083460	0.541000	0.415060
H41	H4	0.085730	0.419720	0.530180
H51	H5	0.401910	0.079100	0.528700
H61	H6	0.083290	0.040440	0.582430
H71	H7	0.151820	0.078090	0.967140
H81	H8	0.335960	0.918210	0.028650
H91	H9	0.154620	0.956860	0.082330
H101	H10	0.333150	0.039480	0.913520
H111	H11	0.335750	0.418320	0.969180
H121	H12	0.154410	0.456360	0.914970
H131	H13	0.086100	0.919160	0.467310
H141	H14	0.404700	0.957840	0.413540
H151	H15	0.152170	0.577650	0.030070
H161	H16	0.333500	0.539600	0.084310
H171	H17	0.904500	0.457680	0.584150
H181	H18	0.902220	0.578950	0.469000
H191	H19	0.583520	0.541010	0.415060
H201	H20	0.585790	0.419730	0.530180
H211	H21	0.901980	0.079110	0.528680
H221	H22	0.583360	0.040440	0.582430
H231	H23	0.651810	0.078050	0.967080
H241	H24	0.836000	0.918190	0.028600
H251	H25	0.654610	0.956830	0.082280
H261	H26	0.833180	0.039470	0.913490
H271	H27	0.835770	0.418300	0.969190
H281	H28	0.654400	0.456350	0.914990
H291	H29	0.586170	0.919170	0.467310
H301	H30	0.904770	0.957850	0.413520
H311	H31	0.652160	0.577630	0.030110
H321	H32	0.833520	0.539600	0.084310
C11	C1	0.402950	0.020870	0.951030
C21	C2	0.992380	0.065510	0.933810
C31	C3	0.490730	0.137240	0.865120
C41	C4	0.083560	0.542150	0.016380
C51	C5	0.153130	0.522260	0.452690
C61	C6	0.242700	0.566720	0.435540
C71	C7	0.241260	0.638280	0.366600
C81	C8	0.333420	0.043490	0.514820
C91	C9	0.084760	0.475080	0.952660
C101	C10	0.495190	0.430590	0.935590
C111	C11	0.996610	0.359010	0.866670
C121	C12	0.404460	0.953810	0.014760
C131	C13	0.334920	0.976430	0.451090
C141	C14	0.245530	0.931770	0.433920
C151	C15	0.247150	0.860040	0.365250
C161	C16	0.154350	0.455200	0.516420
C171	C17	0.084850	0.975420	0.044740
C181	C18	0.495440	0.930750	0.061930
C191	C19	0.997120	0.859120	0.130770
C201	C20	0.404370	0.453790	0.982930
C211	C21	0.334760	0.476420	0.546540
C221	C22	0.245200	0.431940	0.563650
C231	C23	0.246620	0.360140	0.632220
C241	C24	0.154570	0.954810	0.481120
C251	C25	0.403170	0.520860	0.046660
C261	C26	0.992720	0.565390	0.063670
C271	C27	0.491290	0.637210	0.132240
C281	C28	0.083350	0.042460	0.980990
C291	C29	0.153060	0.021870	0.544840
C301	C30	0.242440	0.066560	0.562000
C311	C31	0.240760	0.138230	0.630760
C321	C32	0.333540	0.543490	0.482810
C331	C33	0.902970	0.020860	0.951020
C341	C34	0.492350	0.065500	0.933790
C351	C35	0.990750	0.137260	0.865160
C361	C36	0.583550	0.542140	0.016400
C371	C37	0.653190	0.522270	0.452700
C381	C38	0.742750	0.566720	0.435540
C391	C39	0.741290	0.638300	0.366620
C401	C40	0.833490	0.043500	0.514820
C411	C41	0.584740	0.475070	0.952680
C421	C42	0.995210	0.430580	0.935600
C431	C43	0.496600	0.359010	0.866660
C441	C44	0.904490	0.953800	0.014740
C451	C45	0.834990	0.976450	0.451080
C461	C46	0.745600	0.931770	0.433910
C471	C47	0.747200	0.860060	0.365220
C481	C48	0.654400	0.455210	0.516420
C491	C49	0.584840	0.975400	0.044710
C501	C50	0.995460	0.930750	0.061930
C511	C51	0.497100	0.859120	0.130780
C521	C52	0.904390	0.453790	0.982940
C531	C53	0.834810	0.476440	0.546560
C541	C54	0.745260	0.431960	0.563670
C551	C55	0.746660	0.360160	0.632250
C561	C56	0.654640	0.954820	0.481120
C571	C57	0.903190	0.520860	0.046660
C581	C58	0.492710	0.565380	0.063690
C591	C59	0.991290	0.637220	0.132210
C601	C60	0.583330	0.042440	0.980950
C611	C61	0.653130	0.021880	0.544830
C621	C62	0.742510	0.066570	0.561990
C631	C63	0.740800	0.138250	0.630740
C641	C64	0.833600	0.543500	0.482820
O11	O1	0.075370	0.172070	0.846580
O21	O2	0.405140	0.658840	0.167220
O31	O3	0.325890	0.673060	0.347940
O41	O4	0.154490	0.159710	0.665610
O51	O5	0.411950	0.324250	0.848010
O61	O6	0.083360	0.837700	0.165760
O71	O7	0.162560	0.825140	0.346790
O81	O8	0.332750	0.338560	0.667280
O91	O9	0.412520	0.824310	0.149490
O101	O10	0.082760	0.337600	0.831500
O111	O11	0.161960	0.325310	0.650590
O121	O12	0.333330	0.838560	0.330200
O131	O13	0.075940	0.672060	0.150590
O141	O14	0.404530	0.158820	0.830220
O151	O15	0.325340	0.173050	0.649500
O161	O16	0.155080	0.659690	0.331480
O171	O17	0.575360	0.172040	0.846530
O181	O18	0.905150	0.658840	0.167210
O191	O19	0.825930	0.673070	0.347930
O201	O20	0.654530	0.159730	0.665570
O211	O21	0.911970	0.324220	0.848060
O221	O22	0.583340	0.837700	0.165760
O231	O23	0.662600	0.825160	0.346780
O241	O24	0.832780	0.338570	0.667330
O251	O25	0.912540	0.824300	0.149460
O261	O26	0.582750	0.337590	0.831510
O271	O27	0.661990	0.325330	0.650600
O281	O28	0.833370	0.838570	0.330160
O291	O29	0.575940	0.672040	0.150640
O301	O30	0.904550	0.158820	0.830240
O311	O31	0.825380	0.173060	0.649510
O321	O32	0.655110	0.659710	0.331520
F11	F1	0.993570	0.249160	0.688690
F21	F2	0.244230	0.748290	0.188730
F31	F3	0.494190	0.749180	0.308610
F41	F4	0.243580	0.248160	0.808590
F51	F5	0.493570	0.249170	0.688670
F61	F6	0.744230	0.748280	0.188730
F71	F7	0.994200	0.749170	0.308590
F81	F8	0.743580	0.248140	0.808600
Al11	Al1	0.118610	0.248670	0.748550
Al21	Al2	0.369210	0.748690	0.248700
Al31	Al3	0.368610	0.248670	0.748730
Al41	Al4	0.119210	0.748680	0.248640
Al51	Al5	0.618620	0.248670	0.748540
Al61	Al6	0.869220	0.748690	0.248680
Al71	Al7	0.868630	0.248670	0.748760
Al81	Al8	0.619220	0.748690	0.248650
