data_cm503311x_alf475K_freeONLY_PM
_symmetry_space_group_name_H-M	'P1'
_cell_length_a	6.568000
_cell_length_b	16.388500
_cell_length_c	13.168200
_cell_angle_alpha	90.000000
_cell_angle_beta	90.000000
_cell_angle_gamma	90.000000
_symmetry_Int_Tables_number 1

loop_
_symmetry_equiv_pos_as_xyz
'x,y,z'

loop_
_atom_site_label
_atom_site_type_symbol
_atom_site_fract_x
_atom_site_fract_y
_atom_site_fract_z
O11	O1	0.169200	0.167410	0.838700
C11	C1	0.808300	0.027700	0.956600
O21	O2	0.669200	0.667410	0.338700
C21	C2	0.308300	0.527700	0.456600
O31	O3	0.830800	0.332590	0.838700
C31	C3	0.191700	0.472300	0.956600
O41	O4	0.330800	0.832590	0.338700
C41	C4	0.691700	0.972300	0.456600
O51	O5	0.830800	0.667410	0.161300
C51	C5	0.191700	0.527700	0.043400
O61	O6	0.330800	0.167410	0.661300
C61	C6	0.691700	0.027700	0.543400
O71	O7	0.169200	0.832590	0.161300
C71	C7	0.808300	0.972300	0.043400
O81	O8	0.669200	0.332590	0.661300
C81	C8	0.308300	0.472300	0.543400
O91	O9	0.830800	0.832590	0.161300
C91	C9	0.191700	0.972300	0.043400
O101	O10	0.330800	0.332590	0.661300
C101	C10	0.691700	0.472300	0.543400
O111	O11	0.169200	0.667410	0.161300
C111	C11	0.808300	0.527700	0.043400
O121	O12	0.669200	0.167410	0.661300
C121	C12	0.308300	0.027700	0.543400
O131	O13	0.169200	0.332590	0.838700
C131	C13	0.808300	0.472300	0.956600
O141	O14	0.669200	0.832590	0.338700
C141	C14	0.308300	0.972300	0.456600
O151	O15	0.830800	0.167410	0.838700
C151	C15	0.191700	0.027700	0.956600
O161	O16	0.330800	0.667410	0.338700
C161	C16	0.691700	0.527700	0.456600
Al11	Al1	0.250000	0.250000	0.750000
Al21	Al2	0.750000	0.250000	0.750000
Al31	Al3	0.750000	0.750000	0.250000
Al41	Al4	0.250000	0.750000	0.250000
F11	F1	0.000000	0.250000	0.693100
F21	F2	0.500000	0.750000	0.193100
F31	F3	0.000000	0.750000	0.306900
F41	F4	0.500000	0.250000	0.806900
C171	C17	0.000000	0.063700	0.945700
C181	C18	0.000000	0.141100	0.875400
C191	C19	0.500000	0.563700	0.445700
C201	C20	0.500000	0.641100	0.375400
C211	C21	0.000000	0.436300	0.945700
C221	C22	0.000000	0.358900	0.875400
C231	C23	0.500000	0.936300	0.445700
C241	C24	0.500000	0.858900	0.375400
C251	C25	0.000000	0.563700	0.054300
C261	C26	0.000000	0.641100	0.124600
C271	C27	0.500000	0.063700	0.554300
C281	C28	0.500000	0.141100	0.624600
C291	C29	0.000000	0.936300	0.054300
C301	C30	0.000000	0.858900	0.124600
C311	C31	0.500000	0.436300	0.554300
C321	C32	0.500000	0.358900	0.624600
