data_cm501138g_si_008_freeONLY_PM
_symmetry_space_group_name_H-M	'P1'
_cell_length_a	18.585800
_cell_length_b	18.585800
_cell_length_c	18.585800
_cell_angle_alpha	60.000000
_cell_angle_beta	60.000000
_cell_angle_gamma	60.000000
_symmetry_Int_Tables_number 1

loop_
_symmetry_equiv_pos_as_xyz
'x,y,z'

loop_
_atom_site_label
_atom_site_type_symbol
_atom_site_fract_x
_atom_site_fract_y
_atom_site_fract_z
Cu11	Cu1	0.569840	0.000000	0.000000
Cu21	Cu2	0.000000	0.430160	0.000000
Cu31	Cu3	0.000000	0.569840	0.000000
Cu41	Cu4	0.430160	0.569840	0.000000
Cu51	Cu5	0.000000	0.430160	0.569840
Cu61	Cu6	0.569840	0.430160	0.000000
Cu71	Cu7	0.430160	0.000000	0.569840
Cu81	Cu8	0.000000	0.000000	0.430160
Cu91	Cu9	0.430160	0.000000	0.000000
Cu101	Cu10	0.569840	0.000000	0.430160
Cu111	Cu11	0.000000	0.000000	0.569840
Cu121	Cu12	0.000000	0.569840	0.430160
H11	H1	0.973000	0.973000	0.743600
H21	H2	0.973000	0.310400	0.973000
H31	H3	0.488300	0.272500	0.272500
H41	H4	0.973000	0.743600	0.973000
H51	H5	0.973000	0.310400	0.743600
H61	H6	0.027000	0.027000	0.689600
H71	H7	0.488300	0.966700	0.272500
H81	H8	0.272500	0.966700	0.272500
H91	H9	0.027000	0.256400	0.689600
H101	H10	0.727500	0.511700	0.033300
H111	H11	0.256400	0.027000	0.027000
H121	H12	0.027000	0.689600	0.256400
H131	H13	0.272500	0.488300	0.966700
H141	H14	0.310400	0.743600	0.973000
H151	H15	0.966700	0.272500	0.272500
H161	H16	0.743600	0.310400	0.973000
H171	H17	0.027000	0.256400	0.027000
H181	H18	0.511700	0.727500	0.033300
H191	H19	0.272500	0.488300	0.272500
H201	H20	0.973000	0.973000	0.310400
H211	H21	0.689600	0.256400	0.027000
H221	H22	0.727500	0.033300	0.511700
H231	H23	0.310400	0.973000	0.743600
H241	H24	0.272500	0.272500	0.488300
H251	H25	0.256400	0.027000	0.689600
H261	H26	0.033300	0.727500	0.727500
H271	H27	0.727500	0.033300	0.727500
H281	H28	0.033300	0.727500	0.511700
H291	H29	0.272500	0.966700	0.488300
H301	H30	0.511700	0.033300	0.727500
H311	H31	0.310400	0.973000	0.973000
H321	H32	0.727500	0.511700	0.727500
H331	H33	0.727500	0.727500	0.511700
H341	H34	0.689600	0.027000	0.256400
H351	H35	0.966700	0.488300	0.272500
H361	H36	0.511700	0.727500	0.727500
H371	H37	0.973000	0.743600	0.310400
H381	H38	0.027000	0.689600	0.027000
H391	H39	0.488300	0.272500	0.966700
H401	H40	0.743600	0.973000	0.973000
H411	H41	0.272500	0.272500	0.966700
H421	H42	0.743600	0.973000	0.310400
H431	H43	0.727500	0.727500	0.033300
H441	H44	0.027000	0.027000	0.256400
H451	H45	0.256400	0.689600	0.027000
H461	H46	0.033300	0.511700	0.727500
H471	H47	0.689600	0.027000	0.027000
H481	H48	0.966700	0.272500	0.488300
C11	C1	0.033140	0.698640	0.698640
C21	C2	0.387580	0.257880	0.966960
C31	C3	0.431370	0.162670	0.974590
C41	C4	0.301360	0.430420	0.301360
C51	C5	0.431370	0.431370	0.974590
C61	C6	0.698640	0.033140	0.698640
C71	C7	0.033040	0.612420	0.742120
C81	C8	0.966960	0.257880	0.387580
C91	C9	0.033040	0.742120	0.612420
C101	C10	0.742120	0.033040	0.612420
C111	C11	0.698640	0.569580	0.033140
C121	C12	0.966960	0.387580	0.387580
C131	C13	0.698640	0.698640	0.033140
C141	C14	0.837330	0.025410	0.568630
C151	C15	0.301360	0.430420	0.966860
C161	C16	0.162670	0.974590	0.431370
C171	C17	0.162670	0.431370	0.431370
C181	C18	0.387580	0.387580	0.257880
C191	C19	0.257880	0.387580	0.966960
C201	C20	0.431370	0.974590	0.162670
C211	C21	0.301360	0.301360	0.966860
C221	C22	0.430420	0.301360	0.966860
C231	C23	0.698640	0.698640	0.569580
C241	C24	0.568630	0.025410	0.837330
C251	C25	0.612420	0.612420	0.033040
C261	C26	0.569580	0.698640	0.698640
C271	C27	0.612420	0.742120	0.612420
C281	C28	0.966860	0.430420	0.301360
C291	C29	0.301360	0.966860	0.430420
C301	C30	0.837330	0.568630	0.568630
C311	C31	0.837330	0.568630	0.025410
C321	C32	0.257880	0.387580	0.387580
C331	C33	0.974590	0.162670	0.431370
C341	C34	0.431370	0.162670	0.431370
C351	C35	0.966960	0.387580	0.257880
C361	C36	0.025410	0.568630	0.837330
C371	C37	0.974590	0.431370	0.431370
C381	C38	0.387580	0.966960	0.387580
C391	C39	0.431370	0.974590	0.431370
C401	C40	0.568630	0.568630	0.837330
C411	C41	0.033140	0.698640	0.569580
C421	C42	0.612420	0.033040	0.742120
C431	C43	0.612420	0.612420	0.742120
C441	C44	0.742120	0.612420	0.033040
C451	C45	0.025410	0.568630	0.568630
C461	C46	0.430420	0.301360	0.301360
C471	C47	0.698640	0.569580	0.698640
C481	C48	0.430420	0.966860	0.301360
C491	C49	0.387580	0.257880	0.387580
C501	C50	0.568630	0.568630	0.025410
C511	C51	0.569580	0.033140	0.698640
C521	C52	0.974590	0.431370	0.162670
C531	C53	0.431370	0.431370	0.162670
C541	C54	0.612420	0.033040	0.612420
C551	C55	0.301360	0.966860	0.301360
C561	C56	0.742120	0.612420	0.612420
C571	C57	0.033140	0.569580	0.698640
C581	C58	0.568630	0.025410	0.568630
C591	C59	0.301360	0.301360	0.430420
C601	C60	0.966860	0.301360	0.430420
C611	C61	0.387580	0.966960	0.257880
C621	C62	0.698640	0.033140	0.569580
C631	C63	0.569580	0.698640	0.033140
C641	C64	0.025410	0.837330	0.568630
C651	C65	0.162670	0.431370	0.974590
C661	C66	0.033040	0.612420	0.612420
C671	C67	0.257880	0.966960	0.387580
C681	C68	0.966860	0.301360	0.301360
C691	C69	0.612420	0.742120	0.033040
C701	C70	0.568630	0.837330	0.568630
C711	C71	0.568630	0.837330	0.025410
C721	C72	0.387580	0.387580	0.966960
O11	O1	0.612570	0.492330	0.873790
O21	O2	0.978690	0.387430	0.126210
O31	O3	0.507670	0.978690	0.126210
O41	O4	0.000000	0.000000	0.308200
O51	O5	0.387430	0.126210	0.978690
O61	O6	0.612570	0.021310	0.873790
O71	O7	0.507670	0.126210	0.978690
O81	O8	0.492330	0.873790	0.612570
O91	O9	0.873790	0.612570	0.492330
O101	O10	0.492330	0.873790	0.021310
O111	O11	0.691800	0.308200	0.000000
O121	O12	0.978690	0.507670	0.126210
O131	O13	0.000000	0.691800	0.000000
O141	O14	0.978690	0.507670	0.387430
O151	O15	0.507670	0.387430	0.126210
O161	O16	0.492330	0.612570	0.873790
O171	O17	0.691800	0.000000	0.000000
O181	O18	0.021310	0.492330	0.873790
O191	O19	0.873790	0.612570	0.021310
O201	O20	0.612570	0.021310	0.492330
O211	O21	0.978690	0.126210	0.507670
O221	O22	0.612570	0.873790	0.021310
O231	O23	0.126210	0.978690	0.387430
O241	O24	0.021310	0.492330	0.612570
O251	O25	0.308200	0.000000	0.691800
O261	O26	0.126210	0.507670	0.387430
O271	O27	0.000000	0.691800	0.308200
O281	O28	0.507670	0.978690	0.387430
O291	O29	0.021310	0.612570	0.873790
O301	O30	0.978690	0.126210	0.387430
O311	O31	0.492330	0.021310	0.612570
O321	O32	0.691800	0.000000	0.308200
O331	O33	0.126210	0.507670	0.978690
O341	O34	0.873790	0.021310	0.492330
O351	O35	0.612570	0.873790	0.492330
O361	O36	0.873790	0.492330	0.612570
O371	O37	0.507670	0.126210	0.387430
O381	O38	0.387430	0.507670	0.126210
O391	O39	0.021310	0.873790	0.612570
O401	O40	0.387430	0.126210	0.507670
O411	O41	0.873790	0.492330	0.021310
O421	O42	0.000000	0.308200	0.691800
O431	O43	0.873790	0.021310	0.612570
O441	O44	0.507670	0.387430	0.978690
O451	O45	0.492330	0.021310	0.873790
O461	O46	0.387430	0.507670	0.978690
O471	O47	0.978690	0.387430	0.507670
O481	O48	0.021310	0.612570	0.492330
O491	O49	0.387430	0.978690	0.507670
O501	O50	0.492330	0.612570	0.021310
O511	O51	0.000000	0.000000	0.691800
O521	O52	0.021310	0.873790	0.492330
O531	O53	0.387430	0.978690	0.126210
O541	O54	0.126210	0.387430	0.978690
O551	O55	0.308200	0.691800	0.000000
O561	O56	0.126210	0.387430	0.507670
O571	O57	0.000000	0.308200	0.000000
O581	O58	0.612570	0.492330	0.021310
O591	O59	0.126210	0.978690	0.507670
O601	O60	0.308200	0.000000	0.000000
