data_cm503311x_alf425K_freeONLY_PM
_symmetry_space_group_name_H-M	'P1'
_cell_length_a	6.568000
_cell_length_b	16.394800
_cell_length_c	13.167700
_cell_angle_alpha	90.000000
_cell_angle_beta	90.000000
_cell_angle_gamma	90.000000
_symmetry_Int_Tables_number 1

loop_
_symmetry_equiv_pos_as_xyz
'x,y,z'

loop_
_atom_site_label
_atom_site_type_symbol
_atom_site_fract_x
_atom_site_fract_y
_atom_site_fract_z
O11	O1	0.170000	0.168020	0.840100
C11	C1	0.806500	0.027100	0.955300
O21	O2	0.670000	0.668020	0.340100
C21	C2	0.306500	0.527100	0.455300
O31	O3	0.830000	0.331980	0.840100
C31	C3	0.193500	0.472900	0.955300
O41	O4	0.330000	0.831980	0.340100
C41	C4	0.693500	0.972900	0.455300
O51	O5	0.830000	0.668020	0.159900
C51	C5	0.193500	0.527100	0.044700
O61	O6	0.330000	0.168020	0.659900
C61	C6	0.693500	0.027100	0.544700
O71	O7	0.170000	0.831980	0.159900
C71	C7	0.806500	0.972900	0.044700
O81	O8	0.670000	0.331980	0.659900
C81	C8	0.306500	0.472900	0.544700
O91	O9	0.830000	0.831980	0.159900
C91	C9	0.193500	0.972900	0.044700
O101	O10	0.330000	0.331980	0.659900
C101	C10	0.693500	0.472900	0.544700
O111	O11	0.170000	0.668020	0.159900
C111	C11	0.806500	0.527100	0.044700
O121	O12	0.670000	0.168020	0.659900
C121	C12	0.306500	0.027100	0.544700
O131	O13	0.170000	0.331980	0.840100
C131	C13	0.806500	0.472900	0.955300
O141	O14	0.670000	0.831980	0.340100
C141	C14	0.306500	0.972900	0.455300
O151	O15	0.830000	0.168020	0.840100
C151	C15	0.193500	0.027100	0.955300
O161	O16	0.330000	0.668020	0.340100
C161	C16	0.693500	0.527100	0.455300
Al11	Al1	0.250000	0.250000	0.750000
Al21	Al2	0.750000	0.250000	0.750000
Al31	Al3	0.750000	0.750000	0.250000
Al41	Al4	0.250000	0.750000	0.250000
F11	F1	0.000000	0.250000	0.693700
F21	F2	0.500000	0.750000	0.193700
F31	F3	0.000000	0.750000	0.306300
F41	F4	0.500000	0.250000	0.806300
C171	C17	0.000000	0.065200	0.949100
C181	C18	0.000000	0.137600	0.866900
C191	C19	0.500000	0.565200	0.449100
C201	C20	0.500000	0.637600	0.366900
C211	C21	0.000000	0.434800	0.949100
C221	C22	0.000000	0.362400	0.866900
C231	C23	0.500000	0.934800	0.449100
C241	C24	0.500000	0.862400	0.366900
C251	C25	0.000000	0.565200	0.050900
C261	C26	0.000000	0.637600	0.133100
C271	C27	0.500000	0.065200	0.550900
C281	C28	0.500000	0.137600	0.633100
C291	C29	0.000000	0.934800	0.050900
C301	C30	0.000000	0.862400	0.133100
C311	C31	0.500000	0.434800	0.550900
C321	C32	0.500000	0.362400	0.633100
