data_cm503311x_alf290K_freeONLY_PM
_symmetry_space_group_name_H-M	'P1'
_cell_length_a	6.564700
_cell_length_b	16.403000
_cell_length_c	13.176200
_cell_angle_alpha	90.000000
_cell_angle_beta	90.000000
_cell_angle_gamma	90.000000
_symmetry_Int_Tables_number 1

loop_
_symmetry_equiv_pos_as_xyz
'x,y,z'

loop_
_atom_site_label
_atom_site_type_symbol
_atom_site_fract_x
_atom_site_fract_y
_atom_site_fract_z
O11	O1	0.169000	0.167860	0.841760
C11	C1	0.806200	0.030500	0.960700
O21	O2	0.669000	0.667860	0.341760
C21	C2	0.306200	0.530500	0.460700
O31	O3	0.831000	0.332140	0.841760
C31	C3	0.193800	0.469500	0.960700
O41	O4	0.331000	0.832140	0.341760
C41	C4	0.693800	0.969500	0.460700
O51	O5	0.831000	0.667860	0.158240
C51	C5	0.193800	0.530500	0.039300
O61	O6	0.331000	0.167860	0.658240
C61	C6	0.693800	0.030500	0.539300
O71	O7	0.169000	0.832140	0.158240
C71	C7	0.806200	0.969500	0.039300
O81	O8	0.669000	0.332140	0.658240
C81	C8	0.306200	0.469500	0.539300
O91	O9	0.831000	0.832140	0.158240
C91	C9	0.193800	0.969500	0.039300
O101	O10	0.331000	0.332140	0.658240
C101	C10	0.693800	0.469500	0.539300
O111	O11	0.169000	0.667860	0.158240
C111	C11	0.806200	0.530500	0.039300
O121	O12	0.669000	0.167860	0.658240
C121	C12	0.306200	0.030500	0.539300
O131	O13	0.169000	0.332140	0.841760
C131	C13	0.806200	0.469500	0.960700
O141	O14	0.669000	0.832140	0.341760
C141	C14	0.306200	0.969500	0.460700
O151	O15	0.831000	0.167860	0.841760
C151	C15	0.193800	0.030500	0.960700
O161	O16	0.331000	0.667860	0.341760
C161	C16	0.693800	0.530500	0.460700
Al11	Al1	0.250000	0.250000	0.750000
Al21	Al2	0.750000	0.250000	0.750000
Al31	Al3	0.750000	0.750000	0.250000
Al41	Al4	0.250000	0.750000	0.250000
F11	F1	0.000000	0.250000	0.690800
F21	F2	0.500000	0.750000	0.190800
F31	F3	0.000000	0.750000	0.309200
F41	F4	0.500000	0.250000	0.809200
C171	C17	0.000000	0.061800	0.946300
C181	C18	0.000000	0.137900	0.871600
C191	C19	0.500000	0.561800	0.446300
C201	C20	0.500000	0.637900	0.371600
C211	C21	0.000000	0.438200	0.946300
C221	C22	0.000000	0.362100	0.871600
C231	C23	0.500000	0.938200	0.446300
C241	C24	0.500000	0.862100	0.371600
C251	C25	0.000000	0.561800	0.053700
C261	C26	0.000000	0.637900	0.128400
C271	C27	0.500000	0.061800	0.553700
C281	C28	0.500000	0.137900	0.628400
C291	C29	0.000000	0.938200	0.053700
C301	C30	0.000000	0.862100	0.128400
C311	C31	0.500000	0.438200	0.553700
C321	C32	0.500000	0.362100	0.628400
