data_cm503311x_aloh350K_freeONLY_PM
_symmetry_space_group_name_H-M	'P1'
_cell_length_a	6.629100
_cell_length_b	16.745700
_cell_length_c	12.809900
_cell_angle_alpha	90.000000
_cell_angle_beta	90.000000
_cell_angle_gamma	90.000000
_symmetry_Int_Tables_number 1

loop_
_symmetry_equiv_pos_as_xyz
'x,y,z'

loop_
_atom_site_label
_atom_site_type_symbol
_atom_site_fract_x
_atom_site_fract_y
_atom_site_fract_z
O11	O1	0.166230	0.167740	0.843580
C11	C1	0.808500	0.035160	0.967000
O21	O2	0.666230	0.667740	0.343580
C21	C2	0.308500	0.535160	0.467000
O31	O3	0.833770	0.332260	0.843580
C31	C3	0.191500	0.464840	0.967000
O41	O4	0.333770	0.832260	0.343580
C41	C4	0.691500	0.964840	0.467000
O51	O5	0.833770	0.667740	0.156420
C51	C5	0.191500	0.535160	0.033000
O61	O6	0.333770	0.167740	0.656420
C61	C6	0.691500	0.035160	0.533000
O71	O7	0.166230	0.832260	0.156420
C71	C7	0.808500	0.964840	0.033000
O81	O8	0.666230	0.332260	0.656420
C81	C8	0.308500	0.464840	0.533000
O91	O9	0.833770	0.832260	0.156420
C91	C9	0.191500	0.964840	0.033000
O101	O10	0.333770	0.332260	0.656420
C101	C10	0.691500	0.464840	0.533000
O111	O11	0.166230	0.667740	0.156420
C111	C11	0.808500	0.535160	0.033000
O121	O12	0.666230	0.167740	0.656420
C121	C12	0.308500	0.035160	0.533000
O131	O13	0.166230	0.332260	0.843580
C131	C13	0.808500	0.464840	0.967000
O141	O14	0.666230	0.832260	0.343580
C141	C14	0.308500	0.964840	0.467000
O151	O15	0.833770	0.167740	0.843580
C151	C15	0.191500	0.035160	0.967000
O161	O16	0.333770	0.667740	0.343580
C161	C16	0.691500	0.535160	0.467000
Al11	Al1	0.250000	0.250000	0.750000
Al21	Al2	0.750000	0.250000	0.750000
Al31	Al3	0.750000	0.750000	0.250000
Al41	Al4	0.250000	0.750000	0.250000
O171	O17	0.000000	0.250000	0.684600
O181	O18	0.500000	0.750000	0.184600
O191	O19	0.000000	0.750000	0.315400
O201	O20	0.500000	0.250000	0.815400
C171	C17	0.000000	0.061900	0.945700
C181	C18	0.000000	0.138500	0.870800
C191	C19	0.500000	0.561900	0.445700
C201	C20	0.500000	0.638500	0.370800
C211	C21	0.000000	0.438100	0.945700
C221	C22	0.000000	0.361500	0.870800
C231	C23	0.500000	0.938100	0.445700
C241	C24	0.500000	0.861500	0.370800
C251	C25	0.000000	0.561900	0.054300
C261	C26	0.000000	0.638500	0.129200
C271	C27	0.500000	0.061900	0.554300
C281	C28	0.500000	0.138500	0.629200
C291	C29	0.000000	0.938100	0.054300
C301	C30	0.000000	0.861500	0.129200
C311	C31	0.500000	0.438100	0.554300
C321	C32	0.500000	0.361500	0.629200
