data_COCNAL_freeONLY_PM
_symmetry_space_group_name_H-M	'P1'
_cell_length_a	32.020800
_cell_length_b	32.020800
_cell_length_c	32.020800
_cell_angle_alpha	109.471000
_cell_angle_beta	109.471000
_cell_angle_gamma	109.471000
_symmetry_Int_Tables_number 1

loop_
_symmetry_equiv_pos_as_xyz
'x,y,z'

loop_
_atom_site_label
_atom_site_type_symbol
_atom_site_fract_x
_atom_site_fract_y
_atom_site_fract_z
Cd11	Cd1	0.000000	0.500000	0.371660
Cd21	Cd2	0.000000	0.500000	0.871660
Cd31	Cd3	0.500000	0.871660	0.500000
Cd41	Cd4	0.500000	0.000000	0.000000
Cd51	Cd5	0.371660	0.371660	0.871660
Cd61	Cd6	0.500000	0.128340	0.500000
Cd71	Cd7	0.000000	0.000000	0.500000
Cd81	Cd8	0.000000	0.500000	0.628340
Cd91	Cd9	0.500000	0.500000	0.500000
Cd101	Cd10	0.628340	0.628340	0.128340
Cd111	Cd11	0.871660	0.871660	0.371660
Cd121	Cd12	0.371660	0.000000	0.000000
Cd131	Cd13	0.128340	0.128340	0.628340
Cd141	Cd14	0.500000	0.500000	0.000000
Cd151	Cd15	0.128340	0.000000	0.000000
Cd161	Cd16	0.500000	0.000000	0.500000
Cd171	Cd17	0.628340	0.000000	0.000000
Cd181	Cd18	0.000000	0.500000	0.000000
Cd191	Cd19	0.000000	0.500000	0.500000
Cd201	Cd20	0.871660	0.000000	0.000000
Cd211	Cd21	0.500000	0.371660	0.500000
Cd221	Cd22	0.000000	0.500000	0.128340
Cd231	Cd23	0.000000	0.000000	0.000000
Cd241	Cd24	0.500000	0.628340	0.500000
Si11	Si1	0.250000	0.375000	0.125000
Si21	Si2	0.625000	0.375000	0.250000
Si31	Si3	0.875000	0.125000	0.750000
Si41	Si4	0.125000	0.875000	0.250000
Si51	Si5	0.375000	0.625000	0.750000
Si61	Si6	0.625000	0.250000	0.875000
Si71	Si7	0.750000	0.625000	0.875000
Si81	Si8	0.750000	0.125000	0.375000
Si91	Si9	0.875000	0.750000	0.625000
Si101	Si10	0.375000	0.750000	0.125000
Si111	Si11	0.125000	0.250000	0.375000
Si121	Si12	0.250000	0.875000	0.625000
H11	H1	0.956300	0.665100	0.553200
H21	H2	0.403100	0.446800	0.111900
H31	H3	0.418900	0.697500	0.332000
H41	H4	0.622600	0.815500	0.674500
H51	H5	0.359000	0.051900	0.174500
H61	H6	0.808600	0.134300	0.203100
H71	H7	0.152100	0.286000	0.834900
H81	H8	0.859000	0.684500	0.307100
H91	H9	0.714000	0.665100	0.347900
H101	H10	0.184700	0.958200	0.051700
H111	H11	0.214000	0.347900	0.665100
H121	H12	0.948000	0.606200	0.349200
H131	H13	0.458200	0.773500	0.406500
H141	H14	0.134000	0.022900	0.834500
H151	H15	0.208700	0.616000	0.978100
H161	H16	0.521900	0.730600	0.137900
H171	H17	0.721400	0.086900	0.918900
H181	H18	0.106200	0.658200	0.757000
H191	H19	0.791200	0.456300	0.403100
H201	H20	0.641200	0.569200	0.846000
H211	H21	0.888100	0.834900	0.791200
H221	H22	0.120500	0.794800	0.273900
H231	H23	0.552000	0.650800	0.393800
H241	H24	0.867000	0.815300	0.273500
H251	H25	0.825700	0.691400	0.394500
H261	H26	0.913100	0.332000	0.634500
H271	H27	0.834500	0.522900	0.134000
H281	H28	0.652100	0.834900	0.286000
H291	H29	0.308600	0.105500	0.674300
H301	H30	0.825700	0.134300	0.931200
H311	H31	0.668000	0.802500	0.581100
H321	H32	0.406500	0.133000	0.448300
H331	H33	0.022900	0.334500	0.634000
H341	H34	0.334900	0.946800	0.543700
H351	H35	0.431200	0.825700	0.634300
H361	H36	0.568800	0.394500	0.703100
H371	H37	0.377400	0.192900	0.551900
H381	H38	0.796900	0.365700	0.191400
H391	H39	0.808600	0.674300	0.105500
H401	H40	0.192900	0.051900	0.877400
H411	H41	0.726500	0.684700	0.133000
H421	H42	0.158200	0.552000	0.401200
H431	H43	0.081100	0.413100	0.278600
H441	H44	0.611100	0.634000	0.299500
H451	H45	0.137900	0.907300	0.116000
H461	H46	0.307100	0.184500	0.859000
H471	H47	0.366100	0.652100	0.317200
H481	H48	0.846600	0.726100	0.520900
H491	H49	0.703100	0.894500	0.568800
H501	H50	0.154000	0.223200	0.295200
H511	H51	0.208700	0.592700	0.730600
H521	H52	0.866100	0.317200	0.652100
H531	H53	0.413100	0.778600	0.581100
H541	H54	0.096900	0.888100	0.553200
H551	H55	0.192900	0.141000	0.815500
H561	H56	0.388100	0.791200	0.834900
H571	H57	0.930800	0.858800	0.654000
H581	H58	0.325700	0.931200	0.134300
H591	H59	0.586900	0.365500	0.668000
H601	H60	0.786000	0.133900	0.951100
H611	H61	0.052000	0.658200	0.901200
H621	H62	0.021900	0.137900	0.730600
H631	H63	0.051900	0.674500	0.859000
H641	H64	0.243000	0.401200	0.849200
H651	H65	0.448000	0.349200	0.606200
H661	H66	0.068800	0.703100	0.394500
H671	H67	0.691400	0.894500	0.325700
H681	H68	0.807100	0.859000	0.184500
H691	H69	0.366000	0.200500	0.888900
H701	H70	0.346600	0.825700	0.120500
H711	H71	0.665100	0.611900	0.708800
H721	H72	0.296900	0.105500	0.431200
H731	H73	0.332000	0.197500	0.418900
H741	H74	0.174300	0.865700	0.068800
H751	H75	0.191400	0.325700	0.894500
H761	H76	0.581100	0.302500	0.668000
H771	H77	0.122600	0.674500	0.815500
H781	H78	0.315500	0.122600	0.174500
H791	H79	0.769400	0.791300	0.907300
H801	H80	0.948100	0.325500	0.141000
H811	H81	0.105500	0.174300	0.808600
H821	H82	0.226100	0.346600	0.020900
H831	H83	0.548900	0.214000	0.366100
H841	H84	0.168000	0.581100	0.802500
H851	H85	0.802500	0.721400	0.134500
H861	H86	0.674500	0.359000	0.551900
H871	H87	0.111100	0.811600	0.977100
H881	H88	0.154000	0.930800	0.358800
H891	H89	0.841800	0.393800	0.743000
H901	H90	0.569200	0.346000	0.141200
H911	H91	0.778600	0.697500	0.365500
H921	H92	0.106200	0.448000	0.849200
H931	H93	0.325500	0.684500	0.377400
H941	H94	0.799500	0.188400	0.165500
H951	H95	0.153400	0.879500	0.174300
H961	H96	0.384000	0.862100	0.592700
H971	H97	0.204800	0.358800	0.428000
H981	H98	0.133000	0.184700	0.726500
H991	H99	0.223200	0.795200	0.654000
H1001	H100	0.859000	0.174500	0.051900
H1011	H101	0.928000	0.723200	0.569200
H1021	H102	0.446800	0.611900	0.903100
H1031	H103	0.317200	0.165100	0.451100
H1041	H104	0.865500	0.086900	0.168000
H1051	H105	0.520900	0.226100	0.846600
H1061	H106	0.708800	0.596900	0.543700
H1071	H107	0.158200	0.606200	0.257000
H1081	H108	0.825500	0.377400	0.684500
H1091	H109	0.658200	0.257000	0.606200
H1101	H110	0.122600	0.448100	0.807100
H1111	H111	0.294800	0.620500	0.773900
H1121	H112	0.377400	0.184500	0.325500
H1131	H113	0.569200	0.223200	0.928000
H1141	H114	0.165100	0.951100	0.817200
H1151	H115	0.641000	0.692900	0.315500
H1161	H116	0.341800	0.743000	0.393800
H1171	H117	0.606200	0.757000	0.658200
H1181	H118	0.150800	0.098800	0.757000
H1191	H119	0.141200	0.295200	0.072000
H1201	H120	0.847900	0.714000	0.165100
H1211	H121	0.315500	0.192900	0.641000
H1221	H122	0.174300	0.794800	0.520900
H1231	H123	0.276800	0.930800	0.572000
H1241	H124	0.948000	0.341800	0.098800
H1251	H125	0.708700	0.730600	0.592700
H1261	H126	0.134300	0.703100	0.308600
H1271	H127	0.757000	0.598800	0.150800
H1281	H128	0.428000	0.858800	0.204800
H1291	H129	0.674300	0.068800	0.865700
H1301	H130	0.317200	0.152100	0.366100
H1311	H131	0.134500	0.221400	0.802500
H1321	H132	0.214000	0.866100	0.048900
H1331	H133	0.948300	0.406500	0.633000
H1341	H134	0.394500	0.203100	0.068800
H1351	H135	0.165500	0.688400	0.799500
H1361	H136	0.930800	0.072000	0.776800
H1371	H137	0.269400	0.907300	0.791300
H1381	H138	0.133900	0.451100	0.286000
H1391	H139	0.907300	0.291300	0.769400
H1401	H140	0.205200	0.226100	0.379500
H1411	H141	0.273500	0.315300	0.867000
H1421	H142	0.948300	0.541800	0.815300
H1431	H143	0.205200	0.979100	0.325700
H1441	H144	0.757000	0.158200	0.106200
H1451	H145	0.541800	0.226500	0.593500
H1461	H146	0.150800	0.052000	0.893800
H1471	H147	0.111900	0.946800	0.403100
H1481	H148	0.043700	0.708800	0.096900
H1491	H149	0.358800	0.430800	0.154000
H1501	H150	0.052000	0.393800	0.650800
H1511	H151	0.866100	0.548900	0.714000
H1521	H152	0.221400	0.302500	0.634500
H1531	H153	0.072000	0.276800	0.430800
H1541	H154	0.134000	0.111100	0.799500
H1551	H155	0.551700	0.367000	0.593500
H1561	H156	0.448100	0.307100	0.622600
H1571	H157	0.637900	0.521900	0.230600
H1581	H158	0.347900	0.182800	0.133900
H1591	H159	0.849200	0.948000	0.106200
H1601	H160	0.221400	0.918900	0.086900
H1611	H161	0.846000	0.069200	0.641200
H1621	H162	0.478100	0.269400	0.862100
H1631	H163	0.367000	0.093500	0.051700
H1641	H164	0.773900	0.120500	0.294800
H1651	H165	0.634300	0.308600	0.703100
H1661	H166	0.230600	0.208700	0.092700
H1671	H167	0.477100	0.366000	0.665500
H1681	H168	0.286000	0.951100	0.133900
H1691	H169	0.553200	0.165100	0.956300
H1701	H170	0.572000	0.430800	0.276800
H1711	H171	0.086900	0.668000	0.365500
H1721	H172	0.703100	0.808600	0.634300
H1731	H173	0.611100	0.977100	0.811600
H1741	H174	0.418900	0.721400	0.586900
H1751	H175	0.174300	0.379500	0.153400
H1761	H176	0.184700	0.226500	0.633000
H1771	H177	0.359000	0.307100	0.684500
H1781	H178	0.362100	0.478100	0.769400
H1791	H179	0.865700	0.568800	0.674300
H1801	H180	0.403100	0.956300	0.791200
H1811	H181	0.092700	0.384000	0.362100
H1821	H182	0.721400	0.634500	0.302500
H1831	H183	0.616000	0.137900	0.407300
H1841	H184	0.315300	0.367000	0.773500
H1851	H185	0.137900	0.230600	0.521900
H1861	H186	0.393800	0.150800	0.552000
H1871	H187	0.650800	0.893800	0.052000
H1881	H188	0.866000	0.888900	0.200500
H1891	H189	0.705200	0.325700	0.979100
H1901	H190	0.334900	0.182800	0.048900
H1911	H191	0.448300	0.815300	0.541800
H1921	H192	0.448300	0.633000	0.406500
H1931	H193	0.668000	0.865500	0.586900
H1941	H194	0.634000	0.834500	0.022900
H1951	H195	0.120500	0.325700	0.346600
H1961	H196	0.665100	0.053200	0.456300
H1971	H197	0.105500	0.931200	0.796900
H1981	H198	0.278600	0.913100	0.081100
H1991	H199	0.688400	0.388900	0.522900
H2001	H200	0.684700	0.633000	0.226500
H2011	H201	0.611900	0.403100	0.946800
H2021	H202	0.620500	0.273900	0.794800
H2031	H203	0.977100	0.665500	0.366000
H2041	H204	0.043700	0.334900	0.446800
H2051	H205	0.802500	0.081100	0.168000
H2061	H206	0.888900	0.700500	0.366000
H2071	H207	0.708700	0.978100	0.616000
H2081	H208	0.948100	0.622600	0.307100
H2091	H209	0.807100	0.948100	0.122600
H2101	H210	0.362100	0.884000	0.092700
H2111	H211	0.658200	0.401200	0.552000
H2121	H212	0.022900	0.688400	0.888900
H2131	H213	0.841800	0.448000	0.598800
H2141	H214	0.551900	0.692900	0.377400
H2151	H215	0.188400	0.665500	0.299500
H2161	H216	0.315300	0.948300	0.041800
H2171	H217	0.197500	0.278600	0.865500
H2181	H218	0.020900	0.846600	0.226100
H2191	H219	0.743000	0.849200	0.401200
H2201	H220	0.446800	0.834900	0.043700
H2211	H221	0.291200	0.403100	0.456300
H2221	H222	0.388900	0.366000	0.700500
H2231	H223	0.606200	0.849200	0.448000
H2241	H224	0.325700	0.846600	0.620500
H2251	H225	0.634000	0.799500	0.111100
H2261	H226	0.633000	0.726500	0.184700
H2271	H227	0.021900	0.884000	0.791300
H2281	H228	0.846600	0.120500	0.825700
H2291	H229	0.811600	0.477100	0.611100
H2301	H230	0.366000	0.165500	0.977100
H2311	H231	0.200500	0.811600	0.834500
H2321	H232	0.168000	0.586900	0.865500
H2331	H233	0.165100	0.708800	0.611900
H2341	H234	0.365700	0.691400	0.296900
H2351	H235	0.521900	0.791300	0.884000
H2361	H236	0.684700	0.051700	0.958200
H2371	H237	0.817200	0.366100	0.152100
H2381	H238	0.815300	0.041800	0.948300
H2391	H239	0.325500	0.641000	0.448100
H2401	H240	0.203100	0.568800	0.894500
H2411	H241	0.451100	0.665100	0.317200
H2421	H242	0.134500	0.913100	0.832000
H2431	H243	0.358800	0.928000	0.704800
H2441	H244	0.951100	0.633900	0.786000
H2451	H245	0.230600	0.021900	0.637900
H2461	H246	0.654000	0.295200	0.223200
H2471	H247	0.879500	0.205200	0.726100
H2481	H248	0.165100	0.214000	0.847900
H2491	H249	0.346000	0.704800	0.776800
H2501	H250	0.858800	0.704800	0.928000
H2511	H251	0.674300	0.605500	0.308600
H2521	H252	0.407300	0.769400	0.291300
H2531	H253	0.188400	0.522900	0.388900
H2541	H254	0.888100	0.053200	0.596900
H2551	H255	0.858800	0.154000	0.430800
H2561	H256	0.273900	0.979100	0.653400
H2571	H257	0.799500	0.611100	0.134000
H2581	H258	0.291300	0.021900	0.384000
H2591	H259	0.688400	0.299500	0.665500
H2601	H260	0.174500	0.551900	0.359000
H2611	H261	0.294800	0.674300	0.020900
H2621	H262	0.847900	0.133900	0.182800
H2631	H263	0.654000	0.358800	0.930800
H2641	H264	0.956300	0.291200	0.903100
H2651	H265	0.622600	0.807100	0.448100
H2661	H266	0.257000	0.106200	0.158200
H2671	H267	0.815300	0.773500	0.367000
H2681	H268	0.448000	0.098800	0.341800
H2691	H269	0.918900	0.586900	0.721400
H2701	H270	0.596900	0.043700	0.208800
H2711	H271	0.413100	0.634500	0.332000
H2721	H272	0.894500	0.068800	0.203100
H2731	H273	0.346000	0.641200	0.069200
H2741	H274	0.641000	0.948100	0.825500
H2751	H275	0.311600	0.611100	0.477100
H2761	H276	0.958200	0.551700	0.684700
H2771	H277	0.111100	0.299500	0.634000
H2781	H278	0.203100	0.634300	0.808600
H2791	H279	0.907300	0.616000	0.637900
H2801	H280	0.553200	0.388100	0.096900
H2811	H281	0.616000	0.478100	0.708700
H2821	H282	0.478100	0.208700	0.116000
H2831	H283	0.650800	0.757000	0.098800
H2841	H284	0.311600	0.700500	0.334500
H2851	H285	0.430800	0.776800	0.072000
H2861	H286	0.593500	0.726500	0.541800
H2871	H287	0.226500	0.093500	0.041800
H2881	H288	0.893800	0.552000	0.150800
H2891	H289	0.366100	0.714000	0.548900
H2901	H290	0.674300	0.520900	0.794800
H2911	H291	0.866000	0.977100	0.165500
H2921	H292	0.334500	0.134000	0.522900
H2931	H293	0.811600	0.334500	0.700500
H2941	H294	0.796900	0.431200	0.105500
H2951	H295	0.825700	0.620500	0.846600
H2961	H296	0.291200	0.888100	0.334900
H2971	H297	0.081100	0.668000	0.302500
H2981	H298	0.133000	0.948300	0.906500
H2991	H299	0.593500	0.867000	0.551700
H3001	H300	0.184500	0.359000	0.807100
H3011	H301	0.674500	0.315500	0.622600
H3021	H302	0.520900	0.294800	0.174300
H3031	H303	0.276800	0.346000	0.204800
H3041	H304	0.286000	0.334900	0.652100
H3051	H305	0.072000	0.795200	0.141200
H3061	H306	0.572000	0.141200	0.795200
H3071	H307	0.243000	0.841800	0.893800
H3081	H308	0.456300	0.553200	0.665100
H3091	H309	0.093500	0.551700	0.867000
H3101	H310	0.708800	0.111900	0.665100
H3111	H311	0.184500	0.825500	0.877400
H3121	H312	0.096900	0.208800	0.043700
H3131	H313	0.053200	0.956300	0.165100
H3141	H314	0.543700	0.446800	0.334900
H3151	H315	0.794800	0.020900	0.674300
H3161	H316	0.653400	0.174300	0.879500
H3171	H317	0.334900	0.152100	0.786000
H3181	H318	0.697500	0.865500	0.278600
H3191	H319	0.041800	0.593500	0.226500
H3201	H320	0.884000	0.592700	0.862100
H3211	H321	0.174300	0.308600	0.605500
H3221	H322	0.069200	0.928000	0.223200
H3231	H323	0.918900	0.332000	0.697500
H3241	H324	0.700500	0.834500	0.811600
H3251	H325	0.906500	0.448300	0.133000
H3261	H326	0.901200	0.158200	0.052000
H3271	H327	0.951100	0.317200	0.665100
H3281	H328	0.278600	0.365500	0.697500
H3291	H329	0.379500	0.726100	0.205200
H3301	H330	0.174500	0.622600	0.315500
H3311	H331	0.605500	0.796900	0.931200
H3321	H332	0.153400	0.273900	0.479100
H3331	H333	0.048900	0.366100	0.214000
H3341	H334	0.092700	0.708700	0.230600
H3351	H335	0.051900	0.377400	0.692900
H3361	H336	0.133900	0.682800	0.347900
H3371	H337	0.684500	0.877400	0.825500
H3381	H338	0.641200	0.072000	0.295200
H3391	H339	0.552000	0.901200	0.658200
H3401	H340	0.879500	0.674300	0.653400
H3411	H341	0.347900	0.165100	0.714000
H3421	H342	0.791200	0.334900	0.888100
H3431	H343	0.592700	0.362100	0.384000
H3441	H344	0.367000	0.273500	0.815300
H3451	H345	0.776800	0.204800	0.346000
H3461	H346	0.665100	0.847900	0.214000
H3471	H347	0.299500	0.134000	0.611100
H3481	H348	0.522900	0.888900	0.688400
H3491	H349	0.773900	0.653400	0.979100
H3501	H350	0.682800	0.834900	0.548900
H3511	H351	0.834900	0.291200	0.388100
H3521	H352	0.325700	0.394500	0.691400
H3531	H353	0.226500	0.133000	0.684700
H3541	H354	0.846000	0.776800	0.704800
H3551	H355	0.273900	0.294800	0.120500
H3561	H356	0.586900	0.221400	0.418900
H3571	H357	0.726100	0.020900	0.346600
H3581	H358	0.456300	0.903100	0.291200
H3591	H359	0.691400	0.796900	0.865700
H3601	H360	0.401200	0.349200	0.743000
H3611	H361	0.817200	0.451100	0.165100
H3621	H362	0.893800	0.341800	0.243000
H3631	H363	0.634300	0.325700	0.431200
H3641	H364	0.388100	0.596900	0.053200
H3651	H365	0.726100	0.705200	0.879500
H3661	H366	0.479100	0.773900	0.153400
H3671	H367	0.730600	0.637900	0.021900
H3681	H368	0.295200	0.723200	0.154000
H3691	H369	0.791300	0.407300	0.269400
H3701	H370	0.723200	0.654000	0.795200
H3711	H371	0.208800	0.665100	0.111900
H3721	H372	0.825500	0.448100	0.641000
H3731	H373	0.182800	0.633900	0.847900
H3741	H374	0.906500	0.458200	0.273500
H3751	H375	0.815500	0.641000	0.192900
H3761	H376	0.165500	0.477100	0.866000
H3771	H377	0.152100	0.866100	0.817200
H3781	H378	0.791300	0.384000	0.021900
H3791	H379	0.332000	0.134500	0.413100
H3801	H380	0.598800	0.948000	0.841800
H3811	H381	0.543700	0.096900	0.708800
H3821	H382	0.832000	0.418900	0.197500
H3831	H383	0.652100	0.817200	0.866100
H3841	H384	0.776800	0.572000	0.930800
H3851	H385	0.307100	0.122600	0.948100
H3861	H386	0.977100	0.311600	0.111100
H3871	H387	0.257000	0.150800	0.598800
H3881	H388	0.086900	0.418900	0.221400
H3891	H389	0.479100	0.705200	0.825700
H3901	H390	0.384000	0.521900	0.291300
H3911	H391	0.273500	0.958200	0.906500
H3921	H392	0.832000	0.413100	0.134500
H3931	H393	0.794800	0.773900	0.620500
H3941	H394	0.041800	0.448300	0.315300
H3951	H395	0.611900	0.208800	0.165100
H3961	H396	0.291300	0.269400	0.407300
H3971	H397	0.451100	0.786000	0.633900
H3981	H398	0.349200	0.243000	0.901200
H3991	H399	0.834900	0.786000	0.152100
H4001	H400	0.778600	0.081100	0.913100
H4011	H401	0.692900	0.815500	0.141000
H4021	H402	0.834500	0.311600	0.200500
H4031	H403	0.834900	0.543700	0.946800
H4041	H404	0.141000	0.315500	0.692900
H4051	H405	0.903100	0.791200	0.956300
H4061	H406	0.867000	0.051700	0.093500
H4071	H407	0.634500	0.832000	0.913100
H4081	H408	0.165100	0.456300	0.053200
H4091	H409	0.365700	0.674300	0.568800
H4101	H410	0.620500	0.346600	0.325700
H4111	H411	0.825700	0.205200	0.479100
H4121	H412	0.862100	0.769400	0.478100
H4131	H413	0.141200	0.846000	0.569200
H4141	H414	0.978100	0.116000	0.208700
H4151	H415	0.407300	0.637900	0.616000
H4161	H416	0.388900	0.022900	0.188400
H4171	H417	0.430800	0.654000	0.858800
H4181	H418	0.551700	0.184700	0.458200
H4191	H419	0.223200	0.428000	0.069200
H4201	H420	0.665100	0.817200	0.951100
H4211	H421	0.903100	0.111900	0.446800
H4221	H422	0.406500	0.273500	0.458200
H4231	H423	0.299500	0.165500	0.188400
H4241	H424	0.477100	0.111100	0.311600
H4251	H425	0.704800	0.276800	0.846000
H4261	H426	0.191400	0.865700	0.796900
H4271	H427	0.428000	0.569200	0.723200
H4281	H428	0.051700	0.458200	0.184700
H4291	H429	0.682800	0.847900	0.633900
H4301	H430	0.325700	0.479100	0.205200
H4311	H431	0.302500	0.168000	0.081100
H4321	H432	0.296900	0.191400	0.365700
H4331	H433	0.365500	0.168000	0.086900
H4341	H434	0.633000	0.906500	0.948300
H4351	H435	0.653400	0.479100	0.273900
H4361	H436	0.913100	0.581100	0.778600
H4371	H437	0.795200	0.641200	0.572000
H4381	H438	0.815500	0.174500	0.122600
H4391	H439	0.208800	0.543700	0.596900
H4401	H440	0.705200	0.379500	0.226100
H4411	H441	0.849200	0.901200	0.243000
H4421	H442	0.795200	0.154000	0.723200
H4431	H443	0.302500	0.134500	0.721400
H4441	H444	0.295200	0.572000	0.641200
H4451	H445	0.098800	0.257000	0.650800
H4461	H446	0.458200	0.684700	0.551700
H4471	H447	0.111900	0.165100	0.208800
H4481	H448	0.204800	0.846000	0.276800
H4491	H449	0.931200	0.634300	0.825700
H4501	H450	0.334500	0.200500	0.311600
H4511	H451	0.393800	0.243000	0.341800
H4521	H452	0.069200	0.141200	0.346000
H4531	H453	0.665500	0.866000	0.477100
H4541	H454	0.692900	0.877400	0.051900
H4551	H455	0.051700	0.593500	0.367000
H4561	H456	0.743000	0.893800	0.841800
H4571	H457	0.877400	0.325500	0.184500
H4581	H458	0.596900	0.553200	0.888100
H4591	H459	0.901200	0.743000	0.349200
H4601	H460	0.946800	0.903100	0.611900
H4611	H461	0.773500	0.906500	0.958200
H4621	H462	0.116000	0.407300	0.137900
H4631	H463	0.269400	0.362100	0.978100
H4641	H464	0.093500	0.541800	0.726500
H4651	H465	0.197500	0.918900	0.832000
H4661	H466	0.048900	0.682800	0.334900
H4671	H467	0.308600	0.203100	0.134300
H4681	H468	0.633900	0.347900	0.682800
H4691	H469	0.068800	0.365700	0.174300
H4701	H470	0.431200	0.605500	0.296900
H4711	H471	0.958200	0.406500	0.773500
H4721	H472	0.723200	0.069200	0.428000
H4731	H473	0.448100	0.141000	0.325500
H4741	H474	0.979100	0.825700	0.705200
H4751	H475	0.116000	0.708700	0.478100
H4761	H476	0.697500	0.832000	0.918900
H4771	H477	0.365500	0.197500	0.778600
H4781	H478	0.401200	0.052000	0.158200
H4791	H479	0.346600	0.520900	0.726100
H4801	H480	0.684500	0.807100	0.359000
H4811	H481	0.786000	0.652100	0.334900
H4821	H482	0.862100	0.092700	0.884000
H4831	H483	0.568800	0.174300	0.365700
H4841	H484	0.379500	0.653400	0.674300
H4851	H485	0.548900	0.334900	0.682800
H4861	H486	0.877400	0.551900	0.192900
H4871	H487	0.979100	0.153400	0.773900
H4881	H488	0.394500	0.191400	0.825700
H4891	H489	0.978100	0.862100	0.269400
H4901	H490	0.605500	0.808600	0.174300
H4911	H491	0.714000	0.048900	0.866100
H4921	H492	0.634500	0.802500	0.221400
H4931	H493	0.674300	0.153400	0.379500
H4941	H494	0.931200	0.296900	0.605500
H4951	H495	0.700500	0.866000	0.388900
H4961	H496	0.884000	0.291300	0.521900
H4971	H497	0.726500	0.041800	0.093500
H4981	H498	0.769400	0.978100	0.362100
H4991	H499	0.592700	0.230600	0.708700
H5001	H500	0.053200	0.096900	0.388100
H5011	H501	0.551900	0.859000	0.674500
H5021	H502	0.141000	0.825500	0.948100
H5031	H503	0.182800	0.548900	0.834900
H5041	H504	0.341800	0.598800	0.448000
H5051	H505	0.633900	0.286000	0.451100
H5061	H506	0.730600	0.092700	0.208700
H5071	H507	0.522900	0.634000	0.334500
H5081	H508	0.541800	0.315300	0.448300
H5091	H509	0.888900	0.188400	0.022900
H5101	H510	0.865700	0.296900	0.691400
H5111	H511	0.865500	0.778600	0.197500
H5121	H512	0.598800	0.650800	0.257000
H5131	H513	0.349200	0.106200	0.948000
H5141	H514	0.226100	0.879500	0.705200
H5151	H515	0.704800	0.428000	0.358800
H5161	H516	0.020900	0.174300	0.294800
H5171	H517	0.134300	0.431200	0.325700
H5181	H518	0.334900	0.388100	0.291200
H5191	H519	0.098800	0.841800	0.948000
H5201	H520	0.834900	0.048900	0.182800
H5211	H521	0.928000	0.204800	0.858800
H5221	H522	0.200500	0.388900	0.866000
H5231	H523	0.581100	0.278600	0.413100
H5241	H524	0.637900	0.116000	0.907300
H5251	H525	0.946800	0.043700	0.834900
H5261	H526	0.773500	0.867000	0.315300
H5271	H527	0.894500	0.825700	0.191400
H5281	H528	0.665500	0.799500	0.688400
C11	C1	0.834600	0.071400	0.981200
C21	C2	0.092980	0.926050	0.366910
C31	C3	0.039740	0.867160	0.262340
C41	C4	0.777660	0.659610	0.576270
C51	C5	0.672580	0.132840	0.395180
C61	C6	0.633090	0.059140	0.226070
C71	C7	0.564330	0.405590	0.364700
C81	C8	0.672580	0.539740	0.777400
C91	C9	0.083340	0.923730	0.201390
C101	C10	0.135300	0.699630	0.540890
C111	C11	0.400380	0.612930	0.705010
C121	C12	0.598620	0.085190	0.453710
C131	C13	0.631100	0.788600	0.662900
C141	C14	0.485850	0.773820	0.861930
C151	C15	0.459110	0.658740	0.094410
C161	C16	0.013430	0.098620	0.144910
C171	C17	0.387070	0.592080	0.787450
C181	C18	0.162900	0.631100	0.288600
C191	C19	0.300370	0.341260	0.435670
C201	C20	0.277660	0.701390	0.118050
C211	C21	0.333070	0.926050	0.559140
C221	C22	0.665400	0.646600	0.236800
C231	C23	0.635300	0.094410	0.435670
C241	C24	0.985850	0.123920	0.712030
C251	C25	0.923730	0.701390	0.583340
C261	C26	0.571400	0.334600	0.481200
C271	C27	0.226180	0.588110	0.712030
C281	C28	0.887070	0.787450	0.592080
C291	C29	0.071400	0.481200	0.334600
C301	C30	0.423730	0.840390	0.222340
C311	C31	0.864700	0.564330	0.905590
C321	C32	0.395180	0.762340	0.222600
C331	C33	0.273820	0.287970	0.411890
C341	C34	0.907920	0.794990	0.695370
C351	C35	0.073950	0.133090	0.407020
C361	C36	0.166930	0.726070	0.592980
C371	C37	0.900380	0.705010	0.612930
C381	C38	0.914810	0.868520	0.513430
C391	C39	0.355090	0.986570	0.401380
C401	C40	0.123920	0.911890	0.138070
C411	C41	0.337100	0.625700	0.468200
C421	C42	0.277400	0.672580	0.039740
C431	C43	0.088110	0.361930	0.376080
C441	C44	0.825600	0.441600	0.137800
C451	C45	0.514150	0.226180	0.138070
C461	C46	0.968200	0.337100	0.125700
C471	C47	0.895180	0.672580	0.632840
C481	C48	0.773930	0.440860	0.366910
C491	C49	0.131480	0.986570	0.585190
C501	C50	0.368900	0.157500	0.531800
C511	C51	0.059140	0.333070	0.426050
C521	C52	0.046290	0.401380	0.414810
C531	C53	0.166930	0.440860	0.073950
C541	C54	0.376080	0.861930	0.088110
C551	C55	0.407020	0.633090	0.073950
C561	C56	0.303800	0.362200	0.687800
C571	C57	0.612930	0.205010	0.900380
C581	C58	0.085190	0.131480	0.486570
C591	C59	0.401380	0.914810	0.546290
C601	C60	0.040890	0.905590	0.341260
C611	C61	0.631480	0.046290	0.144910
C621	C62	0.928600	0.518800	0.665400
C631	C63	0.327420	0.460260	0.222600
C641	C64	0.187800	0.303800	0.862200
C651	C65	0.159610	0.277660	0.076270
C661	C66	0.866910	0.092980	0.426050
C671	C67	0.726180	0.014150	0.638070
C681	C68	0.834600	0.763200	0.353400
C691	C69	0.623920	0.485850	0.212030
C701	C70	0.158740	0.959110	0.594410
C711	C71	0.367160	0.827420	0.104820
C721	C72	0.800370	0.435670	0.341260
C731	C73	0.907020	0.833070	0.773930
C741	C74	0.226070	0.666930	0.092980
C751	C75	0.400380	0.787450	0.195370
C761	C76	0.263200	0.928600	0.909800
C771	C77	0.058400	0.674400	0.362200
C781	C78	0.273930	0.907020	0.333070
C791	C79	0.137800	0.941600	0.825600
C801	C80	0.874300	0.162900	0.031800
C811	C81	0.644910	0.013430	0.598620
C821	C82	0.812200	0.696200	0.137800
C831	C83	0.144910	0.546290	0.631480
C841	C84	0.701390	0.083340	0.423730
C851	C85	0.518800	0.165400	0.428600
C861	C86	0.135300	0.435670	0.094410
C871	C87	0.294990	0.887070	0.599620
C881	C88	0.592080	0.287450	0.887070
C891	C89	0.726070	0.633090	0.559140
C901	C90	0.355090	0.368520	0.453710
C911	C91	0.440860	0.573950	0.666930
C921	C92	0.812200	0.116000	0.174400
C931	C93	0.674400	0.862200	0.558400
C941	C94	0.133090	0.226070	0.059140
C951	C95	0.841260	0.040890	0.405590
C961	C96	0.013430	0.914810	0.368520
C971	C97	0.085190	0.953710	0.098620
C981	C98	0.722340	0.423730	0.340390
C991	C99	0.658740	0.064330	0.199630
C1001	C100	0.592080	0.304630	0.205010
C1011	C101	0.911890	0.638070	0.623920
C1021	C102	0.342500	0.211400	0.874300
C1031	C103	0.205010	0.804630	0.592080
C1041	C104	0.695370	0.294990	0.907920
C1051	C105	0.594410	0.459110	0.158740
C1061	C106	0.277400	0.604820	0.737660
C1071	C107	0.353400	0.263200	0.834600
C1081	C108	0.098620	0.644910	0.513430
C1091	C109	0.666930	0.592980	0.726070
C1101	C110	0.112930	0.900380	0.205010
C1111	C111	0.712550	0.612930	0.907920
C1121	C112	0.631100	0.842500	0.468200
C1131	C113	0.583340	0.201390	0.923730
C1141	C114	0.088110	0.726180	0.212030
C1151	C115	0.928600	0.409800	0.763200
C1161	C116	0.726070	0.092980	0.666930
C1171	C117	0.428600	0.665400	0.518800
C1181	C118	0.585190	0.486570	0.131480
C1191	C119	0.133090	0.907020	0.573950
C1201	C120	0.705010	0.112930	0.400380
C1211	C121	0.353400	0.090200	0.018800
C1221	C122	0.262340	0.367160	0.039740
C1231	C123	0.468200	0.342500	0.631100
C1241	C124	0.599620	0.387070	0.294990
C1251	C125	0.513430	0.368520	0.914810
C1261	C126	0.094410	0.935670	0.135300
C1271	C127	0.635300	0.540890	0.699630
C1281	C128	0.687800	0.862200	0.303800
C1291	C129	0.273930	0.366910	0.440860
C1301	C130	0.737660	0.104820	0.277400
C1311	C131	0.513430	0.144910	0.098620
C1321	C132	0.131480	0.144910	0.046290
C1331	C133	0.118050	0.916660	0.340390
C1341	C134	0.262340	0.895180	0.722600
C1351	C135	0.867160	0.104820	0.827420
C1361	C136	0.092980	0.166930	0.226070
C1371	C137	0.116000	0.674400	0.312200
C1381	C138	0.416660	0.798610	0.076270
C1391	C139	0.172580	0.777400	0.539740
C1401	C140	0.416660	0.618050	0.840390
C1411	C141	0.803800	0.687800	0.362200
C1421	C142	0.146600	0.981200	0.909800
C1431	C143	0.312200	0.174400	0.116000
C1441	C144	0.876080	0.787970	0.514150
C1451	C145	0.325600	0.187800	0.384000
C1461	C146	0.138070	0.726180	0.514150
C1471	C147	0.428600	0.763200	0.409800
C1481	C148	0.411890	0.623920	0.638070
C1491	C149	0.159610	0.881950	0.583340
C1501	C150	0.362200	0.174400	0.058400
C1511	C151	0.711400	0.868900	0.837100
C1521	C152	0.277660	0.576270	0.659610
C1531	C153	0.696200	0.637800	0.312200
C1541	C154	0.327420	0.867160	0.604820
C1551	C155	0.460260	0.722600	0.827420
C1561	C156	0.909800	0.428600	0.263200
C1571	C157	0.158740	0.199630	0.064330
C1581	C158	0.222600	0.960260	0.327420
C1591	C159	0.981200	0.409800	0.646600
C1601	C160	0.573950	0.407020	0.133090
C1611	C161	0.298610	0.916660	0.576270
C1621	C162	0.014150	0.876080	0.287970
C1631	C163	0.546290	0.414810	0.401380
C1641	C164	0.633090	0.573950	0.907020
C1651	C165	0.407920	0.712550	0.112930
C1661	C166	0.773820	0.411890	0.287970
C1671	C167	0.426050	0.592980	0.866910
C1681	C168	0.798610	0.576270	0.916660
C1691	C169	0.341260	0.405590	0.040890
C1701	C170	0.531800	0.874300	0.662900
C1711	C171	0.435670	0.594410	0.635300
C1721	C172	0.018800	0.428600	0.165400
C1731	C173	0.137800	0.196200	0.812200
C1741	C174	0.853400	0.018800	0.090200
C1751	C175	0.773930	0.333070	0.907020
C1761	C176	0.588110	0.212030	0.726180
C1771	C177	0.825600	0.384000	0.187800
C1781	C178	0.631480	0.585190	0.986570
C1791	C179	0.625700	0.657500	0.288600
C1801	C180	0.222340	0.340390	0.423730
C1811	C181	0.076270	0.777660	0.159610
C1821	C182	0.985850	0.861930	0.773820
C1831	C183	0.638070	0.514150	0.726180
C1841	C184	0.118050	0.201390	0.277660
C1851	C185	0.362200	0.187800	0.803800
C1861	C186	0.287450	0.387070	0.092080
C1871	C187	0.325600	0.137800	0.441600
C1881	C188	0.981200	0.571400	0.834600
C1891	C189	0.468200	0.125700	0.337100
C1901	C190	0.959110	0.094410	0.658740
C1911	C191	0.762340	0.722600	0.895180
C1921	C192	0.583340	0.381950	0.159610
C1931	C193	0.573950	0.166930	0.940860
C1941	C194	0.222340	0.881950	0.298610
C1951	C195	0.868900	0.531800	0.157500
C1961	C196	0.592980	0.226070	0.166930
C1971	C197	0.368900	0.211400	0.337100
C1981	C198	0.827420	0.604820	0.867160
C1991	C199	0.855090	0.401380	0.986570
C2001	C200	0.940860	0.273930	0.866910
C2011	C201	0.881950	0.798610	0.722340
C2021	C202	0.787970	0.014150	0.376080
C2031	C203	0.435670	0.841260	0.300370
C2041	C204	0.014150	0.138070	0.226180
C2051	C205	0.632840	0.460260	0.237660
C2061	C206	0.662900	0.374300	0.531800
C2071	C207	0.381950	0.659610	0.083340
C2081	C208	0.659610	0.076270	0.277660
C2091	C209	0.935670	0.300370	0.841260
C2101	C210	0.172580	0.395180	0.132840
C2111	C211	0.132840	0.895180	0.172580
C2121	C212	0.236800	0.090200	0.071400
C2131	C213	0.374300	0.031800	0.162900
C2141	C214	0.453710	0.868520	0.355090
C2151	C215	0.273820	0.985850	0.361930
C2161	C216	0.558400	0.362200	0.674400
C2171	C217	0.798610	0.222340	0.381950
C2181	C218	0.407020	0.773930	0.833070
C2191	C219	0.876080	0.088110	0.861930
C2201	C220	0.788600	0.162900	0.131100
C2211	C221	0.901380	0.546290	0.914810
C2221	C222	0.712030	0.088110	0.226180
C2231	C223	0.300370	0.959110	0.364700
C2241	C224	0.384000	0.696200	0.558400
C2251	C225	0.585190	0.098620	0.953710
C2261	C226	0.657500	0.868900	0.031800
C2271	C227	0.777400	0.039740	0.672580
C2281	C228	0.199630	0.635300	0.040890
C2291	C229	0.287970	0.911890	0.773820
C2301	C230	0.662900	0.288600	0.631100
C2311	C231	0.196200	0.312200	0.637800
C2321	C232	0.514150	0.287970	0.876080
C2331	C233	0.414810	0.513430	0.868520
C2341	C234	0.659610	0.583340	0.881950
C2351	C235	0.953710	0.598620	0.585190
C2361	C236	0.800370	0.364700	0.959110
C2371	C237	0.039740	0.172580	0.277400
C2381	C238	0.303800	0.941600	0.116000
C2391	C239	0.558400	0.196200	0.384000
C2401	C240	0.031800	0.662900	0.874300
C2411	C241	0.940860	0.666930	0.573950
C2421	C242	0.083340	0.159610	0.381950
C2431	C243	0.125700	0.837100	0.968200
C2441	C244	0.803800	0.116000	0.941600
C2451	C245	0.788600	0.625700	0.157500
C2461	C246	0.132840	0.237660	0.460260
C2471	C247	0.195370	0.907920	0.294990
C2481	C248	0.840390	0.722340	0.923730
C2491	C249	0.711400	0.842500	0.374300
C2501	C250	0.862200	0.058400	0.174400
C2511	C251	0.916660	0.840390	0.618050
C2521	C252	0.539740	0.262340	0.867160
C2531	C253	0.212030	0.985850	0.623920
C2541	C254	0.590200	0.736800	0.571400
C2551	C255	0.201390	0.777660	0.618050
C2561	C256	0.722600	0.327420	0.960260
C2571	C257	0.787450	0.092080	0.387070
C2581	C258	0.405590	0.540890	0.841260
C2591	C259	0.099620	0.294990	0.387070
C2601	C260	0.174400	0.616000	0.812200
C2611	C261	0.604820	0.367160	0.327420
C2621	C262	0.364700	0.905590	0.564330
C2631	C263	0.288600	0.131100	0.162900
C2641	C264	0.381950	0.722340	0.798610
C2651	C265	0.905590	0.064330	0.864700
C2661	C266	0.334600	0.981200	0.071400
C2671	C267	0.090200	0.571400	0.736800
C2681	C268	0.625700	0.968200	0.837100
C2691	C269	0.441600	0.637800	0.325600
C2701	C270	0.941600	0.616000	0.803800
C2711	C271	0.212030	0.226180	0.088110
C2721	C272	0.665400	0.018800	0.928600
C2731	C273	0.777400	0.737660	0.604820
C2741	C274	0.623920	0.138070	0.911890
C2751	C275	0.486570	0.631480	0.085190
C2761	C276	0.576270	0.159610	0.777660
C2771	C277	0.341260	0.935670	0.800370
C2781	C278	0.411890	0.787970	0.273820
C2791	C279	0.146600	0.165400	0.736800
C2801	C280	0.618050	0.277660	0.201390
C2811	C281	0.211400	0.374300	0.842500
C2821	C282	0.460260	0.737660	0.132840
C2831	C283	0.657500	0.788600	0.125700
C2841	C284	0.367160	0.539740	0.762340
C2851	C285	0.564330	0.158740	0.699630
C2861	C286	0.018800	0.590200	0.353400
C2871	C287	0.855090	0.453710	0.368520
C2881	C288	0.064330	0.364700	0.405590
C2891	C289	0.914810	0.046290	0.901380
C2901	C290	0.123920	0.212030	0.485850
C2911	C291	0.777660	0.118050	0.701390
C2921	C292	0.773820	0.361930	0.985850
C2931	C293	0.696200	0.058400	0.884000
C2941	C294	0.926050	0.866910	0.592980
C2951	C295	0.986570	0.901380	0.855090
C2961	C296	0.174400	0.558400	0.862200
C2971	C297	0.762340	0.039740	0.367160
C2981	C298	0.405590	0.864700	0.064330
C2991	C299	0.071400	0.590200	0.236800
C3001	C300	0.094410	0.158740	0.459110
C3011	C301	0.342500	0.131100	0.968200
C3021	C302	0.073950	0.940860	0.166930
C3031	C303	0.368520	0.414810	0.013430
C3041	C304	0.298610	0.381950	0.222340
C3051	C305	0.364700	0.459110	0.300370
C3061	C306	0.726180	0.712030	0.588110
C3071	C307	0.116000	0.441600	0.303800
C3081	C308	0.481200	0.646600	0.409800
C3091	C309	0.287970	0.376080	0.014150
C3101	C310	0.804630	0.092080	0.705010
C3111	C311	0.409800	0.146600	0.481200
C3121	C312	0.165400	0.928600	0.018800
C3131	C313	0.841260	0.800370	0.935670
C3141	C314	0.288600	0.157500	0.625700
C3151	C315	0.953710	0.355090	0.868520
C3161	C316	0.226070	0.559140	0.633090
C3171	C317	0.374300	0.342500	0.711400
C3181	C318	0.712030	0.623920	0.985850
C3191	C319	0.387070	0.794990	0.099620
C3201	C320	0.827420	0.222600	0.460260
C3211	C321	0.199630	0.564330	0.658740
C3221	C322	0.518800	0.353400	0.590200
C3231	C323	0.590200	0.853400	0.518800
C3241	C324	0.616000	0.303800	0.441600
C3251	C325	0.968200	0.631100	0.342500
C3261	C326	0.794990	0.599620	0.887070
C3271	C327	0.935670	0.635300	0.594410
C3281	C328	0.366910	0.426050	0.092980
C3291	C329	0.909800	0.481200	0.146600
C3301	C330	0.638070	0.123920	0.411890
C3311	C331	0.916660	0.076270	0.798610
C3321	C332	0.092080	0.205010	0.304630
C3331	C333	0.559140	0.426050	0.333070
C3341	C334	0.485850	0.712030	0.123920
C3351	C335	0.559140	0.133090	0.726070
C3361	C336	0.576270	0.416660	0.298610
C3371	C337	0.546290	0.131480	0.644910
C3381	C338	0.804630	0.712550	0.599620
C3391	C339	0.763200	0.853400	0.334600
C3401	C340	0.104820	0.777400	0.237660
C3411	C341	0.592980	0.366910	0.926050
C3421	C342	0.294990	0.407920	0.195370
C3431	C343	0.763200	0.909800	0.928600
C3441	C344	0.911890	0.273820	0.787970
C3451	C345	0.125700	0.288600	0.657500
C3461	C346	0.616000	0.312200	0.674400
C3471	C347	0.868520	0.855090	0.953710
C3481	C348	0.340390	0.923730	0.722340
C3491	C349	0.162900	0.531800	0.374300
C3501	C350	0.884000	0.325600	0.687800
C3511	C351	0.861930	0.588110	0.876080
C3521	C352	0.923730	0.222340	0.840390
C3531	C353	0.165400	0.236800	0.646600
C3541	C354	0.864700	0.300370	0.459110
C3551	C355	0.833070	0.559140	0.926050
C3561	C356	0.695370	0.400380	0.287450
C3571	C357	0.481200	0.834600	0.571400
C3581	C358	0.637800	0.812200	0.196200
C3591	C359	0.531800	0.657500	0.368900
C3601	C360	0.867160	0.762340	0.539740
C3611	C361	0.632840	0.172580	0.895180
C3621	C362	0.842500	0.968200	0.131100
C3631	C363	0.423730	0.583340	0.701390
C3641	C364	0.699630	0.040890	0.635300
C3651	C365	0.594410	0.135300	0.935670
C3661	C366	0.304630	0.705010	0.092080
C3671	C367	0.157500	0.125700	0.788600
C3681	C368	0.211400	0.837100	0.868900
C3691	C369	0.368520	0.953710	0.855090
C3701	C370	0.736800	0.071400	0.090200
C3711	C371	0.334600	0.353400	0.763200
C3721	C372	0.064330	0.699630	0.158740
C3731	C373	0.941600	0.325600	0.637800
C3741	C374	0.861930	0.273820	0.485850
C3751	C375	0.881950	0.083340	0.659610
C3761	C376	0.099620	0.804630	0.212550
C3771	C377	0.666930	0.073950	0.440860
C3781	C378	0.887070	0.099620	0.794990
C3791	C379	0.361930	0.876080	0.588110
C3801	C380	0.588110	0.376080	0.361930
C3811	C381	0.407920	0.695370	0.794990
C3821	C382	0.337100	0.711400	0.368900
C3831	C383	0.226180	0.638070	0.014150
C3841	C384	0.604820	0.237660	0.777400
C3851	C385	0.787450	0.695370	0.900380
C3861	C386	0.960260	0.132840	0.737660
C3871	C387	0.059140	0.726070	0.133090
C3881	C388	0.868520	0.013430	0.414810
C3891	C389	0.237660	0.277400	0.104820
C3901	C390	0.131100	0.468200	0.842500
C3911	C391	0.076270	0.298610	0.416660
C3921	C392	0.212550	0.304630	0.099620
C3931	C393	0.842500	0.874300	0.211400
C3941	C394	0.205010	0.400380	0.112930
C3951	C395	0.868900	0.337100	0.211400
C3961	C396	0.599620	0.212550	0.804630
C3971	C397	0.058400	0.384000	0.196200
C3981	C398	0.874300	0.711400	0.342500
C3991	C399	0.866910	0.773930	0.940860
C4001	C400	0.453710	0.585190	0.598620
C4011	C401	0.304630	0.599620	0.712550
C4021	C402	0.907020	0.073950	0.633090
C4031	C403	0.907920	0.112930	0.712550
C4041	C404	0.414810	0.901380	0.046290
C4051	C405	0.986570	0.085190	0.631480
C4061	C406	0.840390	0.118050	0.416660
C4071	C407	0.098620	0.453710	0.085190
C4081	C408	0.959110	0.864700	0.800370
C4091	C409	0.837100	0.368900	0.711400
C4101	C410	0.598620	0.513430	0.644910
C4111	C411	0.794990	0.195370	0.407920
C4121	C412	0.090200	0.518800	0.853400
C4131	C413	0.705010	0.592080	0.804630
C4141	C414	0.376080	0.514150	0.787970
C4151	C415	0.138070	0.411890	0.123920
C4161	C416	0.687800	0.825600	0.884000
C4171	C417	0.196200	0.884000	0.058400
C4181	C418	0.287450	0.900380	0.695370
C4191	C419	0.701390	0.618050	0.777660
C4201	C420	0.853400	0.834600	0.263200
C4211	C421	0.440860	0.866910	0.273930
C4221	C422	0.895180	0.222600	0.762340
C4231	C423	0.540890	0.199630	0.135300
C4241	C424	0.960260	0.827420	0.722600
C4251	C425	0.222600	0.262340	0.395180
C4261	C426	0.031800	0.368900	0.657500
C4271	C427	0.644910	0.631480	0.546290
C4281	C428	0.737660	0.632840	0.960260
C4291	C429	0.395180	0.632840	0.672580
C4301	C430	0.187800	0.884000	0.825600
C4311	C431	0.674400	0.812200	0.616000
C4321	C432	0.104820	0.327420	0.367160
C4331	C433	0.046290	0.644910	0.131480
C4341	C434	0.722340	0.298610	0.881950
C4351	C435	0.441600	0.803800	0.616000
C4361	C436	0.333070	0.407020	0.273930
C4371	C437	0.862200	0.803800	0.187800
C4381	C438	0.237660	0.960260	0.632840
C4391	C439	0.409800	0.263200	0.428600
C4401	C440	0.833070	0.273930	0.407020
C4411	C441	0.459110	0.800370	0.864700
C4421	C442	0.901380	0.355090	0.486570
C4431	C443	0.837100	0.468200	0.625700
C4441	C444	0.900380	0.195370	0.787450
C4451	C445	0.157500	0.031800	0.868900
C4461	C446	0.658740	0.594410	0.959110
C4471	C447	0.040890	0.135300	0.199630
C4481	C448	0.571400	0.236800	0.590200
C4491	C449	0.699630	0.658740	0.564330
C4501	C450	0.712550	0.099620	0.304630
C4511	C451	0.340390	0.416660	0.118050
C4521	C452	0.540890	0.341260	0.905590
C4531	C453	0.212550	0.907920	0.612930
C4541	C454	0.426050	0.833070	0.059140
C4551	C455	0.884000	0.558400	0.696200
C4561	C456	0.131100	0.662900	0.788600
C4571	C457	0.401380	0.486570	0.355090
C4581	C458	0.486570	0.855090	0.901380
C4591	C459	0.312200	0.137800	0.696200
C4601	C460	0.736800	0.665400	0.146600
C4611	C461	0.384000	0.687800	0.325600
C4621	C462	0.618050	0.340390	0.916660
C4631	C463	0.612930	0.407920	0.212550
C4641	C464	0.361930	0.485850	0.273820
C4651	C465	0.236800	0.146600	0.665400
C4661	C466	0.195370	0.287450	0.400380
C4671	C467	0.646600	0.736800	0.165400
C4681	C468	0.539740	0.277400	0.172580
C4691	C469	0.112930	0.212550	0.407920
C4701	C470	0.646600	0.909800	0.981200
C4711	C471	0.787970	0.773820	0.911890
C4721	C472	0.366910	0.940860	0.773930
C4731	C473	0.263200	0.334600	0.853400
C4741	C474	0.201390	0.423730	0.083340
C4751	C475	0.722600	0.395180	0.262340
C4761	C476	0.637800	0.825600	0.941600
C4771	C477	0.926050	0.059140	0.833070
C4781	C478	0.144910	0.598620	0.013430
C4791	C479	0.905590	0.841260	0.540890
C4801	C480	0.092080	0.887070	0.287450
N11	N1	0.035230	0.082450	0.118400
N21	N2	0.074630	0.003860	0.553910
N31	N3	0.077620	0.615550	0.463030
N41	N4	0.521760	0.406030	0.452730
N51	N5	0.479280	0.925370	0.429230
N61	N6	0.881600	0.417550	0.964770
N71	N7	0.569030	0.953300	0.547270
N81	N8	0.583170	0.035950	0.118400
N91	N9	0.849800	0.834700	0.220500
N101	N10	0.349800	0.220500	0.834700
N111	N11	0.370700	0.220500	0.385800
N121	N12	0.349800	0.129300	0.015100
N131	N13	0.422380	0.885410	0.537930
N141	N14	0.615730	0.021760	0.069030
N151	N15	0.547220	0.082450	0.964050
N161	N16	0.115550	0.577620	0.963030
N171	N17	0.446090	0.949950	0.020720
N181	N18	0.416830	0.452780	0.035230
N191	N19	0.537930	0.385410	0.422380
N201	N20	0.118400	0.582450	0.035230
N211	N21	0.930970	0.478240	0.384270
N221	N22	0.952780	0.916830	0.535230
N231	N23	0.047220	0.083170	0.464770
N241	N24	0.884270	0.953300	0.406030
N251	N25	0.496140	0.070770	0.050050
N261	N26	0.152520	0.115550	0.037930
N271	N27	0.115550	0.537930	0.652520
N281	N28	0.449950	0.946090	0.520720
N291	N29	0.906030	0.021760	0.952730
N301	N30	0.093970	0.115730	0.546700
N311	N31	0.884450	0.422380	0.036970
N321	N32	0.614590	0.077620	0.962070
N331	N33	0.037930	0.422380	0.385410
N341	N34	0.083170	0.964770	0.547220
N351	N35	0.720500	0.849800	0.334700
N361	N36	0.077620	0.462070	0.114590
N371	N37	0.165300	0.279500	0.650200
N381	N38	0.550050	0.053910	0.479280
N391	N39	0.449950	0.503860	0.429230
N401	N40	0.553910	0.503860	0.074630
N411	N41	0.884270	0.930970	0.978240
N421	N42	0.537930	0.152520	0.615550
N431	N43	0.114200	0.484900	0.334700
N441	N44	0.150200	0.165300	0.779500
N451	N45	0.535950	0.452780	0.417550
N461	N46	0.520720	0.446090	0.449950
N471	N47	0.021760	0.569030	0.115730
N481	N48	0.083170	0.118400	0.035950
N491	N49	0.984900	0.614200	0.834700
N501	N50	0.150200	0.984900	0.870700
N511	N51	0.885800	0.370700	0.720500
N521	N52	0.385410	0.463030	0.847480
N531	N53	0.978240	0.430970	0.884270
N541	N54	0.964050	0.582450	0.547220
N551	N55	0.385800	0.665300	0.515100
N561	N56	0.582450	0.535230	0.618400
N571	N57	0.484900	0.834700	0.614200
N581	N58	0.520720	0.074630	0.570770
N591	N59	0.535230	0.118400	0.082450
N601	N60	0.629300	0.849800	0.515100
N611	N61	0.885410	0.037930	0.922380
N621	N62	0.925370	0.996140	0.446090
N631	N63	0.515100	0.349800	0.629300
N641	N64	0.446090	0.496140	0.925370
N651	N65	0.021760	0.452730	0.406030
N661	N66	0.881600	0.464050	0.416830
N671	N67	0.885800	0.515100	0.665300
N681	N68	0.452780	0.535230	0.916830
N691	N69	0.279500	0.150200	0.665300
N701	N70	0.535950	0.083170	0.618400
N711	N71	0.952780	0.035950	0.917550
N721	N72	0.847480	0.884450	0.962070
N731	N73	0.963030	0.077620	0.115550
N741	N74	0.503860	0.574630	0.053910
N751	N75	0.953300	0.047270	0.069030
N761	N76	0.929230	0.479280	0.425370
N771	N77	0.870700	0.484900	0.150200
N781	N78	0.334700	0.984900	0.114200
N791	N79	0.484900	0.650200	0.370700
N801	N80	0.593970	0.047270	0.978240
N811	N81	0.082450	0.618400	0.535230
N821	N82	0.279500	0.129300	0.114200
N831	N83	0.536970	0.884450	0.922380
N841	N84	0.953300	0.906030	0.384270
N851	N85	0.046700	0.093970	0.615730
N861	N86	0.429230	0.425370	0.479280
N871	N87	0.384270	0.406030	0.953300
N881	N88	0.115730	0.046700	0.593970
N891	N89	0.452730	0.546700	0.430970
N901	N90	0.129300	0.515100	0.849800
N911	N91	0.952730	0.430970	0.546700
N921	N92	0.053910	0.074630	0.503860
N931	N93	0.220500	0.885800	0.870700
N941	N94	0.003860	0.053910	0.574630
N951	N95	0.015100	0.385800	0.165300
N961	N96	0.381600	0.964770	0.417550
N971	N97	0.615730	0.593970	0.046700
N981	N98	0.036970	0.922380	0.884450
N991	N99	0.115730	0.069030	0.021760
N1001	N100	0.925370	0.929230	0.979280
N1011	N101	0.570770	0.574630	0.520720
N1021	N102	0.779500	0.665300	0.150200
N1031	N103	0.129300	0.614200	0.779500
N1041	N104	0.916830	0.035230	0.452780
N1051	N105	0.665300	0.650200	0.279500
N1061	N106	0.569030	0.615730	0.521760
N1071	N107	0.152520	0.036970	0.614590
N1081	N108	0.546700	0.930970	0.952730
N1091	N109	0.652520	0.037930	0.115550
N1101	N110	0.930970	0.452730	0.046700
N1111	N111	0.917550	0.381600	0.464770
N1121	N112	0.917550	0.535950	0.952780
N1131	N113	0.979280	0.429230	0.925370
N1141	N114	0.834700	0.114200	0.984900
N1151	N115	0.453300	0.069030	0.047270
N1161	N116	0.464770	0.881600	0.917550
N1171	N117	0.922380	0.537930	0.885410
N1181	N118	0.536970	0.652520	0.114590
N1191	N119	0.996140	0.050050	0.070770
N1201	N120	0.870700	0.385800	0.220500
N1211	N121	0.422380	0.536970	0.384450
N1221	N122	0.406030	0.952730	0.021760
N1231	N123	0.053910	0.979280	0.050050
N1241	N124	0.996140	0.946090	0.425370
N1251	N125	0.462070	0.614590	0.577620
N1261	N126	0.047270	0.569030	0.453300
N1271	N127	0.429230	0.003860	0.449950
N1281	N128	0.047270	0.478240	0.093970
N1291	N129	0.984900	0.370700	0.650200
N1301	N130	0.535230	0.416830	0.952780
N1311	N131	0.577620	0.463030	0.615550
N1321	N132	0.906030	0.884270	0.453300
N1331	N133	0.614200	0.334700	0.484900
N1341	N134	0.922380	0.384450	0.536970
N1351	N135	0.521760	0.115730	0.569030
N1361	N136	0.546700	0.615730	0.093970
N1371	N137	0.050050	0.479280	0.053910
N1381	N138	0.037930	0.615550	0.152520
N1391	N139	0.615550	0.652520	0.537930
N1401	N140	0.779500	0.114200	0.129300
N1411	N141	0.978240	0.547270	0.593970
N1421	N142	0.082450	0.464050	0.047220
N1431	N143	0.496140	0.425370	0.946090
N1441	N144	0.430970	0.384270	0.478240
N1451	N145	0.118400	0.535950	0.583170
N1461	N146	0.574630	0.553910	0.003860
N1471	N147	0.963030	0.885410	0.347480
N1481	N148	0.884450	0.462070	0.347480
N1491	N149	0.952730	0.521760	0.906030
N1501	N150	0.962070	0.384450	0.847480
N1511	N151	0.964050	0.381600	0.916830
N1521	N152	0.003860	0.949950	0.929230
N1531	N153	0.347480	0.962070	0.884450
N1541	N154	0.547220	0.464770	0.083170
N1551	N155	0.165300	0.885800	0.015100
N1561	N156	0.478240	0.884270	0.430970
N1571	N157	0.847480	0.963030	0.385410
N1581	N158	0.381600	0.416830	0.464050
N1591	N159	0.114590	0.152520	0.536970
N1601	N160	0.479280	0.553910	0.550050
N1611	N161	0.385800	0.720500	0.370700
N1621	N162	0.962070	0.577620	0.614590
N1631	N163	0.015100	0.629300	0.349800
N1641	N164	0.946090	0.925370	0.496140
N1651	N165	0.035950	0.417550	0.452780
N1661	N166	0.618400	0.035230	0.582450
N1671	N167	0.885410	0.847480	0.463030
N1681	N168	0.334700	0.349800	0.720500
N1691	N169	0.849800	0.015100	0.129300
N1701	N170	0.929230	0.449950	0.003860
N1711	N171	0.916830	0.881600	0.964050
N1721	N172	0.220500	0.334700	0.849800
N1731	N173	0.582450	0.047220	0.464050
N1741	N174	0.946090	0.020720	0.949950
N1751	N175	0.650200	0.870700	0.984900
N1761	N176	0.964770	0.047220	0.583170
N1771	N177	0.035950	0.618400	0.083170
N1781	N178	0.614200	0.279500	0.629300
N1791	N179	0.464770	0.583170	0.047220
N1801	N180	0.074630	0.070770	0.020720
N1811	N181	0.453300	0.384270	0.906030
N1821	N182	0.347480	0.385410	0.963030
N1831	N183	0.114590	0.962070	0.077620
N1841	N184	0.417550	0.464770	0.381600
N1851	N185	0.574630	0.020720	0.070770
N1861	N186	0.979280	0.550050	0.553910
N1871	N187	0.720500	0.870700	0.885800
N1881	N188	0.462070	0.847480	0.384450
N1891	N189	0.547270	0.453300	0.569030
N1901	N190	0.430970	0.046700	0.452730
N1911	N191	0.834700	0.720500	0.349800
N1921	N192	0.384450	0.347480	0.462070
N1931	N193	0.464050	0.916830	0.381600
N1941	N194	0.047220	0.964050	0.082450
N1951	N195	0.069030	0.547270	0.953300
N1961	N196	0.583170	0.547220	0.964770
N1971	N197	0.615550	0.963030	0.577620
N1981	N198	0.036970	0.114590	0.652520
N1991	N199	0.503860	0.929230	0.949950
N2001	N200	0.384270	0.978240	0.930970
N2011	N201	0.114200	0.629300	0.279500
N2021	N202	0.577620	0.114590	0.462070
N2031	N203	0.050050	0.570770	0.496140
N2041	N204	0.370700	0.150200	0.484900
N2051	N205	0.425370	0.446090	0.996140
N2061	N206	0.417550	0.952780	0.535950
N2071	N207	0.046700	0.952730	0.930970
N2081	N208	0.618400	0.583170	0.535950
N2091	N209	0.949950	0.520720	0.946090
N2101	N210	0.553910	0.050050	0.979280
N2111	N211	0.593970	0.546700	0.115730
N2121	N212	0.547270	0.093970	0.478240
N2131	N213	0.452730	0.906030	0.521760
N2141	N214	0.650200	0.779500	0.165300
N2151	N215	0.463030	0.115550	0.077620
N2161	N216	0.463030	0.347480	0.885410
N2171	N217	0.570770	0.996140	0.550050
N2181	N218	0.069030	0.521760	0.615730
N2191	N219	0.070770	0.550050	0.996140
N2201	N220	0.515100	0.165300	0.385800
N2211	N221	0.478240	0.593970	0.547270
N2221	N222	0.464050	0.547220	0.582450
N2231	N223	0.452780	0.917550	0.035950
N2241	N224	0.020720	0.570770	0.074630
N2251	N225	0.665300	0.015100	0.885800
N2261	N226	0.070770	0.520720	0.574630
N2271	N227	0.385410	0.922380	0.037930
N2281	N228	0.406030	0.453300	0.884270
N2291	N229	0.020720	0.449950	0.446090
N2301	N230	0.652520	0.614590	0.036970
N2311	N231	0.384450	0.036970	0.422380
N2321	N232	0.949950	0.429230	0.503860
N2331	N233	0.964770	0.917550	0.881600
N2341	N234	0.614590	0.536970	0.152520
N2351	N235	0.629300	0.779500	0.614200
N2361	N236	0.035230	0.952780	0.416830
N2371	N237	0.425370	0.979280	0.929230
N2381	N238	0.416830	0.964050	0.881600
N2391	N239	0.093970	0.978240	0.047270
N2401	N240	0.550050	0.496140	0.570770
O11	O1	0.290770	0.932100	0.950970
O21	O2	0.549030	0.839800	0.481130
O31	O3	0.067900	0.549030	0.209230
O41	O4	0.209230	0.160200	0.641330
O51	O5	0.481130	0.141330	0.432100
O61	O6	0.660200	0.709230	0.141330
O71	O7	0.518870	0.660200	0.450970
O81	O8	0.660200	0.950970	0.018870
O91	O9	0.049030	0.481130	0.839800
O101	O10	0.160200	0.141330	0.709230
O111	O11	0.432100	0.790770	0.450970
O121	O12	0.141330	0.932100	0.981130
O131	O13	0.339800	0.049030	0.981130
O141	O14	0.641330	0.981130	0.932100
O151	O15	0.339800	0.290770	0.858670
O161	O16	0.950970	0.518870	0.160200
O171	O17	0.018870	0.450970	0.660200
O181	O18	0.790770	0.839800	0.358670
O191	O19	0.839800	0.858670	0.290770
O201	O20	0.432100	0.641330	0.481130
O211	O21	0.209230	0.049030	0.067900
O221	O22	0.981130	0.432100	0.141330
O231	O23	0.709230	0.641330	0.160200
O241	O24	0.141330	0.209230	0.660200
O251	O25	0.450970	0.160200	0.518870
O261	O26	0.932100	0.450970	0.790770
O271	O27	0.567900	0.358670	0.518870
O281	O28	0.981130	0.549030	0.339800
O291	O29	0.518870	0.858670	0.567900
O301	O30	0.358670	0.018870	0.067900
O311	O31	0.932100	0.481130	0.641330
O321	O32	0.450970	0.290770	0.432100
O331	O33	0.481130	0.339800	0.549030
O341	O34	0.290770	0.358670	0.839800
O351	O35	0.950970	0.432100	0.290770
O361	O36	0.160200	0.018870	0.950970
O371	O37	0.567900	0.209230	0.549030
O381	O38	0.549030	0.709230	0.567900
O391	O39	0.067900	0.518870	0.358670
O401	O40	0.790770	0.950970	0.932100
O411	O41	0.858670	0.067900	0.018870
O421	O42	0.641330	0.660200	0.209230
O431	O43	0.709230	0.067900	0.049030
O441	O44	0.839800	0.981130	0.049030
O451	O45	0.049030	0.567900	0.709230
O461	O46	0.858670	0.790770	0.339800
O471	O47	0.358670	0.339800	0.790770
O481	O48	0.018870	0.567900	0.858670
