data_CODFUX_freeONLY_PM
_symmetry_space_group_name_H-M	'P1'
_cell_length_a	10.022000
_cell_length_b	14.335000
_cell_length_c	14.636000
_cell_angle_alpha	90.000000
_cell_angle_beta	90.000000
_cell_angle_gamma	90.000000
_symmetry_Int_Tables_number 1

loop_
_symmetry_equiv_pos_as_xyz
'x,y,z'

loop_
_atom_site_label
_atom_site_type_symbol
_atom_site_fract_x
_atom_site_fract_y
_atom_site_fract_z
O11	O1	0.829600	0.972100	0.454500
O21	O2	0.760500	0.095000	0.343300
O31	O3	0.829600	0.472100	0.954500
O41	O4	0.760500	0.595000	0.843300
O51	O5	0.329600	0.972100	0.954500
O61	O6	0.260500	0.095000	0.843300
O71	O7	0.329600	0.472100	0.454500
O81	O8	0.260500	0.595000	0.343300
O91	O9	0.920400	0.777900	0.454500
O101	O10	0.989500	0.655000	0.343300
O111	O11	0.920400	0.277900	0.954500
O121	O12	0.989500	0.155000	0.843300
O131	O13	0.420400	0.777900	0.954500
O141	O14	0.489500	0.655000	0.843300
O151	O15	0.420400	0.277900	0.454500
O161	O16	0.489500	0.155000	0.343300
O171	O17	0.920400	0.972100	0.295500
O181	O18	0.989500	0.095000	0.406700
O191	O19	0.920400	0.472100	0.795500
O201	O20	0.989500	0.595000	0.906700
O211	O21	0.420400	0.972100	0.795500
O221	O22	0.489500	0.095000	0.906700
O231	O23	0.420400	0.472100	0.295500
O241	O24	0.489500	0.595000	0.406700
O251	O25	0.829600	0.777900	0.295500
O261	O26	0.760500	0.655000	0.406700
O271	O27	0.829600	0.277900	0.795500
O281	O28	0.760500	0.155000	0.906700
O291	O29	0.329600	0.777900	0.795500
O301	O30	0.260500	0.655000	0.906700
O311	O31	0.329600	0.277900	0.295500
O321	O32	0.260500	0.155000	0.406700
O331	O33	0.170400	0.027900	0.545500
O341	O34	0.239500	0.905000	0.656700
O351	O35	0.170400	0.527900	0.045500
O361	O36	0.239500	0.405000	0.156700
O371	O37	0.670400	0.027900	0.045500
O381	O38	0.739500	0.905000	0.156700
O391	O39	0.670400	0.527900	0.545500
O401	O40	0.739500	0.405000	0.656700
O411	O41	0.079600	0.222100	0.545500
O421	O42	0.010500	0.345000	0.656700
O431	O43	0.079600	0.722100	0.045500
O441	O44	0.010500	0.845000	0.156700
O451	O45	0.579600	0.222100	0.045500
O461	O46	0.510500	0.345000	0.156700
O471	O47	0.579600	0.722100	0.545500
O481	O48	0.510500	0.845000	0.656700
O491	O49	0.079600	0.027900	0.704500
O501	O50	0.010500	0.905000	0.593300
O511	O51	0.079600	0.527900	0.204500
O521	O52	0.010500	0.405000	0.093300
O531	O53	0.579600	0.027900	0.204500
O541	O54	0.510500	0.905000	0.093300
O551	O55	0.579600	0.527900	0.704500
O561	O56	0.510500	0.405000	0.593300
O571	O57	0.170400	0.222100	0.704500
O581	O58	0.239500	0.345000	0.593300
O591	O59	0.170400	0.722100	0.204500
O601	O60	0.239500	0.845000	0.093300
O611	O61	0.670400	0.222100	0.204500
O621	O62	0.739500	0.345000	0.093300
O631	O63	0.670400	0.722100	0.704500
O641	O64	0.739500	0.845000	0.593300
P11	P1	0.875000	0.032800	0.375000
P21	P2	0.875000	0.532800	0.875000
P31	P3	0.375000	0.032800	0.875000
P41	P4	0.375000	0.532800	0.375000
P51	P5	0.875000	0.717200	0.375000
P61	P6	0.875000	0.217200	0.875000
P71	P7	0.375000	0.717200	0.875000
P81	P8	0.375000	0.217200	0.375000
P91	P9	0.125000	0.967200	0.625000
P101	P10	0.125000	0.467200	0.125000
P111	P11	0.625000	0.967200	0.125000
P121	P12	0.625000	0.467200	0.625000
P131	P13	0.125000	0.282800	0.625000
P141	P14	0.125000	0.782800	0.125000
P151	P15	0.625000	0.282800	0.125000
P161	P16	0.625000	0.782800	0.625000
Mg11	Mg1	0.875000	0.875000	0.523700
Mg21	Mg2	0.875000	0.375000	0.023700
Mg31	Mg3	0.375000	0.875000	0.023700
Mg41	Mg4	0.375000	0.375000	0.523700
Mg51	Mg5	0.875000	0.875000	0.226300
Mg61	Mg6	0.875000	0.375000	0.726300
Mg71	Mg7	0.375000	0.875000	0.726300
Mg81	Mg8	0.375000	0.375000	0.226300
Mg91	Mg9	0.125000	0.125000	0.476300
Mg101	Mg10	0.125000	0.625000	0.976300
Mg111	Mg11	0.625000	0.125000	0.976300
Mg121	Mg12	0.625000	0.625000	0.476300
Mg131	Mg13	0.125000	0.125000	0.773700
Mg141	Mg14	0.125000	0.625000	0.273700
Mg151	Mg15	0.625000	0.125000	0.273700
Mg161	Mg16	0.625000	0.625000	0.773700
