data_CODSOF_freeONLY_PM
_symmetry_space_group_name_H-M	'P1'
_cell_length_a	9.480600
_cell_length_b	18.127000
_cell_length_c	18.693000
_cell_angle_alpha	61.880000
_cell_angle_beta	83.980000
_cell_angle_gamma	86.350000
_symmetry_Int_Tables_number 1

loop_
_symmetry_equiv_pos_as_xyz
'x,y,z'

loop_
_atom_site_label
_atom_site_type_symbol
_atom_site_fract_x
_atom_site_fract_y
_atom_site_fract_z
Zn11	Zn1	0.341680	0.080690	0.642480
Zn21	Zn2	0.510990	0.500340	0.744840
Zn31	Zn3	0.658320	0.919310	0.357520
Zn41	Zn4	0.643570	0.071870	0.129460
Zn51	Zn5	0.356430	0.928130	0.870540
Zn61	Zn6	0.489010	0.499660	0.255160
H11	H1	0.114200	0.044600	0.895000
H21	H2	0.432900	0.593100	0.498000
H31	H3	0.825200	0.893500	0.589700
H41	H4	0.064000	0.860200	0.595400
H51	H5	0.268900	0.429000	0.695800
H61	H6	0.764400	0.316000	0.547400
H71	H7	0.457000	0.262500	0.175400
H81	H8	0.098000	0.209000	0.943800
H91	H9	0.267700	0.996400	0.391100
H101	H10	0.478700	0.728500	0.326700
H111	H11	0.268900	0.191700	0.042400
H121	H12	0.037200	0.616100	0.842500
H131	H13	0.468800	0.343600	0.496800
H141	H14	0.379300	0.239700	0.061100
H151	H15	0.458300	0.439200	0.435500
H161	H16	0.692000	0.052800	0.883500
H171	H17	0.962800	0.383900	0.157500
H181	H18	0.508700	0.911900	0.591900
H191	H19	0.083500	0.214000	0.203100
H201	H20	0.107400	0.338000	0.698300
H211	H21	0.790800	0.686700	0.906400
H221	H22	0.308000	0.947200	0.116500
H231	H23	0.905900	0.709500	0.946900
H241	H24	0.209200	0.313300	0.093600
H251	H25	0.174800	0.106500	0.410300
H261	H26	0.521300	0.271500	0.673300
H271	H27	0.138900	0.732600	0.874100
H281	H28	0.620700	0.760300	0.938900
H291	H29	0.016800	0.277000	0.395300
H301	H30	0.024800	0.770800	0.339900
H311	H31	0.809000	0.204900	0.215900
H321	H32	0.671100	0.316400	0.842100
H331	H33	0.916500	0.786000	0.796900
H341	H34	0.060500	0.166300	0.732900
H351	H35	0.975200	0.229200	0.660100
H361	H36	0.260300	0.825600	0.476300
H371	H37	0.567100	0.406900	0.502000
H381	H38	0.491300	0.088100	0.408100
H391	H39	0.860400	0.781700	0.353400
H401	H40	0.107000	0.722500	0.484600
H411	H41	0.936000	0.139800	0.404600
H421	H42	0.779200	0.060900	0.381500
H431	H43	0.216000	0.162900	0.191700
H441	H44	0.901200	0.692100	0.736300
H451	H45	0.770300	0.178000	0.670700
H461	H46	0.694600	0.102600	0.672800
H471	H47	0.749100	0.442200	0.175000
H481	H48	0.543000	0.737500	0.824600
H491	H49	0.459100	0.554600	0.078700
H501	H50	0.437800	0.403300	0.000500
H511	H51	0.460500	0.105400	0.910200
H521	H52	0.250900	0.557800	0.825000
H531	H53	0.220800	0.939100	0.618500
H541	H54	0.721200	0.217600	0.144300
H551	H55	0.739700	0.174400	0.523700
H561	H56	0.885800	0.955400	0.105000
H571	H57	0.278800	0.782400	0.855700
H581	H58	0.562200	0.596700	0.999500
H591	H59	0.014200	0.231500	0.823700
H601	H60	0.531200	0.656400	0.503200
H611	H61	0.902000	0.791000	0.056200
H621	H62	0.560300	0.350400	0.982700
H631	H63	0.893000	0.277500	0.515400
H641	H64	0.105500	0.900200	0.090800
H651	H65	0.983200	0.723000	0.604700
H661	H66	0.540900	0.445400	0.921300
H671	H67	0.541700	0.560800	0.564500
H681	H68	0.985800	0.768500	0.176300
H691	H69	0.383400	0.788900	0.439000
H701	H70	0.139600	0.218300	0.646600
H711	H71	0.939500	0.833700	0.267100
H721	H72	0.894500	0.099800	0.909200
H731	H73	0.731100	0.571000	0.304200
H741	H74	0.094100	0.290500	0.053100
H751	H75	0.235600	0.684000	0.452600
H761	H76	0.616600	0.211100	0.561000
H771	H77	0.098800	0.307900	0.263700
H781	H78	0.732300	0.003600	0.608900
H791	H79	0.357100	0.321200	0.356500
H801	H80	0.784000	0.837100	0.808300
H811	H81	0.439700	0.649600	0.017300
H821	H82	0.305400	0.897400	0.327200
H831	H83	0.892600	0.662000	0.301700
H841	H84	0.861100	0.267400	0.125900
H851	H85	0.328900	0.683600	0.157900
H861	H86	0.297400	0.055700	0.149600
H871	H87	0.191000	0.795100	0.784100
H881	H88	0.229700	0.822000	0.329300
H891	H89	0.702600	0.944300	0.850400
H901	H90	0.731100	0.808300	0.957600
H911	H91	0.539500	0.894600	0.089800
H921	H92	0.642900	0.678800	0.643500
C11	C1	0.388600	0.282100	0.339300
C21	C2	0.132900	0.252300	0.894300
C31	C3	0.659100	0.389700	0.680800
C41	C4	0.884900	0.925600	0.600000
C51	C5	0.595500	0.694600	0.743400
C61	C6	0.532500	0.857700	0.629600
C71	C7	0.365300	0.394200	0.193000
C81	C8	0.416700	0.120000	0.766100
C91	C9	0.467500	0.142300	0.370400
C101	C10	0.609600	0.826100	0.514200
C111	C11	0.404500	0.305400	0.256600
C121	C12	0.875900	0.048600	0.382200
C131	C13	0.071400	0.625100	0.790600
C141	C14	0.928600	0.374900	0.209400
C151	C15	0.718500	0.202100	0.557200
C161	C16	0.959700	0.040500	0.132700
C171	C17	0.030600	0.123700	0.655000
C181	C18	0.868200	0.806100	0.832900
C191	C19	0.081100	0.070200	0.145000
C201	C20	0.376700	0.717900	0.171400
C211	C21	0.234600	0.304500	0.891100
C221	C22	0.176000	0.269100	0.084600
C231	C23	0.498600	0.155300	0.869400
C241	C24	0.551400	0.753100	0.769300
C251	C25	0.623300	0.282100	0.828600
C261	C26	0.010000	0.327600	0.273800
C271	C27	0.131800	0.193900	0.167100
C281	C28	0.397600	0.692000	0.252300
C291	C29	0.519700	0.834800	0.713300
C301	C30	0.395700	0.825500	0.023300
C311	C31	0.897700	0.146800	0.152700
C321	C32	0.902800	0.057300	0.894400
C331	C33	0.529100	0.102300	0.259200
C341	C34	0.634700	0.605800	0.807000
C351	C35	0.124100	0.951400	0.617800
C361	C36	0.583300	0.880000	0.233900
C371	C37	0.053400	0.190000	0.675400
C381	C38	0.115100	0.074400	0.400000
C391	C39	0.709700	0.754400	0.962500
C401	C40	0.791000	0.286200	0.516300
C411	C41	0.815000	0.215200	0.160400
C421	C42	0.779200	0.027700	0.879600
C431	C43	0.138600	0.331300	0.746600
C441	C44	0.448600	0.246900	0.230700
C451	C45	0.199300	0.591400	0.780900
C461	C46	0.519700	0.820400	0.212300
C471	C47	0.765500	0.145100	0.642500
C481	C48	0.970000	0.094600	0.396800
C491	C49	0.946600	0.810000	0.324600
C501	C50	0.220800	0.972300	0.120400
C511	C51	0.040300	0.959500	0.867300
C521	C52	0.076800	0.963900	0.373000
C531	C53	0.084200	0.265800	0.822700
C541	C54	0.861400	0.668700	0.253400
C551	C55	0.602400	0.308000	0.747700
C561	C56	0.288300	0.370500	0.817600
C571	C57	0.426700	0.794800	0.110300
C581	C58	0.580400	0.799900	0.603400
C591	C59	0.236700	0.384200	0.744900
C601	C60	0.340900	0.610300	0.319200
C611	C61	0.749900	0.390500	0.298500
C621	C62	0.962600	0.309300	0.352000
C631	C63	0.507700	0.605100	0.041400
C641	C64	0.209000	0.713800	0.483700
C651	C65	0.521600	0.394100	0.465800
C661	C66	0.030000	0.905400	0.603200
C671	C67	0.097200	0.942700	0.105600
C681	C68	0.216500	0.036300	0.140100
C691	C69	0.102300	0.853200	0.847300
C701	C70	0.171600	0.658500	0.636200
C711	C71	0.967200	0.975700	0.113000
C721	C72	0.918900	0.929800	0.855000
C731	C73	0.480300	0.179600	0.787700
C741	C74	0.480300	0.165200	0.286700
C751	C75	0.932500	0.983900	0.368900
C761	C76	0.969400	0.876300	0.345000
C771	C77	0.171300	0.009600	0.388700
C781	C78	0.603200	0.627300	0.085500
C791	C79	0.478400	0.605900	0.534200
C801	C80	0.368600	0.617600	0.591700
C811	C81	0.990000	0.672400	0.726200
C821	C82	0.067500	0.016100	0.631100
C831	C83	0.037400	0.690700	0.648000
C841	C84	0.867100	0.747700	0.105700
C851	C85	0.915800	0.734200	0.177300
C861	C86	0.467400	0.744700	0.272400
C871	C87	0.631400	0.382400	0.408300
C881	C88	0.711700	0.629500	0.182400
C891	C89	0.611400	0.717900	0.660700
C901	C90	0.390400	0.173900	0.485800
C911	C91	0.828700	0.990400	0.611300
C921	C92	0.765400	0.695500	0.108900
C931	C93	0.396800	0.372700	0.914500
C941	C94	0.763300	0.615800	0.255100
C951	C95	0.470900	0.897700	0.740800
C961	C96	0.032800	0.024300	0.887000
C971	C97	0.185000	0.784800	0.839600
C981	C98	0.281500	0.797900	0.442800
C991	C99	0.501400	0.844700	0.130600
C1001	C100	0.532600	0.255300	0.727600
C1011	C101	0.573300	0.205200	0.889700
C1021	C102	0.290300	0.245600	0.037500
C1031	C103	0.800700	0.408600	0.219100
C1041	C104	0.492300	0.394900	0.958600
C1051	C105	0.604300	0.174500	0.976700
C1061	C106	0.828400	0.341500	0.363800
C1071	C107	0.234500	0.854900	0.357500
C1081	C108	0.824000	0.730900	0.915400
C1091	C109	0.419600	0.200100	0.396600
C1101	C110	0.250100	0.609500	0.701500
C1111	C111	0.783500	0.963700	0.859900
C1121	C112	0.923200	0.036100	0.627000
N11	N1	0.131800	0.071800	0.649000
N21	N2	0.249000	0.663500	0.567000
N31	N3	0.096400	0.896100	0.358000
N41	N4	0.751000	0.336500	0.433000
N51	N5	0.845300	0.088700	0.139300
N61	N6	0.868200	0.928200	0.351000
N71	N7	0.962700	0.862500	0.841600
N81	N8	0.903600	0.103900	0.642000
N91	N9	0.307500	0.307200	0.950300
N101	N10	0.692500	0.692800	0.049700
N111	N11	0.037300	0.137500	0.158400
N121	N12	0.625700	0.415800	0.328700
N131	N13	0.389000	0.411900	0.833600
N141	N14	0.611000	0.588100	0.166400
N151	N15	0.154700	0.911300	0.860700
N161	N16	0.374300	0.584200	0.671300
O11	O1	0.570100	0.899700	0.464900
O21	O2	0.359500	0.450700	0.216200
O31	O3	0.628600	0.948100	0.178300
O41	O4	0.572100	0.099300	0.026800
O51	O5	0.661600	0.220600	0.996300
O61	O6	0.336700	0.404500	0.127400
O71	O7	0.586100	0.037100	0.308600
O81	O8	0.427900	0.900700	0.973200
O91	O9	0.486100	0.880400	0.813300
O101	O10	0.338400	0.779400	0.003700
O111	O11	0.642500	0.454500	0.689600
O121	O12	0.581900	0.858400	0.309200
O131	O13	0.279700	0.610200	0.380000
O141	O14	0.663300	0.595500	0.872600
O151	O15	0.330500	0.221100	0.509200
O161	O16	0.413900	0.962900	0.691400
O171	O17	0.357500	0.545500	0.310400
O181	O18	0.669500	0.778900	0.490800
O191	O19	0.640500	0.549300	0.783800
O201	O20	0.513900	0.119600	0.186700
O211	O21	0.429900	0.100300	0.535100
O221	O22	0.371400	0.051900	0.821700
O231	O23	0.418100	0.141600	0.690800
O241	O24	0.720300	0.389800	0.620000
