data_COJGEO_freeONLY_PM
_symmetry_space_group_name_H-M	'P1'
_cell_length_a	9.459200
_cell_length_b	41.254000
_cell_length_c	18.413800
_cell_angle_alpha	98.645000
_cell_angle_beta	90.000000
_cell_angle_gamma	90.000000
_symmetry_Int_Tables_number 1

loop_
_symmetry_equiv_pos_as_xyz
'x,y,z'

loop_
_atom_site_label
_atom_site_type_symbol
_atom_site_fract_x
_atom_site_fract_y
_atom_site_fract_z
Zn11	Zn1	0.456390	0.579810	0.529500
Zn21	Zn2	0.042690	0.920250	0.469250
Zn31	Zn3	0.956390	0.420190	0.970500
Zn41	Zn4	0.542690	0.079750	0.030750
Zn51	Zn5	0.543610	0.420190	0.470500
Zn61	Zn6	0.957310	0.079750	0.530750
Zn71	Zn7	0.043610	0.579810	0.029500
Zn81	Zn8	0.457310	0.920250	0.969250
Zn91	Zn9	0.500000	0.500000	0.500000
Zn101	Zn10	0.000000	0.500000	0.000000
Zn111	Zn11	0.000000	0.000000	0.500000
Zn121	Zn12	0.500000	0.000000	0.000000
Cu11	Cu1	0.191450	0.749920	0.532040
Cu21	Cu2	0.691450	0.250080	0.967960
Cu31	Cu3	0.808550	0.250080	0.467960
Cu41	Cu4	0.308550	0.749920	0.032040
H11	H1	0.742800	0.599100	0.362000
H21	H2	0.843200	0.601600	0.247600
H31	H3	0.851600	0.503200	0.207200
H41	H4	0.751700	0.500600	0.320800
H51	H5	0.194000	0.497200	0.416600
H61	H6	0.001000	0.540000	0.598200
H71	H7	0.836300	0.901000	0.262200
H81	H8	0.735400	0.900500	0.146200
H91	H9	0.750200	0.999100	0.172700
H101	H10	0.859000	0.999500	0.285900
H111	H11	0.514400	0.625100	0.424100
H121	H12	0.262000	0.629900	0.583000
H131	H13	0.549900	0.664300	0.348400
H141	H14	0.544200	0.700800	0.392300
H151	H15	0.413600	0.686600	0.342000
H161	H16	0.176900	0.685500	0.650500
H171	H17	0.905100	0.730400	0.616000
H181	H18	0.002200	0.722700	0.682000
H191	H19	0.077500	0.772000	0.706400
H201	H20	0.923100	0.778500	0.674700
H211	H21	0.014000	0.825400	0.627900
H221	H22	0.029000	0.869400	0.571500
H231	H23	0.214000	0.866900	0.365400
H241	H24	0.320200	0.823300	0.307900
H251	H25	0.252200	0.789300	0.322000
H261	H26	0.396400	0.801900	0.362100
H271	H27	0.242800	0.400900	0.138000
H281	H28	0.343200	0.398400	0.252400
H291	H29	0.351600	0.496800	0.292800
H301	H30	0.251700	0.499400	0.179200
H311	H31	0.694000	0.502800	0.083400
H321	H32	0.501000	0.460000	0.901800
H331	H33	0.336300	0.099000	0.237800
H341	H34	0.235400	0.099500	0.353800
H351	H35	0.250200	0.000900	0.327300
H361	H36	0.359000	0.000500	0.214100
H371	H37	0.014400	0.374900	0.075900
H381	H38	0.762000	0.370100	0.917000
H391	H39	0.049900	0.335700	0.151600
H401	H40	0.044200	0.299200	0.107700
H411	H41	0.913600	0.313400	0.158000
H421	H42	0.676900	0.314500	0.849500
H431	H43	0.405100	0.269600	0.884000
H441	H44	0.502200	0.277300	0.818000
H451	H45	0.577500	0.228000	0.793600
H461	H46	0.423100	0.221500	0.825300
H471	H47	0.514000	0.174600	0.872100
H481	H48	0.529000	0.130600	0.928500
H491	H49	0.714000	0.133100	0.134600
H501	H50	0.820200	0.176700	0.192100
H511	H51	0.752200	0.210700	0.178000
H521	H52	0.896400	0.198100	0.137900
H531	H53	0.257200	0.400900	0.638000
H541	H54	0.156800	0.398400	0.752400
H551	H55	0.148400	0.496800	0.792800
H561	H56	0.248300	0.499400	0.679200
H571	H57	0.806000	0.502800	0.583400
H581	H58	0.999000	0.460000	0.401800
H591	H59	0.163700	0.099000	0.737800
H601	H60	0.264600	0.099500	0.853800
H611	H61	0.249800	0.000900	0.827300
H621	H62	0.141000	0.000500	0.714100
H631	H63	0.485600	0.374900	0.575900
H641	H64	0.738000	0.370100	0.417000
H651	H65	0.450100	0.335700	0.651600
H661	H66	0.455800	0.299200	0.607700
H671	H67	0.586400	0.313400	0.658000
H681	H68	0.823100	0.314500	0.349500
H691	H69	0.094900	0.269600	0.384000
H701	H70	0.997800	0.277300	0.318000
H711	H71	0.922500	0.228000	0.293600
H721	H72	0.076900	0.221500	0.325300
H731	H73	0.986000	0.174600	0.372100
H741	H74	0.971000	0.130600	0.428500
H751	H75	0.786000	0.133100	0.634600
H761	H76	0.679800	0.176700	0.692100
H771	H77	0.747800	0.210700	0.678000
H781	H78	0.603600	0.198100	0.637900
H791	H79	0.757200	0.599100	0.862000
H801	H80	0.656800	0.601600	0.747600
H811	H81	0.648400	0.503200	0.707200
H821	H82	0.748300	0.500600	0.820800
H831	H83	0.306000	0.497200	0.916600
H841	H84	0.499000	0.540000	0.098200
H851	H85	0.663700	0.901000	0.762200
H861	H86	0.764600	0.900500	0.646200
H871	H87	0.749800	0.999100	0.672700
H881	H88	0.641000	0.999500	0.785900
H891	H89	0.985600	0.625100	0.924100
H901	H90	0.238000	0.629900	0.083000
H911	H91	0.950100	0.664300	0.848400
H921	H92	0.955800	0.700800	0.892300
H931	H93	0.086400	0.686600	0.842000
H941	H94	0.323100	0.685500	0.150500
H951	H95	0.594900	0.730400	0.116000
H961	H96	0.497800	0.722700	0.182000
H971	H97	0.422500	0.772000	0.206400
H981	H98	0.576900	0.778500	0.174700
H991	H99	0.486000	0.825400	0.127900
H1001	H100	0.471000	0.869400	0.071500
H1011	H101	0.286000	0.866900	0.865400
H1021	H102	0.179800	0.823300	0.807900
H1031	H103	0.247800	0.789300	0.822000
H1041	H104	0.103600	0.801900	0.862100
C11	C1	0.652700	0.548010	0.419620
C21	C2	0.732300	0.549390	0.349220
C31	C3	0.763200	0.579500	0.329540
C41	C4	0.824500	0.580860	0.262000
C51	C5	0.859000	0.552680	0.214850
C61	C6	0.829100	0.522970	0.238500
C71	C7	0.768300	0.521250	0.305440
C81	C8	0.921700	0.552960	0.139840
C91	C9	0.234500	0.545010	0.529350
C101	C10	0.113800	0.521760	0.514510
C111	C11	0.110000	0.497890	0.451320
C121	C12	0.001900	0.522960	0.561400
C131	C13	0.918100	0.950970	0.359090
C141	C14	0.856200	0.950900	0.283940
C151	C15	0.819600	0.920900	0.243600
C161	C16	0.757800	0.920870	0.175300
C171	C17	0.728200	0.949430	0.148490
C181	C18	0.767600	0.979050	0.190540
C191	C19	0.831700	0.979250	0.257720
C201	C20	0.647700	0.949340	0.079020
C211	C21	0.267200	0.956660	0.465300
C221	C22	0.388800	0.979610	0.483030
C231	C23	0.384200	0.000720	0.549090
C241	C24	0.499600	0.978350	0.433700
C251	C25	0.450000	0.637750	0.456300
C261	C26	0.419900	0.667860	0.442800
C271	C27	0.330900	0.688710	0.487000
C281	C28	0.267600	0.674130	0.545900
C291	C29	0.308100	0.642700	0.556000
C301	C30	0.488400	0.681150	0.375000
C311	C31	0.180600	0.691870	0.603100
C321	C32	0.000000	0.734080	0.638300
C331	C33	0.016000	0.768010	0.662500
C341	C34	0.059000	0.811100	0.588700
C351	C35	0.109100	0.825090	0.525400
C361	C36	0.075100	0.858710	0.523600
C371	C37	0.182000	0.858600	0.412300
C381	C38	0.220800	0.826600	0.408800
C391	C39	0.188800	0.808230	0.466900
C401	C40	0.304900	0.808650	0.344400
C411	C41	0.152700	0.451990	0.080380
C421	C42	0.232300	0.450610	0.150780
C431	C43	0.263200	0.420500	0.170460
C441	C44	0.324500	0.419140	0.238000
C451	C45	0.359000	0.447320	0.285150
C461	C46	0.329100	0.477030	0.261500
C471	C47	0.268300	0.478750	0.194560
C481	C48	0.421700	0.447040	0.360160
C491	C49	0.734500	0.454990	0.970650
C501	C50	0.613800	0.478240	0.985490
C511	C51	0.610000	0.502110	0.048680
C521	C52	0.501900	0.477040	0.938600
C531	C53	0.418100	0.049030	0.140910
C541	C54	0.356200	0.049100	0.216060
C551	C55	0.319600	0.079100	0.256400
C561	C56	0.257800	0.079130	0.324700
C571	C57	0.228200	0.050570	0.351510
C581	C58	0.267600	0.020950	0.309460
C591	C59	0.331700	0.020750	0.242280
C601	C60	0.147700	0.050660	0.420980
C611	C61	0.767200	0.043340	0.034700
C621	C62	0.888800	0.020390	0.016970
C631	C63	0.884200	0.999280	0.950910
C641	C64	0.999600	0.021650	0.066300
C651	C65	0.950000	0.362250	0.043700
C661	C66	0.919900	0.332140	0.057200
C671	C67	0.830900	0.311290	0.013000
C681	C68	0.767600	0.325870	0.954100
C691	C69	0.808100	0.357300	0.944000
C701	C70	0.988400	0.318850	0.125000
C711	C71	0.680600	0.308130	0.896900
C721	C72	0.500000	0.265920	0.861700
C731	C73	0.516000	0.231990	0.837500
C741	C74	0.559000	0.188900	0.911300
C751	C75	0.609100	0.174910	0.974600
C761	C76	0.575100	0.141290	0.976400
C771	C77	0.682000	0.141400	0.087700
C781	C78	0.720800	0.173400	0.091200
C791	C79	0.688800	0.191770	0.033100
C801	C80	0.804900	0.191350	0.155600
C811	C81	0.347300	0.451990	0.580380
C821	C82	0.267700	0.450610	0.650780
C831	C83	0.236800	0.420500	0.670460
C841	C84	0.175500	0.419140	0.738000
C851	C85	0.141000	0.447320	0.785150
C861	C86	0.170900	0.477030	0.761500
C871	C87	0.231700	0.478750	0.694560
C881	C88	0.078300	0.447040	0.860160
C891	C89	0.765500	0.454990	0.470650
C901	C90	0.886200	0.478240	0.485490
C911	C91	0.890000	0.502110	0.548680
C921	C92	0.998100	0.477040	0.438600
C931	C93	0.081900	0.049030	0.640910
C941	C94	0.143800	0.049100	0.716060
C951	C95	0.180400	0.079100	0.756400
C961	C96	0.242200	0.079130	0.824700
C971	C97	0.271800	0.050570	0.851510
C981	C98	0.232400	0.020950	0.809460
C991	C99	0.168300	0.020750	0.742280
C1001	C100	0.352300	0.050660	0.920980
C1011	C101	0.732800	0.043340	0.534700
C1021	C102	0.611200	0.020390	0.516970
C1031	C103	0.615800	0.999280	0.450910
C1041	C104	0.500400	0.021650	0.566300
C1051	C105	0.550000	0.362250	0.543700
C1061	C106	0.580100	0.332140	0.557200
C1071	C107	0.669100	0.311290	0.513000
C1081	C108	0.732400	0.325870	0.454100
C1091	C109	0.691900	0.357300	0.444000
C1101	C110	0.511600	0.318850	0.625000
C1111	C111	0.819400	0.308130	0.396900
C1121	C112	0.000000	0.265920	0.361700
C1131	C113	0.984000	0.231990	0.337500
C1141	C114	0.941000	0.188900	0.411300
C1151	C115	0.890900	0.174910	0.474600
C1161	C116	0.924900	0.141290	0.476400
C1171	C117	0.818000	0.141400	0.587700
C1181	C118	0.779200	0.173400	0.591200
C1191	C119	0.811200	0.191770	0.533100
C1201	C120	0.695100	0.191350	0.655600
C1211	C121	0.847300	0.548010	0.919620
C1221	C122	0.767700	0.549390	0.849220
C1231	C123	0.736800	0.579500	0.829540
C1241	C124	0.675500	0.580860	0.762000
C1251	C125	0.641000	0.552680	0.714850
C1261	C126	0.670900	0.522970	0.738500
C1271	C127	0.731700	0.521250	0.805440
C1281	C128	0.578300	0.552960	0.639840
C1291	C129	0.265500	0.545010	0.029350
C1301	C130	0.386200	0.521760	0.014510
C1311	C131	0.390000	0.497890	0.951320
C1321	C132	0.498100	0.522960	0.061400
C1331	C133	0.581900	0.950970	0.859090
C1341	C134	0.643800	0.950900	0.783940
C1351	C135	0.680400	0.920900	0.743600
C1361	C136	0.742200	0.920870	0.675300
C1371	C137	0.771800	0.949430	0.648490
C1381	C138	0.732400	0.979050	0.690540
C1391	C139	0.668300	0.979250	0.757720
C1401	C140	0.852300	0.949340	0.579020
C1411	C141	0.232800	0.956660	0.965300
C1421	C142	0.111200	0.979610	0.983030
C1431	C143	0.115800	0.000720	0.049090
C1441	C144	0.000400	0.978350	0.933700
C1451	C145	0.050000	0.637750	0.956300
C1461	C146	0.080100	0.667860	0.942800
C1471	C147	0.169100	0.688710	0.987000
C1481	C148	0.232400	0.674130	0.045900
C1491	C149	0.191900	0.642700	0.056000
C1501	C150	0.011600	0.681150	0.875000
C1511	C151	0.319400	0.691870	0.103100
C1521	C152	0.500000	0.734080	0.138300
C1531	C153	0.484000	0.768010	0.162500
C1541	C154	0.441000	0.811100	0.088700
C1551	C155	0.390900	0.825090	0.025400
C1561	C156	0.424900	0.858710	0.023600
C1571	C157	0.318000	0.858600	0.912300
C1581	C158	0.279200	0.826600	0.908800
C1591	C159	0.311200	0.808230	0.966900
C1601	C160	0.195100	0.808650	0.844400
N11	N1	0.397000	0.624120	0.511420
N21	N2	0.109800	0.874560	0.469900
N31	N3	0.101700	0.718670	0.586700
N41	N4	0.086000	0.781860	0.595890
N51	N5	0.897000	0.375880	0.988580
N61	N6	0.609800	0.125440	0.030100
N71	N7	0.601700	0.281330	0.913300
N81	N8	0.586000	0.218140	0.904110
N91	N9	0.603000	0.375880	0.488580
N101	N10	0.890200	0.125440	0.530100
N111	N11	0.898300	0.281330	0.413300
N121	N12	0.914000	0.218140	0.404110
N131	N13	0.103000	0.624120	0.011420
N141	N14	0.390200	0.874560	0.969900
N151	N15	0.398300	0.718670	0.086700
N161	N16	0.414000	0.781860	0.095890
O11	O1	0.608600	0.574320	0.454200
O21	O2	0.636500	0.519530	0.437700
O31	O3	0.930900	0.526850	0.098780
O41	O4	0.955600	0.581000	0.124870
O51	O5	0.347200	0.539170	0.490370
O61	O6	0.224500	0.569490	0.576660
O71	O7	0.941700	0.923350	0.379920
O81	O8	0.943100	0.978770	0.395970
O91	O9	0.642400	0.975390	0.052290
O101	O10	0.592000	0.922850	0.051180
O111	O11	0.153900	0.960540	0.505100
O121	O12	0.275200	0.933130	0.415450
O131	O13	0.300800	0.717500	0.470690
O141	O14	0.229800	0.778520	0.463120
O151	O15	0.108600	0.425680	0.045800
O161	O16	0.136500	0.480470	0.062300
O171	O17	0.430900	0.473150	0.401220
O181	O18	0.455600	0.419000	0.375130
O191	O19	0.847200	0.460830	0.009630
O201	O20	0.724500	0.430510	0.923340
O211	O21	0.441700	0.076650	0.120080
O221	O22	0.443100	0.021230	0.104030
O231	O23	0.142400	0.024610	0.447710
O241	O24	0.092000	0.077150	0.448820
O251	O25	0.653900	0.039460	0.994900
O261	O26	0.775200	0.066870	0.084550
O271	O27	0.800800	0.282500	0.029310
O281	O28	0.729800	0.221480	0.036880
O291	O29	0.391400	0.425680	0.545800
O301	O30	0.363500	0.480470	0.562300
O311	O31	0.069100	0.473150	0.901220
O321	O32	0.044400	0.419000	0.875130
O331	O33	0.652800	0.460830	0.509630
O341	O34	0.775500	0.430510	0.423340
O351	O35	0.058300	0.076650	0.620080
O361	O36	0.056900	0.021230	0.604030
O371	O37	0.357600	0.024610	0.947710
O381	O38	0.408000	0.077150	0.948820
O391	O39	0.846100	0.039460	0.494900
O401	O40	0.724800	0.066870	0.584550
O411	O41	0.699200	0.282500	0.529310
O421	O42	0.770200	0.221480	0.536880
O431	O43	0.891400	0.574320	0.954200
O441	O44	0.863500	0.519530	0.937700
O451	O45	0.569100	0.526850	0.598780
O461	O46	0.544400	0.581000	0.624870
O471	O47	0.152800	0.539170	0.990370
O481	O48	0.275500	0.569490	0.076660
O491	O49	0.558300	0.923350	0.879920
O501	O50	0.556900	0.978770	0.895970
O511	O51	0.857600	0.975390	0.552290
O521	O52	0.908000	0.922850	0.551180
O531	O53	0.346100	0.960540	0.005100
O541	O54	0.224800	0.933130	0.915450
O551	O55	0.199200	0.717500	0.970690
O561	O56	0.270200	0.778520	0.963120
