data_COKPID_freeONLY_PM
_symmetry_space_group_name_H-M	'P1'
_cell_length_a	26.001000
_cell_length_b	26.001000
_cell_length_c	6.860700
_cell_angle_alpha	90.000000
_cell_angle_beta	90.000000
_cell_angle_gamma	120.000000
_symmetry_Int_Tables_number 1

loop_
_symmetry_equiv_pos_as_xyz
'x,y,z'

loop_
_atom_site_label
_atom_site_type_symbol
_atom_site_fract_x
_atom_site_fract_y
_atom_site_fract_z
Fe11	Fe1	0.385560	0.352940	0.142700
O11	O1	0.325530	0.293200	0.352100
O21	O2	0.303310	0.226150	0.600000
O31	O3	0.353400	0.270770	0.007800
C11	C1	0.316070	0.244720	0.422800
C21	C2	0.325410	0.203600	0.290900
C31	C3	0.342900	0.220860	0.096100
C41	C4	0.351420	0.182840	0.975200
H11	H1	0.360600	0.195400	0.828700
O41	O4	0.554600	0.423300	0.218700
C51	C5	0.507910	0.382700	0.247300
O51	O5	0.461350	0.346300	0.281500
Fe21	Fe2	0.052230	0.686270	0.476030
O61	O6	0.992200	0.626530	0.685430
O71	O7	0.969980	0.559480	0.933330
O81	O8	0.020070	0.604100	0.341130
C61	C6	0.982740	0.578050	0.756130
C71	C7	0.992080	0.536930	0.624230
C81	C8	0.009570	0.554190	0.429430
C91	C9	0.018090	0.516170	0.308530
H21	H2	0.027270	0.528730	0.162030
O91	O9	0.221270	0.756630	0.552030
C101	C10	0.174580	0.716030	0.580630
O101	O10	0.128020	0.679630	0.614830
Fe31	Fe3	0.718890	0.019610	0.809370
O111	O11	0.658860	0.959870	0.018770
O121	O12	0.636640	0.892820	0.266670
O131	O13	0.686730	0.937440	0.674470
C111	C11	0.649400	0.911390	0.089470
C121	C12	0.658740	0.870270	0.957570
C131	C13	0.676230	0.887530	0.762770
C141	C14	0.684750	0.849510	0.641870
H31	H3	0.693930	0.862070	0.495370
O141	O14	0.887930	0.089970	0.885370
C151	C15	0.841240	0.049370	0.913970
O151	O15	0.794680	0.012970	0.948170
Fe41	Fe4	0.647060	0.032620	0.142700
O161	O16	0.706800	0.032330	0.352100
O171	O17	0.773850	0.077160	0.600000
O181	O18	0.729230	0.082630	0.007800
C161	C16	0.755280	0.071350	0.422800
C171	C17	0.796400	0.121810	0.290900
C181	C18	0.779140	0.122040	0.096100
C191	C19	0.817160	0.168580	0.975200
H41	H4	0.804600	0.165200	0.828700
O191	O19	0.576700	0.131300	0.218700
C201	C20	0.617300	0.125210	0.247300
O201	O20	0.653700	0.115050	0.281500
Fe51	Fe5	0.313730	0.365950	0.476030
O211	O21	0.373470	0.365660	0.685430
O221	O22	0.440520	0.410490	0.933330
O231	O23	0.395900	0.415960	0.341130
C211	C21	0.421950	0.404680	0.756130
C221	C22	0.463070	0.455140	0.624230
C231	C23	0.445810	0.455370	0.429430
C241	C24	0.483830	0.501910	0.308530
H51	H5	0.471270	0.498530	0.162030
O241	O24	0.243370	0.464630	0.552030
C251	C25	0.283970	0.458540	0.580630
O251	O25	0.320370	0.448380	0.614830
Fe61	Fe6	0.980390	0.699290	0.809370
O261	O26	0.040130	0.699000	0.018770
O271	O27	0.107180	0.743830	0.266670
O281	O28	0.062560	0.749300	0.674470
C261	C26	0.088610	0.738020	0.089470
C271	C27	0.129730	0.788480	0.957570
C281	C28	0.112470	0.788710	0.762770
C291	C29	0.150490	0.835250	0.641870
H61	H6	0.137930	0.831870	0.495370
O291	O29	0.910030	0.797970	0.885370
C301	C30	0.950630	0.791880	0.913970
O301	O30	0.987030	0.781720	0.948170
Fe71	Fe7	0.967380	0.614440	0.142700
O311	O31	0.967670	0.674470	0.352100
O321	O32	0.922840	0.696690	0.600000
O331	O33	0.917370	0.646600	0.007800
C311	C31	0.928650	0.683930	0.422800
C321	C32	0.878190	0.674590	0.290900
C331	C33	0.877960	0.657100	0.096100
C341	C34	0.831420	0.648580	0.975200
H71	H7	0.834800	0.639400	0.828700
O341	O34	0.868700	0.445400	0.218700
C351	C35	0.874790	0.492090	0.247300
O351	O35	0.884950	0.538650	0.281500
Fe81	Fe8	0.634050	0.947770	0.476030
O361	O36	0.634340	0.007800	0.685430
O371	O37	0.589510	0.030020	0.933330
O381	O38	0.584040	0.979930	0.341130
C361	C36	0.595320	0.017260	0.756130
C371	C37	0.544860	0.007920	0.624230
C381	C38	0.544630	0.990430	0.429430
C391	C39	0.498090	0.981910	0.308530
H81	H8	0.501470	0.972730	0.162030
O391	O39	0.535370	0.778730	0.552030
C401	C40	0.541460	0.825420	0.580630
O401	O40	0.551620	0.871980	0.614830
Fe91	Fe9	0.300710	0.281110	0.809370
O411	O41	0.301000	0.341140	0.018770
O421	O42	0.256170	0.363360	0.266670
O431	O43	0.250700	0.313270	0.674470
C411	C41	0.261980	0.350600	0.089470
C421	C42	0.211520	0.341260	0.957570
C431	C43	0.211290	0.323770	0.762770
C441	C44	0.164750	0.315250	0.641870
H91	H9	0.168130	0.306070	0.495370
O441	O44	0.202030	0.112070	0.885370
C451	C45	0.208120	0.158760	0.913970
O451	O45	0.218280	0.205320	0.948170
Fe101	Fe10	0.614440	0.647060	0.857300
O461	O46	0.674470	0.706800	0.647900
O471	O47	0.696690	0.773850	0.400000
O481	O48	0.646600	0.729230	0.992200
C461	C46	0.683930	0.755280	0.577200
C471	C47	0.674590	0.796400	0.709100
C481	C48	0.657100	0.779140	0.903900
C491	C49	0.648580	0.817160	0.024800
H101	H10	0.639400	0.804600	0.171300
O491	O49	0.445400	0.576700	0.781300
C501	C50	0.492090	0.617300	0.752700
O501	O50	0.538650	0.653700	0.718500
Fe111	Fe11	0.281110	0.980390	0.190630
O511	O51	0.341140	0.040130	0.981230
O521	O52	0.363360	0.107180	0.733330
O531	O53	0.313270	0.062560	0.325530
C511	C51	0.350600	0.088610	0.910530
C521	C52	0.341260	0.129730	0.042430
C531	C53	0.323770	0.112470	0.237230
C541	C54	0.315250	0.150490	0.358130
H111	H11	0.306070	0.137930	0.504630
O541	O54	0.112070	0.910030	0.114630
C551	C55	0.158760	0.950630	0.086030
O551	O55	0.205320	0.987030	0.051830
Fe121	Fe12	0.947770	0.313730	0.523970
O561	O56	0.007800	0.373470	0.314570
O571	O57	0.030020	0.440520	0.066670
O581	O58	0.979930	0.395900	0.658870
C561	C56	0.017260	0.421950	0.243870
C571	C57	0.007920	0.463070	0.375770
C581	C58	0.990430	0.445810	0.570570
C591	C59	0.981910	0.483830	0.691470
H121	H12	0.972730	0.471270	0.837970
O591	O59	0.778730	0.243370	0.447970
C601	C60	0.825420	0.283970	0.419370
O601	O60	0.871980	0.320370	0.385170
Fe131	Fe13	0.352940	0.967380	0.857300
O611	O61	0.293200	0.967670	0.647900
O621	O62	0.226150	0.922840	0.400000
O631	O63	0.270770	0.917370	0.992200
C611	C61	0.244720	0.928650	0.577200
C621	C62	0.203600	0.878190	0.709100
C631	C63	0.220860	0.877960	0.903900
C641	C64	0.182840	0.831420	0.024800
H131	H13	0.195400	0.834800	0.171300
O641	O64	0.423300	0.868700	0.781300
C651	C65	0.382700	0.874790	0.752700
O651	O65	0.346300	0.884950	0.718500
Fe141	Fe14	0.019610	0.300710	0.190630
O661	O66	0.959870	0.301000	0.981230
O671	O67	0.892820	0.256170	0.733330
O681	O68	0.937440	0.250700	0.325530
C661	C66	0.911390	0.261980	0.910530
C671	C67	0.870270	0.211520	0.042430
C681	C68	0.887530	0.211290	0.237230
C691	C69	0.849510	0.164750	0.358130
H141	H14	0.862070	0.168130	0.504630
O691	O69	0.089970	0.202030	0.114630
C701	C70	0.049370	0.208120	0.086030
O701	O70	0.012970	0.218280	0.051830
Fe151	Fe15	0.686270	0.634050	0.523970
O711	O71	0.626530	0.634340	0.314570
O721	O72	0.559480	0.589510	0.066670
O731	O73	0.604100	0.584040	0.658870
C711	C71	0.578050	0.595320	0.243870
C721	C72	0.536930	0.544860	0.375770
C731	C73	0.554190	0.544630	0.570570
C741	C74	0.516170	0.498090	0.691470
H151	H15	0.528730	0.501470	0.837970
O741	O74	0.756630	0.535370	0.447970
C751	C75	0.716030	0.541460	0.419370
O751	O75	0.679630	0.551620	0.385170
Fe161	Fe16	0.032620	0.385560	0.857300
O761	O76	0.032330	0.325530	0.647900
O771	O77	0.077160	0.303310	0.400000
O781	O78	0.082630	0.353400	0.992200
C761	C76	0.071350	0.316070	0.577200
C771	C77	0.121810	0.325410	0.709100
C781	C78	0.122040	0.342900	0.903900
C791	C79	0.168580	0.351420	0.024800
H161	H16	0.165200	0.360600	0.171300
O791	O79	0.131300	0.554600	0.781300
C801	C80	0.125210	0.507910	0.752700
O801	O80	0.115050	0.461350	0.718500
Fe171	Fe17	0.699290	0.718890	0.190630
O811	O81	0.699000	0.658860	0.981230
O821	O82	0.743830	0.636640	0.733330
O831	O83	0.749300	0.686730	0.325530
C811	C81	0.738020	0.649400	0.910530
C821	C82	0.788480	0.658740	0.042430
C831	C83	0.788710	0.676230	0.237230
C841	C84	0.835250	0.684750	0.358130
H171	H17	0.831870	0.693930	0.504630
O841	O84	0.797970	0.887930	0.114630
C851	C85	0.791880	0.841240	0.086030
O851	O85	0.781720	0.794680	0.051830
Fe181	Fe18	0.365950	0.052230	0.523970
O861	O86	0.365660	0.992200	0.314570
O871	O87	0.410490	0.969980	0.066670
O881	O88	0.415960	0.020070	0.658870
C861	C86	0.404680	0.982740	0.243870
C871	C87	0.455140	0.992080	0.375770
C881	C88	0.455370	0.009570	0.570570
C891	C89	0.501910	0.018090	0.691470
H181	H18	0.498530	0.027270	0.837970
O891	O89	0.464630	0.221270	0.447970
C901	C90	0.458540	0.174580	0.419370
O901	O90	0.448380	0.128020	0.385170
