data_COKQAW_freeONLY_PM
_symmetry_space_group_name_H-M	'P1'
_cell_length_a	25.897800
_cell_length_b	25.897800
_cell_length_c	6.278500
_cell_angle_alpha	90.000000
_cell_angle_beta	90.000000
_cell_angle_gamma	120.000000
_symmetry_Int_Tables_number 1

loop_
_symmetry_equiv_pos_as_xyz
'x,y,z'

loop_
_atom_site_label
_atom_site_type_symbol
_atom_site_fract_x
_atom_site_fract_y
_atom_site_fract_z
Cu11	Cu1	0.387400	0.349160	0.175100
O11	O1	0.354400	0.300400	0.426500
O21	O2	0.289900	0.225500	0.633300
O31	O3	0.362400	0.278100	0.011900
C11	C1	0.328400	0.247800	0.485000
C21	C2	0.328900	0.208200	0.304100
C31	C3	0.347900	0.222500	0.090700
C41	C4	0.354600	0.183800	0.975900
Cu21	Cu2	0.054070	0.682490	0.508430
O41	O4	0.021070	0.633730	0.759830
O51	O5	0.956570	0.558830	0.966630
O61	O6	0.029070	0.611430	0.345230
C51	C5	0.995070	0.581130	0.818330
C61	C6	0.995570	0.541530	0.637430
C71	C7	0.014570	0.555830	0.424030
C81	C8	0.021270	0.517130	0.309230
Cu31	Cu3	0.720730	0.015830	0.841770
O71	O7	0.687730	0.967070	0.093170
O81	O8	0.623230	0.892170	0.299970
O91	O9	0.695730	0.944770	0.678570
C91	C9	0.661730	0.914470	0.151670
C101	C10	0.662230	0.874870	0.970770
C111	C11	0.681230	0.889170	0.757370
C121	C12	0.687930	0.850470	0.642570
Cu41	Cu4	0.650840	0.038240	0.175100
O101	O10	0.699600	0.054000	0.426500
O111	O11	0.774500	0.064400	0.633300
O121	O12	0.721900	0.084300	0.011900
C131	C13	0.752200	0.080600	0.485000
C141	C14	0.791800	0.120700	0.304100
C151	C15	0.777500	0.125400	0.090700
C161	C16	0.816200	0.170800	0.975900
Cu51	Cu5	0.317510	0.371570	0.508430
O131	O13	0.366270	0.387330	0.759830
O141	O14	0.441170	0.397730	0.966630
O151	O15	0.388570	0.417630	0.345230
C171	C17	0.418870	0.413930	0.818330
C181	C18	0.458470	0.454030	0.637430
C191	C19	0.444170	0.458730	0.424030
C201	C20	0.482870	0.504130	0.309230
Cu61	Cu6	0.984170	0.704910	0.841770
O161	O16	0.032930	0.720670	0.093170
O171	O17	0.107830	0.731070	0.299970
O181	O18	0.055230	0.750970	0.678570
C211	C21	0.085530	0.747270	0.151670
C221	C22	0.125130	0.787370	0.970770
C231	C23	0.110830	0.792070	0.757370
C241	C24	0.149530	0.837470	0.642570
Cu71	Cu7	0.961760	0.612600	0.175100
O191	O19	0.946000	0.645600	0.426500
O201	O20	0.935600	0.710100	0.633300
O211	O21	0.915700	0.637600	0.011900
C251	C25	0.919400	0.671600	0.485000
C261	C26	0.879300	0.671100	0.304100
C271	C27	0.874600	0.652100	0.090700
C281	C28	0.829200	0.645400	0.975900
Cu81	Cu8	0.628430	0.945930	0.508430
O221	O22	0.612670	0.978930	0.759830
O231	O23	0.602270	0.043430	0.966630
O241	O24	0.582370	0.970930	0.345230
C291	C29	0.586070	0.004930	0.818330
C301	C30	0.545970	0.004430	0.637430
C311	C31	0.541270	0.985430	0.424030
C321	C32	0.495870	0.978730	0.309230
Cu91	Cu9	0.295090	0.279270	0.841770
O251	O25	0.279330	0.312270	0.093170
O261	O26	0.268930	0.376770	0.299970
O271	O27	0.249030	0.304270	0.678570
C331	C33	0.252730	0.338270	0.151670
C341	C34	0.212630	0.337770	0.970770
C351	C35	0.207930	0.318770	0.757370
C361	C36	0.162530	0.312070	0.642570
Cu101	Cu10	0.612600	0.650840	0.824900
O281	O28	0.645600	0.699600	0.573500
O291	O29	0.710100	0.774500	0.366700
O301	O30	0.637600	0.721900	0.988100
C371	C37	0.671600	0.752200	0.515000
C381	C38	0.671100	0.791800	0.695900
C391	C39	0.652100	0.777500	0.909300
C401	C40	0.645400	0.816200	0.024100
Cu111	Cu11	0.279270	0.984170	0.158230
O311	O31	0.312270	0.032930	0.906830
O321	O32	0.376770	0.107830	0.700030
O331	O33	0.304270	0.055230	0.321430
C411	C41	0.338270	0.085530	0.848330
C421	C42	0.337770	0.125130	0.029230
C431	C43	0.318770	0.110830	0.242630
C441	C44	0.312070	0.149530	0.357430
Cu121	Cu12	0.945930	0.317510	0.491570
O341	O34	0.978930	0.366270	0.240170
O351	O35	0.043430	0.441170	0.033370
O361	O36	0.970930	0.388570	0.654770
C451	C45	0.004930	0.418870	0.181670
C461	C46	0.004430	0.458470	0.362570
C471	C47	0.985430	0.444170	0.575970
C481	C48	0.978730	0.482870	0.690770
Cu131	Cu13	0.349160	0.961760	0.824900
O371	O37	0.300400	0.946000	0.573500
O381	O38	0.225500	0.935600	0.366700
O391	O39	0.278100	0.915700	0.988100
C491	C49	0.247800	0.919400	0.515000
C501	C50	0.208200	0.879300	0.695900
C511	C51	0.222500	0.874600	0.909300
C521	C52	0.183800	0.829200	0.024100
Cu141	Cu14	0.015830	0.295090	0.158230
O401	O40	0.967070	0.279330	0.906830
O411	O41	0.892170	0.268930	0.700030
O421	O42	0.944770	0.249030	0.321430
C531	C53	0.914470	0.252730	0.848330
C541	C54	0.874870	0.212630	0.029230
C551	C55	0.889170	0.207930	0.242630
C561	C56	0.850470	0.162530	0.357430
Cu151	Cu15	0.682490	0.628430	0.491570
O431	O43	0.633730	0.612670	0.240170
O441	O44	0.558830	0.602270	0.033370
O451	O45	0.611430	0.582370	0.654770
C571	C57	0.581130	0.586070	0.181670
C581	C58	0.541530	0.545970	0.362570
C591	C59	0.555830	0.541270	0.575970
C601	C60	0.517130	0.495870	0.690770
Cu161	Cu16	0.038240	0.387400	0.824900
O461	O46	0.054000	0.354400	0.573500
O471	O47	0.064400	0.289900	0.366700
O481	O48	0.084300	0.362400	0.988100
C611	C61	0.080600	0.328400	0.515000
C621	C62	0.120700	0.328900	0.695900
C631	C63	0.125400	0.347900	0.909300
C641	C64	0.170800	0.354600	0.024100
Cu171	Cu17	0.704910	0.720730	0.158230
O491	O49	0.720670	0.687730	0.906830
O501	O50	0.731070	0.623230	0.700030
O511	O51	0.750970	0.695730	0.321430
C651	C65	0.747270	0.661730	0.848330
C661	C66	0.787370	0.662230	0.029230
C671	C67	0.792070	0.681230	0.242630
C681	C68	0.837470	0.687930	0.357430
Cu181	Cu18	0.371570	0.054070	0.491570
O521	O52	0.387330	0.021070	0.240170
O531	O53	0.397730	0.956570	0.033370
O541	O54	0.417630	0.029070	0.654770
C691	C69	0.413930	0.995070	0.181670
C701	C70	0.454030	0.995570	0.362570
C711	C71	0.458730	0.014570	0.575970
C721	C72	0.504130	0.021270	0.690770
