data_COKQEA_freeONLY_PM
_symmetry_space_group_name_H-M	'P1'
_cell_length_a	25.994000
_cell_length_b	25.994000
_cell_length_c	6.812700
_cell_angle_alpha	90.000000
_cell_angle_beta	90.000000
_cell_angle_gamma	120.000000
_symmetry_Int_Tables_number 1

loop_
_symmetry_equiv_pos_as_xyz
'x,y,z'

loop_
_atom_site_label
_atom_site_type_symbol
_atom_site_fract_x
_atom_site_fract_y
_atom_site_fract_z
Co11	Co1	0.949470	0.634670	0.018660
O11	O1	0.895300	0.633500	0.235000
O21	O2	0.871000	0.553700	0.886300
O31	O3	0.940700	0.690200	0.830900
O41	O4	0.007300	0.636700	0.803000
C11	C1	0.819800	0.534700	0.894000
C21	C2	0.989000	0.544500	0.076000
C31	C3	0.015700	0.595400	0.741200
O51	O5	0.770000	0.521000	0.923000
C41	C4	0.983500	0.497800	0.191600
C51	C5	0.005700	0.546500	0.880600
H11	H1	0.972000	0.495900	0.325000
Co21	Co2	0.616140	0.968000	0.351990
O61	O6	0.561970	0.966830	0.568330
O71	O7	0.537670	0.887030	0.219630
O81	O8	0.607370	0.023530	0.164230
O91	O9	0.673970	0.970030	0.136330
C61	C6	0.486470	0.868030	0.227330
C71	C7	0.655670	0.877830	0.409330
C81	C8	0.682370	0.928730	0.074530
O101	O10	0.436670	0.854330	0.256330
C91	C9	0.650170	0.831130	0.524930
C101	C10	0.672370	0.879830	0.213930
H21	H2	0.638670	0.829230	0.658330
Co31	Co3	0.282800	0.301340	0.685330
O111	O11	0.228630	0.300170	0.901670
O121	O12	0.204330	0.220370	0.552970
O131	O13	0.274030	0.356870	0.497570
O141	O14	0.340630	0.303370	0.469670
C111	C11	0.153130	0.201370	0.560670
C121	C12	0.322330	0.211170	0.742670
C131	C13	0.349030	0.262070	0.407870
O151	O15	0.103330	0.187670	0.589670
C141	C14	0.316830	0.164470	0.858270
C151	C15	0.339030	0.213170	0.547270
H31	H3	0.305330	0.162570	0.991670
Co41	Co4	0.365330	0.314800	0.018660
O161	O16	0.366500	0.261800	0.235000
O171	O17	0.446300	0.317300	0.886300
O181	O18	0.309800	0.250500	0.830900
O191	O19	0.363300	0.370600	0.803000
C161	C16	0.465300	0.285100	0.894000
C171	C17	0.455500	0.444500	0.076000
C181	C18	0.404600	0.420300	0.741200
O201	O20	0.479000	0.249000	0.923000
C191	C19	0.502200	0.485700	0.191600
C201	C20	0.453500	0.459200	0.880600
H41	H4	0.504100	0.476100	0.325000
Co51	Co5	0.032000	0.648130	0.351990
O211	O21	0.033170	0.595130	0.568330
O221	O22	0.112970	0.650630	0.219630
O231	O23	0.976470	0.583830	0.164230
O241	O24	0.029970	0.703930	0.136330
C211	C21	0.131970	0.618430	0.227330
C221	C22	0.122170	0.777830	0.409330
C231	C23	0.071270	0.753630	0.074530
O251	O25	0.145670	0.582330	0.256330
C241	C24	0.168870	0.819030	0.524930
C251	C25	0.120170	0.792530	0.213930
H51	H5	0.170770	0.809430	0.658330
Co61	Co6	0.698660	0.981470	0.685330
O261	O26	0.699830	0.928470	0.901670
O271	O27	0.779630	0.983970	0.552970
O281	O28	0.643130	0.917170	0.497570
O291	O29	0.696630	0.037270	0.469670
C261	C26	0.798630	0.951770	0.560670
C271	C27	0.788830	0.111170	0.742670
C281	C28	0.737930	0.086970	0.407870
O301	O30	0.812330	0.915670	0.589670
C291	C29	0.835530	0.152370	0.858270
C301	C30	0.786830	0.125870	0.547270
H61	H6	0.837430	0.142770	0.991670
Co71	Co7	0.685200	0.050530	0.018660
O311	O31	0.738200	0.104700	0.235000
O321	O32	0.682700	0.129000	0.886300
O331	O33	0.749500	0.059300	0.830900
O341	O34	0.629400	0.992700	0.803000
C311	C31	0.714900	0.180200	0.894000
C321	C32	0.555500	0.011000	0.076000
C331	C33	0.579700	0.984300	0.741200
O351	O35	0.751000	0.230000	0.923000
C341	C34	0.514300	0.016500	0.191600
C351	C35	0.540800	0.994300	0.880600
H71	H7	0.523900	0.028000	0.325000
Co81	Co8	0.351870	0.383860	0.351990
O361	O36	0.404870	0.438030	0.568330
O371	O37	0.349370	0.462330	0.219630
O381	O38	0.416170	0.392630	0.164230
O391	O39	0.296070	0.326030	0.136330
C361	C36	0.381570	0.513530	0.227330
C371	C37	0.222170	0.344330	0.409330
C381	C38	0.246370	0.317630	0.074530
O401	O40	0.417670	0.563330	0.256330
C391	C39	0.180970	0.349830	0.524930
C401	C40	0.207470	0.327630	0.213930
H81	H8	0.190570	0.361330	0.658330
Co91	Co9	0.018530	0.717200	0.685330
O411	O41	0.071530	0.771370	0.901670
O421	O42	0.016030	0.795670	0.552970
O431	O43	0.082830	0.725970	0.497570
O441	O44	0.962730	0.659370	0.469670
C411	C41	0.048230	0.846870	0.560670
C421	C42	0.888830	0.677670	0.742670
C431	C43	0.913030	0.650970	0.407870
O451	O45	0.084330	0.896670	0.589670
C441	C44	0.847630	0.683170	0.858270
C451	C45	0.874130	0.660970	0.547270
H91	H9	0.857230	0.694670	0.991670
Co101	Co10	0.050530	0.365330	0.981340
O461	O46	0.104700	0.366500	0.765000
O471	O47	0.129000	0.446300	0.113700
O481	O48	0.059300	0.309800	0.169100
O491	O49	0.992700	0.363300	0.197000
C461	C46	0.180200	0.465300	0.106000
C471	C47	0.011000	0.455500	0.924000
C481	C48	0.984300	0.404600	0.258800
O501	O50	0.230000	0.479000	0.077000
C491	C49	0.016500	0.502200	0.808400
C501	C50	0.994300	0.453500	0.119400
H101	H10	0.028000	0.504100	0.675000
Co111	Co11	0.717200	0.698660	0.314670
O511	O51	0.771370	0.699830	0.098330
O521	O52	0.795670	0.779630	0.447030
O531	O53	0.725970	0.643130	0.502430
O541	O54	0.659370	0.696630	0.530330
C511	C51	0.846870	0.798630	0.439330
C521	C52	0.677670	0.788830	0.257330
C531	C53	0.650970	0.737930	0.592130
O551	O55	0.896670	0.812330	0.410330
C541	C54	0.683170	0.835530	0.141730
C551	C55	0.660970	0.786830	0.452730
H111	H11	0.694670	0.837430	0.008330
Co121	Co12	0.383860	0.032000	0.648010
O561	O56	0.438030	0.033170	0.431670
O571	O57	0.462330	0.112970	0.780370
O581	O58	0.392630	0.976470	0.835770
O591	O59	0.326030	0.029970	0.863670
C561	C56	0.513530	0.131970	0.772670
C571	C57	0.344330	0.122170	0.590670
C581	C58	0.317630	0.071270	0.925470
O601	O60	0.563330	0.145670	0.743670
C591	C59	0.349830	0.168870	0.475070
C601	C60	0.327630	0.120170	0.786070
H121	H12	0.361330	0.170770	0.341670
Co131	Co13	0.634670	0.685200	0.981340
O611	O61	0.633500	0.738200	0.765000
O621	O62	0.553700	0.682700	0.113700
O631	O63	0.690200	0.749500	0.169100
O641	O64	0.636700	0.629400	0.197000
C611	C61	0.534700	0.714900	0.106000
C621	C62	0.544500	0.555500	0.924000
C631	C63	0.595400	0.579700	0.258800
O651	O65	0.521000	0.751000	0.077000
C641	C64	0.497800	0.514300	0.808400
C651	C65	0.546500	0.540800	0.119400
H131	H13	0.495900	0.523900	0.675000
Co141	Co14	0.301340	0.018530	0.314670
O661	O66	0.300170	0.071530	0.098330
O671	O67	0.220370	0.016030	0.447030
O681	O68	0.356870	0.082830	0.502430
O691	O69	0.303370	0.962730	0.530330
C661	C66	0.201370	0.048230	0.439330
C671	C67	0.211170	0.888830	0.257330
C681	C68	0.262070	0.913030	0.592130
O701	O70	0.187670	0.084330	0.410330
C691	C69	0.164470	0.847630	0.141730
C701	C70	0.213170	0.874130	0.452730
H141	H14	0.162570	0.857230	0.008330
Co151	Co15	0.968000	0.351870	0.648010
O711	O71	0.966830	0.404870	0.431670
O721	O72	0.887030	0.349370	0.780370
O731	O73	0.023530	0.416170	0.835770
O741	O74	0.970030	0.296070	0.863670
C711	C71	0.868030	0.381570	0.772670
C721	C72	0.877830	0.222170	0.590670
C731	C73	0.928730	0.246370	0.925470
O751	O75	0.854330	0.417670	0.743670
C741	C74	0.831130	0.180970	0.475070
C751	C75	0.879830	0.207470	0.786070
H151	H15	0.829230	0.190570	0.341670
Co161	Co16	0.314800	0.949470	0.981340
O761	O76	0.261800	0.895300	0.765000
O771	O77	0.317300	0.871000	0.113700
O781	O78	0.250500	0.940700	0.169100
O791	O79	0.370600	0.007300	0.197000
C761	C76	0.285100	0.819800	0.106000
C771	C77	0.444500	0.989000	0.924000
C781	C78	0.420300	0.015700	0.258800
O801	O80	0.249000	0.770000	0.077000
C791	C79	0.485700	0.983500	0.808400
C801	C80	0.459200	0.005700	0.119400
H161	H16	0.476100	0.972000	0.675000
Co171	Co17	0.981470	0.282800	0.314670
O811	O81	0.928470	0.228630	0.098330
O821	O82	0.983970	0.204330	0.447030
O831	O83	0.917170	0.274030	0.502430
O841	O84	0.037270	0.340630	0.530330
C811	C81	0.951770	0.153130	0.439330
C821	C82	0.111170	0.322330	0.257330
C831	C83	0.086970	0.349030	0.592130
O851	O85	0.915670	0.103330	0.410330
C841	C84	0.152370	0.316830	0.141730
C851	C85	0.125870	0.339030	0.452730
H171	H17	0.142770	0.305330	0.008330
Co181	Co18	0.648130	0.616140	0.648010
O861	O86	0.595130	0.561970	0.431670
O871	O87	0.650630	0.537670	0.780370
O881	O88	0.583830	0.607370	0.835770
O891	O89	0.703930	0.673970	0.863670
C861	C86	0.618430	0.486470	0.772670
C871	C87	0.777830	0.655670	0.590670
C881	C88	0.753630	0.682370	0.925470
O901	O90	0.582330	0.436670	0.743670
C891	C89	0.819030	0.650170	0.475070
C901	C90	0.792530	0.672370	0.786070
H181	H18	0.809430	0.638670	0.341670
