data_COQGAS_freeONLY_PM
_symmetry_space_group_name_H-M	'P1'
_cell_length_a	14.900000
_cell_length_b	24.324000
_cell_length_c	16.253000
_cell_angle_alpha	90.000000
_cell_angle_beta	113.233000
_cell_angle_gamma	90.000000
_symmetry_Int_Tables_number 1

loop_
_symmetry_equiv_pos_as_xyz
'x,y,z'

loop_
_atom_site_label
_atom_site_type_symbol
_atom_site_fract_x
_atom_site_fract_y
_atom_site_fract_z
Zn11	Zn1	0.418650	0.013450	0.637760
O11	O1	0.404800	0.679910	0.631400
O21	O2	0.476800	0.938320	0.642900
O31	O3	0.329900	0.937680	0.644700
O41	O4	0.034300	0.558340	0.646100
O51	O5	0.137500	0.555090	0.790400
N11	N1	0.332000	0.028750	0.506700
N21	N2	0.088700	0.007930	0.188400
C11	C1	0.403600	0.850700	0.643100
C21	C2	0.477000	0.822360	0.628600
H11	H1	0.528500	0.842300	0.621800
C31	C3	0.476200	0.765640	0.624100
H21	H2	0.525900	0.746500	0.612900
C41	C4	0.401200	0.736830	0.636300
C51	C5	0.327000	0.764470	0.651100
H31	H3	0.276000	0.744600	0.658800
C61	C6	0.328800	0.821760	0.654400
H41	H4	0.278700	0.841100	0.664500
C71	C7	0.402200	0.911730	0.644200
C81	C8	0.334000	0.651590	0.651000
C91	C9	0.352700	0.637140	0.739100
H51	H5	0.413100	0.646400	0.786100
C101	C10	0.282000	0.609220	0.756800
H61	H6	0.294600	0.598100	0.816400
C111	C11	0.191800	0.597010	0.688400
C121	C12	0.175200	0.610390	0.600500
H71	H7	0.115100	0.600800	0.553300
C131	C13	0.246600	0.637800	0.581800
H81	H8	0.235700	0.647100	0.521800
C141	C14	0.115300	0.567790	0.710200
C151	C15	0.369000	0.048840	0.449800
H91	H9	0.434700	0.061400	0.474100
C161	C16	0.318500	0.052400	0.359500
H101	H10	0.348500	0.066900	0.322300
C171	C17	0.222100	0.034340	0.323000
C181	C18	0.181200	0.014130	0.379800
H111	H11	0.115400	0.001700	0.356600
C191	C19	0.237100	0.012220	0.470700
H121	H12	0.208200	0.998900	0.509500
C201	C20	0.169800	0.032230	0.223900
H131	H13	0.197700	0.049400	0.187000
C211	C21	0.044900	0.005990	0.093200
C221	C22	0.000200	0.955690	0.054100
H141	H14	0.000200	0.925600	0.091400
C231	C23	0.043400	0.049760	0.038200
H151	H15	0.072500	0.083700	0.063900
Zn21	Zn2	0.918650	0.513450	0.637760
O61	O6	0.904800	0.179910	0.631400
O71	O7	0.976800	0.438320	0.642900
O81	O8	0.829900	0.437680	0.644700
O91	O9	0.534300	0.058340	0.646100
O101	O10	0.637500	0.055090	0.790400
N31	N3	0.832000	0.528750	0.506700
N41	N4	0.588700	0.507930	0.188400
C241	C24	0.903600	0.350700	0.643100
C251	C25	0.977000	0.322360	0.628600
H161	H16	0.028500	0.342300	0.621800
C261	C26	0.976200	0.265640	0.624100
H171	H17	0.025900	0.246500	0.612900
C271	C27	0.901200	0.236830	0.636300
C281	C28	0.827000	0.264470	0.651100
H181	H18	0.776000	0.244600	0.658800
C291	C29	0.828800	0.321760	0.654400
H191	H19	0.778700	0.341100	0.664500
C301	C30	0.902200	0.411730	0.644200
C311	C31	0.834000	0.151590	0.651000
C321	C32	0.852700	0.137140	0.739100
H201	H20	0.913100	0.146400	0.786100
C331	C33	0.782000	0.109220	0.756800
H211	H21	0.794600	0.098100	0.816400
C341	C34	0.691800	0.097010	0.688400
C351	C35	0.675200	0.110390	0.600500
H221	H22	0.615100	0.100800	0.553300
C361	C36	0.746600	0.137800	0.581800
H231	H23	0.735700	0.147100	0.521800
C371	C37	0.615300	0.067790	0.710200
C381	C38	0.869000	0.548840	0.449800
H241	H24	0.934700	0.561400	0.474100
C391	C39	0.818500	0.552400	0.359500
H251	H25	0.848500	0.566900	0.322300
C401	C40	0.722100	0.534340	0.323000
C411	C41	0.681200	0.514130	0.379800
H261	H26	0.615400	0.501700	0.356600
C421	C42	0.737100	0.512220	0.470700
H271	H27	0.708200	0.498900	0.509500
C431	C43	0.669800	0.532230	0.223900
H281	H28	0.697700	0.549400	0.187000
C441	C44	0.544900	0.505990	0.093200
C451	C45	0.500200	0.455690	0.054100
H291	H29	0.500200	0.425600	0.091400
C461	C46	0.543400	0.549760	0.038200
H301	H30	0.572500	0.583700	0.063900
Zn31	Zn3	0.581350	0.013450	0.862240
O111	O11	0.595200	0.679910	0.868600
O121	O12	0.523200	0.938320	0.857100
O131	O13	0.670100	0.937680	0.855300
O141	O14	0.965700	0.558340	0.853900
O151	O15	0.862500	0.555090	0.709600
N51	N5	0.668000	0.028750	0.993300
N61	N6	0.911300	0.007930	0.311600
C471	C47	0.596400	0.850700	0.856900
C481	C48	0.523000	0.822360	0.871400
H311	H31	0.471500	0.842300	0.878200
C491	C49	0.523800	0.765640	0.875900
H321	H32	0.474100	0.746500	0.887100
C501	C50	0.598800	0.736830	0.863700
C511	C51	0.673000	0.764470	0.848900
H331	H33	0.724000	0.744600	0.841200
C521	C52	0.671200	0.821760	0.845600
H341	H34	0.721300	0.841100	0.835500
C531	C53	0.597800	0.911730	0.855800
C541	C54	0.666000	0.651590	0.849000
C551	C55	0.647300	0.637140	0.760900
H351	H35	0.586900	0.646400	0.713900
C561	C56	0.718000	0.609220	0.743200
H361	H36	0.705400	0.598100	0.683600
C571	C57	0.808200	0.597010	0.811600
C581	C58	0.824800	0.610390	0.899500
H371	H37	0.884900	0.600800	0.946700
C591	C59	0.753400	0.637800	0.918200
H381	H38	0.764300	0.647100	0.978200
C601	C60	0.884700	0.567790	0.789800
C611	C61	0.631000	0.048840	0.050200
H391	H39	0.565300	0.061400	0.025900
C621	C62	0.681500	0.052400	0.140500
H401	H40	0.651500	0.066900	0.177700
C631	C63	0.777900	0.034340	0.177000
C641	C64	0.818800	0.014130	0.120200
H411	H41	0.884600	0.001700	0.143400
C651	C65	0.762900	0.012220	0.029300
H421	H42	0.791800	0.998900	0.990500
C661	C66	0.830200	0.032230	0.276100
H431	H43	0.802300	0.049400	0.313000
C671	C67	0.955100	0.005990	0.406800
C681	C68	0.999800	0.955690	0.445900
H441	H44	0.999800	0.925600	0.408600
C691	C69	0.956600	0.049760	0.461800
H451	H45	0.927500	0.083700	0.436100
Zn41	Zn4	0.081350	0.513450	0.862240
O161	O16	0.095200	0.179910	0.868600
O171	O17	0.023200	0.438320	0.857100
O181	O18	0.170100	0.437680	0.855300
O191	O19	0.465700	0.058340	0.853900
O201	O20	0.362500	0.055090	0.709600
N71	N7	0.168000	0.528750	0.993300
N81	N8	0.411300	0.507930	0.311600
C701	C70	0.096400	0.350700	0.856900
C711	C71	0.023000	0.322360	0.871400
H461	H46	0.971500	0.342300	0.878200
C721	C72	0.023800	0.265640	0.875900
H471	H47	0.974100	0.246500	0.887100
C731	C73	0.098800	0.236830	0.863700
C741	C74	0.173000	0.264470	0.848900
H481	H48	0.224000	0.244600	0.841200
C751	C75	0.171200	0.321760	0.845600
H491	H49	0.221300	0.341100	0.835500
C761	C76	0.097800	0.411730	0.855800
C771	C77	0.166000	0.151590	0.849000
C781	C78	0.147300	0.137140	0.760900
H501	H50	0.086900	0.146400	0.713900
C791	C79	0.218000	0.109220	0.743200
H511	H51	0.205400	0.098100	0.683600
C801	C80	0.308200	0.097010	0.811600
C811	C81	0.324800	0.110390	0.899500
H521	H52	0.384900	0.100800	0.946700
C821	C82	0.253400	0.137800	0.918200
H531	H53	0.264300	0.147100	0.978200
C831	C83	0.384700	0.067790	0.789800
C841	C84	0.131000	0.548840	0.050200
H541	H54	0.065300	0.561400	0.025900
C851	C85	0.181500	0.552400	0.140500
H551	H55	0.151500	0.566900	0.177700
C861	C86	0.277900	0.534340	0.177000
C871	C87	0.318800	0.514130	0.120200
H561	H56	0.384600	0.501700	0.143400
C881	C88	0.262900	0.512220	0.029300
H571	H57	0.291800	0.498900	0.990500
C891	C89	0.330200	0.532230	0.276100
H581	H58	0.302300	0.549400	0.313000
C901	C90	0.455100	0.505990	0.406800
C911	C91	0.499800	0.455690	0.445900
H591	H59	0.499800	0.425600	0.408600
C921	C92	0.456600	0.549760	0.461800
H601	H60	0.427500	0.583700	0.436100
Zn51	Zn5	0.581350	0.986550	0.362240
O211	O21	0.595200	0.320090	0.368600
O221	O22	0.523200	0.061680	0.357100
O231	O23	0.670100	0.062320	0.355300
O241	O24	0.965700	0.441660	0.353900
O251	O25	0.862500	0.444910	0.209600
N91	N9	0.668000	0.971250	0.493300
N101	N10	0.911300	0.992070	0.811600
C931	C93	0.596400	0.149300	0.356900
C941	C94	0.523000	0.177640	0.371400
H611	H61	0.471500	0.157700	0.378200
C951	C95	0.523800	0.234360	0.375900
H621	H62	0.474100	0.253500	0.387100
C961	C96	0.598800	0.263170	0.363700
C971	C97	0.673000	0.235530	0.348900
H631	H63	0.724000	0.255400	0.341200
C981	C98	0.671200	0.178240	0.345600
H641	H64	0.721300	0.158900	0.335500
C991	C99	0.597800	0.088270	0.355800
C1001	C100	0.666000	0.348410	0.349000
C1011	C101	0.647300	0.362860	0.260900
H651	H65	0.586900	0.353600	0.213900
C1021	C102	0.718000	0.390780	0.243200
H661	H66	0.705400	0.401900	0.183600
C1031	C103	0.808200	0.402990	0.311600
C1041	C104	0.824800	0.389610	0.399500
H671	H67	0.884900	0.399200	0.446700
C1051	C105	0.753400	0.362200	0.418200
H681	H68	0.764300	0.352900	0.478200
C1061	C106	0.884700	0.432210	0.289800
C1071	C107	0.631000	0.951160	0.550200
H691	H69	0.565300	0.938600	0.525900
C1081	C108	0.681500	0.947600	0.640500
H701	H70	0.651500	0.933100	0.677700
C1091	C109	0.777900	0.965660	0.677000
C1101	C110	0.818800	0.985870	0.620200
H711	H71	0.884600	0.998300	0.643400
C1111	C111	0.762900	0.987780	0.529300
H721	H72	0.791800	0.001100	0.490500
C1121	C112	0.830200	0.967770	0.776100
H731	H73	0.802300	0.950600	0.813000
C1131	C113	0.955100	0.994010	0.906800
C1141	C114	0.999800	0.044310	0.945900
H741	H74	0.999800	0.074400	0.908600
C1151	C115	0.956600	0.950240	0.961800
H751	H75	0.927500	0.916300	0.936100
Zn61	Zn6	0.081350	0.486550	0.362240
O261	O26	0.095200	0.820090	0.368600
O271	O27	0.023200	0.561680	0.357100
O281	O28	0.170100	0.562320	0.355300
O291	O29	0.465700	0.941660	0.353900
O301	O30	0.362500	0.944910	0.209600
N111	N11	0.168000	0.471250	0.493300
N121	N12	0.411300	0.492070	0.811600
C1161	C116	0.096400	0.649300	0.356900
C1171	C117	0.023000	0.677640	0.371400
H761	H76	0.971500	0.657700	0.378200
C1181	C118	0.023800	0.734360	0.375900
H771	H77	0.974100	0.753500	0.387100
C1191	C119	0.098800	0.763170	0.363700
C1201	C120	0.173000	0.735530	0.348900
H781	H78	0.224000	0.755400	0.341200
C1211	C121	0.171200	0.678240	0.345600
H791	H79	0.221300	0.658900	0.335500
C1221	C122	0.097800	0.588270	0.355800
C1231	C123	0.166000	0.848410	0.349000
C1241	C124	0.147300	0.862860	0.260900
H801	H80	0.086900	0.853600	0.213900
C1251	C125	0.218000	0.890780	0.243200
H811	H81	0.205400	0.901900	0.183600
C1261	C126	0.308200	0.902990	0.311600
C1271	C127	0.324800	0.889610	0.399500
H821	H82	0.384900	0.899200	0.446700
C1281	C128	0.253400	0.862200	0.418200
H831	H83	0.264300	0.852900	0.478200
C1291	C129	0.384700	0.932210	0.289800
C1301	C130	0.131000	0.451160	0.550200
H841	H84	0.065300	0.438600	0.525900
C1311	C131	0.181500	0.447600	0.640500
H851	H85	0.151500	0.433100	0.677700
C1321	C132	0.277900	0.465660	0.677000
C1331	C133	0.318800	0.485870	0.620200
H861	H86	0.384600	0.498300	0.643400
C1341	C134	0.262900	0.487780	0.529300
H871	H87	0.291800	0.501100	0.490500
C1351	C135	0.330200	0.467770	0.776100
H881	H88	0.302300	0.450600	0.813000
C1361	C136	0.455100	0.494010	0.906800
C1371	C137	0.499800	0.544310	0.945900
H891	H89	0.499800	0.574400	0.908600
C1381	C138	0.456600	0.450240	0.961800
H901	H90	0.427500	0.416300	0.936100
Zn71	Zn7	0.418650	0.986550	0.137760
O311	O31	0.404800	0.320090	0.131400
O321	O32	0.476800	0.061680	0.142900
O331	O33	0.329900	0.062320	0.144700
O341	O34	0.034300	0.441660	0.146100
O351	O35	0.137500	0.444910	0.290400
N131	N13	0.332000	0.971250	0.006700
N141	N14	0.088700	0.992070	0.688400
C1391	C139	0.403600	0.149300	0.143100
C1401	C140	0.477000	0.177640	0.128600
H911	H91	0.528500	0.157700	0.121800
C1411	C141	0.476200	0.234360	0.124100
H921	H92	0.525900	0.253500	0.112900
C1421	C142	0.401200	0.263170	0.136300
C1431	C143	0.327000	0.235530	0.151100
H931	H93	0.276000	0.255400	0.158800
C1441	C144	0.328800	0.178240	0.154400
H941	H94	0.278700	0.158900	0.164500
C1451	C145	0.402200	0.088270	0.144200
C1461	C146	0.334000	0.348410	0.151000
C1471	C147	0.352700	0.362860	0.239100
H951	H95	0.413100	0.353600	0.286100
C1481	C148	0.282000	0.390780	0.256800
H961	H96	0.294600	0.401900	0.316400
C1491	C149	0.191800	0.402990	0.188400
C1501	C150	0.175200	0.389610	0.100500
H971	H97	0.115100	0.399200	0.053300
C1511	C151	0.246600	0.362200	0.081800
H981	H98	0.235700	0.352900	0.021800
C1521	C152	0.115300	0.432210	0.210200
C1531	C153	0.369000	0.951160	0.949800
H991	H99	0.434700	0.938600	0.974100
C1541	C154	0.318500	0.947600	0.859500
H1001	H100	0.348500	0.933100	0.822300
C1551	C155	0.222100	0.965660	0.823000
C1561	C156	0.181200	0.985870	0.879800
H1011	H101	0.115400	0.998300	0.856600
C1571	C157	0.237100	0.987780	0.970700
H1021	H102	0.208200	0.001100	0.009500
C1581	C158	0.169800	0.967770	0.723900
H1031	H103	0.197700	0.950600	0.687000
C1591	C159	0.044900	0.994010	0.593200
C1601	C160	0.000200	0.044310	0.554100
H1041	H104	0.000200	0.074400	0.591400
C1611	C161	0.043400	0.950240	0.538200
H1051	H105	0.072500	0.916300	0.563900
Zn81	Zn8	0.918650	0.486550	0.137760
O361	O36	0.904800	0.820090	0.131400
O371	O37	0.976800	0.561680	0.142900
O381	O38	0.829900	0.562320	0.144700
O391	O39	0.534300	0.941660	0.146100
O401	O40	0.637500	0.944910	0.290400
N151	N15	0.832000	0.471250	0.006700
N161	N16	0.588700	0.492070	0.688400
C1621	C162	0.903600	0.649300	0.143100
C1631	C163	0.977000	0.677640	0.128600
H1061	H106	0.028500	0.657700	0.121800
C1641	C164	0.976200	0.734360	0.124100
H1071	H107	0.025900	0.753500	0.112900
C1651	C165	0.901200	0.763170	0.136300
C1661	C166	0.827000	0.735530	0.151100
H1081	H108	0.776000	0.755400	0.158800
C1671	C167	0.828800	0.678240	0.154400
H1091	H109	0.778700	0.658900	0.164500
C1681	C168	0.902200	0.588270	0.144200
C1691	C169	0.834000	0.848410	0.151000
C1701	C170	0.852700	0.862860	0.239100
H1101	H110	0.913100	0.853600	0.286100
C1711	C171	0.782000	0.890780	0.256800
H1111	H111	0.794600	0.901900	0.316400
C1721	C172	0.691800	0.902990	0.188400
C1731	C173	0.675200	0.889610	0.100500
H1121	H112	0.615100	0.899200	0.053300
C1741	C174	0.746600	0.862200	0.081800
H1131	H113	0.735700	0.852900	0.021800
C1751	C175	0.615300	0.932210	0.210200
C1761	C176	0.869000	0.451160	0.949800
H1141	H114	0.934700	0.438600	0.974100
C1771	C177	0.818500	0.447600	0.859500
H1151	H115	0.848500	0.433100	0.822300
C1781	C178	0.722100	0.465660	0.823000
C1791	C179	0.681200	0.485870	0.879800
H1161	H116	0.615400	0.498300	0.856600
C1801	C180	0.737100	0.487780	0.970700
H1171	H117	0.708200	0.501100	0.009500
C1811	C181	0.669800	0.467770	0.723900
H1181	H118	0.697700	0.450600	0.687000
C1821	C182	0.544900	0.494010	0.593200
C1831	C183	0.500200	0.544310	0.554100
H1191	H119	0.500200	0.574400	0.591400
C1841	C184	0.543400	0.450240	0.538200
H1201	H120	0.572500	0.416300	0.563900
