data_COSWEO_freeONLY_PM
_symmetry_space_group_name_H-M	'P1'
_cell_length_a	20.812000
_cell_length_b	6.649500
_cell_length_c	20.865000
_cell_angle_alpha	90.000000
_cell_angle_beta	90.000000
_cell_angle_gamma	90.000000
_symmetry_Int_Tables_number 1

loop_
_symmetry_equiv_pos_as_xyz
'x,y,z'

loop_
_atom_site_label
_atom_site_type_symbol
_atom_site_fract_x
_atom_site_fract_y
_atom_site_fract_z
Ba11	Ba1	0.139960	0.393940	0.114950
O11	O1	0.098720	0.243500	0.338540
O21	O2	0.140900	0.722800	0.035800
H11	H1	0.117800	0.700400	0.001200
H21	H2	0.180400	0.750400	0.023800
O31	O3	0.130740	0.262700	0.237890
O41	O4	0.366100	0.256600	0.489430
O51	O5	0.266500	0.168000	0.510950
O61	O6	0.359630	0.251800	0.182300
O71	O7	0.432900	0.287900	0.259000
O81	O8	0.055300	0.049200	0.125800
O91	O9	0.221570	0.034300	0.124140
O101	O10	0.016600	0.494800	0.167500
C11	C1	0.143100	0.252200	0.297100
C21	C2	0.211500	0.250000	0.318200
C31	C3	0.228200	0.239300	0.383100
H31	H3	0.196000	0.233600	0.414000
C41	C4	0.292400	0.237000	0.402200
C51	C5	0.340100	0.248000	0.356300
H41	H4	0.383000	0.251000	0.368700
C61	C6	0.324300	0.254600	0.290900
C71	C7	0.260600	0.254000	0.272700
H51	H5	0.250200	0.256200	0.229400
C81	C8	0.308700	0.220400	0.472000
C91	C9	0.375900	0.265400	0.240500
Ba21	Ba2	0.360040	0.106060	0.614950
O111	O11	0.401280	0.256500	0.838540
O121	O12	0.359100	0.777200	0.535800
H61	H6	0.382200	0.799600	0.501200
H71	H7	0.319600	0.749600	0.523800
O131	O13	0.369260	0.237300	0.737890
O141	O14	0.133900	0.243400	0.989430
O151	O15	0.233500	0.332000	0.010950
O161	O16	0.140370	0.248200	0.682300
O171	O17	0.067100	0.212100	0.759000
O181	O18	0.444700	0.450800	0.625800
O191	O19	0.278430	0.465700	0.624140
O201	O20	0.483400	0.005200	0.667500
C101	C10	0.356900	0.247800	0.797100
C111	C11	0.288500	0.250000	0.818200
C121	C12	0.271800	0.260700	0.883100
H81	H8	0.304000	0.266400	0.914000
C131	C13	0.207600	0.263000	0.902200
C141	C14	0.159900	0.252000	0.856300
H91	H9	0.117000	0.249000	0.868700
C151	C15	0.175700	0.245400	0.790900
C161	C16	0.239400	0.246000	0.772700
H101	H10	0.249800	0.243800	0.729400
C171	C17	0.191300	0.279600	0.972000
C181	C18	0.124100	0.234600	0.740500
Ba31	Ba3	0.860040	0.393940	0.385050
O211	O21	0.901280	0.243500	0.161460
O221	O22	0.859100	0.722800	0.464200
H111	H11	0.882200	0.700400	0.498800
H121	H12	0.819600	0.750400	0.476200
O231	O23	0.869260	0.262700	0.262110
O241	O24	0.633900	0.256600	0.010570
O251	O25	0.733500	0.168000	0.989050
O261	O26	0.640370	0.251800	0.317700
O271	O27	0.567100	0.287900	0.241000
O281	O28	0.944700	0.049200	0.374200
O291	O29	0.778430	0.034300	0.375860
O301	O30	0.983400	0.494800	0.332500
C191	C19	0.856900	0.252200	0.202900
C201	C20	0.788500	0.250000	0.181800
C211	C21	0.771800	0.239300	0.116900
H131	H13	0.804000	0.233600	0.086000
C221	C22	0.707600	0.237000	0.097800
C231	C23	0.659900	0.248000	0.143700
H141	H14	0.617000	0.251000	0.131300
C241	C24	0.675700	0.254600	0.209100
C251	C25	0.739400	0.254000	0.227300
H151	H15	0.749800	0.256200	0.270600
C261	C26	0.691300	0.220400	0.028000
C271	C27	0.624100	0.265400	0.259500
Ba41	Ba4	0.639960	0.106060	0.885050
O311	O31	0.598720	0.256500	0.661460
O321	O32	0.640900	0.777200	0.964200
H161	H16	0.617800	0.799600	0.998800
H171	H17	0.680400	0.749600	0.976200
O331	O33	0.630740	0.237300	0.762110
O341	O34	0.866100	0.243400	0.510570
O351	O35	0.766500	0.332000	0.489050
O361	O36	0.859630	0.248200	0.817700
O371	O37	0.932900	0.212100	0.741000
O381	O38	0.555300	0.450800	0.874200
O391	O39	0.721570	0.465700	0.875860
O401	O40	0.516600	0.005200	0.832500
C281	C28	0.643100	0.247800	0.702900
C291	C29	0.711500	0.250000	0.681800
C301	C30	0.728200	0.260700	0.616900
H181	H18	0.696000	0.266400	0.586000
C311	C31	0.792400	0.263000	0.597800
C321	C32	0.840100	0.252000	0.643700
H191	H19	0.883000	0.249000	0.631300
C331	C33	0.824300	0.245400	0.709100
C341	C34	0.760600	0.246000	0.727300
H201	H20	0.750200	0.243800	0.770600
C351	C35	0.808700	0.279600	0.528000
C361	C36	0.875900	0.234600	0.759500
Ba51	Ba5	0.860040	0.606060	0.885050
O411	O41	0.901280	0.756500	0.661460
O421	O42	0.859100	0.277200	0.964200
H211	H21	0.882200	0.299600	0.998800
H221	H22	0.819600	0.249600	0.976200
O431	O43	0.869260	0.737300	0.762110
O441	O44	0.633900	0.743400	0.510570
O451	O45	0.733500	0.832000	0.489050
O461	O46	0.640370	0.748200	0.817700
O471	O47	0.567100	0.712100	0.741000
O481	O48	0.944700	0.950800	0.874200
O491	O49	0.778430	0.965700	0.875860
O501	O50	0.983400	0.505200	0.832500
C371	C37	0.856900	0.747800	0.702900
C381	C38	0.788500	0.750000	0.681800
C391	C39	0.771800	0.760700	0.616900
H231	H23	0.804000	0.766400	0.586000
C401	C40	0.707600	0.763000	0.597800
C411	C41	0.659900	0.752000	0.643700
H241	H24	0.617000	0.749000	0.631300
C421	C42	0.675700	0.745400	0.709100
C431	C43	0.739400	0.746000	0.727300
H251	H25	0.749800	0.743800	0.770600
C441	C44	0.691300	0.779600	0.528000
C451	C45	0.624100	0.734600	0.759500
Ba61	Ba6	0.639960	0.893940	0.385050
O511	O51	0.598720	0.743500	0.161460
O521	O52	0.640900	0.222800	0.464200
H261	H26	0.617800	0.200400	0.498800
H271	H27	0.680400	0.250400	0.476200
O531	O53	0.630740	0.762700	0.262110
O541	O54	0.866100	0.756600	0.010570
O551	O55	0.766500	0.668000	0.989050
O561	O56	0.859630	0.751800	0.317700
O571	O57	0.932900	0.787900	0.241000
O581	O58	0.555300	0.549200	0.374200
O591	O59	0.721570	0.534300	0.375860
O601	O60	0.516600	0.994800	0.332500
C461	C46	0.643100	0.752200	0.202900
C471	C47	0.711500	0.750000	0.181800
C481	C48	0.728200	0.739300	0.116900
H281	H28	0.696000	0.733600	0.086000
C491	C49	0.792400	0.737000	0.097800
C501	C50	0.840100	0.748000	0.143700
H291	H29	0.883000	0.751000	0.131300
C511	C51	0.824300	0.754600	0.209100
C521	C52	0.760600	0.754000	0.227300
H301	H30	0.750200	0.756200	0.270600
C531	C53	0.808700	0.720400	0.028000
C541	C54	0.875900	0.765400	0.259500
Ba71	Ba7	0.139960	0.606060	0.614950
O611	O61	0.098720	0.756500	0.838540
O621	O62	0.140900	0.277200	0.535800
H311	H31	0.117800	0.299600	0.501200
H321	H32	0.180400	0.249600	0.523800
O631	O63	0.130740	0.737300	0.737890
O641	O64	0.366100	0.743400	0.989430
O651	O65	0.266500	0.832000	0.010950
O661	O66	0.359630	0.748200	0.682300
O671	O67	0.432900	0.712100	0.759000
O681	O68	0.055300	0.950800	0.625800
O691	O69	0.221570	0.965700	0.624140
O701	O70	0.016600	0.505200	0.667500
C551	C55	0.143100	0.747800	0.797100
C561	C56	0.211500	0.750000	0.818200
C571	C57	0.228200	0.760700	0.883100
H331	H33	0.196000	0.766400	0.914000
C581	C58	0.292400	0.763000	0.902200
C591	C59	0.340100	0.752000	0.856300
H341	H34	0.383000	0.749000	0.868700
C601	C60	0.324300	0.745400	0.790900
C611	C61	0.260600	0.746000	0.772700
H351	H35	0.250200	0.743800	0.729400
C621	C62	0.308700	0.779600	0.972000
C631	C63	0.375900	0.734600	0.740500
Ba81	Ba8	0.360040	0.893940	0.114950
O711	O71	0.401280	0.743500	0.338540
O721	O72	0.359100	0.222800	0.035800
H361	H36	0.382200	0.200400	0.001200
H371	H37	0.319600	0.250400	0.023800
O731	O73	0.369260	0.762700	0.237890
O741	O74	0.133900	0.756600	0.489430
O751	O75	0.233500	0.668000	0.510950
O761	O76	0.140370	0.751800	0.182300
O771	O77	0.067100	0.787900	0.259000
O781	O78	0.444700	0.549200	0.125800
O791	O79	0.278430	0.534300	0.124140
O801	O80	0.483400	0.994800	0.167500
C641	C64	0.356900	0.752200	0.297100
C651	C65	0.288500	0.750000	0.318200
C661	C66	0.271800	0.739300	0.383100
H381	H38	0.304000	0.733600	0.414000
C671	C67	0.207600	0.737000	0.402200
C681	C68	0.159900	0.748000	0.356300
H391	H39	0.117000	0.751000	0.368700
C691	C69	0.175700	0.754600	0.290900
C701	C70	0.239400	0.754000	0.272700
H401	H40	0.249800	0.756200	0.229400
C711	C71	0.191300	0.720400	0.472000
C721	C72	0.124100	0.765400	0.240500
Ba91	Ba9	0.000000	0.137850	0.250000
Ba101	Ba10	0.500000	0.362150	0.750000
Ba111	Ba11	0.000000	0.862150	0.750000
Ba121	Ba12	0.500000	0.637850	0.250000
