data_COTXIU_freeONLY_PM
_symmetry_space_group_name_H-M	'P1'
_cell_length_a	15.898300
_cell_length_b	15.898300
_cell_length_c	21.667500
_cell_angle_alpha	90.000000
_cell_angle_beta	90.000000
_cell_angle_gamma	90.000000
_symmetry_Int_Tables_number 1

loop_
_symmetry_equiv_pos_as_xyz
'x,y,z'

loop_
_atom_site_label
_atom_site_type_symbol
_atom_site_fract_x
_atom_site_fract_y
_atom_site_fract_z
C11	C1	0.742500	0.538300	0.287000
H11	H1	0.737200	0.508200	0.323500
C21	C2	0.808200	0.595800	0.282100
H21	H2	0.845100	0.603300	0.315000
C31	C3	0.818600	0.641800	0.228200
C41	C4	0.761900	0.624000	0.180200
H31	H3	0.767300	0.651000	0.142300
C51	C5	0.698300	0.566200	0.189500
H41	H4	0.661200	0.556000	0.157200
C61	C6	0.883600	0.708500	0.222200
C71	C7	0.954000	0.710000	0.260100
H51	H5	0.961300	0.668000	0.289600
C81	C8	0.013900	0.773700	0.254600
H61	H6	0.061300	0.773600	0.279900
C91	C9	0.003000	0.836700	0.211900
H71	H7	0.043300	0.878700	0.208100
C101	C10	0.932700	0.838100	0.174730
C111	C11	0.873900	0.773000	0.179100
H81	H8	0.827600	0.772700	0.152900
C121	C12	0.923500	0.907300	0.130030
C131	C13	0.871900	0.002600	0.067730
C141	C14	0.809600	0.057700	0.037610
C151	C15	0.778800	0.042200	0.978000
H91	H9	0.797300	0.995800	0.955700
C161	C16	0.720700	0.096800	0.953000
H101	H10	0.701500	0.087900	0.913000
C171	C17	0.690400	0.164800	0.986400
H111	H11	0.650300	0.200000	0.968900
C181	C18	0.719200	0.180700	0.045790
C191	C19	0.779800	0.125900	0.070400
H121	H12	0.800400	0.135800	0.109900
C201	C20	0.688500	0.253100	0.082800
C211	C21	0.615000	0.297900	0.068300
H131	H13	0.585800	0.286300	0.032100
C221	C22	0.586400	0.359500	0.108500
H141	H14	0.537600	0.388300	0.098000
C231	C23	0.698300	0.341500	0.173100
H151	H15	0.728200	0.357500	0.208000
C241	C24	0.731300	0.279700	0.135900
H161	H16	0.782600	0.255200	0.146000
N11	N1	0.686800	0.524100	0.242300
N21	N2	0.987600	0.946700	0.104890
N31	N3	0.954800	0.007600	0.065950
N41	N4	0.850360	0.940100	0.107740
N51	N5	0.768500	0.917000	0.125700
H171	H17	0.743400	0.888400	0.095100
H181	H18	0.759000	0.966200	0.141200
N61	N6	0.624200	0.380100	0.161080
C251	C25	0.257500	0.461700	0.787000
H191	H19	0.262800	0.491800	0.823500
C261	C26	0.191800	0.404200	0.782100
H201	H20	0.154900	0.396700	0.815000
C271	C27	0.181400	0.358200	0.728200
C281	C28	0.238100	0.376000	0.680200
H211	H21	0.232700	0.349000	0.642300
C291	C29	0.301700	0.433800	0.689500
H221	H22	0.338800	0.444000	0.657200
C301	C30	0.116400	0.291500	0.722200
C311	C31	0.046000	0.290000	0.760100
H231	H23	0.038700	0.332000	0.789600
C321	C32	0.986100	0.226300	0.754600
H241	H24	0.938700	0.226400	0.779900
C331	C33	0.997000	0.163300	0.711900
H251	H25	0.956700	0.121300	0.708100
C341	C34	0.067300	0.161900	0.674730
C351	C35	0.126100	0.227000	0.679100
H261	H26	0.172400	0.227300	0.652900
C361	C36	0.076500	0.092700	0.630030
C371	C37	0.128100	0.997400	0.567730
C381	C38	0.190400	0.942300	0.537610
C391	C39	0.221200	0.957800	0.478000
H271	H27	0.202700	0.004200	0.455700
C401	C40	0.279300	0.903200	0.453000
H281	H28	0.298500	0.912100	0.413000
C411	C41	0.309600	0.835200	0.486400
H291	H29	0.349700	0.800000	0.468900
C421	C42	0.280800	0.819300	0.545790
C431	C43	0.220200	0.874100	0.570400
H301	H30	0.199600	0.864200	0.609900
C441	C44	0.311500	0.746900	0.582800
C451	C45	0.385000	0.702100	0.568300
H311	H31	0.414200	0.713700	0.532100
C461	C46	0.413600	0.640500	0.608500
H321	H32	0.462400	0.611700	0.598000
C471	C47	0.301700	0.658500	0.673100
H331	H33	0.271800	0.642500	0.708000
C481	C48	0.268700	0.720300	0.635900
H341	H34	0.217400	0.744800	0.646000
N71	N7	0.313200	0.475900	0.742300
N81	N8	0.012400	0.053300	0.604890
N91	N9	0.045200	0.992400	0.565950
N101	N10	0.149640	0.059900	0.607740
N111	N11	0.231500	0.083000	0.625700
H351	H35	0.256600	0.111600	0.595100
H361	H36	0.241000	0.033800	0.641200
N121	N12	0.375800	0.619900	0.661080
C491	C49	0.961700	0.242500	0.037000
H371	H37	0.991800	0.237200	0.073500
C501	C50	0.904200	0.308200	0.032100
H381	H38	0.896700	0.345100	0.065000
C511	C51	0.858200	0.318600	0.978200
C521	C52	0.876000	0.261900	0.930200
H391	H39	0.849000	0.267300	0.892300
C531	C53	0.933800	0.198300	0.939500
H401	H40	0.944000	0.161200	0.907200
C541	C54	0.791500	0.383600	0.972200
C551	C55	0.790000	0.454000	0.010100
H411	H41	0.832000	0.461300	0.039600
C561	C56	0.726300	0.513900	0.004600
H421	H42	0.726400	0.561300	0.029900
C571	C57	0.663300	0.503000	0.961900
H431	H43	0.621300	0.543300	0.958100
C581	C58	0.661900	0.432700	0.924730
C591	C59	0.727000	0.373900	0.929100
H441	H44	0.727300	0.327600	0.902900
C601	C60	0.592700	0.423500	0.880030
C611	C61	0.497400	0.371900	0.817730
C621	C62	0.442300	0.309600	0.787610
C631	C63	0.457800	0.278800	0.728000
H451	H45	0.504200	0.297300	0.705700
C641	C64	0.403200	0.220700	0.703000
H461	H46	0.412100	0.201500	0.663000
C651	C65	0.335200	0.190400	0.736400
H471	H47	0.300000	0.150300	0.718900
C661	C66	0.319300	0.219200	0.795790
C671	C67	0.374100	0.279800	0.820400
H481	H48	0.364200	0.300400	0.859900
C681	C68	0.246900	0.188500	0.832800
C691	C69	0.202100	0.115000	0.818300
H491	H49	0.213700	0.085800	0.782100
C701	C70	0.140500	0.086400	0.858500
H501	H50	0.111700	0.037600	0.848000
C711	C71	0.158500	0.198300	0.923100
H511	H51	0.142500	0.228200	0.958000
C721	C72	0.220300	0.231300	0.885900
H521	H52	0.244800	0.282600	0.896000
N131	N13	0.975900	0.186800	0.992300
N141	N14	0.553300	0.487600	0.854890
N151	N15	0.492400	0.454800	0.815950
N161	N16	0.559900	0.350360	0.857740
N171	N17	0.583000	0.268500	0.875700
H531	H53	0.611600	0.243400	0.845100
H541	H54	0.533800	0.259000	0.891200
N181	N18	0.119900	0.124200	0.911080
C731	C73	0.038300	0.757500	0.537000
H551	H55	0.008200	0.762800	0.573500
C741	C74	0.095800	0.691800	0.532100
H561	H56	0.103300	0.654900	0.565000
C751	C75	0.141800	0.681400	0.478200
C761	C76	0.124000	0.738100	0.430200
H571	H57	0.151000	0.732700	0.392300
C771	C77	0.066200	0.801700	0.439500
H581	H58	0.056000	0.838800	0.407200
C781	C78	0.208500	0.616400	0.472200
C791	C79	0.210000	0.546000	0.510100
H591	H59	0.168000	0.538700	0.539600
C801	C80	0.273700	0.486100	0.504600
H601	H60	0.273600	0.438700	0.529900
C811	C81	0.336700	0.497000	0.461900
H611	H61	0.378700	0.456700	0.458100
C821	C82	0.338100	0.567300	0.424730
C831	C83	0.273000	0.626100	0.429100
H621	H62	0.272700	0.672400	0.402900
C841	C84	0.407300	0.576500	0.380030
C851	C85	0.502600	0.628100	0.317730
C861	C86	0.557700	0.690400	0.287610
C871	C87	0.542200	0.721200	0.228000
H631	H63	0.495800	0.702700	0.205700
C881	C88	0.596800	0.779300	0.203000
H641	H64	0.587900	0.798500	0.163000
C891	C89	0.664800	0.809600	0.236400
H651	H65	0.700000	0.849700	0.218900
C901	C90	0.680700	0.780800	0.295790
C911	C91	0.625900	0.720200	0.320400
H661	H66	0.635800	0.699600	0.359900
C921	C92	0.753100	0.811500	0.332800
C931	C93	0.797900	0.885000	0.318300
H671	H67	0.786300	0.914200	0.282100
C941	C94	0.859500	0.913600	0.358500
H681	H68	0.888300	0.962400	0.348000
C951	C95	0.841500	0.801700	0.423100
H691	H69	0.857500	0.771800	0.458000
C961	C96	0.779700	0.768700	0.385900
H701	H70	0.755200	0.717400	0.396000
N191	N19	0.024100	0.813200	0.492300
N201	N20	0.446700	0.512400	0.354890
N211	N21	0.507600	0.545200	0.315950
N221	N22	0.440100	0.649640	0.357740
N231	N23	0.417000	0.731500	0.375700
H711	H71	0.388400	0.756600	0.345100
H721	H72	0.466200	0.741000	0.391200
N241	N24	0.880100	0.875800	0.411080
C971	C97	0.757500	0.038300	0.463000
H731	H73	0.762800	0.008200	0.426500
C981	C98	0.691800	0.095800	0.467900
H741	H74	0.654900	0.103300	0.435000
C991	C99	0.681400	0.141800	0.521800
C1001	C100	0.738100	0.124000	0.569800
H751	H75	0.732700	0.151000	0.607700
C1011	C101	0.801700	0.066200	0.560500
H761	H76	0.838800	0.056000	0.592800
C1021	C102	0.616400	0.208500	0.527800
C1031	C103	0.546000	0.210000	0.489900
H771	H77	0.538700	0.168000	0.460400
C1041	C104	0.486100	0.273700	0.495400
H781	H78	0.438700	0.273600	0.470100
C1051	C105	0.497000	0.336700	0.538100
H791	H79	0.456700	0.378700	0.541900
C1061	C106	0.567300	0.338100	0.575270
C1071	C107	0.626100	0.273000	0.570900
H801	H80	0.672400	0.272700	0.597100
C1081	C108	0.576500	0.407300	0.619970
C1091	C109	0.628100	0.502600	0.682270
C1101	C110	0.690400	0.557700	0.712390
C1111	C111	0.721200	0.542200	0.772000
H811	H81	0.702700	0.495800	0.794300
C1121	C112	0.779300	0.596800	0.797000
H821	H82	0.798500	0.587900	0.837000
C1131	C113	0.809600	0.664800	0.763600
H831	H83	0.849700	0.700000	0.781100
C1141	C114	0.780800	0.680700	0.704210
C1151	C115	0.720200	0.625900	0.679600
H841	H84	0.699600	0.635800	0.640100
C1161	C116	0.811500	0.753100	0.667200
C1171	C117	0.885000	0.797900	0.681700
H851	H85	0.914200	0.786300	0.717900
C1181	C118	0.913600	0.859500	0.641500
H861	H86	0.962400	0.888300	0.652000
C1191	C119	0.801700	0.841500	0.576900
H871	H87	0.771800	0.857500	0.542000
C1201	C120	0.768700	0.779700	0.614100
H881	H88	0.717400	0.755200	0.604000
N251	N25	0.813200	0.024100	0.507700
N261	N26	0.512400	0.446700	0.645110
N271	N27	0.545200	0.507600	0.684050
N281	N28	0.649640	0.440100	0.642260
N291	N29	0.731500	0.417000	0.624300
H891	H89	0.756600	0.388400	0.654900
H901	H90	0.741000	0.466200	0.608800
N301	N30	0.875800	0.880100	0.588920
C1211	C121	0.242500	0.961700	0.963000
H911	H91	0.237200	0.991800	0.926500
C1221	C122	0.308200	0.904200	0.967900
H921	H92	0.345100	0.896700	0.935000
C1231	C123	0.318600	0.858200	0.021800
C1241	C124	0.261900	0.876000	0.069800
H931	H93	0.267300	0.849000	0.107700
C1251	C125	0.198300	0.933800	0.060500
H941	H94	0.161200	0.944000	0.092800
C1261	C126	0.383600	0.791500	0.027800
C1271	C127	0.454000	0.790000	0.989900
H951	H95	0.461300	0.832000	0.960400
C1281	C128	0.513900	0.726300	0.995400
H961	H96	0.561300	0.726400	0.970100
C1291	C129	0.503000	0.663300	0.038100
H971	H97	0.543300	0.621300	0.041900
C1301	C130	0.432700	0.661900	0.075270
C1311	C131	0.373900	0.727000	0.070900
H981	H98	0.327600	0.727300	0.097100
C1321	C132	0.423500	0.592700	0.119970
C1331	C133	0.371900	0.497400	0.182270
C1341	C134	0.309600	0.442300	0.212390
C1351	C135	0.278800	0.457800	0.272000
H991	H99	0.297300	0.504200	0.294300
C1361	C136	0.220700	0.403200	0.297000
H1001	H100	0.201500	0.412100	0.337000
C1371	C137	0.190400	0.335200	0.263600
H1011	H101	0.150300	0.300000	0.281100
C1381	C138	0.219200	0.319300	0.204210
C1391	C139	0.279800	0.374100	0.179600
H1021	H102	0.300400	0.364200	0.140100
C1401	C140	0.188500	0.246900	0.167200
C1411	C141	0.115000	0.202100	0.181700
H1031	H103	0.085800	0.213700	0.217900
C1421	C142	0.086400	0.140500	0.141500
H1041	H104	0.037600	0.111700	0.152000
C1431	C143	0.198300	0.158500	0.076900
H1051	H105	0.228200	0.142500	0.042000
C1441	C144	0.231300	0.220300	0.114100
H1061	H106	0.282600	0.244800	0.104000
N311	N31	0.186800	0.975900	0.007700
N321	N32	0.487600	0.553300	0.145110
N331	N33	0.454800	0.492400	0.184050
N341	N34	0.350360	0.559900	0.142260
N351	N35	0.268500	0.583000	0.124300
H1071	H107	0.243400	0.611600	0.154900
H1081	H108	0.259000	0.533800	0.108800
N361	N36	0.124200	0.119900	0.088920
C1451	C145	0.538300	0.742500	0.713000
H1091	H109	0.508200	0.737200	0.676500
C1461	C146	0.595800	0.808200	0.717900
H1101	H110	0.603300	0.845100	0.685000
C1471	C147	0.641800	0.818600	0.771800
C1481	C148	0.624000	0.761900	0.819800
H1111	H111	0.651000	0.767300	0.857700
C1491	C149	0.566200	0.698300	0.810500
H1121	H112	0.556000	0.661200	0.842800
C1501	C150	0.708500	0.883600	0.777800
C1511	C151	0.710000	0.954000	0.739900
H1131	H113	0.668000	0.961300	0.710400
C1521	C152	0.773700	0.013900	0.745400
H1141	H114	0.773600	0.061300	0.720100
C1531	C153	0.836700	0.003000	0.788100
H1151	H115	0.878700	0.043300	0.791900
C1541	C154	0.838100	0.932700	0.825270
C1551	C155	0.773000	0.873900	0.820900
H1161	H116	0.772700	0.827600	0.847100
C1561	C156	0.907300	0.923500	0.869970
C1571	C157	0.002600	0.871900	0.932270
C1581	C158	0.057700	0.809600	0.962390
C1591	C159	0.042200	0.778800	0.022000
H1171	H117	0.995800	0.797300	0.044300
C1601	C160	0.096800	0.720700	0.047000
H1181	H118	0.087900	0.701500	0.087000
C1611	C161	0.164800	0.690400	0.013600
H1191	H119	0.200000	0.650300	0.031100
C1621	C162	0.180700	0.719200	0.954210
C1631	C163	0.125900	0.779800	0.929600
H1201	H120	0.135800	0.800400	0.890100
C1641	C164	0.253100	0.688500	0.917200
C1651	C165	0.297900	0.615000	0.931700
H1211	H121	0.286300	0.585800	0.967900
C1661	C166	0.359500	0.586400	0.891500
H1221	H122	0.388300	0.537600	0.902000
C1671	C167	0.341500	0.698300	0.826900
H1231	H123	0.357500	0.728200	0.792000
C1681	C168	0.279700	0.731300	0.864100
H1241	H124	0.255200	0.782600	0.854000
N371	N37	0.524100	0.686800	0.757700
N381	N38	0.946700	0.987600	0.895110
N391	N39	0.007600	0.954800	0.934050
N401	N40	0.940100	0.850360	0.892260
N411	N41	0.917000	0.768500	0.874300
H1251	H125	0.888400	0.743400	0.904900
H1261	H126	0.966200	0.759000	0.858800
N421	N42	0.380100	0.624200	0.838920
C1691	C169	0.461700	0.257500	0.213000
H1271	H127	0.491800	0.262800	0.176500
C1701	C170	0.404200	0.191800	0.217900
H1281	H128	0.396700	0.154900	0.185000
C1711	C171	0.358200	0.181400	0.271800
C1721	C172	0.376000	0.238100	0.319800
H1291	H129	0.349000	0.232700	0.357700
C1731	C173	0.433800	0.301700	0.310500
H1301	H130	0.444000	0.338800	0.342800
C1741	C174	0.291500	0.116400	0.277800
C1751	C175	0.290000	0.046000	0.239900
H1311	H131	0.332000	0.038700	0.210400
C1761	C176	0.226300	0.986100	0.245400
H1321	H132	0.226400	0.938700	0.220100
C1771	C177	0.163300	0.997000	0.288100
H1331	H133	0.121300	0.956700	0.291900
C1781	C178	0.161900	0.067300	0.325270
C1791	C179	0.227000	0.126100	0.320900
H1341	H134	0.227300	0.172400	0.347100
C1801	C180	0.092700	0.076500	0.369970
C1811	C181	0.997400	0.128100	0.432270
C1821	C182	0.942300	0.190400	0.462390
C1831	C183	0.957800	0.221200	0.522000
H1351	H135	0.004200	0.202700	0.544300
C1841	C184	0.903200	0.279300	0.547000
H1361	H136	0.912100	0.298500	0.587000
C1851	C185	0.835200	0.309600	0.513600
H1371	H137	0.800000	0.349700	0.531100
C1861	C186	0.819300	0.280800	0.454210
C1871	C187	0.874100	0.220200	0.429600
H1381	H138	0.864200	0.199600	0.390100
C1881	C188	0.746900	0.311500	0.417200
C1891	C189	0.702100	0.385000	0.431700
H1391	H139	0.713700	0.414200	0.467900
C1901	C190	0.640500	0.413600	0.391500
H1401	H140	0.611700	0.462400	0.402000
C1911	C191	0.658500	0.301700	0.326900
H1411	H141	0.642500	0.271800	0.292000
C1921	C192	0.720300	0.268700	0.364100
H1421	H142	0.744800	0.217400	0.354000
N431	N43	0.475900	0.313200	0.257700
N441	N44	0.053300	0.012400	0.395110
N451	N45	0.992400	0.045200	0.434050
N461	N46	0.059900	0.149640	0.392260
N471	N47	0.083000	0.231500	0.374300
H1431	H143	0.111600	0.256600	0.404900
H1441	H144	0.033800	0.241000	0.358800
N481	N48	0.619900	0.375800	0.338920
Cd11	Cd1	0.058770	0.058770	0.000000
Cd21	Cd2	0.941230	0.941230	0.500000
Cd31	Cd3	0.441230	0.558770	0.750000
Cd41	Cd4	0.558770	0.441230	0.250000
