data_COTYIV_freeONLY_PM
_symmetry_space_group_name_H-M	'P1'
_cell_length_a	16.180000
_cell_length_b	43.077000
_cell_length_c	45.485000
_cell_angle_alpha	90.000000
_cell_angle_beta	90.000000
_cell_angle_gamma	90.000000
_symmetry_Int_Tables_number 1

loop_
_symmetry_equiv_pos_as_xyz
'x,y,z'

loop_
_atom_site_label
_atom_site_type_symbol
_atom_site_fract_x
_atom_site_fract_y
_atom_site_fract_z
Cu11	Cu1	0.501180	0.428790	0.062450
Cu21	Cu2	0.431550	0.407960	0.989480
C11	C1	0.533300	0.495410	0.163480
C21	C2	0.582300	0.478630	0.182510
H11	H1	0.596200	0.458300	0.177800
C31	C3	0.611600	0.491570	0.208580
C41	C4	0.590900	0.522260	0.215180
H21	H2	0.610000	0.531300	0.232500
C51	C5	0.542100	0.539260	0.196140
C61	C6	0.511800	0.525530	0.170500
H31	H3	0.477000	0.536700	0.158100
C71	C7	0.302600	0.368990	0.121120
H41	H4	0.254000	0.365000	0.110900
C81	C8	0.302300	0.368910	0.151780
N11	N1	0.434700	0.494530	0.122220
C91	C9	0.499400	0.482550	0.136390
N21	N2	0.527900	0.458720	0.120620
N31	N3	0.480740	0.456000	0.096710
N41	N4	0.423100	0.478120	0.097690
N51	N5	0.714630	0.451630	0.225530
N61	N6	0.742500	0.442240	0.251620
N71	N7	0.705700	0.459300	0.272260
N81	N8	0.655100	0.479230	0.258920
C101	C10	0.660620	0.474480	0.230040
N91	N9	0.525100	0.618530	0.218470
N101	N10	0.456900	0.615070	0.203130
N111	N11	0.452900	0.586030	0.192460
N121	N12	0.398600	0.387400	0.028720
N131	N13	0.415000	0.395740	0.056760
C111	C11	0.227130	0.363900	0.168800
N141	N14	0.218300	0.372300	0.196790
N151	N15	0.143790	0.363210	0.205740
N161	N16	0.106570	0.349190	0.183260
N171	N17	0.158060	0.349610	0.160440
C121	C12	0.520800	0.571750	0.202590
N181	N18	0.567600	0.591270	0.218740
Cu31	Cu3	0.501180	0.928790	0.562450
Cu41	Cu4	0.431550	0.907960	0.489480
C131	C13	0.533300	0.995410	0.663480
C141	C14	0.582300	0.978630	0.682510
H51	H5	0.596200	0.958300	0.677800
C151	C15	0.611600	0.991570	0.708580
C161	C16	0.590900	0.022260	0.715180
H61	H6	0.610000	0.031300	0.732500
C171	C17	0.542100	0.039260	0.696140
C181	C18	0.511800	0.025530	0.670500
H71	H7	0.477000	0.036700	0.658100
C191	C19	0.302600	0.868990	0.621120
H81	H8	0.254000	0.865000	0.610900
C201	C20	0.302300	0.868910	0.651780
N191	N19	0.434700	0.994530	0.622220
C211	C21	0.499400	0.982550	0.636390
N201	N20	0.527900	0.958720	0.620620
N211	N21	0.480740	0.956000	0.596710
N221	N22	0.423100	0.978120	0.597690
N231	N23	0.714630	0.951630	0.725530
N241	N24	0.742500	0.942240	0.751620
N251	N25	0.705700	0.959300	0.772260
N261	N26	0.655100	0.979230	0.758920
C221	C22	0.660620	0.974480	0.730040
N271	N27	0.525100	0.118530	0.718470
N281	N28	0.456900	0.115070	0.703130
N291	N29	0.452900	0.086030	0.692460
N301	N30	0.398600	0.887400	0.528720
N311	N31	0.415000	0.895740	0.556760
C231	C23	0.227130	0.863900	0.668800
N321	N32	0.218300	0.872300	0.696790
N331	N33	0.143790	0.863210	0.705740
N341	N34	0.106570	0.849190	0.683260
N351	N35	0.158060	0.849610	0.660440
C241	C24	0.520800	0.071750	0.702590
N361	N36	0.567600	0.091270	0.718740
Cu51	Cu5	0.001180	0.428790	0.562450
Cu61	Cu6	0.931550	0.407960	0.489480
C251	C25	0.033300	0.495410	0.663480
C261	C26	0.082300	0.478630	0.682510
H91	H9	0.096200	0.458300	0.677800
C271	C27	0.111600	0.491570	0.708580
C281	C28	0.090900	0.522260	0.715180
H101	H10	0.110000	0.531300	0.732500
C291	C29	0.042100	0.539260	0.696140
C301	C30	0.011800	0.525530	0.670500
H111	H11	0.977000	0.536700	0.658100
C311	C31	0.802600	0.368990	0.621120
H121	H12	0.754000	0.365000	0.610900
C321	C32	0.802300	0.368910	0.651780
N371	N37	0.934700	0.494530	0.622220
C331	C33	0.999400	0.482550	0.636390
N381	N38	0.027900	0.458720	0.620620
N391	N39	0.980740	0.456000	0.596710
N401	N40	0.923100	0.478120	0.597690
N411	N41	0.214630	0.451630	0.725530
N421	N42	0.242500	0.442240	0.751620
N431	N43	0.205700	0.459300	0.772260
N441	N44	0.155100	0.479230	0.758920
C341	C34	0.160620	0.474480	0.730040
N451	N45	0.025100	0.618530	0.718470
N461	N46	0.956900	0.615070	0.703130
N471	N47	0.952900	0.586030	0.692460
N481	N48	0.898600	0.387400	0.528720
N491	N49	0.915000	0.395740	0.556760
C351	C35	0.727130	0.363900	0.668800
N501	N50	0.718300	0.372300	0.696790
N511	N51	0.643790	0.363210	0.705740
N521	N52	0.606570	0.349190	0.683260
N531	N53	0.658060	0.349610	0.660440
C361	C36	0.020800	0.571750	0.702590
N541	N54	0.067600	0.591270	0.718740
Cu71	Cu7	0.001180	0.928790	0.062450
Cu81	Cu8	0.931550	0.907960	0.989480
C371	C37	0.033300	0.995410	0.163480
C381	C38	0.082300	0.978630	0.182510
H131	H13	0.096200	0.958300	0.177800
C391	C39	0.111600	0.991570	0.208580
C401	C40	0.090900	0.022260	0.215180
H141	H14	0.110000	0.031300	0.232500
C411	C41	0.042100	0.039260	0.196140
C421	C42	0.011800	0.025530	0.170500
H151	H15	0.977000	0.036700	0.158100
C431	C43	0.802600	0.868990	0.121120
H161	H16	0.754000	0.865000	0.110900
C441	C44	0.802300	0.868910	0.151780
N551	N55	0.934700	0.994530	0.122220
C451	C45	0.999400	0.982550	0.136390
N561	N56	0.027900	0.958720	0.120620
N571	N57	0.980740	0.956000	0.096710
N581	N58	0.923100	0.978120	0.097690
N591	N59	0.214630	0.951630	0.225530
N601	N60	0.242500	0.942240	0.251620
N611	N61	0.205700	0.959300	0.272260
N621	N62	0.155100	0.979230	0.258920
C461	C46	0.160620	0.974480	0.230040
N631	N63	0.025100	0.118530	0.218470
N641	N64	0.956900	0.115070	0.203130
N651	N65	0.952900	0.086030	0.192460
N661	N66	0.898600	0.887400	0.028720
N671	N67	0.915000	0.895740	0.056760
C471	C47	0.727130	0.863900	0.168800
N681	N68	0.718300	0.872300	0.196790
N691	N69	0.643790	0.863210	0.205740
N701	N70	0.606570	0.849190	0.183260
N711	N71	0.658060	0.849610	0.160440
C481	C48	0.020800	0.071750	0.202590
N721	N72	0.067600	0.091270	0.218740
Cu91	Cu9	0.248820	0.321210	0.062450
Cu101	Cu10	0.318450	0.342040	0.989480
C491	C49	0.216700	0.254590	0.163480
C501	C50	0.167700	0.271370	0.182510
H171	H17	0.153800	0.291700	0.177800
C511	C51	0.138400	0.258430	0.208580
C521	C52	0.159100	0.227740	0.215180
H181	H18	0.140000	0.218700	0.232500
C531	C53	0.207900	0.210740	0.196140
C541	C54	0.238200	0.224470	0.170500
H191	H19	0.273000	0.213300	0.158100
C551	C55	0.447400	0.381010	0.121120
H201	H20	0.496000	0.385000	0.110900
C561	C56	0.447700	0.381090	0.151780
N731	N73	0.315300	0.255470	0.122220
C571	C57	0.250600	0.267450	0.136390
N741	N74	0.222100	0.291280	0.120620
N751	N75	0.269260	0.294000	0.096710
N761	N76	0.326900	0.271880	0.097690
N771	N77	0.035370	0.298370	0.225530
N781	N78	0.007500	0.307760	0.251620
N791	N79	0.044300	0.290700	0.272260
N801	N80	0.094900	0.270770	0.258920
C581	C58	0.089380	0.275520	0.230040
N811	N81	0.224900	0.131470	0.218470
N821	N82	0.293100	0.134930	0.203130
N831	N83	0.297100	0.163970	0.192460
N841	N84	0.351400	0.362600	0.028720
N851	N85	0.335000	0.354260	0.056760
C591	C59	0.522870	0.386100	0.168800
N861	N86	0.531700	0.377700	0.196790
N871	N87	0.606210	0.386790	0.205740
N881	N88	0.643430	0.400810	0.183260
N891	N89	0.591940	0.400390	0.160440
C601	C60	0.229200	0.178250	0.202590
N901	N90	0.182400	0.158730	0.218740
Cu111	Cu11	0.248820	0.821210	0.562450
Cu121	Cu12	0.318450	0.842040	0.489480
C611	C61	0.216700	0.754590	0.663480
C621	C62	0.167700	0.771370	0.682510
H211	H21	0.153800	0.791700	0.677800
C631	C63	0.138400	0.758430	0.708580
C641	C64	0.159100	0.727740	0.715180
H221	H22	0.140000	0.718700	0.732500
C651	C65	0.207900	0.710740	0.696140
C661	C66	0.238200	0.724470	0.670500
H231	H23	0.273000	0.713300	0.658100
C671	C67	0.447400	0.881010	0.621120
H241	H24	0.496000	0.885000	0.610900
C681	C68	0.447700	0.881090	0.651780
N911	N91	0.315300	0.755470	0.622220
C691	C69	0.250600	0.767450	0.636390
N921	N92	0.222100	0.791280	0.620620
N931	N93	0.269260	0.794000	0.596710
N941	N94	0.326900	0.771880	0.597690
N951	N95	0.035370	0.798370	0.725530
N961	N96	0.007500	0.807760	0.751620
N971	N97	0.044300	0.790700	0.772260
N981	N98	0.094900	0.770770	0.758920
C701	C70	0.089380	0.775520	0.730040
N991	N99	0.224900	0.631470	0.718470
N1001	N100	0.293100	0.634930	0.703130
N1011	N101	0.297100	0.663970	0.692460
N1021	N102	0.351400	0.862600	0.528720
N1031	N103	0.335000	0.854260	0.556760
C711	C71	0.522870	0.886100	0.668800
N1041	N104	0.531700	0.877700	0.696790
N1051	N105	0.606210	0.886790	0.705740
N1061	N106	0.643430	0.900810	0.683260
N1071	N107	0.591940	0.900390	0.660440
C721	C72	0.229200	0.678250	0.702590
N1081	N108	0.182400	0.658730	0.718740
Cu131	Cu13	0.748820	0.321210	0.562450
Cu141	Cu14	0.818450	0.342040	0.489480
C731	C73	0.716700	0.254590	0.663480
C741	C74	0.667700	0.271370	0.682510
H251	H25	0.653800	0.291700	0.677800
C751	C75	0.638400	0.258430	0.708580
C761	C76	0.659100	0.227740	0.715180
H261	H26	0.640000	0.218700	0.732500
C771	C77	0.707900	0.210740	0.696140
C781	C78	0.738200	0.224470	0.670500
H271	H27	0.773000	0.213300	0.658100
C791	C79	0.947400	0.381010	0.621120
H281	H28	0.996000	0.385000	0.610900
C801	C80	0.947700	0.381090	0.651780
N1091	N109	0.815300	0.255470	0.622220
C811	C81	0.750600	0.267450	0.636390
N1101	N110	0.722100	0.291280	0.620620
N1111	N111	0.769260	0.294000	0.596710
N1121	N112	0.826900	0.271880	0.597690
N1131	N113	0.535370	0.298370	0.725530
N1141	N114	0.507500	0.307760	0.751620
N1151	N115	0.544300	0.290700	0.772260
N1161	N116	0.594900	0.270770	0.758920
C821	C82	0.589380	0.275520	0.730040
N1171	N117	0.724900	0.131470	0.718470
N1181	N118	0.793100	0.134930	0.703130
N1191	N119	0.797100	0.163970	0.692460
N1201	N120	0.851400	0.362600	0.528720
N1211	N121	0.835000	0.354260	0.556760
C831	C83	0.022870	0.386100	0.668800
N1221	N122	0.031700	0.377700	0.696790
N1231	N123	0.106210	0.386790	0.705740
N1241	N124	0.143430	0.400810	0.683260
N1251	N125	0.091940	0.400390	0.660440
C841	C84	0.729200	0.178250	0.702590
N1261	N126	0.682400	0.158730	0.718740
Cu151	Cu15	0.748820	0.821210	0.062450
Cu161	Cu16	0.818450	0.842040	0.989480
C851	C85	0.716700	0.754590	0.163480
C861	C86	0.667700	0.771370	0.182510
H291	H29	0.653800	0.791700	0.177800
C871	C87	0.638400	0.758430	0.208580
C881	C88	0.659100	0.727740	0.215180
H301	H30	0.640000	0.718700	0.232500
C891	C89	0.707900	0.710740	0.196140
C901	C90	0.738200	0.724470	0.170500
H311	H31	0.773000	0.713300	0.158100
C911	C91	0.947400	0.881010	0.121120
H321	H32	0.996000	0.885000	0.110900
C921	C92	0.947700	0.881090	0.151780
N1271	N127	0.815300	0.755470	0.122220
C931	C93	0.750600	0.767450	0.136390
N1281	N128	0.722100	0.791280	0.120620
N1291	N129	0.769260	0.794000	0.096710
N1301	N130	0.826900	0.771880	0.097690
N1311	N131	0.535370	0.798370	0.225530
N1321	N132	0.507500	0.807760	0.251620
N1331	N133	0.544300	0.790700	0.272260
N1341	N134	0.594900	0.770770	0.258920
C941	C94	0.589380	0.775520	0.230040
N1351	N135	0.724900	0.631470	0.218470
N1361	N136	0.793100	0.634930	0.203130
N1371	N137	0.797100	0.663970	0.192460
N1381	N138	0.851400	0.862600	0.028720
N1391	N139	0.835000	0.854260	0.056760
C951	C95	0.022870	0.886100	0.168800
N1401	N140	0.031700	0.877700	0.196790
N1411	N141	0.106210	0.886790	0.205740
N1421	N142	0.143430	0.900810	0.183260
N1431	N143	0.091940	0.900390	0.160440
C961	C96	0.729200	0.678250	0.202590
N1441	N144	0.682400	0.658730	0.218740
Cu171	Cu17	0.248820	0.428790	0.687550
Cu181	Cu18	0.318450	0.407960	0.760520
C971	C97	0.216700	0.495410	0.586520
C981	C98	0.167700	0.478630	0.567490
H331	H33	0.153800	0.458300	0.572200
C991	C99	0.138400	0.491570	0.541420
C1001	C100	0.159100	0.522260	0.534820
H341	H34	0.140000	0.531300	0.517500
C1011	C101	0.207900	0.539260	0.553860
C1021	C102	0.238200	0.525530	0.579500
H351	H35	0.273000	0.536700	0.591900
C1031	C103	0.447400	0.368990	0.628880
H361	H36	0.496000	0.365000	0.639100
C1041	C104	0.447700	0.368910	0.598220
N1451	N145	0.315300	0.494530	0.627780
C1051	C105	0.250600	0.482550	0.613610
N1461	N146	0.222100	0.458720	0.629380
N1471	N147	0.269260	0.456000	0.653290
N1481	N148	0.326900	0.478120	0.652310
N1491	N149	0.035370	0.451630	0.524470
N1501	N150	0.007500	0.442240	0.498380
N1511	N151	0.044300	0.459300	0.477740
N1521	N152	0.094900	0.479230	0.491080
C1061	C106	0.089380	0.474480	0.519960
N1531	N153	0.224900	0.618530	0.531530
N1541	N154	0.293100	0.615070	0.546870
N1551	N155	0.297100	0.586030	0.557540
N1561	N156	0.351400	0.387400	0.721280
N1571	N157	0.335000	0.395740	0.693240
C1071	C107	0.522870	0.363900	0.581200
N1581	N158	0.531700	0.372300	0.553210
N1591	N159	0.606210	0.363210	0.544260
N1601	N160	0.643430	0.349190	0.566740
N1611	N161	0.591940	0.349610	0.589560
C1081	C108	0.229200	0.571750	0.547410
N1621	N162	0.182400	0.591270	0.531260
Cu191	Cu19	0.248820	0.928790	0.187550
Cu201	Cu20	0.318450	0.907960	0.260520
C1091	C109	0.216700	0.995410	0.086520
C1101	C110	0.167700	0.978630	0.067490
H371	H37	0.153800	0.958300	0.072200
C1111	C111	0.138400	0.991570	0.041420
C1121	C112	0.159100	0.022260	0.034820
H381	H38	0.140000	0.031300	0.017500
C1131	C113	0.207900	0.039260	0.053860
C1141	C114	0.238200	0.025530	0.079500
H391	H39	0.273000	0.036700	0.091900
C1151	C115	0.447400	0.868990	0.128880
H401	H40	0.496000	0.865000	0.139100
C1161	C116	0.447700	0.868910	0.098220
N1631	N163	0.315300	0.994530	0.127780
C1171	C117	0.250600	0.982550	0.113610
N1641	N164	0.222100	0.958720	0.129380
N1651	N165	0.269260	0.956000	0.153290
N1661	N166	0.326900	0.978120	0.152310
N1671	N167	0.035370	0.951630	0.024470
N1681	N168	0.007500	0.942240	0.998380
N1691	N169	0.044300	0.959300	0.977740
N1701	N170	0.094900	0.979230	0.991080
C1181	C118	0.089380	0.974480	0.019960
N1711	N171	0.224900	0.118530	0.031530
N1721	N172	0.293100	0.115070	0.046870
N1731	N173	0.297100	0.086030	0.057540
N1741	N174	0.351400	0.887400	0.221280
N1751	N175	0.335000	0.895740	0.193240
C1191	C119	0.522870	0.863900	0.081200
N1761	N176	0.531700	0.872300	0.053210
N1771	N177	0.606210	0.863210	0.044260
N1781	N178	0.643430	0.849190	0.066740
N1791	N179	0.591940	0.849610	0.089560
C1201	C120	0.229200	0.071750	0.047410
N1801	N180	0.182400	0.091270	0.031260
Cu211	Cu21	0.748820	0.428790	0.187550
Cu221	Cu22	0.818450	0.407960	0.260520
C1211	C121	0.716700	0.495410	0.086520
C1221	C122	0.667700	0.478630	0.067490
H411	H41	0.653800	0.458300	0.072200
C1231	C123	0.638400	0.491570	0.041420
C1241	C124	0.659100	0.522260	0.034820
H421	H42	0.640000	0.531300	0.017500
C1251	C125	0.707900	0.539260	0.053860
C1261	C126	0.738200	0.525530	0.079500
H431	H43	0.773000	0.536700	0.091900
C1271	C127	0.947400	0.368990	0.128880
H441	H44	0.996000	0.365000	0.139100
C1281	C128	0.947700	0.368910	0.098220
N1811	N181	0.815300	0.494530	0.127780
C1291	C129	0.750600	0.482550	0.113610
N1821	N182	0.722100	0.458720	0.129380
N1831	N183	0.769260	0.456000	0.153290
N1841	N184	0.826900	0.478120	0.152310
N1851	N185	0.535370	0.451630	0.024470
N1861	N186	0.507500	0.442240	0.998380
N1871	N187	0.544300	0.459300	0.977740
N1881	N188	0.594900	0.479230	0.991080
C1301	C130	0.589380	0.474480	0.019960
N1891	N189	0.724900	0.618530	0.031530
N1901	N190	0.793100	0.615070	0.046870
N1911	N191	0.797100	0.586030	0.057540
N1921	N192	0.851400	0.387400	0.221280
N1931	N193	0.835000	0.395740	0.193240
C1311	C131	0.022870	0.363900	0.081200
N1941	N194	0.031700	0.372300	0.053210
N1951	N195	0.106210	0.363210	0.044260
N1961	N196	0.143430	0.349190	0.066740
N1971	N197	0.091940	0.349610	0.089560
C1321	C132	0.729200	0.571750	0.047410
N1981	N198	0.682400	0.591270	0.031260
Cu231	Cu23	0.748820	0.928790	0.687550
Cu241	Cu24	0.818450	0.907960	0.760520
C1331	C133	0.716700	0.995410	0.586520
C1341	C134	0.667700	0.978630	0.567490
H451	H45	0.653800	0.958300	0.572200
C1351	C135	0.638400	0.991570	0.541420
C1361	C136	0.659100	0.022260	0.534820
H461	H46	0.640000	0.031300	0.517500
C1371	C137	0.707900	0.039260	0.553860
C1381	C138	0.738200	0.025530	0.579500
H471	H47	0.773000	0.036700	0.591900
C1391	C139	0.947400	0.868990	0.628880
H481	H48	0.996000	0.865000	0.639100
C1401	C140	0.947700	0.868910	0.598220
N1991	N199	0.815300	0.994530	0.627780
C1411	C141	0.750600	0.982550	0.613610
N2001	N200	0.722100	0.958720	0.629380
N2011	N201	0.769260	0.956000	0.653290
N2021	N202	0.826900	0.978120	0.652310
N2031	N203	0.535370	0.951630	0.524470
N2041	N204	0.507500	0.942240	0.498380
N2051	N205	0.544300	0.959300	0.477740
N2061	N206	0.594900	0.979230	0.491080
C1421	C142	0.589380	0.974480	0.519960
N2071	N207	0.724900	0.118530	0.531530
N2081	N208	0.793100	0.115070	0.546870
N2091	N209	0.797100	0.086030	0.557540
N2101	N210	0.851400	0.887400	0.721280
N2111	N211	0.835000	0.895740	0.693240
C1431	C143	0.022870	0.863900	0.581200
N2121	N212	0.031700	0.872300	0.553210
N2131	N213	0.106210	0.863210	0.544260
N2141	N214	0.143430	0.849190	0.566740
N2151	N215	0.091940	0.849610	0.589560
C1441	C144	0.729200	0.071750	0.547410
N2161	N216	0.682400	0.091270	0.531260
Cu251	Cu25	0.501180	0.321210	0.687550
Cu261	Cu26	0.431550	0.342040	0.760520
C1451	C145	0.533300	0.254590	0.586520
C1461	C146	0.582300	0.271370	0.567490
H491	H49	0.596200	0.291700	0.572200
C1471	C147	0.611600	0.258430	0.541420
C1481	C148	0.590900	0.227740	0.534820
H501	H50	0.610000	0.218700	0.517500
C1491	C149	0.542100	0.210740	0.553860
C1501	C150	0.511800	0.224470	0.579500
H511	H51	0.477000	0.213300	0.591900
C1511	C151	0.302600	0.381010	0.628880
H521	H52	0.254000	0.385000	0.639100
C1521	C152	0.302300	0.381090	0.598220
N2171	N217	0.434700	0.255470	0.627780
C1531	C153	0.499400	0.267450	0.613610
N2181	N218	0.527900	0.291280	0.629380
N2191	N219	0.480740	0.294000	0.653290
N2201	N220	0.423100	0.271880	0.652310
N2211	N221	0.714630	0.298370	0.524470
N2221	N222	0.742500	0.307760	0.498380
N2231	N223	0.705700	0.290700	0.477740
N2241	N224	0.655100	0.270770	0.491080
C1541	C154	0.660620	0.275520	0.519960
N2251	N225	0.525100	0.131470	0.531530
N2261	N226	0.456900	0.134930	0.546870
N2271	N227	0.452900	0.163970	0.557540
N2281	N228	0.398600	0.362600	0.721280
N2291	N229	0.415000	0.354260	0.693240
C1551	C155	0.227130	0.386100	0.581200
N2301	N230	0.218300	0.377700	0.553210
N2311	N231	0.143790	0.386790	0.544260
N2321	N232	0.106570	0.400810	0.566740
N2331	N233	0.158060	0.400390	0.589560
C1561	C156	0.520800	0.178250	0.547410
N2341	N234	0.567600	0.158730	0.531260
Cu271	Cu27	0.501180	0.821210	0.187550
Cu281	Cu28	0.431550	0.842040	0.260520
C1571	C157	0.533300	0.754590	0.086520
C1581	C158	0.582300	0.771370	0.067490
H531	H53	0.596200	0.791700	0.072200
C1591	C159	0.611600	0.758430	0.041420
C1601	C160	0.590900	0.727740	0.034820
H541	H54	0.610000	0.718700	0.017500
C1611	C161	0.542100	0.710740	0.053860
C1621	C162	0.511800	0.724470	0.079500
H551	H55	0.477000	0.713300	0.091900
C1631	C163	0.302600	0.881010	0.128880
H561	H56	0.254000	0.885000	0.139100
C1641	C164	0.302300	0.881090	0.098220
N2351	N235	0.434700	0.755470	0.127780
C1651	C165	0.499400	0.767450	0.113610
N2361	N236	0.527900	0.791280	0.129380
N2371	N237	0.480740	0.794000	0.153290
N2381	N238	0.423100	0.771880	0.152310
N2391	N239	0.714630	0.798370	0.024470
N2401	N240	0.742500	0.807760	0.998380
N2411	N241	0.705700	0.790700	0.977740
N2421	N242	0.655100	0.770770	0.991080
C1661	C166	0.660620	0.775520	0.019960
N2431	N243	0.525100	0.631470	0.031530
N2441	N244	0.456900	0.634930	0.046870
N2451	N245	0.452900	0.663970	0.057540
N2461	N246	0.398600	0.862600	0.221280
N2471	N247	0.415000	0.854260	0.193240
C1671	C167	0.227130	0.886100	0.081200
N2481	N248	0.218300	0.877700	0.053210
N2491	N249	0.143790	0.886790	0.044260
N2501	N250	0.106570	0.900810	0.066740
N2511	N251	0.158060	0.900390	0.089560
C1681	C168	0.520800	0.678250	0.047410
N2521	N252	0.567600	0.658730	0.031260
Cu291	Cu29	0.001180	0.321210	0.187550
Cu301	Cu30	0.931550	0.342040	0.260520
C1691	C169	0.033300	0.254590	0.086520
C1701	C170	0.082300	0.271370	0.067490
H571	H57	0.096200	0.291700	0.072200
C1711	C171	0.111600	0.258430	0.041420
C1721	C172	0.090900	0.227740	0.034820
H581	H58	0.110000	0.218700	0.017500
C1731	C173	0.042100	0.210740	0.053860
C1741	C174	0.011800	0.224470	0.079500
H591	H59	0.977000	0.213300	0.091900
C1751	C175	0.802600	0.381010	0.128880
H601	H60	0.754000	0.385000	0.139100
C1761	C176	0.802300	0.381090	0.098220
N2531	N253	0.934700	0.255470	0.127780
C1771	C177	0.999400	0.267450	0.113610
N2541	N254	0.027900	0.291280	0.129380
N2551	N255	0.980740	0.294000	0.153290
N2561	N256	0.923100	0.271880	0.152310
N2571	N257	0.214630	0.298370	0.024470
N2581	N258	0.242500	0.307760	0.998380
N2591	N259	0.205700	0.290700	0.977740
N2601	N260	0.155100	0.270770	0.991080
C1781	C178	0.160620	0.275520	0.019960
N2611	N261	0.025100	0.131470	0.031530
N2621	N262	0.956900	0.134930	0.046870
N2631	N263	0.952900	0.163970	0.057540
N2641	N264	0.898600	0.362600	0.221280
N2651	N265	0.915000	0.354260	0.193240
C1791	C179	0.727130	0.386100	0.081200
N2661	N266	0.718300	0.377700	0.053210
N2671	N267	0.643790	0.386790	0.044260
N2681	N268	0.606570	0.400810	0.066740
N2691	N269	0.658060	0.400390	0.089560
C1801	C180	0.020800	0.178250	0.047410
N2701	N270	0.067600	0.158730	0.031260
Cu311	Cu31	0.001180	0.821210	0.687550
Cu321	Cu32	0.931550	0.842040	0.760520
C1811	C181	0.033300	0.754590	0.586520
C1821	C182	0.082300	0.771370	0.567490
H611	H61	0.096200	0.791700	0.572200
C1831	C183	0.111600	0.758430	0.541420
C1841	C184	0.090900	0.727740	0.534820
H621	H62	0.110000	0.718700	0.517500
C1851	C185	0.042100	0.710740	0.553860
C1861	C186	0.011800	0.724470	0.579500
H631	H63	0.977000	0.713300	0.591900
C1871	C187	0.802600	0.881010	0.628880
H641	H64	0.754000	0.885000	0.639100
C1881	C188	0.802300	0.881090	0.598220
N2711	N271	0.934700	0.755470	0.627780
C1891	C189	0.999400	0.767450	0.613610
N2721	N272	0.027900	0.791280	0.629380
N2731	N273	0.980740	0.794000	0.653290
N2741	N274	0.923100	0.771880	0.652310
N2751	N275	0.214630	0.798370	0.524470
N2761	N276	0.242500	0.807760	0.498380
N2771	N277	0.205700	0.790700	0.477740
N2781	N278	0.155100	0.770770	0.491080
C1901	C190	0.160620	0.775520	0.519960
N2791	N279	0.025100	0.631470	0.531530
N2801	N280	0.956900	0.634930	0.546870
N2811	N281	0.952900	0.663970	0.557540
N2821	N282	0.898600	0.862600	0.721280
N2831	N283	0.915000	0.854260	0.693240
C1911	C191	0.727130	0.886100	0.581200
N2841	N284	0.718300	0.877700	0.553210
N2851	N285	0.643790	0.886790	0.544260
N2861	N286	0.606570	0.900810	0.566740
N2871	N287	0.658060	0.900390	0.589560
C1921	C192	0.020800	0.678250	0.547410
N2881	N288	0.067600	0.658730	0.531260
Cu331	Cu33	0.498820	0.571210	0.937550
Cu341	Cu34	0.568450	0.592040	0.010520
C1931	C193	0.466700	0.504590	0.836520
C1941	C194	0.417700	0.521370	0.817490
H651	H65	0.403800	0.541700	0.822200
C1951	C195	0.388400	0.508430	0.791420
C1961	C196	0.409100	0.477740	0.784820
H661	H66	0.390000	0.468700	0.767500
C1971	C197	0.457900	0.460740	0.803860
C1981	C198	0.488200	0.474470	0.829500
H671	H67	0.523000	0.463300	0.841900
C1991	C199	0.697400	0.631010	0.878880
H681	H68	0.746000	0.635000	0.889100
C2001	C200	0.697700	0.631090	0.848220
N2891	N289	0.565300	0.505470	0.877780
C2011	C201	0.500600	0.517450	0.863610
N2901	N290	0.472100	0.541280	0.879380
N2911	N291	0.519260	0.544000	0.903290
N2921	N292	0.576900	0.521880	0.902310
N2931	N293	0.285370	0.548370	0.774470
N2941	N294	0.257500	0.557760	0.748380
N2951	N295	0.294300	0.540700	0.727740
N2961	N296	0.344900	0.520770	0.741080
C2021	C202	0.339380	0.525520	0.769960
N2971	N297	0.474900	0.381470	0.781530
N2981	N298	0.543100	0.384930	0.796870
N2991	N299	0.547100	0.413970	0.807540
N3001	N300	0.601400	0.612600	0.971280
N3011	N301	0.585000	0.604260	0.943240
C2031	C203	0.772870	0.636100	0.831200
N3021	N302	0.781700	0.627700	0.803210
N3031	N303	0.856210	0.636790	0.794260
N3041	N304	0.893430	0.650810	0.816740
N3051	N305	0.841940	0.650390	0.839560
C2041	C204	0.479200	0.428250	0.797410
N3061	N306	0.432400	0.408730	0.781260
Cu351	Cu35	0.498820	0.071210	0.437550
Cu361	Cu36	0.568450	0.092040	0.510520
C2051	C205	0.466700	0.004590	0.336520
C2061	C206	0.417700	0.021370	0.317490
H691	H69	0.403800	0.041700	0.322200
C2071	C207	0.388400	0.008430	0.291420
C2081	C208	0.409100	0.977740	0.284820
H701	H70	0.390000	0.968700	0.267500
C2091	C209	0.457900	0.960740	0.303860
C2101	C210	0.488200	0.974470	0.329500
H711	H71	0.523000	0.963300	0.341900
C2111	C211	0.697400	0.131010	0.378880
H721	H72	0.746000	0.135000	0.389100
C2121	C212	0.697700	0.131090	0.348220
N3071	N307	0.565300	0.005470	0.377780
C2131	C213	0.500600	0.017450	0.363610
N3081	N308	0.472100	0.041280	0.379380
N3091	N309	0.519260	0.044000	0.403290
N3101	N310	0.576900	0.021880	0.402310
N3111	N311	0.285370	0.048370	0.274470
N3121	N312	0.257500	0.057760	0.248380
N3131	N313	0.294300	0.040700	0.227740
N3141	N314	0.344900	0.020770	0.241080
C2141	C214	0.339380	0.025520	0.269960
N3151	N315	0.474900	0.881470	0.281530
N3161	N316	0.543100	0.884930	0.296870
N3171	N317	0.547100	0.913970	0.307540
N3181	N318	0.601400	0.112600	0.471280
N3191	N319	0.585000	0.104260	0.443240
C2151	C215	0.772870	0.136100	0.331200
N3201	N320	0.781700	0.127700	0.303210
N3211	N321	0.856210	0.136790	0.294260
N3221	N322	0.893430	0.150810	0.316740
N3231	N323	0.841940	0.150390	0.339560
C2161	C216	0.479200	0.928250	0.297410
N3241	N324	0.432400	0.908730	0.281260
Cu371	Cu37	0.998820	0.571210	0.437550
Cu381	Cu38	0.068450	0.592040	0.510520
C2171	C217	0.966700	0.504590	0.336520
C2181	C218	0.917700	0.521370	0.317490
H731	H73	0.903800	0.541700	0.322200
C2191	C219	0.888400	0.508430	0.291420
C2201	C220	0.909100	0.477740	0.284820
H741	H74	0.890000	0.468700	0.267500
C2211	C221	0.957900	0.460740	0.303860
C2221	C222	0.988200	0.474470	0.329500
H751	H75	0.023000	0.463300	0.341900
C2231	C223	0.197400	0.631010	0.378880
H761	H76	0.246000	0.635000	0.389100
C2241	C224	0.197700	0.631090	0.348220
N3251	N325	0.065300	0.505470	0.377780
C2251	C225	0.000600	0.517450	0.363610
N3261	N326	0.972100	0.541280	0.379380
N3271	N327	0.019260	0.544000	0.403290
N3281	N328	0.076900	0.521880	0.402310
N3291	N329	0.785370	0.548370	0.274470
N3301	N330	0.757500	0.557760	0.248380
N3311	N331	0.794300	0.540700	0.227740
N3321	N332	0.844900	0.520770	0.241080
C2261	C226	0.839380	0.525520	0.269960
N3331	N333	0.974900	0.381470	0.281530
N3341	N334	0.043100	0.384930	0.296870
N3351	N335	0.047100	0.413970	0.307540
N3361	N336	0.101400	0.612600	0.471280
N3371	N337	0.085000	0.604260	0.443240
C2271	C227	0.272870	0.636100	0.331200
N3381	N338	0.281700	0.627700	0.303210
N3391	N339	0.356210	0.636790	0.294260
N3401	N340	0.393430	0.650810	0.316740
N3411	N341	0.341940	0.650390	0.339560
C2281	C228	0.979200	0.428250	0.297410
N3421	N342	0.932400	0.408730	0.281260
Cu391	Cu39	0.998820	0.071210	0.937550
Cu401	Cu40	0.068450	0.092040	0.010520
C2291	C229	0.966700	0.004590	0.836520
C2301	C230	0.917700	0.021370	0.817490
H771	H77	0.903800	0.041700	0.822200
C2311	C231	0.888400	0.008430	0.791420
C2321	C232	0.909100	0.977740	0.784820
H781	H78	0.890000	0.968700	0.767500
C2331	C233	0.957900	0.960740	0.803860
C2341	C234	0.988200	0.974470	0.829500
H791	H79	0.023000	0.963300	0.841900
C2351	C235	0.197400	0.131010	0.878880
H801	H80	0.246000	0.135000	0.889100
C2361	C236	0.197700	0.131090	0.848220
N3431	N343	0.065300	0.005470	0.877780
C2371	C237	0.000600	0.017450	0.863610
N3441	N344	0.972100	0.041280	0.879380
N3451	N345	0.019260	0.044000	0.903290
N3461	N346	0.076900	0.021880	0.902310
N3471	N347	0.785370	0.048370	0.774470
N3481	N348	0.757500	0.057760	0.748380
N3491	N349	0.794300	0.040700	0.727740
N3501	N350	0.844900	0.020770	0.741080
C2381	C238	0.839380	0.025520	0.769960
N3511	N351	0.974900	0.881470	0.781530
N3521	N352	0.043100	0.884930	0.796870
N3531	N353	0.047100	0.913970	0.807540
N3541	N354	0.101400	0.112600	0.971280
N3551	N355	0.085000	0.104260	0.943240
C2391	C239	0.272870	0.136100	0.831200
N3561	N356	0.281700	0.127700	0.803210
N3571	N357	0.356210	0.136790	0.794260
N3581	N358	0.393430	0.150810	0.816740
N3591	N359	0.341940	0.150390	0.839560
C2401	C240	0.979200	0.928250	0.797410
N3601	N360	0.932400	0.908730	0.781260
Cu411	Cu41	0.751180	0.678790	0.937550
Cu421	Cu42	0.681550	0.657960	0.010520
C2411	C241	0.783300	0.745410	0.836520
C2421	C242	0.832300	0.728630	0.817490
H811	H81	0.846200	0.708300	0.822200
C2431	C243	0.861600	0.741570	0.791420
C2441	C244	0.840900	0.772260	0.784820
H821	H82	0.860000	0.781300	0.767500
C2451	C245	0.792100	0.789260	0.803860
C2461	C246	0.761800	0.775530	0.829500
H831	H83	0.727000	0.786700	0.841900
C2471	C247	0.552600	0.618990	0.878880
H841	H84	0.504000	0.615000	0.889100
C2481	C248	0.552300	0.618910	0.848220
N3611	N361	0.684700	0.744530	0.877780
C2491	C249	0.749400	0.732550	0.863610
N3621	N362	0.777900	0.708720	0.879380
N3631	N363	0.730740	0.706000	0.903290
N3641	N364	0.673100	0.728120	0.902310
N3651	N365	0.964630	0.701630	0.774470
N3661	N366	0.992500	0.692240	0.748380
N3671	N367	0.955700	0.709300	0.727740
N3681	N368	0.905100	0.729230	0.741080
C2501	C250	0.910620	0.724480	0.769960
N3691	N369	0.775100	0.868530	0.781530
N3701	N370	0.706900	0.865070	0.796870
N3711	N371	0.702900	0.836030	0.807540
N3721	N372	0.648600	0.637400	0.971280
N3731	N373	0.665000	0.645740	0.943240
C2511	C251	0.477130	0.613900	0.831200
N3741	N374	0.468300	0.622300	0.803210
N3751	N375	0.393790	0.613210	0.794260
N3761	N376	0.356570	0.599190	0.816740
N3771	N377	0.408060	0.599610	0.839560
C2521	C252	0.770800	0.821750	0.797410
N3781	N378	0.817600	0.841270	0.781260
Cu431	Cu43	0.751180	0.178790	0.437550
Cu441	Cu44	0.681550	0.157960	0.510520
C2531	C253	0.783300	0.245410	0.336520
C2541	C254	0.832300	0.228630	0.317490
H851	H85	0.846200	0.208300	0.322200
C2551	C255	0.861600	0.241570	0.291420
C2561	C256	0.840900	0.272260	0.284820
H861	H86	0.860000	0.281300	0.267500
C2571	C257	0.792100	0.289260	0.303860
C2581	C258	0.761800	0.275530	0.329500
H871	H87	0.727000	0.286700	0.341900
C2591	C259	0.552600	0.118990	0.378880
H881	H88	0.504000	0.115000	0.389100
C2601	C260	0.552300	0.118910	0.348220
N3791	N379	0.684700	0.244530	0.377780
C2611	C261	0.749400	0.232550	0.363610
N3801	N380	0.777900	0.208720	0.379380
N3811	N381	0.730740	0.206000	0.403290
N3821	N382	0.673100	0.228120	0.402310
N3831	N383	0.964630	0.201630	0.274470
N3841	N384	0.992500	0.192240	0.248380
N3851	N385	0.955700	0.209300	0.227740
N3861	N386	0.905100	0.229230	0.241080
C2621	C262	0.910620	0.224480	0.269960
N3871	N387	0.775100	0.368530	0.281530
N3881	N388	0.706900	0.365070	0.296870
N3891	N389	0.702900	0.336030	0.307540
N3901	N390	0.648600	0.137400	0.471280
N3911	N391	0.665000	0.145740	0.443240
C2631	C263	0.477130	0.113900	0.331200
N3921	N392	0.468300	0.122300	0.303210
N3931	N393	0.393790	0.113210	0.294260
N3941	N394	0.356570	0.099190	0.316740
N3951	N395	0.408060	0.099610	0.339560
C2641	C264	0.770800	0.321750	0.297410
N3961	N396	0.817600	0.341270	0.281260
Cu451	Cu45	0.251180	0.678790	0.437550
Cu461	Cu46	0.181550	0.657960	0.510520
C2651	C265	0.283300	0.745410	0.336520
C2661	C266	0.332300	0.728630	0.317490
H891	H89	0.346200	0.708300	0.322200
C2671	C267	0.361600	0.741570	0.291420
C2681	C268	0.340900	0.772260	0.284820
H901	H90	0.360000	0.781300	0.267500
C2691	C269	0.292100	0.789260	0.303860
C2701	C270	0.261800	0.775530	0.329500
H911	H91	0.227000	0.786700	0.341900
C2711	C271	0.052600	0.618990	0.378880
H921	H92	0.004000	0.615000	0.389100
C2721	C272	0.052300	0.618910	0.348220
N3971	N397	0.184700	0.744530	0.377780
C2731	C273	0.249400	0.732550	0.363610
N3981	N398	0.277900	0.708720	0.379380
N3991	N399	0.230740	0.706000	0.403290
N4001	N400	0.173100	0.728120	0.402310
N4011	N401	0.464630	0.701630	0.274470
N4021	N402	0.492500	0.692240	0.248380
N4031	N403	0.455700	0.709300	0.227740
N4041	N404	0.405100	0.729230	0.241080
C2741	C274	0.410620	0.724480	0.269960
N4051	N405	0.275100	0.868530	0.281530
N4061	N406	0.206900	0.865070	0.296870
N4071	N407	0.202900	0.836030	0.307540
N4081	N408	0.148600	0.637400	0.471280
N4091	N409	0.165000	0.645740	0.443240
C2751	C275	0.977130	0.613900	0.331200
N4101	N410	0.968300	0.622300	0.303210
N4111	N411	0.893790	0.613210	0.294260
N4121	N412	0.856570	0.599190	0.316740
N4131	N413	0.908060	0.599610	0.339560
C2761	C276	0.270800	0.821750	0.297410
N4141	N414	0.317600	0.841270	0.281260
Cu471	Cu47	0.251180	0.178790	0.937550
Cu481	Cu48	0.181550	0.157960	0.010520
C2771	C277	0.283300	0.245410	0.836520
C2781	C278	0.332300	0.228630	0.817490
H931	H93	0.346200	0.208300	0.822200
C2791	C279	0.361600	0.241570	0.791420
C2801	C280	0.340900	0.272260	0.784820
H941	H94	0.360000	0.281300	0.767500
C2811	C281	0.292100	0.289260	0.803860
C2821	C282	0.261800	0.275530	0.829500
H951	H95	0.227000	0.286700	0.841900
C2831	C283	0.052600	0.118990	0.878880
H961	H96	0.004000	0.115000	0.889100
C2841	C284	0.052300	0.118910	0.848220
N4151	N415	0.184700	0.244530	0.877780
C2851	C285	0.249400	0.232550	0.863610
N4161	N416	0.277900	0.208720	0.879380
N4171	N417	0.230740	0.206000	0.903290
N4181	N418	0.173100	0.228120	0.902310
N4191	N419	0.464630	0.201630	0.774470
N4201	N420	0.492500	0.192240	0.748380
N4211	N421	0.455700	0.209300	0.727740
N4221	N422	0.405100	0.229230	0.741080
C2861	C286	0.410620	0.224480	0.769960
N4231	N423	0.275100	0.368530	0.781530
N4241	N424	0.206900	0.365070	0.796870
N4251	N425	0.202900	0.336030	0.807540
N4261	N426	0.148600	0.137400	0.971280
N4271	N427	0.165000	0.145740	0.943240
C2871	C287	0.977130	0.113900	0.831200
N4281	N428	0.968300	0.122300	0.803210
N4291	N429	0.893790	0.113210	0.794260
N4301	N430	0.856570	0.099190	0.816740
N4311	N431	0.908060	0.099610	0.839560
C2881	C288	0.270800	0.321750	0.797410
N4321	N432	0.317600	0.341270	0.781260
Cu491	Cu49	0.751180	0.571210	0.312450
Cu501	Cu50	0.681550	0.592040	0.239480
C2891	C289	0.783300	0.504590	0.413480
C2901	C290	0.832300	0.521370	0.432510
H971	H97	0.846200	0.541700	0.427800
C2911	C291	0.861600	0.508430	0.458580
C2921	C292	0.840900	0.477740	0.465180
H981	H98	0.860000	0.468700	0.482500
C2931	C293	0.792100	0.460740	0.446140
C2941	C294	0.761800	0.474470	0.420500
H991	H99	0.727000	0.463300	0.408100
C2951	C295	0.552600	0.631010	0.371120
H1001	H100	0.504000	0.635000	0.360900
C2961	C296	0.552300	0.631090	0.401780
N4331	N433	0.684700	0.505470	0.372220
C2971	C297	0.749400	0.517450	0.386390
N4341	N434	0.777900	0.541280	0.370620
N4351	N435	0.730740	0.544000	0.346710
N4361	N436	0.673100	0.521880	0.347690
N4371	N437	0.964630	0.548370	0.475530
N4381	N438	0.992500	0.557760	0.501620
N4391	N439	0.955700	0.540700	0.522260
N4401	N440	0.905100	0.520770	0.508920
C2981	C298	0.910620	0.525520	0.480040
N4411	N441	0.775100	0.381470	0.468470
N4421	N442	0.706900	0.384930	0.453130
N4431	N443	0.702900	0.413970	0.442460
N4441	N444	0.648600	0.612600	0.278720
N4451	N445	0.665000	0.604260	0.306760
C2991	C299	0.477130	0.636100	0.418800
N4461	N446	0.468300	0.627700	0.446790
N4471	N447	0.393790	0.636790	0.455740
N4481	N448	0.356570	0.650810	0.433260
N4491	N449	0.408060	0.650390	0.410440
C3001	C300	0.770800	0.428250	0.452590
N4501	N450	0.817600	0.408730	0.468740
Cu511	Cu51	0.751180	0.071210	0.812450
Cu521	Cu52	0.681550	0.092040	0.739480
C3011	C301	0.783300	0.004590	0.913480
C3021	C302	0.832300	0.021370	0.932510
H1011	H101	0.846200	0.041700	0.927800
C3031	C303	0.861600	0.008430	0.958580
C3041	C304	0.840900	0.977740	0.965180
H1021	H102	0.860000	0.968700	0.982500
C3051	C305	0.792100	0.960740	0.946140
C3061	C306	0.761800	0.974470	0.920500
H1031	H103	0.727000	0.963300	0.908100
C3071	C307	0.552600	0.131010	0.871120
H1041	H104	0.504000	0.135000	0.860900
C3081	C308	0.552300	0.131090	0.901780
N4511	N451	0.684700	0.005470	0.872220
C3091	C309	0.749400	0.017450	0.886390
N4521	N452	0.777900	0.041280	0.870620
N4531	N453	0.730740	0.044000	0.846710
N4541	N454	0.673100	0.021880	0.847690
N4551	N455	0.964630	0.048370	0.975530
N4561	N456	0.992500	0.057760	0.001620
N4571	N457	0.955700	0.040700	0.022260
N4581	N458	0.905100	0.020770	0.008920
C3101	C310	0.910620	0.025520	0.980040
N4591	N459	0.775100	0.881470	0.968470
N4601	N460	0.706900	0.884930	0.953130
N4611	N461	0.702900	0.913970	0.942460
N4621	N462	0.648600	0.112600	0.778720
N4631	N463	0.665000	0.104260	0.806760
C3111	C311	0.477130	0.136100	0.918800
N4641	N464	0.468300	0.127700	0.946790
N4651	N465	0.393790	0.136790	0.955740
N4661	N466	0.356570	0.150810	0.933260
N4671	N467	0.408060	0.150390	0.910440
C3121	C312	0.770800	0.928250	0.952590
N4681	N468	0.817600	0.908730	0.968740
Cu531	Cu53	0.251180	0.571210	0.812450
Cu541	Cu54	0.181550	0.592040	0.739480
C3131	C313	0.283300	0.504590	0.913480
C3141	C314	0.332300	0.521370	0.932510
H1051	H105	0.346200	0.541700	0.927800
C3151	C315	0.361600	0.508430	0.958580
C3161	C316	0.340900	0.477740	0.965180
H1061	H106	0.360000	0.468700	0.982500
C3171	C317	0.292100	0.460740	0.946140
C3181	C318	0.261800	0.474470	0.920500
H1071	H107	0.227000	0.463300	0.908100
C3191	C319	0.052600	0.631010	0.871120
H1081	H108	0.004000	0.635000	0.860900
C3201	C320	0.052300	0.631090	0.901780
N4691	N469	0.184700	0.505470	0.872220
C3211	C321	0.249400	0.517450	0.886390
N4701	N470	0.277900	0.541280	0.870620
N4711	N471	0.230740	0.544000	0.846710
N4721	N472	0.173100	0.521880	0.847690
N4731	N473	0.464630	0.548370	0.975530
N4741	N474	0.492500	0.557760	0.001620
N4751	N475	0.455700	0.540700	0.022260
N4761	N476	0.405100	0.520770	0.008920
C3221	C322	0.410620	0.525520	0.980040
N4771	N477	0.275100	0.381470	0.968470
N4781	N478	0.206900	0.384930	0.953130
N4791	N479	0.202900	0.413970	0.942460
N4801	N480	0.148600	0.612600	0.778720
N4811	N481	0.165000	0.604260	0.806760
C3231	C323	0.977130	0.636100	0.918800
N4821	N482	0.968300	0.627700	0.946790
N4831	N483	0.893790	0.636790	0.955740
N4841	N484	0.856570	0.650810	0.933260
N4851	N485	0.908060	0.650390	0.910440
C3241	C324	0.270800	0.428250	0.952590
N4861	N486	0.317600	0.408730	0.968740
Cu551	Cu55	0.251180	0.071210	0.312450
Cu561	Cu56	0.181550	0.092040	0.239480
C3251	C325	0.283300	0.004590	0.413480
C3261	C326	0.332300	0.021370	0.432510
H1091	H109	0.346200	0.041700	0.427800
C3271	C327	0.361600	0.008430	0.458580
C3281	C328	0.340900	0.977740	0.465180
H1101	H110	0.360000	0.968700	0.482500
C3291	C329	0.292100	0.960740	0.446140
C3301	C330	0.261800	0.974470	0.420500
H1111	H111	0.227000	0.963300	0.408100
C3311	C331	0.052600	0.131010	0.371120
H1121	H112	0.004000	0.135000	0.360900
C3321	C332	0.052300	0.131090	0.401780
N4871	N487	0.184700	0.005470	0.372220
C3331	C333	0.249400	0.017450	0.386390
N4881	N488	0.277900	0.041280	0.370620
N4891	N489	0.230740	0.044000	0.346710
N4901	N490	0.173100	0.021880	0.347690
N4911	N491	0.464630	0.048370	0.475530
N4921	N492	0.492500	0.057760	0.501620
N4931	N493	0.455700	0.040700	0.522260
N4941	N494	0.405100	0.020770	0.508920
C3341	C334	0.410620	0.025520	0.480040
N4951	N495	0.275100	0.881470	0.468470
N4961	N496	0.206900	0.884930	0.453130
N4971	N497	0.202900	0.913970	0.442460
N4981	N498	0.148600	0.112600	0.278720
N4991	N499	0.165000	0.104260	0.306760
C3351	C335	0.977130	0.136100	0.418800
N5001	N500	0.968300	0.127700	0.446790
N5011	N501	0.893790	0.136790	0.455740
N5021	N502	0.856570	0.150810	0.433260
N5031	N503	0.908060	0.150390	0.410440
C3361	C336	0.270800	0.928250	0.452590
N5041	N504	0.317600	0.908730	0.468740
Cu571	Cu57	0.498820	0.678790	0.312450
Cu581	Cu58	0.568450	0.657960	0.239480
C3371	C337	0.466700	0.745410	0.413480
C3381	C338	0.417700	0.728630	0.432510
H1131	H113	0.403800	0.708300	0.427800
C3391	C339	0.388400	0.741570	0.458580
C3401	C340	0.409100	0.772260	0.465180
H1141	H114	0.390000	0.781300	0.482500
C3411	C341	0.457900	0.789260	0.446140
C3421	C342	0.488200	0.775530	0.420500
H1151	H115	0.523000	0.786700	0.408100
C3431	C343	0.697400	0.618990	0.371120
H1161	H116	0.746000	0.615000	0.360900
C3441	C344	0.697700	0.618910	0.401780
N5051	N505	0.565300	0.744530	0.372220
C3451	C345	0.500600	0.732550	0.386390
N5061	N506	0.472100	0.708720	0.370620
N5071	N507	0.519260	0.706000	0.346710
N5081	N508	0.576900	0.728120	0.347690
N5091	N509	0.285370	0.701630	0.475530
N5101	N510	0.257500	0.692240	0.501620
N5111	N511	0.294300	0.709300	0.522260
N5121	N512	0.344900	0.729230	0.508920
C3461	C346	0.339380	0.724480	0.480040
N5131	N513	0.474900	0.868530	0.468470
N5141	N514	0.543100	0.865070	0.453130
N5151	N515	0.547100	0.836030	0.442460
N5161	N516	0.601400	0.637400	0.278720
N5171	N517	0.585000	0.645740	0.306760
C3471	C347	0.772870	0.613900	0.418800
N5181	N518	0.781700	0.622300	0.446790
N5191	N519	0.856210	0.613210	0.455740
N5201	N520	0.893430	0.599190	0.433260
N5211	N521	0.841940	0.599610	0.410440
C3481	C348	0.479200	0.821750	0.452590
N5221	N522	0.432400	0.841270	0.468740
Cu591	Cu59	0.498820	0.178790	0.812450
Cu601	Cu60	0.568450	0.157960	0.739480
C3491	C349	0.466700	0.245410	0.913480
C3501	C350	0.417700	0.228630	0.932510
H1171	H117	0.403800	0.208300	0.927800
C3511	C351	0.388400	0.241570	0.958580
C3521	C352	0.409100	0.272260	0.965180
H1181	H118	0.390000	0.281300	0.982500
C3531	C353	0.457900	0.289260	0.946140
C3541	C354	0.488200	0.275530	0.920500
H1191	H119	0.523000	0.286700	0.908100
C3551	C355	0.697400	0.118990	0.871120
H1201	H120	0.746000	0.115000	0.860900
C3561	C356	0.697700	0.118910	0.901780
N5231	N523	0.565300	0.244530	0.872220
C3571	C357	0.500600	0.232550	0.886390
N5241	N524	0.472100	0.208720	0.870620
N5251	N525	0.519260	0.206000	0.846710
N5261	N526	0.576900	0.228120	0.847690
N5271	N527	0.285370	0.201630	0.975530
N5281	N528	0.257500	0.192240	0.001620
N5291	N529	0.294300	0.209300	0.022260
N5301	N530	0.344900	0.229230	0.008920
C3581	C358	0.339380	0.224480	0.980040
N5311	N531	0.474900	0.368530	0.968470
N5321	N532	0.543100	0.365070	0.953130
N5331	N533	0.547100	0.336030	0.942460
N5341	N534	0.601400	0.137400	0.778720
N5351	N535	0.585000	0.145740	0.806760
C3591	C359	0.772870	0.113900	0.918800
N5361	N536	0.781700	0.122300	0.946790
N5371	N537	0.856210	0.113210	0.955740
N5381	N538	0.893430	0.099190	0.933260
N5391	N539	0.841940	0.099610	0.910440
C3601	C360	0.479200	0.321750	0.952590
N5401	N540	0.432400	0.341270	0.968740
Cu611	Cu61	0.998820	0.678790	0.812450
Cu621	Cu62	0.068450	0.657960	0.739480
C3611	C361	0.966700	0.745410	0.913480
C3621	C362	0.917700	0.728630	0.932510
H1211	H121	0.903800	0.708300	0.927800
C3631	C363	0.888400	0.741570	0.958580
C3641	C364	0.909100	0.772260	0.965180
H1221	H122	0.890000	0.781300	0.982500
C3651	C365	0.957900	0.789260	0.946140
C3661	C366	0.988200	0.775530	0.920500
H1231	H123	0.023000	0.786700	0.908100
C3671	C367	0.197400	0.618990	0.871120
H1241	H124	0.246000	0.615000	0.860900
C3681	C368	0.197700	0.618910	0.901780
N5411	N541	0.065300	0.744530	0.872220
C3691	C369	0.000600	0.732550	0.886390
N5421	N542	0.972100	0.708720	0.870620
N5431	N543	0.019260	0.706000	0.846710
N5441	N544	0.076900	0.728120	0.847690
N5451	N545	0.785370	0.701630	0.975530
N5461	N546	0.757500	0.692240	0.001620
N5471	N547	0.794300	0.709300	0.022260
N5481	N548	0.844900	0.729230	0.008920
C3701	C370	0.839380	0.724480	0.980040
N5491	N549	0.974900	0.868530	0.968470
N5501	N550	0.043100	0.865070	0.953130
N5511	N551	0.047100	0.836030	0.942460
N5521	N552	0.101400	0.637400	0.778720
N5531	N553	0.085000	0.645740	0.806760
C3711	C371	0.272870	0.613900	0.918800
N5541	N554	0.281700	0.622300	0.946790
N5551	N555	0.356210	0.613210	0.955740
N5561	N556	0.393430	0.599190	0.933260
N5571	N557	0.341940	0.599610	0.910440
C3721	C372	0.979200	0.821750	0.952590
N5581	N558	0.932400	0.841270	0.968740
Cu631	Cu63	0.998820	0.178790	0.312450
Cu641	Cu64	0.068450	0.157960	0.239480
C3731	C373	0.966700	0.245410	0.413480
C3741	C374	0.917700	0.228630	0.432510
H1251	H125	0.903800	0.208300	0.427800
C3751	C375	0.888400	0.241570	0.458580
C3761	C376	0.909100	0.272260	0.465180
H1261	H126	0.890000	0.281300	0.482500
C3771	C377	0.957900	0.289260	0.446140
C3781	C378	0.988200	0.275530	0.420500
H1271	H127	0.023000	0.286700	0.408100
C3791	C379	0.197400	0.118990	0.371120
H1281	H128	0.246000	0.115000	0.360900
C3801	C380	0.197700	0.118910	0.401780
N5591	N559	0.065300	0.244530	0.372220
C3811	C381	0.000600	0.232550	0.386390
N5601	N560	0.972100	0.208720	0.370620
N5611	N561	0.019260	0.206000	0.346710
N5621	N562	0.076900	0.228120	0.347690
N5631	N563	0.785370	0.201630	0.475530
N5641	N564	0.757500	0.192240	0.501620
N5651	N565	0.794300	0.209300	0.522260
N5661	N566	0.844900	0.229230	0.508920
C3821	C382	0.839380	0.224480	0.480040
N5671	N567	0.974900	0.368530	0.468470
N5681	N568	0.043100	0.365070	0.453130
N5691	N569	0.047100	0.336030	0.442460
N5701	N570	0.101400	0.137400	0.278720
N5711	N571	0.085000	0.145740	0.306760
C3831	C383	0.272870	0.113900	0.418800
N5721	N572	0.281700	0.122300	0.446790
N5731	N573	0.356210	0.113210	0.455740
N5741	N574	0.393430	0.099190	0.433260
N5751	N575	0.341940	0.099610	0.410440
C3841	C384	0.979200	0.321750	0.452590
N5761	N576	0.932400	0.341270	0.468740
Cu651	Cu65	0.625000	0.427830	0.125000
Cu661	Cu66	0.625000	0.927830	0.625000
Cu671	Cu67	0.125000	0.322170	0.125000
Cu681	Cu68	0.125000	0.822170	0.625000
Cu691	Cu69	0.625000	0.322170	0.625000
Cu701	Cu70	0.125000	0.427830	0.625000
Cu711	Cu71	0.125000	0.927830	0.125000
Cu721	Cu72	0.625000	0.822170	0.125000
Cu731	Cu73	0.375000	0.572170	0.875000
Cu741	Cu74	0.375000	0.072170	0.375000
Cu751	Cu75	0.875000	0.677830	0.875000
Cu761	Cu76	0.875000	0.177830	0.375000
Cu771	Cu77	0.875000	0.572170	0.375000
Cu781	Cu78	0.875000	0.072170	0.875000
Cu791	Cu79	0.375000	0.677830	0.375000
Cu801	Cu80	0.375000	0.177830	0.875000
C3851	C385	0.375000	0.375000	0.105760
C3861	C386	0.375000	0.375000	0.166470
H1291	H129	0.375000	0.375000	0.186900
C3871	C387	0.375000	0.375000	0.073420
C3881	C388	0.375000	0.875000	0.605760
C3891	C389	0.375000	0.875000	0.666470
H1301	H130	0.375000	0.875000	0.686900
C3901	C390	0.375000	0.875000	0.573420
C3911	C391	0.875000	0.375000	0.605760
C3921	C392	0.875000	0.375000	0.666470
H1311	H131	0.875000	0.375000	0.686900
C3931	C393	0.875000	0.375000	0.573420
C3941	C394	0.875000	0.875000	0.105760
C3951	C395	0.875000	0.875000	0.166470
H1321	H132	0.875000	0.875000	0.186900
C3961	C396	0.875000	0.875000	0.073420
C3971	C397	0.375000	0.375000	0.644240
C3981	C398	0.375000	0.375000	0.583530
H1331	H133	0.375000	0.375000	0.563100
C3991	C399	0.375000	0.375000	0.676580
C4001	C400	0.375000	0.875000	0.144240
C4011	C401	0.375000	0.875000	0.083530
H1341	H134	0.375000	0.875000	0.063100
C4021	C402	0.375000	0.875000	0.176580
C4031	C403	0.875000	0.375000	0.144240
C4041	C404	0.875000	0.375000	0.083530
H1351	H135	0.875000	0.375000	0.063100
C4051	C405	0.875000	0.375000	0.176580
C4061	C406	0.875000	0.875000	0.644240
C4071	C407	0.875000	0.875000	0.583530
H1361	H136	0.875000	0.875000	0.563100
C4081	C408	0.875000	0.875000	0.676580
C4091	C409	0.625000	0.625000	0.894240
C4101	C410	0.625000	0.625000	0.833530
H1371	H137	0.625000	0.625000	0.813100
C4111	C411	0.625000	0.625000	0.926580
C4121	C412	0.625000	0.125000	0.394240
C4131	C413	0.625000	0.125000	0.333530
H1381	H138	0.625000	0.125000	0.313100
C4141	C414	0.625000	0.125000	0.426580
C4151	C415	0.125000	0.625000	0.394240
C4161	C416	0.125000	0.625000	0.333530
H1391	H139	0.125000	0.625000	0.313100
C4171	C417	0.125000	0.625000	0.426580
C4181	C418	0.125000	0.125000	0.894240
C4191	C419	0.125000	0.125000	0.833530
H1401	H140	0.125000	0.125000	0.813100
C4201	C420	0.125000	0.125000	0.926580
C4211	C421	0.625000	0.625000	0.355760
C4221	C422	0.625000	0.625000	0.416470
H1411	H141	0.625000	0.625000	0.436900
C4231	C423	0.625000	0.625000	0.323420
C4241	C424	0.625000	0.125000	0.855760
C4251	C425	0.625000	0.125000	0.916470
H1421	H142	0.625000	0.125000	0.936900
C4261	C426	0.625000	0.125000	0.823420
C4271	C427	0.125000	0.625000	0.855760
C4281	C428	0.125000	0.625000	0.916470
H1431	H143	0.125000	0.625000	0.936900
C4291	C429	0.125000	0.625000	0.823420
C4301	C430	0.125000	0.125000	0.355760
C4311	C431	0.125000	0.125000	0.416470
H1441	H144	0.125000	0.125000	0.436900
C4321	C432	0.125000	0.125000	0.323420
