data_COWBEX_freeONLY_PM
_symmetry_space_group_name_H-M	'P1'
_cell_length_a	16.012100
_cell_length_b	7.550200
_cell_length_c	27.815300
_cell_angle_alpha	90.000000
_cell_angle_beta	99.733000
_cell_angle_gamma	90.000000
_symmetry_Int_Tables_number 1

loop_
_symmetry_equiv_pos_as_xyz
'x,y,z'

loop_
_atom_site_label
_atom_site_type_symbol
_atom_site_fract_x
_atom_site_fract_y
_atom_site_fract_z
Cd11	Cd1	0.215610	0.526040	0.080140
Cd21	Cd2	0.151000	0.042650	0.046510
O11	O1	0.177310	0.263700	0.109640
O21	O2	0.306940	0.318200	0.148160
O31	O3	0.245740	0.907200	0.108580
O41	O4	0.219430	0.669700	0.150940
O51	O5	0.903430	0.199000	0.442640
O61	O6	0.962370	0.446500	0.422390
O71	O7	0.081210	0.240000	0.499840
O81	O8	0.179620	0.030600	0.500020
O91	O9	0.111700	0.886300	0.971130
N11	N1	0.342710	0.608100	0.058650
N21	N2	0.722620	0.905500	0.983360
F11	F1	0.323600	0.762800	0.322620
F21	F2	0.307960	0.988400	0.366900
F31	F3	0.275100	0.729100	0.389270
F41	F4	0.115500	0.619300	0.353740
F51	F5	0.069200	0.691200	0.279430
F61	F6	0.188600	0.557700	0.298040
C11	C1	0.238700	0.241200	0.145170
C21	C2	0.222700	0.131000	0.188480
C31	C3	0.216600	0.947300	0.189390
C41	C4	0.203000	0.862000	0.231860
H11	H1	0.200500	0.739000	0.232400
C51	C5	0.193200	0.956100	0.273380
C61	C6	0.200200	0.139400	0.272100
H21	H2	0.195200	0.205200	0.299700
C71	C7	0.214600	0.225600	0.230410
H31	H3	0.218800	0.348400	0.230400
C81	C8	0.228300	0.833800	0.146430
C91	C9	0.182200	0.864000	0.321540
C101	C10	0.138500	0.682300	0.313270
C111	C11	0.272800	0.837000	0.350670
C121	C12	0.126300	0.975300	0.350520
C131	C13	0.052400	0.051500	0.325440
H41	H4	0.038400	0.036300	0.291900
C141	C14	0.999900	0.149000	0.349640
H51	H5	0.950800	0.198600	0.332200
C151	C15	0.019300	0.174400	0.399660
C161	C16	0.092100	0.096600	0.425390
C171	C17	0.144600	0.997200	0.400510
H61	H6	0.193000	0.944700	0.417900
C181	C18	0.958600	0.279600	0.424170
C191	C19	0.118900	0.123500	0.479590
C201	C20	0.345800	0.658300	0.012940
H71	H7	0.296300	0.653100	0.990000
C211	C21	0.418700	0.717400	0.998040
H81	H8	0.417200	0.750700	0.965700
C221	C22	0.494100	0.727700	0.030490
C231	C23	0.490500	0.676900	0.077620
H91	H9	0.538900	0.681600	0.101400
C241	C24	0.414500	0.618700	0.089590
H101	H10	0.414200	0.584800	0.121700
C251	C25	0.573200	0.791700	0.014660
C261	C26	0.577400	0.817000	0.965710
H111	H11	0.529900	0.795600	0.942200
C271	C27	0.651800	0.873800	0.951620
H121	H12	0.652500	0.890700	0.918600
C281	C28	0.718400	0.883900	0.030670
H131	H13	0.766700	0.907400	0.053400
C291	C29	0.646400	0.828700	0.047760
H141	H14	0.647000	0.816400	0.081100
H151	H15	0.076000	0.936000	0.952000
H161	H16	0.102000	0.802000	0.980400
Cd31	Cd3	0.784390	0.026040	0.419860
Cd41	Cd4	0.849000	0.542650	0.453490
O101	O10	0.822690	0.763700	0.390360
O111	O11	0.693060	0.818200	0.351840
O121	O12	0.754260	0.407200	0.391420
O131	O13	0.780570	0.169700	0.349060
O141	O14	0.096570	0.699000	0.057360
O151	O15	0.037630	0.946500	0.077610
O161	O16	0.918790	0.740000	0.000160
O171	O17	0.820380	0.530600	0.999980
O181	O18	0.888300	0.386300	0.528870
N31	N3	0.657290	0.108100	0.441350
N41	N4	0.277380	0.405500	0.516640
F71	F7	0.676400	0.262800	0.177380
F81	F8	0.692040	0.488400	0.133100
F91	F9	0.724900	0.229100	0.110730
F101	F10	0.884500	0.119300	0.146260
F111	F11	0.930800	0.191200	0.220570
F121	F12	0.811400	0.057700	0.201960
C301	C30	0.761300	0.741200	0.354830
C311	C31	0.777300	0.631000	0.311520
C321	C32	0.783400	0.447300	0.310610
C331	C33	0.797000	0.362000	0.268140
H171	H17	0.799500	0.239000	0.267600
C341	C34	0.806800	0.456100	0.226620
C351	C35	0.799800	0.639400	0.227900
H181	H18	0.804800	0.705200	0.200300
C361	C36	0.785400	0.725600	0.269590
H191	H19	0.781200	0.848400	0.269600
C371	C37	0.771700	0.333800	0.353570
C381	C38	0.817800	0.364000	0.178460
C391	C39	0.861500	0.182300	0.186730
C401	C40	0.727200	0.337000	0.149330
C411	C41	0.873700	0.475300	0.149480
C421	C42	0.947600	0.551500	0.174560
H201	H20	0.961600	0.536300	0.208100
C431	C43	0.000100	0.649000	0.150360
H211	H21	0.049200	0.698600	0.167800
C441	C44	0.980700	0.674400	0.100340
C451	C45	0.907900	0.596600	0.074610
C461	C46	0.855400	0.497200	0.099490
H221	H22	0.807000	0.444700	0.082100
C471	C47	0.041400	0.779600	0.075830
C481	C48	0.881100	0.623500	0.020410
C491	C49	0.654200	0.158300	0.487060
H231	H23	0.703700	0.153100	0.510000
C501	C50	0.581300	0.217400	0.501960
H241	H24	0.582800	0.250700	0.534300
C511	C51	0.505900	0.227700	0.469510
C521	C52	0.509500	0.176900	0.422380
H251	H25	0.461100	0.181600	0.398600
C531	C53	0.585500	0.118700	0.410410
H261	H26	0.585800	0.084800	0.378300
C541	C54	0.426800	0.291700	0.485340
C551	C55	0.422600	0.317000	0.534290
H271	H27	0.470100	0.295600	0.557800
C561	C56	0.348200	0.373800	0.548380
H281	H28	0.347500	0.390700	0.581400
C571	C57	0.281600	0.383900	0.469330
H291	H29	0.233300	0.407400	0.446600
C581	C58	0.353600	0.328700	0.452240
H301	H30	0.353000	0.316400	0.418900
H311	H31	0.924000	0.436000	0.548000
H321	H32	0.898000	0.302000	0.519600
Cd51	Cd5	0.784390	0.473960	0.919860
Cd61	Cd6	0.849000	0.957350	0.953490
O191	O19	0.822690	0.736300	0.890360
O201	O20	0.693060	0.681800	0.851840
O211	O21	0.754260	0.092800	0.891420
O221	O22	0.780570	0.330300	0.849060
O231	O23	0.096570	0.801000	0.557360
O241	O24	0.037630	0.553500	0.577610
O251	O25	0.918790	0.760000	0.500160
O261	O26	0.820380	0.969400	0.499980
O271	O27	0.888300	0.113700	0.028870
N51	N5	0.657290	0.391900	0.941350
N61	N6	0.277380	0.094500	0.016640
F131	F13	0.676400	0.237200	0.677380
F141	F14	0.692040	0.011600	0.633100
F151	F15	0.724900	0.270900	0.610730
F161	F16	0.884500	0.380700	0.646260
F171	F17	0.930800	0.308800	0.720570
F181	F18	0.811400	0.442300	0.701960
C591	C59	0.761300	0.758800	0.854830
C601	C60	0.777300	0.869000	0.811520
C611	C61	0.783400	0.052700	0.810610
C621	C62	0.797000	0.138000	0.768140
H331	H33	0.799500	0.261000	0.767600
C631	C63	0.806800	0.043900	0.726620
C641	C64	0.799800	0.860600	0.727900
H341	H34	0.804800	0.794800	0.700300
C651	C65	0.785400	0.774400	0.769590
H351	H35	0.781200	0.651600	0.769600
C661	C66	0.771700	0.166200	0.853570
C671	C67	0.817800	0.136000	0.678460
C681	C68	0.861500	0.317700	0.686730
C691	C69	0.727200	0.163000	0.649330
C701	C70	0.873700	0.024700	0.649480
C711	C71	0.947600	0.948500	0.674560
H361	H36	0.961600	0.963700	0.708100
C721	C72	0.000100	0.851000	0.650360
H371	H37	0.049200	0.801400	0.667800
C731	C73	0.980700	0.825600	0.600340
C741	C74	0.907900	0.903400	0.574610
C751	C75	0.855400	0.002800	0.599490
H381	H38	0.807000	0.055300	0.582100
C761	C76	0.041400	0.720400	0.575830
C771	C77	0.881100	0.876500	0.520410
C781	C78	0.654200	0.341700	0.987060
H391	H39	0.703700	0.346900	0.010000
C791	C79	0.581300	0.282600	0.001960
H401	H40	0.582800	0.249300	0.034300
C801	C80	0.505900	0.272300	0.969510
C811	C81	0.509500	0.323100	0.922380
H411	H41	0.461100	0.318400	0.898600
C821	C82	0.585500	0.381300	0.910410
H421	H42	0.585800	0.415200	0.878300
C831	C83	0.426800	0.208300	0.985340
C841	C84	0.422600	0.183000	0.034290
H431	H43	0.470100	0.204400	0.057800
C851	C85	0.348200	0.126200	0.048380
H441	H44	0.347500	0.109300	0.081400
C861	C86	0.281600	0.116100	0.969330
H451	H45	0.233300	0.092600	0.946600
C871	C87	0.353600	0.171300	0.952240
H461	H46	0.353000	0.183600	0.918900
H471	H47	0.924000	0.064000	0.048000
H481	H48	0.898000	0.198000	0.019600
Cd71	Cd7	0.215610	0.973960	0.580140
Cd81	Cd8	0.151000	0.457350	0.546510
O281	O28	0.177310	0.236300	0.609640
O291	O29	0.306940	0.181800	0.648160
O301	O30	0.245740	0.592800	0.608580
O311	O31	0.219430	0.830300	0.650940
O321	O32	0.903430	0.301000	0.942640
O331	O33	0.962370	0.053500	0.922390
O341	O34	0.081210	0.260000	0.999840
O351	O35	0.179620	0.469400	0.000020
O361	O36	0.111700	0.613700	0.471130
N71	N7	0.342710	0.891900	0.558650
N81	N8	0.722620	0.594500	0.483360
F191	F19	0.323600	0.737200	0.822620
F201	F20	0.307960	0.511600	0.866900
F211	F21	0.275100	0.770900	0.889270
F221	F22	0.115500	0.880700	0.853740
F231	F23	0.069200	0.808800	0.779430
F241	F24	0.188600	0.942300	0.798040
C881	C88	0.238700	0.258800	0.645170
C891	C89	0.222700	0.369000	0.688480
C901	C90	0.216600	0.552700	0.689390
C911	C91	0.203000	0.638000	0.731860
H491	H49	0.200500	0.761000	0.732400
C921	C92	0.193200	0.543900	0.773380
C931	C93	0.200200	0.360600	0.772100
H501	H50	0.195200	0.294800	0.799700
C941	C94	0.214600	0.274400	0.730410
H511	H51	0.218800	0.151600	0.730400
C951	C95	0.228300	0.666200	0.646430
C961	C96	0.182200	0.636000	0.821540
C971	C97	0.138500	0.817700	0.813270
C981	C98	0.272800	0.663000	0.850670
C991	C99	0.126300	0.524700	0.850520
C1001	C100	0.052400	0.448500	0.825440
H521	H52	0.038400	0.463700	0.791900
C1011	C101	0.999900	0.351000	0.849640
H531	H53	0.950800	0.301400	0.832200
C1021	C102	0.019300	0.325600	0.899660
C1031	C103	0.092100	0.403400	0.925390
C1041	C104	0.144600	0.502800	0.900510
H541	H54	0.193000	0.555300	0.917900
C1051	C105	0.958600	0.220400	0.924170
C1061	C106	0.118900	0.376500	0.979590
C1071	C107	0.345800	0.841700	0.512940
H551	H55	0.296300	0.846900	0.490000
C1081	C108	0.418700	0.782600	0.498040
H561	H56	0.417200	0.749300	0.465700
C1091	C109	0.494100	0.772300	0.530490
C1101	C110	0.490500	0.823100	0.577620
H571	H57	0.538900	0.818400	0.601400
C1111	C111	0.414500	0.881300	0.589590
H581	H58	0.414200	0.915200	0.621700
C1121	C112	0.573200	0.708300	0.514660
C1131	C113	0.577400	0.683000	0.465710
H591	H59	0.529900	0.704400	0.442200
C1141	C114	0.651800	0.626200	0.451620
H601	H60	0.652500	0.609300	0.418600
C1151	C115	0.718400	0.616100	0.530670
H611	H61	0.766700	0.592600	0.553400
C1161	C116	0.646400	0.671300	0.547760
H621	H62	0.647000	0.683600	0.581100
H631	H63	0.076000	0.564000	0.452000
H641	H64	0.102000	0.698000	0.480400
