data_COWXOC_freeONLY_PM
_symmetry_space_group_name_H-M	'P1'
_cell_length_a	15.863500
_cell_length_b	15.863500
_cell_length_c	20.060000
_cell_angle_alpha	84.226300
_cell_angle_beta	84.226300
_cell_angle_gamma	71.399600
_symmetry_Int_Tables_number 1

loop_
_symmetry_equiv_pos_as_xyz
'x,y,z'

loop_
_atom_site_label
_atom_site_type_symbol
_atom_site_fract_x
_atom_site_fract_y
_atom_site_fract_z
Cd11	Cd1	0.720850	0.678370	0.811640
Cd21	Cd2	0.827580	0.823520	0.731180
Cd31	Cd3	0.321630	0.279150	0.688360
Cd41	Cd4	0.176480	0.172420	0.768820
Cd51	Cd5	0.279150	0.321630	0.188360
Cd61	Cd6	0.172420	0.176480	0.268820
Cd71	Cd7	0.678370	0.720850	0.311640
Cd81	Cd8	0.823520	0.827580	0.231180
H11	H1	0.966600	0.830200	0.893500
H21	H2	0.056900	0.751300	0.897000
H31	H3	0.065800	0.789600	0.997900
H41	H4	0.967100	0.854700	0.999600
H51	H5	0.015100	0.661900	0.040800
H61	H6	0.826200	0.687800	0.065400
H71	H7	0.799100	0.683100	0.993200
H81	H8	0.886100	0.613900	0.019600
H91	H9	0.835400	0.855000	0.938700
H101	H10	0.769100	0.813700	0.982900
H111	H11	0.823000	0.863400	0.016500
H121	H12	0.064600	0.631200	0.887100
H131	H13	0.031200	0.590400	0.955200
H141	H14	0.990100	0.585500	0.888300
H151	H15	0.974600	0.634800	0.621900
H161	H16	0.938600	0.597600	0.564800
H171	H17	0.072700	0.503500	0.545000
H181	H18	0.107500	0.536900	0.605300
H191	H19	0.032500	0.389700	0.614300
H201	H20	0.894100	0.412500	0.735800
H211	H21	0.987200	0.340200	0.723900
H221	H22	0.968400	0.399000	0.785300
H231	H23	0.849600	0.514400	0.584100
H241	H24	0.903400	0.425600	0.622700
H251	H25	0.811500	0.484100	0.654300
H261	H26	0.549300	0.754100	0.591700
H271	H27	0.662900	0.725700	0.659100
H281	H28	0.530700	0.652900	0.814300
H291	H29	0.403500	0.687500	0.751400
H301	H30	0.101700	0.807300	0.547400
H311	H31	0.955200	0.828600	0.584300
H321	H32	0.021000	0.767000	0.768900
H331	H33	0.172000	0.737000	0.733900
H341	H34	0.363400	0.807200	0.434300
H351	H35	0.474600	0.798400	0.350700
H361	H36	0.643700	0.607300	0.450900
H371	H37	0.538800	0.605800	0.536000
H381	H38	0.263200	0.747800	0.514800
H391	H39	0.169800	0.033400	0.606500
H401	H40	0.248700	0.943100	0.603000
H411	H41	0.210400	0.934200	0.502100
H421	H42	0.145300	0.032900	0.500400
H431	H43	0.338100	0.984900	0.459200
H441	H44	0.312200	0.173800	0.434600
H451	H45	0.316900	0.200900	0.506800
H461	H46	0.386100	0.113900	0.480400
H471	H47	0.145000	0.164600	0.561300
H481	H48	0.186300	0.230900	0.517100
H491	H49	0.136600	0.177000	0.483500
H501	H50	0.368800	0.935400	0.612900
H511	H51	0.409600	0.968800	0.544800
H521	H52	0.414500	0.009900	0.611700
H531	H53	0.365200	0.025400	0.878100
H541	H54	0.402400	0.061400	0.935200
H551	H55	0.496500	0.927300	0.955000
H561	H56	0.463100	0.892500	0.894700
H571	H57	0.610300	0.967500	0.885700
H581	H58	0.587500	0.105900	0.764200
H591	H59	0.659800	0.012800	0.776100
H601	H60	0.601000	0.031600	0.714700
H611	H61	0.485600	0.150400	0.915900
H621	H62	0.574400	0.096600	0.877300
H631	H63	0.515900	0.188500	0.845700
H641	H64	0.245900	0.450700	0.908300
H651	H65	0.274300	0.337100	0.840900
H661	H66	0.347100	0.469300	0.685700
H671	H67	0.312500	0.596500	0.748600
H681	H68	0.192700	0.898300	0.952600
H691	H69	0.171400	0.044800	0.915700
H701	H70	0.233000	0.979000	0.731100
H711	H71	0.263000	0.828000	0.766100
H721	H72	0.192800	0.636600	0.065700
H731	H73	0.201600	0.525400	0.149300
H741	H74	0.392700	0.356300	0.049100
H751	H75	0.394200	0.461200	0.964000
H761	H76	0.252200	0.736800	0.985200
H771	H77	0.033400	0.169800	0.106500
H781	H78	0.943100	0.248700	0.103000
H791	H79	0.934200	0.210400	0.002100
H801	H80	0.032900	0.145300	0.000400
H811	H81	0.984900	0.338100	0.959200
H821	H82	0.173800	0.312200	0.934600
H831	H83	0.200900	0.316900	0.006800
H841	H84	0.113900	0.386100	0.980400
H851	H85	0.164600	0.145000	0.061300
H861	H86	0.230900	0.186300	0.017100
H871	H87	0.177000	0.136600	0.983500
H881	H88	0.935400	0.368800	0.112900
H891	H89	0.968800	0.409600	0.044800
H901	H90	0.009900	0.414500	0.111700
H911	H91	0.025400	0.365200	0.378100
H921	H92	0.061400	0.402400	0.435200
H931	H93	0.927300	0.496500	0.455000
H941	H94	0.892500	0.463100	0.394700
H951	H95	0.967500	0.610300	0.385700
H961	H96	0.105900	0.587500	0.264200
H971	H97	0.012800	0.659800	0.276100
H981	H98	0.031600	0.601000	0.214700
H991	H99	0.150400	0.485600	0.415900
H1001	H100	0.096600	0.574400	0.377300
H1011	H101	0.188500	0.515900	0.345700
H1021	H102	0.450700	0.245900	0.408300
H1031	H103	0.337100	0.274300	0.340900
H1041	H104	0.469300	0.347100	0.185700
H1051	H105	0.596500	0.312500	0.248600
H1061	H106	0.898300	0.192700	0.452600
H1071	H107	0.044800	0.171400	0.415700
H1081	H108	0.979000	0.233000	0.231100
H1091	H109	0.828000	0.263000	0.266100
H1101	H110	0.636600	0.192800	0.565700
H1111	H111	0.525400	0.201600	0.649300
H1121	H112	0.356300	0.392700	0.549100
H1131	H113	0.461200	0.394200	0.464000
H1141	H114	0.736800	0.252200	0.485200
H1151	H115	0.830200	0.966600	0.393500
H1161	H116	0.751300	0.056900	0.397000
H1171	H117	0.789600	0.065800	0.497900
H1181	H118	0.854700	0.967100	0.499600
H1191	H119	0.661900	0.015100	0.540800
H1201	H120	0.687800	0.826200	0.565400
H1211	H121	0.683100	0.799100	0.493200
H1221	H122	0.613900	0.886100	0.519600
H1231	H123	0.855000	0.835400	0.438700
H1241	H124	0.813700	0.769100	0.482900
H1251	H125	0.863400	0.823000	0.516500
H1261	H126	0.631200	0.064600	0.387100
H1271	H127	0.590400	0.031200	0.455200
H1281	H128	0.585500	0.990100	0.388300
H1291	H129	0.634800	0.974600	0.121900
H1301	H130	0.597600	0.938600	0.064800
H1311	H131	0.503500	0.072700	0.045000
H1321	H132	0.536900	0.107500	0.105300
H1331	H133	0.389700	0.032500	0.114300
H1341	H134	0.412500	0.894100	0.235800
H1351	H135	0.340200	0.987200	0.223900
H1361	H136	0.399000	0.968400	0.285300
H1371	H137	0.514400	0.849600	0.084100
H1381	H138	0.425600	0.903400	0.122700
H1391	H139	0.484100	0.811500	0.154300
H1401	H140	0.754100	0.549300	0.091700
H1411	H141	0.725700	0.662900	0.159100
H1421	H142	0.652900	0.530700	0.314300
H1431	H143	0.687500	0.403500	0.251400
H1441	H144	0.807300	0.101700	0.047400
H1451	H145	0.828600	0.955200	0.084300
H1461	H146	0.767000	0.021000	0.268900
H1471	H147	0.737000	0.172000	0.233900
H1481	H148	0.807200	0.363400	0.934300
H1491	H149	0.798400	0.474600	0.850700
H1501	H150	0.607300	0.643700	0.950900
H1511	H151	0.605800	0.538800	0.036000
H1521	H152	0.747800	0.263200	0.014800
C11	C1	0.901350	0.736550	0.991700
C21	C2	0.945130	0.706930	0.923530
C31	C3	0.997960	0.775760	0.919000
C41	C4	0.004850	0.794850	0.990600
C51	C5	0.972170	0.721970	0.038480
C61	C6	0.848270	0.674670	0.020100
C71	C7	0.825000	0.825600	0.981500
C81	C8	0.949680	0.765880	0.103500
C91	C9	0.882050	0.719050	0.870300
C101	C10	0.013710	0.621110	0.912600
C111	C11	0.991230	0.467630	0.696100
C121	C12	0.912160	0.536560	0.661950
C131	C13	0.969170	0.581170	0.605950
C141	C14	0.061360	0.515160	0.592200
C151	C15	0.056710	0.426310	0.638600
C161	C16	0.957040	0.398440	0.739300
C171	C17	0.033810	0.510610	0.745400
C181	C18	0.849650	0.602450	0.703300
C191	C19	0.149770	0.373370	0.659500
C201	C20	0.864830	0.485430	0.627600
C211	C21	0.386280	0.722480	0.627010
C221	C22	0.376000	0.725000	0.558300
C231	C23	0.248600	0.748400	0.617300
C241	C24	0.461680	0.715280	0.663800
C251	C25	0.542820	0.733620	0.636400
C261	C26	0.608920	0.719920	0.678300
C271	C27	0.532080	0.677680	0.770300
C281	C28	0.456710	0.693110	0.730500
C291	C29	0.152310	0.765910	0.636250
C301	C30	0.086770	0.796370	0.592730
C311	C31	0.998610	0.811010	0.615200
C321	C32	0.036880	0.774080	0.723310
C331	C33	0.129010	0.755610	0.702720
C341	C34	0.440330	0.713730	0.500120
C351	C35	0.420170	0.767170	0.439550
C361	C36	0.486030	0.758830	0.388700
C371	C37	0.586010	0.645810	0.447100
C381	C38	0.524970	0.647970	0.499800
C391	C39	0.263450	0.098650	0.508300
C401	C40	0.293070	0.054870	0.576470
C411	C41	0.224240	0.002040	0.581000
C421	C42	0.205150	0.995150	0.509400
C431	C43	0.278030	0.027830	0.461520
C441	C44	0.325330	0.151730	0.479900
C451	C45	0.174400	0.175000	0.518500
C461	C46	0.234120	0.050320	0.396500
C471	C47	0.280950	0.117950	0.629700
C481	C48	0.378890	0.986290	0.587400
C491	C49	0.532370	0.008770	0.803900
C501	C50	0.463440	0.087840	0.838050
C511	C51	0.418830	0.030830	0.894050
C521	C52	0.484840	0.938640	0.907800
C531	C53	0.573690	0.943290	0.861400
C541	C54	0.601560	0.042960	0.760700
C551	C55	0.489390	0.966190	0.754600
C561	C56	0.397550	0.150350	0.796700
C571	C57	0.626630	0.850230	0.840500
C581	C58	0.514570	0.135170	0.872400
C591	C59	0.277520	0.613720	0.872990
C601	C60	0.275000	0.624000	0.941700
C611	C61	0.251600	0.751400	0.882700
C621	C62	0.284720	0.538320	0.836200
C631	C63	0.266380	0.457180	0.863600
C641	C64	0.280080	0.391080	0.821700
C651	C65	0.322320	0.467920	0.729700
C661	C66	0.306890	0.543290	0.769500
C671	C67	0.234090	0.847690	0.863750
C681	C68	0.203630	0.913230	0.907270
C691	C69	0.188990	0.001390	0.884800
C701	C70	0.225920	0.963120	0.776690
C711	C71	0.244390	0.870990	0.797280
C721	C72	0.286270	0.559670	0.999880
C731	C73	0.232830	0.579830	0.060450
C741	C74	0.241170	0.513970	0.111300
C751	C75	0.354190	0.413990	0.052900
C761	C76	0.352030	0.475030	0.000200
C771	C77	0.098650	0.263450	0.008300
C781	C78	0.054870	0.293070	0.076470
C791	C79	0.002040	0.224240	0.081000
C801	C80	0.995150	0.205150	0.009400
C811	C81	0.027830	0.278030	0.961520
C821	C82	0.151730	0.325330	0.979900
C831	C83	0.175000	0.174400	0.018500
C841	C84	0.050320	0.234120	0.896500
C851	C85	0.117950	0.280950	0.129700
C861	C86	0.986290	0.378890	0.087400
C871	C87	0.008770	0.532370	0.303900
C881	C88	0.087840	0.463440	0.338050
C891	C89	0.030830	0.418830	0.394050
C901	C90	0.938640	0.484840	0.407800
C911	C91	0.943290	0.573690	0.361400
C921	C92	0.042960	0.601560	0.260700
C931	C93	0.966190	0.489390	0.254600
C941	C94	0.150350	0.397550	0.296700
C951	C95	0.850230	0.626630	0.340500
C961	C96	0.135170	0.514570	0.372400
C971	C97	0.613720	0.277520	0.372990
C981	C98	0.624000	0.275000	0.441700
C991	C99	0.751400	0.251600	0.382700
C1001	C100	0.538320	0.284720	0.336200
C1011	C101	0.457180	0.266380	0.363600
C1021	C102	0.391080	0.280080	0.321700
C1031	C103	0.467920	0.322320	0.229700
C1041	C104	0.543290	0.306890	0.269500
C1051	C105	0.847690	0.234090	0.363750
C1061	C106	0.913230	0.203630	0.407270
C1071	C107	0.001390	0.188990	0.384800
C1081	C108	0.963120	0.225920	0.276690
C1091	C109	0.870990	0.244390	0.297280
C1101	C110	0.559670	0.286270	0.499880
C1111	C111	0.579830	0.232830	0.560450
C1121	C112	0.513970	0.241170	0.611300
C1131	C113	0.413990	0.354190	0.552900
C1141	C114	0.475030	0.352030	0.500200
C1151	C115	0.736550	0.901350	0.491700
C1161	C116	0.706930	0.945130	0.423530
C1171	C117	0.775760	0.997960	0.419000
C1181	C118	0.794850	0.004850	0.490600
C1191	C119	0.721970	0.972170	0.538480
C1201	C120	0.674670	0.848270	0.520100
C1211	C121	0.825600	0.825000	0.481500
C1221	C122	0.765880	0.949680	0.603500
C1231	C123	0.719050	0.882050	0.370300
C1241	C124	0.621110	0.013710	0.412600
C1251	C125	0.467630	0.991230	0.196100
C1261	C126	0.536560	0.912160	0.161950
C1271	C127	0.581170	0.969170	0.105950
C1281	C128	0.515160	0.061360	0.092200
C1291	C129	0.426310	0.056710	0.138600
C1301	C130	0.398440	0.957040	0.239300
C1311	C131	0.510610	0.033810	0.245400
C1321	C132	0.602450	0.849650	0.203300
C1331	C133	0.373370	0.149770	0.159500
C1341	C134	0.485430	0.864830	0.127600
C1351	C135	0.722480	0.386280	0.127010
C1361	C136	0.725000	0.376000	0.058300
C1371	C137	0.748400	0.248600	0.117300
C1381	C138	0.715280	0.461680	0.163800
C1391	C139	0.733620	0.542820	0.136400
C1401	C140	0.719920	0.608920	0.178300
C1411	C141	0.677680	0.532080	0.270300
C1421	C142	0.693110	0.456710	0.230500
C1431	C143	0.765910	0.152310	0.136250
C1441	C144	0.796370	0.086770	0.092730
C1451	C145	0.811010	0.998610	0.115200
C1461	C146	0.774080	0.036880	0.223310
C1471	C147	0.755610	0.129010	0.202720
C1481	C148	0.713730	0.440330	0.000120
C1491	C149	0.767170	0.420170	0.939550
C1501	C150	0.758830	0.486030	0.888700
C1511	C151	0.645810	0.586010	0.947100
C1521	C152	0.647970	0.524970	0.999800
N11	N1	0.306840	0.739320	0.660820
N21	N2	0.288910	0.742010	0.551520
N31	N3	0.603760	0.699200	0.743330
N41	N4	0.973580	0.800240	0.682250
N51	N5	0.567080	0.695820	0.390820
N61	N6	0.260680	0.693160	0.839180
N71	N7	0.257990	0.711090	0.948480
N81	N8	0.300800	0.396240	0.756670
N91	N9	0.199760	0.026420	0.817750
N101	N10	0.304180	0.432920	0.109180
N111	N11	0.693160	0.260680	0.339180
N121	N12	0.711090	0.257990	0.448480
N131	N13	0.396240	0.300800	0.256670
N141	N14	0.026420	0.199760	0.317750
N151	N15	0.432920	0.304180	0.609180
N161	N16	0.739320	0.306840	0.160820
N171	N17	0.742010	0.288910	0.051520
N181	N18	0.699200	0.603760	0.243330
N191	N19	0.800240	0.973580	0.182250
N201	N20	0.695820	0.567080	0.890820
O11	O1	0.883760	0.782800	0.830800
O21	O2	0.834590	0.666930	0.868810
O31	O3	0.006320	0.798060	0.125170
O41	O4	0.880750	0.760530	0.137010
O51	O5	0.838850	0.680810	0.701410
O61	O6	0.802060	0.567220	0.746600
O71	O7	0.158550	0.314310	0.707390
O81	O8	0.213340	0.385200	0.625370
O91	O9	0.217200	0.116240	0.669200
O101	O10	0.333070	0.165410	0.631190
O111	O11	0.201940	0.993680	0.374830
O121	O12	0.239470	0.119250	0.362990
O131	O13	0.319190	0.161150	0.798590
O141	O14	0.432780	0.197940	0.753400
O151	O15	0.685690	0.841450	0.792610
O161	O16	0.614800	0.786660	0.874630
O171	O17	0.116240	0.217200	0.169200
O181	O18	0.165410	0.333070	0.131190
O191	O19	0.993680	0.201940	0.874830
O201	O20	0.119250	0.239470	0.862990
O211	O21	0.161150	0.319190	0.298590
O221	O22	0.197940	0.432780	0.253400
O231	O23	0.841450	0.685690	0.292610
O241	O24	0.786660	0.614800	0.374630
O251	O25	0.782800	0.883760	0.330800
O261	O26	0.666930	0.834590	0.368810
O271	O27	0.798060	0.006320	0.625170
O281	O28	0.760530	0.880750	0.637010
O291	O29	0.680810	0.838850	0.201410
O301	O30	0.567220	0.802060	0.246600
O311	O31	0.314310	0.158550	0.207390
O321	O32	0.385200	0.213340	0.125370
