data_COXCUP_freeONLY_PM
_symmetry_space_group_name_H-M	'P1'
_cell_length_a	26.209200
_cell_length_b	11.627800
_cell_length_c	16.116700
_cell_angle_alpha	90.000000
_cell_angle_beta	122.490000
_cell_angle_gamma	90.000000
_symmetry_Int_Tables_number 1

loop_
_symmetry_equiv_pos_as_xyz
'x,y,z'

loop_
_atom_site_label
_atom_site_type_symbol
_atom_site_fract_x
_atom_site_fract_y
_atom_site_fract_z
Cu11	Cu1	0.242290	0.117370	0.449980
Cu21	Cu2	0.312270	0.232230	0.327700
Cu31	Cu3	0.567940	0.353880	0.508110
N11	N1	0.424100	0.177400	0.633900
N21	N2	0.326900	0.146300	0.524300
N31	N3	0.351570	0.199600	0.477000
N41	N4	0.389300	0.258100	0.341800
N51	N5	0.485670	0.307600	0.413400
N61	N6	0.461310	0.301900	0.313200
N71	N7	0.574870	0.482300	0.353700
N81	N8	0.602660	0.462500	0.453000
N91	N9	0.667420	0.557500	0.428700
N101	N10	0.629770	0.689500	0.144700
N111	N11	0.726650	0.719800	0.259700
N121	N12	0.701670	0.655700	0.301400
C11	C1	0.366000	0.077400	0.695500
H11	H1	0.323400	0.060600	0.669900
H21	H2	0.381900	0.128900	0.752200
H31	H3	0.389200	0.005500	0.715700
C21	C2	0.371200	0.133300	0.617800
C31	C3	0.409100	0.217500	0.544600
C41	C4	0.453400	0.278900	0.529300
H41	H4	0.493600	0.243700	0.573600
H51	H5	0.455900	0.359500	0.550800
C51	C5	0.441800	0.280800	0.427700
C61	C6	0.404000	0.272500	0.273300
C71	C7	0.360700	0.254100	0.165500
H61	H6	0.383300	0.242000	0.133700
H71	H7	0.334700	0.321900	0.137000
H81	H8	0.335700	0.186400	0.155300
C81	C8	0.703200	0.513200	0.603200
H91	H9	0.682600	0.508600	0.638800
H101	H10	0.725900	0.585500	0.619600
H111	H11	0.731200	0.448300	0.622000
C91	C9	0.657700	0.509000	0.495400
C101	C10	0.614400	0.538600	0.341600
C111	C11	0.598900	0.573400	0.241100
H121	H12	0.561500	0.620200	0.210900
H131	H13	0.589000	0.502600	0.201200
C121	C12	0.644700	0.639400	0.231700
C131	C13	0.682900	0.739500	0.166800
C141	C14	0.690400	0.808600	0.096800
H141	H14	0.727200	0.855100	0.133300
H151	H15	0.655300	0.859200	0.059200
H161	H16	0.693500	0.757100	0.051700
Cu41	Cu4	0.742290	0.617370	0.449980
Cu51	Cu5	0.812270	0.732230	0.327700
Cu61	Cu6	0.067940	0.853880	0.508110
N131	N13	0.924100	0.677400	0.633900
N141	N14	0.826900	0.646300	0.524300
N151	N15	0.851570	0.699600	0.477000
N161	N16	0.889300	0.758100	0.341800
N171	N17	0.985670	0.807600	0.413400
N181	N18	0.961310	0.801900	0.313200
N191	N19	0.074870	0.982300	0.353700
N201	N20	0.102660	0.962500	0.453000
N211	N21	0.167420	0.057500	0.428700
N221	N22	0.129770	0.189500	0.144700
N231	N23	0.226650	0.219800	0.259700
N241	N24	0.201670	0.155700	0.301400
C151	C15	0.866000	0.577400	0.695500
H171	H17	0.823400	0.560600	0.669900
H181	H18	0.881900	0.628900	0.752200
H191	H19	0.889200	0.505500	0.715700
C161	C16	0.871200	0.633300	0.617800
C171	C17	0.909100	0.717500	0.544600
C181	C18	0.953400	0.778900	0.529300
H201	H20	0.993600	0.743700	0.573600
H211	H21	0.955900	0.859500	0.550800
C191	C19	0.941800	0.780800	0.427700
C201	C20	0.904000	0.772500	0.273300
C211	C21	0.860700	0.754100	0.165500
H221	H22	0.883300	0.742000	0.133700
H231	H23	0.834700	0.821900	0.137000
H241	H24	0.835700	0.686400	0.155300
C221	C22	0.203200	0.013200	0.603200
H251	H25	0.182600	0.008600	0.638800
H261	H26	0.225900	0.085500	0.619600
H271	H27	0.231200	0.948300	0.622000
C231	C23	0.157700	0.009000	0.495400
C241	C24	0.114400	0.038600	0.341600
C251	C25	0.098900	0.073400	0.241100
H281	H28	0.061500	0.120200	0.210900
H291	H29	0.089000	0.002600	0.201200
C261	C26	0.144700	0.139400	0.231700
C271	C27	0.182900	0.239500	0.166800
C281	C28	0.190400	0.308600	0.096800
H301	H30	0.227200	0.355100	0.133300
H311	H31	0.155300	0.359200	0.059200
H321	H32	0.193500	0.257100	0.051700
Cu71	Cu7	0.757710	0.117370	0.050020
Cu81	Cu8	0.687730	0.232230	0.172300
Cu91	Cu9	0.432060	0.353880	0.991890
N251	N25	0.575900	0.177400	0.866100
N261	N26	0.673100	0.146300	0.975700
N271	N27	0.648430	0.199600	0.023000
N281	N28	0.610700	0.258100	0.158200
N291	N29	0.514330	0.307600	0.086600
N301	N30	0.538690	0.301900	0.186800
N311	N31	0.425130	0.482300	0.146300
N321	N32	0.397340	0.462500	0.047000
N331	N33	0.332580	0.557500	0.071300
N341	N34	0.370230	0.689500	0.355300
N351	N35	0.273350	0.719800	0.240300
N361	N36	0.298330	0.655700	0.198600
C291	C29	0.634000	0.077400	0.804500
H331	H33	0.676600	0.060600	0.830100
H341	H34	0.618100	0.128900	0.747800
H351	H35	0.610800	0.005500	0.784300
C301	C30	0.628800	0.133300	0.882200
C311	C31	0.590900	0.217500	0.955400
C321	C32	0.546600	0.278900	0.970700
H361	H36	0.506400	0.243700	0.926400
H371	H37	0.544100	0.359500	0.949200
C331	C33	0.558200	0.280800	0.072300
C341	C34	0.596000	0.272500	0.226700
C351	C35	0.639300	0.254100	0.334500
H381	H38	0.616700	0.242000	0.366300
H391	H39	0.665300	0.321900	0.363000
H401	H40	0.664300	0.186400	0.344700
C361	C36	0.296800	0.513200	0.896800
H411	H41	0.317400	0.508600	0.861200
H421	H42	0.274100	0.585500	0.880400
H431	H43	0.268800	0.448300	0.878000
C371	C37	0.342300	0.509000	0.004600
C381	C38	0.385600	0.538600	0.158400
C391	C39	0.401100	0.573400	0.258900
H441	H44	0.438500	0.620200	0.289100
H451	H45	0.411000	0.502600	0.298800
C401	C40	0.355300	0.639400	0.268300
C411	C41	0.317100	0.739500	0.333200
C421	C42	0.309600	0.808600	0.403200
H461	H46	0.272800	0.855100	0.366700
H471	H47	0.344700	0.859200	0.440800
H481	H48	0.306500	0.757100	0.448300
Cu101	Cu10	0.257710	0.617370	0.050020
Cu111	Cu11	0.187730	0.732230	0.172300
Cu121	Cu12	0.932060	0.853880	0.991890
N371	N37	0.075900	0.677400	0.866100
N381	N38	0.173100	0.646300	0.975700
N391	N39	0.148430	0.699600	0.023000
N401	N40	0.110700	0.758100	0.158200
N411	N41	0.014330	0.807600	0.086600
N421	N42	0.038690	0.801900	0.186800
N431	N43	0.925130	0.982300	0.146300
N441	N44	0.897340	0.962500	0.047000
N451	N45	0.832580	0.057500	0.071300
N461	N46	0.870230	0.189500	0.355300
N471	N47	0.773350	0.219800	0.240300
N481	N48	0.798330	0.155700	0.198600
C431	C43	0.134000	0.577400	0.804500
H491	H49	0.176600	0.560600	0.830100
H501	H50	0.118100	0.628900	0.747800
H511	H51	0.110800	0.505500	0.784300
C441	C44	0.128800	0.633300	0.882200
C451	C45	0.090900	0.717500	0.955400
C461	C46	0.046600	0.778900	0.970700
H521	H52	0.006400	0.743700	0.926400
H531	H53	0.044100	0.859500	0.949200
C471	C47	0.058200	0.780800	0.072300
C481	C48	0.096000	0.772500	0.226700
C491	C49	0.139300	0.754100	0.334500
H541	H54	0.116700	0.742000	0.366300
H551	H55	0.165300	0.821900	0.363000
H561	H56	0.164300	0.686400	0.344700
C501	C50	0.796800	0.013200	0.896800
H571	H57	0.817400	0.008600	0.861200
H581	H58	0.774100	0.085500	0.880400
H591	H59	0.768800	0.948300	0.878000
C511	C51	0.842300	0.009000	0.004600
C521	C52	0.885600	0.038600	0.158400
C531	C53	0.901100	0.073400	0.258900
H601	H60	0.938500	0.120200	0.289100
H611	H61	0.911000	0.002600	0.298800
C541	C54	0.855300	0.139400	0.268300
C551	C55	0.817100	0.239500	0.333200
C561	C56	0.809600	0.308600	0.403200
H621	H62	0.772800	0.355100	0.366700
H631	H63	0.844700	0.359200	0.440800
H641	H64	0.806500	0.257100	0.448300
Cu131	Cu13	0.757710	0.882630	0.550020
Cu141	Cu14	0.687730	0.767770	0.672300
Cu151	Cu15	0.432060	0.646120	0.491890
N491	N49	0.575900	0.822600	0.366100
N501	N50	0.673100	0.853700	0.475700
N511	N51	0.648430	0.800400	0.523000
N521	N52	0.610700	0.741900	0.658200
N531	N53	0.514330	0.692400	0.586600
N541	N54	0.538690	0.698100	0.686800
N551	N55	0.425130	0.517700	0.646300
N561	N56	0.397340	0.537500	0.547000
N571	N57	0.332580	0.442500	0.571300
N581	N58	0.370230	0.310500	0.855300
N591	N59	0.273350	0.280200	0.740300
N601	N60	0.298330	0.344300	0.698600
C571	C57	0.634000	0.922600	0.304500
H651	H65	0.676600	0.939400	0.330100
H661	H66	0.618100	0.871100	0.247800
H671	H67	0.610800	0.994500	0.284300
C581	C58	0.628800	0.866700	0.382200
C591	C59	0.590900	0.782500	0.455400
C601	C60	0.546600	0.721100	0.470700
H681	H68	0.506400	0.756300	0.426400
H691	H69	0.544100	0.640500	0.449200
C611	C61	0.558200	0.719200	0.572300
C621	C62	0.596000	0.727500	0.726700
C631	C63	0.639300	0.745900	0.834500
H701	H70	0.616700	0.758000	0.866300
H711	H71	0.665300	0.678100	0.863000
H721	H72	0.664300	0.813600	0.844700
C641	C64	0.296800	0.486800	0.396800
H731	H73	0.317400	0.491400	0.361200
H741	H74	0.274100	0.414500	0.380400
H751	H75	0.268800	0.551700	0.378000
C651	C65	0.342300	0.491000	0.504600
C661	C66	0.385600	0.461400	0.658400
C671	C67	0.401100	0.426600	0.758900
H761	H76	0.438500	0.379800	0.789100
H771	H77	0.411000	0.497400	0.798800
C681	C68	0.355300	0.360600	0.768300
C691	C69	0.317100	0.260500	0.833200
C701	C70	0.309600	0.191400	0.903200
H781	H78	0.272800	0.144900	0.866700
H791	H79	0.344700	0.140800	0.940800
H801	H80	0.306500	0.242900	0.948300
Cu161	Cu16	0.257710	0.382630	0.550020
Cu171	Cu17	0.187730	0.267770	0.672300
Cu181	Cu18	0.932060	0.146120	0.491890
N611	N61	0.075900	0.322600	0.366100
N621	N62	0.173100	0.353700	0.475700
N631	N63	0.148430	0.300400	0.523000
N641	N64	0.110700	0.241900	0.658200
N651	N65	0.014330	0.192400	0.586600
N661	N66	0.038690	0.198100	0.686800
N671	N67	0.925130	0.017700	0.646300
N681	N68	0.897340	0.037500	0.547000
N691	N69	0.832580	0.942500	0.571300
N701	N70	0.870230	0.810500	0.855300
N711	N71	0.773350	0.780200	0.740300
N721	N72	0.798330	0.844300	0.698600
C711	C71	0.134000	0.422600	0.304500
H811	H81	0.176600	0.439400	0.330100
H821	H82	0.118100	0.371100	0.247800
H831	H83	0.110800	0.494500	0.284300
C721	C72	0.128800	0.366700	0.382200
C731	C73	0.090900	0.282500	0.455400
C741	C74	0.046600	0.221100	0.470700
H841	H84	0.006400	0.256300	0.426400
H851	H85	0.044100	0.140500	0.449200
C751	C75	0.058200	0.219200	0.572300
C761	C76	0.096000	0.227500	0.726700
C771	C77	0.139300	0.245900	0.834500
H861	H86	0.116700	0.258000	0.866300
H871	H87	0.165300	0.178100	0.863000
H881	H88	0.164300	0.313600	0.844700
C781	C78	0.796800	0.986800	0.396800
H891	H89	0.817400	0.991400	0.361200
H901	H90	0.774100	0.914500	0.380400
H911	H91	0.768800	0.051700	0.378000
C791	C79	0.842300	0.991000	0.504600
C801	C80	0.885600	0.961400	0.658400
C811	C81	0.901100	0.926600	0.758900
H921	H92	0.938500	0.879800	0.789100
H931	H93	0.911000	0.997400	0.798800
C821	C82	0.855300	0.860600	0.768300
C831	C83	0.817100	0.760500	0.833200
C841	C84	0.809600	0.691400	0.903200
H941	H94	0.772800	0.644900	0.866700
H951	H95	0.844700	0.640800	0.940800
H961	H96	0.806500	0.742900	0.948300
Cu191	Cu19	0.242290	0.882630	0.949980
Cu201	Cu20	0.312270	0.767770	0.827700
Cu211	Cu21	0.567940	0.646120	0.008110
N731	N73	0.424100	0.822600	0.133900
N741	N74	0.326900	0.853700	0.024300
N751	N75	0.351570	0.800400	0.977000
N761	N76	0.389300	0.741900	0.841800
N771	N77	0.485670	0.692400	0.913400
N781	N78	0.461310	0.698100	0.813200
N791	N79	0.574870	0.517700	0.853700
N801	N80	0.602660	0.537500	0.953000
N811	N81	0.667420	0.442500	0.928700
N821	N82	0.629770	0.310500	0.644700
N831	N83	0.726650	0.280200	0.759700
N841	N84	0.701670	0.344300	0.801400
C851	C85	0.366000	0.922600	0.195500
H971	H97	0.323400	0.939400	0.169900
H981	H98	0.381900	0.871100	0.252200
H991	H99	0.389200	0.994500	0.215700
C861	C86	0.371200	0.866700	0.117800
C871	C87	0.409100	0.782500	0.044600
C881	C88	0.453400	0.721100	0.029300
H1001	H100	0.493600	0.756300	0.073600
H1011	H101	0.455900	0.640500	0.050800
C891	C89	0.441800	0.719200	0.927700
C901	C90	0.404000	0.727500	0.773300
C911	C91	0.360700	0.745900	0.665500
H1021	H102	0.383300	0.758000	0.633700
H1031	H103	0.334700	0.678100	0.637000
H1041	H104	0.335700	0.813600	0.655300
C921	C92	0.703200	0.486800	0.103200
H1051	H105	0.682600	0.491400	0.138800
H1061	H106	0.725900	0.414500	0.119600
H1071	H107	0.731200	0.551700	0.122000
C931	C93	0.657700	0.491000	0.995400
C941	C94	0.614400	0.461400	0.841600
C951	C95	0.598900	0.426600	0.741100
H1081	H108	0.561500	0.379800	0.710900
H1091	H109	0.589000	0.497400	0.701200
C961	C96	0.644700	0.360600	0.731700
C971	C97	0.682900	0.260500	0.666800
C981	C98	0.690400	0.191400	0.596800
H1101	H110	0.727200	0.144900	0.633300
H1111	H111	0.655300	0.140800	0.559200
H1121	H112	0.693500	0.242900	0.551700
Cu221	Cu22	0.742290	0.382630	0.949980
Cu231	Cu23	0.812270	0.267770	0.827700
Cu241	Cu24	0.067940	0.146120	0.008110
N851	N85	0.924100	0.322600	0.133900
N861	N86	0.826900	0.353700	0.024300
N871	N87	0.851570	0.300400	0.977000
N881	N88	0.889300	0.241900	0.841800
N891	N89	0.985670	0.192400	0.913400
N901	N90	0.961310	0.198100	0.813200
N911	N91	0.074870	0.017700	0.853700
N921	N92	0.102660	0.037500	0.953000
N931	N93	0.167420	0.942500	0.928700
N941	N94	0.129770	0.810500	0.644700
N951	N95	0.226650	0.780200	0.759700
N961	N96	0.201670	0.844300	0.801400
C991	C99	0.866000	0.422600	0.195500
H1131	H113	0.823400	0.439400	0.169900
H1141	H114	0.881900	0.371100	0.252200
H1151	H115	0.889200	0.494500	0.215700
C1001	C100	0.871200	0.366700	0.117800
C1011	C101	0.909100	0.282500	0.044600
C1021	C102	0.953400	0.221100	0.029300
H1161	H116	0.993600	0.256300	0.073600
H1171	H117	0.955900	0.140500	0.050800
C1031	C103	0.941800	0.219200	0.927700
C1041	C104	0.904000	0.227500	0.773300
C1051	C105	0.860700	0.245900	0.665500
H1181	H118	0.883300	0.258000	0.633700
H1191	H119	0.834700	0.178100	0.637000
H1201	H120	0.835700	0.313600	0.655300
C1061	C106	0.203200	0.986800	0.103200
H1211	H121	0.182600	0.991400	0.138800
H1221	H122	0.225900	0.914500	0.119600
H1231	H123	0.231200	0.051700	0.122000
C1071	C107	0.157700	0.991000	0.995400
C1081	C108	0.114400	0.961400	0.841600
C1091	C109	0.098900	0.926600	0.741100
H1241	H124	0.061500	0.879800	0.710900
H1251	H125	0.089000	0.997400	0.701200
C1101	C110	0.144700	0.860600	0.731700
C1111	C111	0.182900	0.760500	0.666800
C1121	C112	0.190400	0.691400	0.596800
H1261	H126	0.227200	0.644900	0.633300
H1271	H127	0.155300	0.640800	0.559200
H1281	H128	0.193500	0.742900	0.551700
Cu251	Cu25	0.500000	0.177480	0.750000
Cu261	Cu26	0.000000	0.677480	0.750000
Cu271	Cu27	0.500000	0.822520	0.250000
Cu281	Cu28	0.000000	0.322520	0.250000
Cu291	Cu29	0.500000	0.391240	0.250000
Cu301	Cu30	0.000000	0.891240	0.250000
Cu311	Cu31	0.500000	0.608760	0.750000
Cu321	Cu32	0.000000	0.108760	0.750000
