data_COXHIH_freeONLY_PM
_symmetry_space_group_name_H-M	'P1'
_cell_length_a	15.310500
_cell_length_b	15.310500
_cell_length_c	15.310500
_cell_angle_alpha	90.000000
_cell_angle_beta	90.000000
_cell_angle_gamma	90.000000
_symmetry_Int_Tables_number 1

loop_
_symmetry_equiv_pos_as_xyz
'x,y,z'

loop_
_atom_site_label
_atom_site_type_symbol
_atom_site_fract_x
_atom_site_fract_y
_atom_site_fract_z
O11	O1	0.874160	0.886920	0.739640
O21	O2	0.374160	0.386920	0.239640
O31	O3	0.625840	0.113080	0.239640
O41	O4	0.125840	0.613080	0.739640
O51	O5	0.125840	0.386920	0.760360
O61	O6	0.625840	0.886920	0.260360
O71	O7	0.374160	0.613080	0.260360
O81	O8	0.874160	0.113080	0.760360
O91	O9	0.739640	0.874160	0.886920
O101	O10	0.239640	0.374160	0.386920
O111	O11	0.239640	0.625840	0.113080
O121	O12	0.739640	0.125840	0.613080
O131	O13	0.760360	0.125840	0.386920
O141	O14	0.260360	0.625840	0.886920
O151	O15	0.260360	0.374160	0.613080
O161	O16	0.760360	0.874160	0.113080
O171	O17	0.886920	0.739640	0.874160
O181	O18	0.386920	0.239640	0.374160
O191	O19	0.113080	0.239640	0.625840
O201	O20	0.613080	0.739640	0.125840
O211	O21	0.386920	0.760360	0.125840
O221	O22	0.886920	0.260360	0.625840
O231	O23	0.613080	0.260360	0.374160
O241	O24	0.113080	0.760360	0.874160
O251	O25	0.636920	0.124160	0.510360
O261	O26	0.136920	0.624160	0.010360
O271	O27	0.863080	0.875840	0.010360
O281	O28	0.363080	0.375840	0.510360
O291	O29	0.136920	0.375840	0.489640
O301	O30	0.636920	0.875840	0.989640
O311	O31	0.363080	0.624160	0.989640
O321	O32	0.863080	0.124160	0.489640
O331	O33	0.624160	0.989640	0.363080
O341	O34	0.124160	0.489640	0.863080
O351	O35	0.375840	0.489640	0.136920
O361	O36	0.875840	0.989640	0.636920
O371	O37	0.875840	0.010360	0.863080
O381	O38	0.375840	0.510360	0.363080
O391	O39	0.124160	0.510360	0.636920
O401	O40	0.624160	0.010360	0.136920
O411	O41	0.489640	0.136920	0.375840
O421	O42	0.989640	0.636920	0.875840
O431	O43	0.989640	0.363080	0.624160
O441	O44	0.489640	0.863080	0.124160
O451	O45	0.510360	0.636920	0.124160
O461	O46	0.010360	0.136920	0.624160
O471	O47	0.010360	0.863080	0.875840
O481	O48	0.510360	0.363080	0.375840
Ni11	Ni1	0.875000	0.875000	0.875000
Ni21	Ni2	0.375000	0.375000	0.375000
Ni31	Ni3	0.625000	0.125000	0.375000
Ni41	Ni4	0.125000	0.625000	0.875000
Ni51	Ni5	0.125000	0.375000	0.625000
Ni61	Ni6	0.625000	0.875000	0.125000
Ni71	Ni7	0.375000	0.625000	0.125000
Ni81	Ni8	0.875000	0.125000	0.625000
C11	C1	0.875000	0.964230	0.714230
C21	C2	0.625000	0.035770	0.214230
C31	C3	0.125000	0.464230	0.785770
C41	C4	0.375000	0.535770	0.285770
C51	C5	0.714230	0.875000	0.964230
C61	C6	0.214230	0.625000	0.035770
C71	C7	0.785770	0.125000	0.464230
C81	C8	0.285770	0.375000	0.535770
C91	C9	0.964230	0.714230	0.875000
C101	C10	0.035770	0.214230	0.625000
C111	C11	0.464230	0.785770	0.125000
C121	C12	0.535770	0.285770	0.375000
C131	C13	0.714230	0.125000	0.535770
C141	C14	0.785770	0.875000	0.035770
C151	C15	0.214230	0.375000	0.464230
C161	C16	0.285770	0.625000	0.964230
C171	C17	0.625000	0.964230	0.285770
C181	C18	0.375000	0.464230	0.214230
C191	C19	0.875000	0.035770	0.785770
C201	C20	0.125000	0.535770	0.714230
C211	C21	0.464230	0.214230	0.375000
C221	C22	0.964230	0.285770	0.625000
C231	C23	0.535770	0.714230	0.125000
C241	C24	0.035770	0.785770	0.875000
