data_COXQUB_freeONLY_PM
_symmetry_space_group_name_H-M	'P1'
_cell_length_a	9.755390
_cell_length_b	13.243000
_cell_length_c	13.595600
_cell_angle_alpha	118.303000
_cell_angle_beta	90.000000
_cell_angle_gamma	111.612000
_symmetry_Int_Tables_number 1

loop_
_symmetry_equiv_pos_as_xyz
'x,y,z'

loop_
_atom_site_label
_atom_site_type_symbol
_atom_site_fract_x
_atom_site_fract_y
_atom_site_fract_z
Cd11	Cd1	0.323180	0.512960	0.856450
Cd21	Cd2	0.818970	0.491820	0.602720
Cd31	Cd3	0.810220	0.487040	0.143550
Cd41	Cd4	0.327150	0.508180	0.397280
H11	H1	0.404000	0.806000	0.002900
H21	H2	0.596600	0.002200	0.111700
H31	H3	0.890700	0.841200	0.059200
H41	H4	0.682600	0.644000	0.957200
H51	H5	0.770000	0.177200	0.205300
H61	H6	0.970800	0.373600	0.297500
H71	H7	0.259600	0.220000	0.239200
H81	H8	0.066200	0.018200	0.136800
H91	H9	0.953400	0.374000	0.785000
H101	H10	0.755700	0.177600	0.695100
H111	H11	0.058900	0.022200	0.635800
H121	H12	0.247800	0.224000	0.721500
H131	H13	0.690100	0.648400	0.459900
H141	H14	0.889700	0.848600	0.548200
H151	H15	0.583100	0.996800	0.640300
H161	H16	0.392700	0.792800	0.549900
H171	H17	0.269600	0.491800	0.058100
H181	H18	0.393800	0.433600	0.009100
H191	H19	0.122800	0.618400	0.996200
H201	H20	0.097700	0.620600	0.877700
H211	H21	0.980300	0.546000	0.439700
H221	H22	0.967700	0.677000	0.533400
H231	H23	0.598000	0.194000	0.997100
H241	H24	0.594400	0.997800	0.888300
H251	H25	0.049500	0.158800	0.940800
H261	H26	0.038600	0.356000	0.042800
H271	H27	0.592800	0.822800	0.794700
H281	H28	0.597200	0.626400	0.702500
H291	H29	0.039600	0.780000	0.760800
H301	H30	0.048000	0.981800	0.863200
H311	H31	0.579400	0.626000	0.215000
H321	H32	0.578100	0.822400	0.304900
H331	H33	0.036700	0.977800	0.364200
H341	H34	0.023800	0.776000	0.278500
H351	H35	0.041700	0.351600	0.540100
H361	H36	0.041100	0.151400	0.451800
H371	H37	0.586300	0.003200	0.359700
H381	H38	0.599900	0.207200	0.450100
H391	H39	0.777800	0.508200	0.941900
H401	H40	0.960200	0.566400	0.990900
H411	H41	0.504400	0.381600	0.003800
H421	H42	0.477100	0.379400	0.122300
H431	H43	0.434300	0.454000	0.560300
H441	H44	0.290700	0.323000	0.466600
C11	C1	0.503200	0.812400	0.014600
C21	C2	0.619400	0.931000	0.079300
C31	C3	0.764900	0.945200	0.098300
C41	C4	0.790700	0.836800	0.049600
C51	C5	0.666200	0.718400	0.987500
C61	C6	0.892600	0.074800	0.161100
C71	C7	0.869300	0.183200	0.210100
C81	C8	0.990400	0.300400	0.267000
C91	C9	0.158100	0.210800	0.231500
C101	C10	0.044000	0.090400	0.171100
C111	C11	0.974900	0.301800	0.753300
C121	C12	0.856100	0.184400	0.702100
C131	C13	0.883300	0.076200	0.659900
C141	C14	0.034600	0.093000	0.666500
C151	C15	0.146100	0.214200	0.717700
C161	C16	0.668200	0.720200	0.496800
C171	C17	0.787900	0.840000	0.549900
C181	C18	0.757800	0.947000	0.604400
C191	C19	0.608800	0.927200	0.604000
C201	C20	0.494600	0.804200	0.549300
C211	C21	0.690800	0.187600	0.985400
C221	C22	0.688400	0.069000	0.920700
C231	C23	0.819700	0.054800	0.901700
C241	C24	0.953900	0.163200	0.950400
C251	C25	0.947800	0.281600	0.012500
C261	C26	0.817800	0.925200	0.838900
C271	C27	0.686100	0.816800	0.789900
C281	C28	0.690000	0.699600	0.733000
C291	C29	0.947300	0.789200	0.768500
C301	C30	0.953600	0.909600	0.828900
C311	C31	0.673100	0.698200	0.246700
C321	C32	0.671700	0.815600	0.297900
C331	C33	0.807100	0.923800	0.340100
C341	C34	0.941600	0.907000	0.333500
C351	C35	0.931900	0.785800	0.282300
C361	C36	0.948000	0.279800	0.503200
C371	C37	0.947900	0.160000	0.450100
C381	C38	0.810800	0.053000	0.395600
C391	C39	0.681600	0.072800	0.396000
C401	C40	0.690400	0.195800	0.450700
S11	S1	0.222680	0.616960	0.688400
S21	S2	0.577140	0.370880	0.723200
S31	S3	0.605720	0.383040	0.311600
S41	S4	0.206260	0.629120	0.276800
N11	N1	0.525000	0.706800	0.968800
N21	N2	0.133500	0.315400	0.280200
N31	N3	0.122100	0.319000	0.761900
N41	N4	0.524100	0.701400	0.495500
N51	N5	0.818200	0.293200	0.031200
N61	N6	0.818100	0.684600	0.719800
N71	N7	0.803100	0.681000	0.238100
N81	N8	0.822700	0.298600	0.504500
O11	O1	0.298300	0.544800	0.705100
O21	O2	0.306400	0.751600	0.766200
O31	O3	0.067400	0.573200	0.710000
O41	O4	0.211300	0.585600	0.568900
O51	O5	0.573800	0.401000	0.631500
O61	O6	0.508900	0.234600	0.670800
O71	O7	0.735700	0.429200	0.776200
O81	O8	0.495300	0.428000	0.805400
O91	O9	0.330000	0.470800	0.003500
O101	O10	0.145600	0.602000	0.923500
O111	O11	0.947800	0.591200	0.505900
O121	O12	0.753500	0.455200	0.294900
O131	O13	0.554800	0.248400	0.233800
O141	O14	0.494200	0.426800	0.290000
O151	O15	0.625700	0.414400	0.431100
O161	O16	0.172800	0.599000	0.368500
O171	O17	0.274300	0.765400	0.329200
O181	O18	0.306500	0.570800	0.223800
O191	O19	0.067300	0.572000	0.194600
O201	O20	0.859200	0.529200	0.996500
O211	O21	0.543600	0.398000	0.076500
O221	O22	0.356600	0.408800	0.494100
