data_CUCSAU_freeONLY_PM
_symmetry_space_group_name_H-M	'P1'
_cell_length_a	11.204900
_cell_length_b	16.726000
_cell_length_c	17.152000
_cell_angle_alpha	64.592000
_cell_angle_beta	80.095000
_cell_angle_gamma	85.225000
_symmetry_Int_Tables_number 1

loop_
_symmetry_equiv_pos_as_xyz
'x,y,z'

loop_
_atom_site_label
_atom_site_type_symbol
_atom_site_fract_x
_atom_site_fract_y
_atom_site_fract_z
Li11	Li1	0.675800	0.622700	0.884700
Li21	Li2	0.894500	0.661600	0.857200
Li31	Li3	0.966500	0.645400	0.714200
Li41	Li4	0.960600	0.807500	0.602300
Li51	Li5	0.048600	0.599900	0.592700
Li61	Li6	0.324200	0.377300	0.115300
Li71	Li7	0.105500	0.338400	0.142800
Li81	Li8	0.033500	0.354600	0.285800
Li91	Li9	0.039400	0.192500	0.397700
Li101	Li10	0.951400	0.400100	0.407300
H11	H1	0.448900	0.714900	0.874300
H21	H2	0.449100	0.667900	0.810200
H31	H3	0.341300	0.649900	0.890000
H41	H4	0.486900	0.628400	0.022400
H51	H5	0.377500	0.565000	0.037300
H61	H6	0.378200	0.494100	0.940100
H71	H7	0.488000	0.510800	0.861600
H81	H8	0.101900	0.710000	0.903800
H91	H9	0.990000	0.711000	0.975300
H101	H10	0.110100	0.655500	0.005500
H111	H11	0.152300	0.572600	0.885300
H121	H12	0.163100	0.528500	0.987200
H131	H13	0.988600	0.533100	0.092000
H141	H14	0.866000	0.580800	0.057800
H151	H15	0.738900	0.887000	0.594900
H161	H16	0.733400	0.973900	0.505800
H171	H17	0.770800	0.880500	0.503200
H181	H18	0.863700	0.049300	0.543900
H191	H19	0.877600	0.965700	0.634100
H201	H20	0.955700	0.941200	0.407800
H211	H21	0.911000	0.034600	0.407900
H221	H22	0.269400	0.525900	0.547200
H231	H23	0.274600	0.522500	0.454800
H241	H24	0.252900	0.614900	0.462200
H251	H25	0.067900	0.639600	0.398700
H261	H26	0.093500	0.548200	0.389500
H271	H27	0.121900	0.413100	0.515500
H281	H28	0.114700	0.414700	0.609000
H291	H29	0.760000	0.695000	0.960000
H301	H30	0.762300	0.841900	0.956700
H311	H31	0.705700	0.989300	0.888200
H321	H32	0.617200	0.041900	0.761100
H331	H33	0.589700	0.944500	0.702600
H341	H34	0.646800	0.798000	0.767700
H351	H35	0.848000	0.524000	0.848000
H361	H36	0.698200	0.700800	0.709900
H371	H37	0.565600	0.691500	0.624100
H381	H38	0.524300	0.556200	0.627700
H391	H39	0.619100	0.429000	0.717600
H401	H40	0.754600	0.435400	0.802700
H411	H41	0.903000	0.785000	0.746000
H421	H42	0.965700	0.882700	0.792900
H431	H43	0.129300	0.952200	0.802800
H441	H44	0.324800	0.920100	0.756500
H451	H45	0.360000	0.818100	0.695000
H461	H46	0.197400	0.746500	0.684700
H471	H47	0.854000	0.694000	0.582000
H481	H48	0.825900	0.759500	0.434100
H491	H49	0.913100	0.836800	0.290300
H501	H50	0.115600	0.876800	0.254400
H511	H51	0.233600	0.836200	0.364000
H521	H52	0.151700	0.756600	0.509800
H531	H53	0.183000	0.611000	0.683000
H541	H54	0.328700	0.511600	0.754100
H551	H55	0.385900	0.367200	0.832000
H561	H56	0.254400	0.253000	0.869200
H571	H57	0.061100	0.285000	0.827300
H581	H58	0.000700	0.429600	0.751500
H591	H59	0.551100	0.285100	0.125700
H601	H60	0.550900	0.332100	0.189800
H611	H61	0.658700	0.350100	0.110000
H621	H62	0.513100	0.371600	0.977600
H631	H63	0.622500	0.435000	0.962700
H641	H64	0.621800	0.505900	0.059900
H651	H65	0.512000	0.489200	0.138400
H661	H66	0.898100	0.290000	0.096200
H671	H67	0.010000	0.289000	0.024700
H681	H68	0.889900	0.344500	0.994500
H691	H69	0.847700	0.427400	0.114700
H701	H70	0.836900	0.471500	0.012800
H711	H71	0.011400	0.466900	0.908000
H721	H72	0.134000	0.419200	0.942200
H731	H73	0.261100	0.113000	0.405100
H741	H74	0.266600	0.026100	0.494200
H751	H75	0.229200	0.119500	0.496800
H761	H76	0.136300	0.950700	0.456100
H771	H77	0.122400	0.034300	0.365900
H781	H78	0.044300	0.058800	0.592200
H791	H79	0.089000	0.965400	0.592100
H801	H80	0.730600	0.474100	0.452800
H811	H81	0.725400	0.477500	0.545200
H821	H82	0.747100	0.385100	0.537800
H831	H83	0.932100	0.360400	0.601300
H841	H84	0.906500	0.451800	0.610500
H851	H85	0.878100	0.586900	0.484500
H861	H86	0.885300	0.585300	0.391000
H871	H87	0.240000	0.305000	0.040000
H881	H88	0.237700	0.158100	0.043300
H891	H89	0.294300	0.010700	0.111800
H901	H90	0.382800	0.958100	0.238900
H911	H91	0.410300	0.055500	0.297400
H921	H92	0.353200	0.202000	0.232300
H931	H93	0.152000	0.476000	0.152000
H941	H94	0.301800	0.299200	0.290100
H951	H95	0.434400	0.308500	0.375900
H961	H96	0.475700	0.443800	0.372300
H971	H97	0.380900	0.571000	0.282400
H981	H98	0.245400	0.564600	0.197300
H991	H99	0.097000	0.215000	0.254000
H1001	H100	0.034300	0.117300	0.207100
H1011	H101	0.870700	0.047800	0.197200
H1021	H102	0.675200	0.079900	0.243500
H1031	H103	0.640000	0.181900	0.305000
H1041	H104	0.802600	0.253500	0.315300
H1051	H105	0.146000	0.306000	0.418000
H1061	H106	0.174100	0.240500	0.565900
H1071	H107	0.086900	0.163200	0.709700
H1081	H108	0.884400	0.123200	0.745600
H1091	H109	0.766400	0.163800	0.636000
H1101	H110	0.848300	0.243400	0.490200
H1111	H111	0.817000	0.389000	0.317000
H1121	H112	0.671300	0.488400	0.245900
H1131	H113	0.614100	0.632800	0.168000
H1141	H114	0.745600	0.747000	0.130800
H1151	H115	0.938900	0.715000	0.172700
H1161	H116	0.999300	0.570400	0.248500
C11	C1	0.428300	0.660800	0.870700
C21	C2	0.465800	0.574200	0.018300
C31	C3	0.466500	0.504300	0.922500
C41	C4	0.056100	0.674900	0.961300
C51	C5	0.107000	0.540500	0.944700
C61	C6	0.936500	0.545200	0.046900
C71	C7	0.776100	0.917600	0.533700
C81	C8	0.912000	0.995000	0.571500
C91	C9	0.958600	0.980400	0.437300
C101	C10	0.236400	0.551400	0.492100
C111	C11	0.053200	0.575100	0.428700
C121	C12	0.081200	0.441400	0.553400
C131	C13	0.711100	0.799500	0.871700
C141	C14	0.727200	0.861300	0.904900
C151	C15	0.693000	0.949800	0.863900
C161	C16	0.641000	0.981500	0.788400
C171	C17	0.625000	0.923900	0.754500
C181	C18	0.659000	0.835900	0.794000
C191	C19	0.742900	0.568900	0.766800
C201	C20	0.683400	0.644700	0.711900
C211	C21	0.603800	0.639200	0.660800
C221	C22	0.579300	0.559600	0.662600
C231	C23	0.635800	0.484600	0.715800
C241	C24	0.716500	0.488300	0.766900
C251	C25	0.062500	0.806000	0.737500
C261	C26	0.045500	0.868500	0.772800
C271	C27	0.143300	0.910000	0.778800
C281	C28	0.258800	0.891500	0.751200
C291	C29	0.279600	0.830800	0.715300
C301	C30	0.182100	0.788500	0.709000
C311	C31	0.979400	0.748600	0.489900
C321	C32	0.909300	0.774400	0.421000
C331	C33	0.961300	0.820700	0.335400
C341	C34	0.081400	0.844300	0.313700
C351	C35	0.150600	0.820300	0.378600
C361	C36	0.101400	0.772800	0.465900
C371	C37	0.156900	0.488700	0.743700
C381	C38	0.272700	0.465800	0.769300
C391	C39	0.307400	0.379800	0.815400
C401	C40	0.230300	0.312600	0.837300
C411	C41	0.115300	0.331800	0.812600
C421	C42	0.079700	0.417900	0.767300
C431	C43	0.571700	0.339200	0.129300
C441	C44	0.534200	0.425800	0.981700
C451	C45	0.533500	0.495700	0.077500
C461	C46	0.943900	0.325100	0.038700
C471	C47	0.893000	0.459500	0.055300
C481	C48	0.063500	0.454800	0.953100
C491	C49	0.223900	0.082400	0.466300
C501	C50	0.088000	0.005000	0.428500
C511	C51	0.041400	0.019600	0.562700
C521	C52	0.763600	0.448600	0.507900
C531	C53	0.946800	0.424900	0.571300
C541	C54	0.918800	0.558600	0.446600
C551	C55	0.288900	0.200500	0.128300
C561	C56	0.272800	0.138700	0.095100
C571	C57	0.307000	0.050200	0.136100
C581	C58	0.359000	0.018500	0.211600
C591	C59	0.375000	0.076100	0.245500
C601	C60	0.341000	0.164100	0.206000
C611	C61	0.257100	0.431100	0.233200
C621	C62	0.316600	0.355300	0.288100
C631	C63	0.396200	0.360800	0.339200
C641	C64	0.420700	0.440400	0.337400
C651	C65	0.364200	0.515400	0.284200
C661	C66	0.283500	0.511700	0.233100
C671	C67	0.937500	0.194000	0.262500
C681	C68	0.954500	0.131500	0.227200
C691	C69	0.856700	0.090000	0.221200
C701	C70	0.741200	0.108500	0.248800
C711	C71	0.720400	0.169200	0.284700
C721	C72	0.817900	0.211500	0.291000
C731	C73	0.020600	0.251400	0.510100
C741	C74	0.090700	0.225600	0.579000
C751	C75	0.038700	0.179300	0.664600
C761	C76	0.918600	0.155700	0.686300
C771	C77	0.849400	0.179700	0.621400
C781	C78	0.898600	0.227200	0.534100
C791	C79	0.843100	0.511300	0.256300
C801	C80	0.727300	0.534200	0.230700
C811	C81	0.692600	0.620200	0.184600
C821	C82	0.769700	0.687400	0.162700
C831	C83	0.884700	0.668200	0.187400
C841	C84	0.920300	0.582100	0.232700
N11	N1	0.496800	0.585500	0.927100
N21	N2	0.005300	0.596500	0.960260
N31	N3	0.903300	0.934810	0.529780
N41	N4	0.105100	0.537500	0.510000
N51	N5	0.741700	0.711200	0.909300
N61	N6	0.820100	0.576800	0.818300
N71	N7	0.967500	0.761300	0.731530
N81	N8	0.933300	0.702800	0.577300
N91	N9	0.119500	0.574400	0.697400
N101	N10	0.503200	0.414500	0.072900
N111	N11	0.994700	0.403500	0.039740
N121	N12	0.096700	0.065190	0.470220
N131	N13	0.894900	0.462500	0.490000
N141	N14	0.258300	0.288800	0.090700
N151	N15	0.179900	0.423200	0.181700
N161	N16	0.032500	0.238700	0.268470
N171	N17	0.066700	0.297200	0.422700
N181	N18	0.880500	0.425600	0.302600
