data_CUGFAN_freeONLY_PM
_symmetry_space_group_name_H-M	'P1'
_cell_length_a	8.801700
_cell_length_b	10.667400
_cell_length_c	10.942200
_cell_angle_alpha	103.157000
_cell_angle_beta	108.193000
_cell_angle_gamma	97.410000
_symmetry_Int_Tables_number 1

loop_
_symmetry_equiv_pos_as_xyz
'x,y,z'

loop_
_atom_site_label
_atom_site_type_symbol
_atom_site_fract_x
_atom_site_fract_y
_atom_site_fract_z
Zn11	Zn1	0.798820	0.836720	0.245550
O11	O1	0.053100	0.943100	0.359600
O21	O2	0.198600	0.094500	0.554500
N11	N1	0.547600	0.750400	0.168600
N21	N2	0.104600	0.545100	0.803400
N31	N3	0.291100	0.696700	0.025800
N41	N4	0.191500	0.785400	0.827700
C11	C1	0.072600	0.010500	0.474200
N51	N5	0.997900	0.718400	0.938500
C21	C2	0.440800	0.773500	0.065200
H11	H1	0.466700	0.836300	0.024100
C31	C3	0.281400	0.771600	0.745500
H21	H2	0.315000	0.695700	0.713000
C41	C4	0.174600	0.911300	0.849300
H31	H3	0.119100	0.947900	0.903400
C51	C5	0.312600	0.888900	0.720100
H41	H4	0.371100	0.906800	0.666200
C61	C6	0.192800	0.452900	0.817900
H51	H5	0.288600	0.465800	0.890700
C71	C7	0.994900	0.759600	0.063100
H61	H6	0.083000	0.767400	0.140400
C81	C8	0.460900	0.652700	0.199400
H71	H7	0.503100	0.615500	0.268400
C91	C9	0.760400	0.765200	0.932800
H81	H8	0.653400	0.776400	0.901400
C101	C10	0.304600	0.619900	0.113000
H91	H9	0.220800	0.556700	0.112300
C111	C11	0.975300	0.486100	0.685100
H101	H10	0.890100	0.523900	0.645900
C121	C12	0.847500	0.724100	0.855600
H111	H11	0.811800	0.703300	0.762500
C131	C13	0.994400	0.363800	0.636100
H121	H12	0.923800	0.303000	0.556600
B11	B1	0.144300	0.685700	0.898200
N61	N6	0.132100	0.342700	0.720300
N71	N7	0.853800	0.787600	0.064000
N81	N8	0.244400	0.977000	0.786100
Zn21	Zn2	0.201180	0.163280	0.754450
O31	O3	0.946900	0.056900	0.640400
O41	O4	0.801400	0.905500	0.445500
N91	N9	0.452400	0.249600	0.831400
N101	N10	0.895400	0.454900	0.196600
N111	N11	0.708900	0.303300	0.974200
N121	N12	0.808500	0.214600	0.172300
C141	C14	0.927400	0.989500	0.525800
N131	N13	0.002100	0.281600	0.061500
C151	C15	0.559200	0.226500	0.934800
H131	H13	0.533300	0.163700	0.975900
C161	C16	0.718600	0.228400	0.254500
H141	H14	0.685000	0.304300	0.287000
C171	C17	0.825400	0.088700	0.150700
H151	H15	0.880900	0.052100	0.096600
C181	C18	0.687400	0.111100	0.279900
H161	H16	0.628900	0.093200	0.333800
C191	C19	0.807200	0.547100	0.182100
H171	H17	0.711400	0.534200	0.109300
C201	C20	0.005100	0.240400	0.936900
H181	H18	0.917000	0.232600	0.859600
C211	C21	0.539100	0.347300	0.800600
H191	H19	0.496900	0.384500	0.731600
C221	C22	0.239600	0.234800	0.067200
H201	H20	0.346600	0.223600	0.098600
C231	C23	0.695400	0.380100	0.887000
H211	H21	0.779200	0.443300	0.887700
C241	C24	0.024700	0.513900	0.314900
H221	H22	0.109900	0.476100	0.354100
C251	C25	0.152500	0.275900	0.144400
H231	H23	0.188200	0.296700	0.237500
C261	C26	0.005600	0.636200	0.363900
H241	H24	0.076200	0.697000	0.443400
B21	B2	0.855700	0.314300	0.101800
N141	N14	0.867900	0.657300	0.279700
N151	N15	0.146200	0.212400	0.936000
N161	N16	0.755600	0.023000	0.213900
