data_CUGFUH_freeONLY_PM
_symmetry_space_group_name_H-M	'P1'
_cell_length_a	8.997000
_cell_length_b	10.516300
_cell_length_c	10.686000
_cell_angle_alpha	98.008000
_cell_angle_beta	97.436000
_cell_angle_gamma	111.110000
_symmetry_Int_Tables_number 1

loop_
_symmetry_equiv_pos_as_xyz
'x,y,z'

loop_
_atom_site_label
_atom_site_type_symbol
_atom_site_fract_x
_atom_site_fract_y
_atom_site_fract_z
Mn11	Mn1	0.201710	0.746050	0.185880
O11	O1	0.949570	0.636100	0.069210
O21	O2	0.818660	0.466770	0.894720
N11	N1	0.461300	0.821200	0.273130
N21	N2	0.811200	0.173450	0.202930
N31	N3	0.717500	0.974000	0.315170
N41	N4	0.910800	0.205500	0.441800
N51	N5	0.007100	0.068000	0.276520
C11	C1	0.569100	0.926400	0.238300
H11	H1	0.545500	0.963900	0.168100
C21	C2	0.932500	0.529700	0.989500
C31	C3	0.701500	0.890200	0.405900
H21	H2	0.782900	0.896300	0.472500
C41	C4	0.816700	0.143600	0.076700
H31	H3	0.870200	0.089200	0.044400
C51	C5	0.015400	0.940700	0.262000
H41	H4	0.934700	0.861800	0.275700
C61	C6	0.544900	0.797400	0.379400
H51	H5	0.500900	0.728600	0.425500
C71	C7	0.235500	0.076500	0.216700
H61	H6	0.336600	0.109400	0.193400
C81	C8	0.719800	0.254500	0.210400
H71	H7	0.693400	0.291200	0.284600
C91	C9	0.675800	0.270300	0.089000
H81	H8	0.613700	0.320700	0.066300
C101	C10	0.148400	0.154900	0.246500
H91	H9	0.178500	0.249300	0.246600
C111	C11	0.811500	0.203600	0.526400
H101	H10	0.704500	0.140200	0.511600
C121	C12	0.056900	0.314300	0.499400
H111	H11	0.150900	0.343000	0.465200
C131	C13	0.036800	0.371200	0.615000
H121	H12	0.116000	0.446200	0.673600
B11	B1	0.864000	0.105400	0.309900
N61	N6	0.150800	0.941000	0.226210
N71	N7	0.880900	0.300500	0.632370
N81	N8	0.737500	0.200300	0.004250
Mn21	Mn2	0.798290	0.253950	0.814120
O31	O3	0.050430	0.363900	0.930790
O41	O4	0.181340	0.533230	0.105280
N91	N9	0.538700	0.178800	0.726870
N101	N10	0.188800	0.826550	0.797070
N111	N11	0.282500	0.026000	0.684830
N121	N12	0.089200	0.794500	0.558200
N131	N13	0.992900	0.932000	0.723480
C141	C14	0.430900	0.073600	0.761700
H131	H13	0.454500	0.036100	0.831900
C151	C15	0.067500	0.470300	0.010500
C161	C16	0.298500	0.109800	0.594100
H141	H14	0.217100	0.103700	0.527500
C171	C17	0.183300	0.856400	0.923300
H151	H15	0.129800	0.910800	0.955600
C181	C18	0.984600	0.059300	0.738000
H161	H16	0.065300	0.138200	0.724300
C191	C19	0.455100	0.202600	0.620600
H171	H17	0.499100	0.271400	0.574500
C201	C20	0.764500	0.923500	0.783300
H181	H18	0.663400	0.890600	0.806600
C211	C21	0.280200	0.745500	0.789600
H191	H19	0.306600	0.708800	0.715400
C221	C22	0.324200	0.729700	0.911000
H201	H20	0.386300	0.679300	0.933700
C231	C23	0.851600	0.845100	0.753500
H211	H21	0.821500	0.750700	0.753400
C241	C24	0.188500	0.796400	0.473600
H221	H22	0.295500	0.859800	0.488400
C251	C25	0.943100	0.685700	0.500600
H231	H23	0.849100	0.657000	0.534800
C261	C26	0.963200	0.628800	0.385000
H241	H24	0.884000	0.553800	0.326400
B21	B2	0.136000	0.894600	0.690100
N141	N14	0.849200	0.059000	0.773790
N151	N15	0.119100	0.699500	0.367630
N161	N16	0.262500	0.799700	0.995750
