data_CUKXIR_freeONLY_PM
_symmetry_space_group_name_H-M	'P1'
_cell_length_a	19.103500
_cell_length_b	9.543000
_cell_length_c	17.670800
_cell_angle_alpha	90.000000
_cell_angle_beta	90.000000
_cell_angle_gamma	90.000000
_symmetry_Int_Tables_number 1

loop_
_symmetry_equiv_pos_as_xyz
'x,y,z'

loop_
_atom_site_label
_atom_site_type_symbol
_atom_site_fract_x
_atom_site_fract_y
_atom_site_fract_z
C11	C1	0.374770	0.253500	0.076690
C21	C2	0.341750	0.187300	0.007680
C31	C3	0.289010	0.085400	0.010350
C41	C4	0.264420	0.027600	0.942900
H11	H1	0.229900	0.959100	0.944900
C51	C5	0.290060	0.069400	0.872500
C61	C6	0.343520	0.170400	0.869700
C71	C7	0.367870	0.226800	0.937150
H21	H2	0.403100	0.293900	0.935200
C81	C8	0.256310	0.031900	0.083040
C91	C9	0.259150	0.999600	0.802740
C101	C10	0.377720	0.219700	0.797240
Mn11	Mn1	0.257210	0.266400	0.195740
O11	O1	0.423260	0.336900	0.065950
O21	O2	0.352840	0.217930	0.141500
O31	O3	0.213270	0.108930	0.116780
O41	O4	0.271940	0.908910	0.101580
O51	O5	0.208920	0.060730	0.769840
O61	O6	0.283750	0.883280	0.785310
O71	O7	0.346860	0.200670	0.735160
O81	O8	0.436430	0.276100	0.804320
O91	O9	0.435810	0.583000	0.814620
H31	H3	0.387700	0.574700	0.799700
H41	H4	0.452200	0.675900	0.803800
O101	O10	0.575060	0.449710	0.841520
H51	H5	0.568900	0.539200	0.865400
H61	H6	0.621700	0.443100	0.821500
C111	C11	0.125230	0.246500	0.576690
C121	C12	0.158250	0.312700	0.507680
C131	C13	0.210990	0.414600	0.510350
C141	C14	0.235580	0.472400	0.442900
H71	H7	0.270100	0.540900	0.444900
C151	C15	0.209940	0.430600	0.372500
C161	C16	0.156480	0.329600	0.369700
C171	C17	0.132130	0.273200	0.437150
H81	H8	0.096900	0.206100	0.435200
C181	C18	0.243690	0.468100	0.583040
C191	C19	0.240850	0.500400	0.302740
C201	C20	0.122280	0.280300	0.297240
Mn21	Mn2	0.242790	0.233600	0.695740
O111	O11	0.076740	0.163100	0.565950
O121	O12	0.147160	0.282070	0.641500
O131	O13	0.286730	0.391070	0.616780
O141	O14	0.228060	0.591090	0.601580
O151	O15	0.291080	0.439270	0.269840
O161	O16	0.216250	0.616720	0.285310
O171	O17	0.153140	0.299330	0.235160
O181	O18	0.063570	0.223900	0.304320
O191	O19	0.064190	0.917000	0.314620
H91	H9	0.112300	0.925300	0.299700
H101	H10	0.047800	0.824100	0.303800
O201	O20	0.924940	0.050290	0.341520
H111	H11	0.931100	0.960800	0.365400
H121	H12	0.878300	0.056900	0.321500
C211	C21	0.625230	0.253500	0.423310
C221	C22	0.658250	0.187300	0.492320
C231	C23	0.710990	0.085400	0.489650
C241	C24	0.735580	0.027600	0.557100
H131	H13	0.770100	0.959100	0.555100
C251	C25	0.709940	0.069400	0.627500
C261	C26	0.656480	0.170400	0.630300
C271	C27	0.632130	0.226800	0.562850
H141	H14	0.596900	0.293900	0.564800
C281	C28	0.743690	0.031900	0.416960
C291	C29	0.740850	0.999600	0.697260
C301	C30	0.622280	0.219700	0.702760
Mn31	Mn3	0.742790	0.266400	0.304260
O211	O21	0.576740	0.336900	0.434050
O221	O22	0.647160	0.217930	0.358500
O231	O23	0.786730	0.108930	0.383220
O241	O24	0.728060	0.908910	0.398420
O251	O25	0.791080	0.060730	0.730160
O261	O26	0.716250	0.883280	0.714690
O271	O27	0.653140	0.200670	0.764840
O281	O28	0.563570	0.276100	0.695680
O291	O29	0.564190	0.583000	0.685380
H151	H15	0.612300	0.574700	0.700300
H161	H16	0.547800	0.675900	0.696200
O301	O30	0.424940	0.449710	0.658480
H171	H17	0.431100	0.539200	0.634600
H181	H18	0.378300	0.443100	0.678500
C311	C31	0.874770	0.246500	0.923310
C321	C32	0.841750	0.312700	0.992320
C331	C33	0.789010	0.414600	0.989650
C341	C34	0.764420	0.472400	0.057100
H191	H19	0.729900	0.540900	0.055100
C351	C35	0.790060	0.430600	0.127500
C361	C36	0.843520	0.329600	0.130300
C371	C37	0.867870	0.273200	0.062850
H201	H20	0.903100	0.206100	0.064800
C381	C38	0.756310	0.468100	0.916960
C391	C39	0.759150	0.500400	0.197260
C401	C40	0.877720	0.280300	0.202760
Mn41	Mn4	0.757210	0.233600	0.804260
O311	O31	0.923260	0.163100	0.934050
O321	O32	0.852840	0.282070	0.858500
O331	O33	0.713270	0.391070	0.883220
O341	O34	0.771940	0.591090	0.898420
O351	O35	0.708920	0.439270	0.230160
O361	O36	0.783750	0.616720	0.214690
O371	O37	0.846860	0.299330	0.264840
O381	O38	0.936430	0.223900	0.195680
O391	O39	0.935810	0.917000	0.185380
H211	H21	0.887700	0.925300	0.200300
H221	H22	0.952200	0.824100	0.196200
O401	O40	0.075060	0.050290	0.158480
H231	H23	0.068900	0.960800	0.134600
H241	H24	0.121700	0.056900	0.178500
C411	C41	0.625230	0.746500	0.923310
C421	C42	0.658250	0.812700	0.992320
C431	C43	0.710990	0.914600	0.989650
C441	C44	0.735580	0.972400	0.057100
H251	H25	0.770100	0.040900	0.055100
C451	C45	0.709940	0.930600	0.127500
C461	C46	0.656480	0.829600	0.130300
C471	C47	0.632130	0.773200	0.062850
H261	H26	0.596900	0.706100	0.064800
C481	C48	0.743690	0.968100	0.916960
C491	C49	0.740850	0.000400	0.197260
C501	C50	0.622280	0.780300	0.202760
Mn51	Mn5	0.742790	0.733600	0.804260
O411	O41	0.576740	0.663100	0.934050
O421	O42	0.647160	0.782070	0.858500
O431	O43	0.786730	0.891070	0.883220
O441	O44	0.728060	0.091090	0.898420
O451	O45	0.791080	0.939270	0.230160
O461	O46	0.716250	0.116720	0.214690
O471	O47	0.653140	0.799330	0.264840
O481	O48	0.563570	0.723900	0.195680
O491	O49	0.564190	0.417000	0.185380
H271	H27	0.612300	0.425300	0.200300
H281	H28	0.547800	0.324100	0.196200
O501	O50	0.424940	0.550290	0.158480
H291	H29	0.431100	0.460800	0.134600
H301	H30	0.378300	0.556900	0.178500
C511	C51	0.874770	0.753500	0.423310
C521	C52	0.841750	0.687300	0.492320
C531	C53	0.789010	0.585400	0.489650
C541	C54	0.764420	0.527600	0.557100
H311	H31	0.729900	0.459100	0.555100
C551	C55	0.790060	0.569400	0.627500
C561	C56	0.843520	0.670400	0.630300
C571	C57	0.867870	0.726800	0.562850
H321	H32	0.903100	0.793900	0.564800
C581	C58	0.756310	0.531900	0.416960
C591	C59	0.759150	0.499600	0.697260
C601	C60	0.877720	0.719700	0.702760
Mn61	Mn6	0.757210	0.766400	0.304260
O511	O51	0.923260	0.836900	0.434050
O521	O52	0.852840	0.717930	0.358500
O531	O53	0.713270	0.608930	0.383220
O541	O54	0.771940	0.408910	0.398420
O551	O55	0.708920	0.560730	0.730160
O561	O56	0.783750	0.383280	0.714690
O571	O57	0.846860	0.700670	0.764840
O581	O58	0.936430	0.776100	0.695680
O591	O59	0.935810	0.083000	0.685380
H331	H33	0.887700	0.074700	0.700300
H341	H34	0.952200	0.175900	0.696200
O601	O60	0.075060	0.949710	0.658480
H351	H35	0.068900	0.039200	0.634600
H361	H36	0.121700	0.943100	0.678500
C611	C61	0.374770	0.746500	0.576690
C621	C62	0.341750	0.812700	0.507680
C631	C63	0.289010	0.914600	0.510350
C641	C64	0.264420	0.972400	0.442900
H371	H37	0.229900	0.040900	0.444900
C651	C65	0.290060	0.930600	0.372500
C661	C66	0.343520	0.829600	0.369700
C671	C67	0.367870	0.773200	0.437150
H381	H38	0.403100	0.706100	0.435200
C681	C68	0.256310	0.968100	0.583040
C691	C69	0.259150	0.000400	0.302740
C701	C70	0.377720	0.780300	0.297240
Mn71	Mn7	0.257210	0.733600	0.695740
O611	O61	0.423260	0.663100	0.565950
O621	O62	0.352840	0.782070	0.641500
O631	O63	0.213270	0.891070	0.616780
O641	O64	0.271940	0.091090	0.601580
O651	O65	0.208920	0.939270	0.269840
O661	O66	0.283750	0.116720	0.285310
O671	O67	0.346860	0.799330	0.235160
O681	O68	0.436430	0.723900	0.304320
O691	O69	0.435810	0.417000	0.314620
H391	H39	0.387700	0.425300	0.299700
H401	H40	0.452200	0.324100	0.303800
O701	O70	0.575060	0.550290	0.341520
H411	H41	0.568900	0.460800	0.365400
H421	H42	0.621700	0.556900	0.321500
C711	C71	0.125230	0.753500	0.076690
C721	C72	0.158250	0.687300	0.007680
C731	C73	0.210990	0.585400	0.010350
C741	C74	0.235580	0.527600	0.942900
H431	H43	0.270100	0.459100	0.944900
C751	C75	0.209940	0.569400	0.872500
C761	C76	0.156480	0.670400	0.869700
C771	C77	0.132130	0.726800	0.937150
H441	H44	0.096900	0.793900	0.935200
C781	C78	0.243690	0.531900	0.083040
C791	C79	0.240850	0.499600	0.802740
C801	C80	0.122280	0.719700	0.797240
Mn81	Mn8	0.242790	0.766400	0.195740
O711	O71	0.076740	0.836900	0.065950
O721	O72	0.147160	0.717930	0.141500
O731	O73	0.286730	0.608930	0.116780
O741	O74	0.228060	0.408910	0.101580
O751	O75	0.291080	0.560730	0.769840
O761	O76	0.216250	0.383280	0.785310
O771	O77	0.153140	0.700670	0.735160
O781	O78	0.063570	0.776100	0.804320
O791	O79	0.064190	0.083000	0.814620
H451	H45	0.112300	0.074700	0.799700
H461	H46	0.047800	0.175900	0.803800
O801	O80	0.924940	0.949710	0.841520
H471	H47	0.931100	0.039200	0.865400
H481	H48	0.878300	0.943100	0.821500
Mn91	Mn9	0.500000	0.428230	0.750000
Mn101	Mn10	0.000000	0.071770	0.250000
Mn111	Mn11	0.500000	0.571770	0.250000
Mn121	Mn12	0.000000	0.928230	0.750000
