data_CUMDIY_freeONLY_PM
_symmetry_space_group_name_H-M	'P1'
_cell_length_a	5.763000
_cell_length_b	10.213000
_cell_length_c	11.649000
_cell_angle_alpha	84.242000
_cell_angle_beta	89.051000
_cell_angle_gamma	82.876000
_symmetry_Int_Tables_number 1

loop_
_symmetry_equiv_pos_as_xyz
'x,y,z'

loop_
_atom_site_label
_atom_site_type_symbol
_atom_site_fract_x
_atom_site_fract_y
_atom_site_fract_z
La11	La1	0.217710	0.145230	0.471950
La21	La2	0.782290	0.854770	0.528050
P11	P1	0.720800	0.170090	0.661270
P21	P2	0.670200	0.160130	0.309460
P31	P3	0.279200	0.829910	0.338730
P41	P4	0.329800	0.839870	0.690540
H11	H1	0.511500	0.982800	0.159700
H21	H2	0.023300	0.272200	0.727600
H31	H3	0.794400	0.372200	0.718100
H41	H4	0.679200	0.390000	0.479000
H51	H5	0.694900	0.510300	0.551100
H61	H6	0.046700	0.530500	0.653300
H71	H7	0.267100	0.424400	0.646400
H81	H8	0.905200	0.032300	0.190200
H91	H9	0.814500	0.168500	0.123100
H101	H10	0.825600	0.984300	0.979400
H111	H11	0.828200	0.868900	0.079200
H121	H12	0.351400	0.190100	0.085500
H131	H13	0.532700	0.183400	0.983500
H141	H14	0.488500	0.017200	0.840300
H151	H15	0.976700	0.727800	0.272400
H161	H16	0.205600	0.627800	0.281900
H171	H17	0.320800	0.610000	0.521000
H181	H18	0.305100	0.489700	0.448900
H191	H19	0.953300	0.469500	0.346700
H201	H20	0.732900	0.575600	0.353600
H211	H21	0.094800	0.967700	0.809800
H221	H22	0.185500	0.831500	0.876900
H231	H23	0.174400	0.015700	0.020600
H241	H24	0.171800	0.131100	0.920800
H251	H25	0.648600	0.809900	0.914500
H261	H26	0.467300	0.816600	0.016500
C11	C1	0.890800	0.306100	0.678300
C21	C2	0.783200	0.450200	0.502400
C31	C3	0.133400	0.470800	0.603700
C41	C4	0.766800	0.095500	0.174100
C51	C5	0.727500	0.936100	0.032500
C61	C6	0.440300	0.131000	0.036200
C71	C7	0.109200	0.693900	0.321700
C81	C8	0.216800	0.549800	0.497600
C91	C9	0.866600	0.529200	0.396300
C101	C10	0.233200	0.904500	0.825900
C111	C11	0.272500	0.063900	0.967500
C121	C12	0.559700	0.869000	0.963800
N11	N1	0.979700	0.372500	0.570000
N21	N2	0.599300	0.029000	0.108500
N31	N3	0.020300	0.627500	0.430000
N41	N4	0.400700	0.971000	0.891500
O11	O1	0.495900	0.222500	0.597100
O21	O2	0.883700	0.072900	0.593300
O31	O3	0.686000	0.109700	0.785100
O41	O4	0.887100	0.218600	0.342400
O51	O5	0.444700	0.257800	0.298400
O61	O6	0.607400	0.041800	0.391700
O71	O7	0.504100	0.777500	0.402900
O81	O8	0.116300	0.927100	0.406700
O91	O9	0.314000	0.890300	0.214900
O101	O10	0.112900	0.781400	0.657600
O111	O11	0.555300	0.742200	0.701600
O121	O12	0.392600	0.958200	0.608300
