data_CUMJEB_freeONLY_PM
_symmetry_space_group_name_H-M	'P1'
_cell_length_a	20.819700
_cell_length_b	20.819700
_cell_length_c	11.558100
_cell_angle_alpha	90.000000
_cell_angle_beta	90.000000
_cell_angle_gamma	120.000000
_symmetry_Int_Tables_number 1

loop_
_symmetry_equiv_pos_as_xyz
'x,y,z'

loop_
_atom_site_label
_atom_site_type_symbol
_atom_site_fract_x
_atom_site_fract_y
_atom_site_fract_z
C11	C1	0.188900	0.964600	0.108100
H11	H1	0.225800	0.010100	0.145000
H21	H2	0.141500	0.962700	0.113000
C21	C2	0.253700	0.916800	0.227900
H31	H3	0.242300	0.891800	0.302100
H41	H4	0.283400	0.969700	0.242200
C31	C3	0.209100	0.966050	0.983000
C41	C4	0.297690	0.892460	0.157300
Cd11	Cd1	0.462630	0.983780	0.302240
N11	N1	0.184260	0.900990	0.170600
H51	H5	0.148400	0.886700	0.225700
N21	N2	0.254810	0.026080	0.924200
N31	N3	0.252850	0.003930	0.814300
N41	N4	0.208400	0.932540	0.810200
N51	N5	0.179080	0.906220	0.916000
N61	N6	0.269810	0.846970	0.067000
N71	N7	0.324210	0.834700	0.029900
N81	N8	0.382710	0.871770	0.094900
N91	N9	0.367360	0.909070	0.176900
C51	C5	0.855570	0.297930	0.441430
H61	H6	0.892470	0.343430	0.478330
H71	H7	0.808170	0.296030	0.446330
C61	C6	0.920370	0.250130	0.561230
H81	H8	0.908970	0.225130	0.635430
H91	H9	0.950070	0.303030	0.575530
C71	C7	0.875770	0.299380	0.316330
C81	C8	0.964360	0.225790	0.490630
Cd21	Cd2	0.129290	0.317120	0.635570
N101	N10	0.850930	0.234320	0.503930
H101	H10	0.815070	0.220030	0.559030
N111	N11	0.921480	0.359410	0.257530
N121	N12	0.919520	0.337260	0.147630
N131	N13	0.875070	0.265870	0.143530
N141	N14	0.845750	0.239550	0.249330
N151	N15	0.936480	0.180300	0.400330
N161	N16	0.990880	0.168030	0.363230
N171	N17	0.049380	0.205100	0.428230
N181	N18	0.034030	0.242400	0.510230
C91	C9	0.522230	0.631270	0.774770
H111	H11	0.559130	0.676770	0.811670
H121	H12	0.474830	0.629370	0.779670
C101	C10	0.587030	0.583470	0.894570
H131	H13	0.575630	0.558470	0.968770
H141	H14	0.616730	0.636370	0.908870
C111	C11	0.542430	0.632720	0.649670
C121	C12	0.631020	0.559130	0.823970
Cd31	Cd3	0.795960	0.650450	0.968910
N191	N19	0.517590	0.567660	0.837270
H151	H15	0.481730	0.553370	0.892370
N201	N20	0.588140	0.692750	0.590870
N211	N21	0.586180	0.670600	0.480970
N221	N22	0.541730	0.599210	0.476870
N231	N23	0.512410	0.572890	0.582670
N241	N24	0.603140	0.513640	0.733670
N251	N25	0.657540	0.501370	0.696570
N261	N26	0.716040	0.538440	0.761570
N271	N27	0.700690	0.575740	0.843570
C131	C13	0.035400	0.224300	0.108100
H161	H16	0.989900	0.215700	0.145000
H171	H17	0.037300	0.178800	0.113000
C141	C14	0.083200	0.336900	0.227900
H181	H18	0.108200	0.350500	0.302100
H191	H19	0.030300	0.313700	0.242200
C151	C15	0.033950	0.243050	0.983000
C161	C16	0.107540	0.405230	0.157300
Cd41	Cd4	0.016220	0.478840	0.302240
N281	N28	0.099010	0.283270	0.170600
H201	H20	0.113300	0.261700	0.225700
N291	N29	0.973920	0.228730	0.924200
N301	N30	0.996070	0.248920	0.814300
N311	N31	0.067460	0.275860	0.810200
N321	N32	0.093780	0.272860	0.916000
N331	N33	0.153030	0.422840	0.067000
N341	N34	0.165300	0.489510	0.029900
N351	N35	0.128230	0.510940	0.094900
N361	N36	0.090930	0.458290	0.176900
C171	C17	0.702070	0.557630	0.441430
H211	H21	0.656570	0.549030	0.478330
H221	H22	0.703970	0.512130	0.446330
C181	C18	0.749870	0.670230	0.561230
H231	H23	0.774870	0.683830	0.635430
H241	H24	0.696970	0.647030	0.575530
C191	C19	0.700620	0.576380	0.316330
C201	C20	0.774210	0.738560	0.490630
Cd51	Cd5	0.682880	0.812180	0.635570
N371	N37	0.765680	0.616600	0.503930
H251	H25	0.779970	0.595030	0.559030
N381	N38	0.640590	0.562060	0.257530
N391	N39	0.662740	0.582250	0.147630
N401	N40	0.734130	0.609190	0.143530
N411	N41	0.760450	0.606190	0.249330
N421	N42	0.819700	0.756170	0.400330
N431	N43	0.831970	0.822840	0.363230
N441	N44	0.794900	0.844270	0.428230
N451	N45	0.757600	0.791620	0.510230
C211	C21	0.368730	0.890970	0.774770
H261	H26	0.323230	0.882370	0.811670
H271	H27	0.370630	0.845470	0.779670
C221	C22	0.416530	0.003570	0.894570
H281	H28	0.441530	0.017170	0.968770
H291	H29	0.363630	0.980370	0.908870
C231	C23	0.367280	0.909720	0.649670
C241	C24	0.440870	0.071900	0.823970
Cd61	Cd6	0.349550	0.145510	0.968910
N461	N46	0.432340	0.949940	0.837270
H301	H30	0.446630	0.928370	0.892370
N471	N47	0.307250	0.895400	0.590870
N481	N48	0.329400	0.915590	0.480970
N491	N49	0.400790	0.942530	0.476870
N501	N50	0.427110	0.939530	0.582670
N511	N51	0.486360	0.089510	0.733670
N521	N52	0.498630	0.156180	0.696570
N531	N53	0.461560	0.177610	0.761570
N541	N54	0.424260	0.124960	0.843570
C251	C25	0.775700	0.811100	0.108100
H311	H31	0.784300	0.774200	0.145000
H321	H32	0.821200	0.858500	0.113000
C261	C26	0.663100	0.746300	0.227900
H331	H33	0.649500	0.757700	0.302100
H341	H34	0.686300	0.716600	0.242200
C271	C27	0.756950	0.790900	0.983000
C281	C28	0.594770	0.702310	0.157300
Cd71	Cd7	0.521160	0.537370	0.302240
N551	N55	0.716730	0.815740	0.170600
H351	H35	0.738300	0.851600	0.225700
N561	N56	0.771270	0.745190	0.924200
N571	N57	0.751080	0.747150	0.814300
N581	N58	0.724140	0.791600	0.810200
N591	N59	0.727140	0.820920	0.916000
N601	N60	0.577160	0.730190	0.067000
N611	N61	0.510490	0.675790	0.029900
N621	N62	0.489060	0.617290	0.094900
N631	N63	0.541710	0.632640	0.176900
C291	C29	0.442370	0.144430	0.441430
H361	H36	0.450970	0.107530	0.478330
H371	H37	0.487870	0.191830	0.446330
C301	C30	0.329770	0.079630	0.561230
H381	H38	0.316170	0.091030	0.635430
H391	H39	0.352970	0.049930	0.575530
C311	C31	0.423620	0.124230	0.316330
C321	C32	0.261440	0.035640	0.490630
Cd81	Cd8	0.187820	0.870710	0.635570
N641	N64	0.383400	0.149070	0.503930
H401	H40	0.404970	0.184930	0.559030
N651	N65	0.437940	0.078520	0.257530
N661	N66	0.417750	0.080480	0.147630
N671	N67	0.390810	0.124930	0.143530
N681	N68	0.393810	0.154250	0.249330
N691	N69	0.243830	0.063520	0.400330
N701	N70	0.177160	0.009120	0.363230
N711	N71	0.155730	0.950620	0.428230
N721	N72	0.208380	0.965970	0.510230
C331	C33	0.109030	0.477770	0.774770
H411	H41	0.117630	0.440870	0.811670
H421	H42	0.154530	0.525170	0.779670
C341	C34	0.996430	0.412970	0.894570
H431	H43	0.982830	0.424370	0.968770
H441	H44	0.019630	0.383270	0.908870
C351	C35	0.090280	0.457570	0.649670
C361	C36	0.928100	0.368980	0.823970
Cd91	Cd9	0.854490	0.204040	0.968910
N731	N73	0.050060	0.482410	0.837270
H451	H45	0.071630	0.518270	0.892370
N741	N74	0.104600	0.411860	0.590870
N751	N75	0.084410	0.413820	0.480970
N761	N76	0.057470	0.458270	0.476870
N771	N77	0.060470	0.487590	0.582670
N781	N78	0.910490	0.396860	0.733670
N791	N79	0.843820	0.342460	0.696570
N801	N80	0.822390	0.283960	0.761570
N811	N81	0.875040	0.299310	0.843570
C371	C37	0.811100	0.035400	0.891900
H461	H46	0.774200	0.989900	0.855000
H471	H47	0.858500	0.037300	0.887000
C381	C38	0.746300	0.083200	0.772100
H481	H48	0.757700	0.108200	0.697900
H491	H49	0.716600	0.030300	0.757800
C391	C39	0.790900	0.033950	0.017000
C401	C40	0.702310	0.107540	0.842700
Cd101	Cd10	0.537370	0.016220	0.697760
N821	N82	0.815740	0.099010	0.829400
H501	H50	0.851600	0.113300	0.774300
N831	N83	0.745190	0.973920	0.075800
N841	N84	0.747150	0.996070	0.185700
N851	N85	0.791600	0.067460	0.189800
N861	N86	0.820920	0.093780	0.084000
N871	N87	0.730190	0.153030	0.933000
N881	N88	0.675790	0.165300	0.970100
N891	N89	0.617290	0.128230	0.905100
N901	N90	0.632640	0.090930	0.823100
C411	C41	0.477770	0.368730	0.225230
H511	H51	0.440870	0.323230	0.188330
H521	H52	0.525170	0.370630	0.220330
C421	C42	0.412970	0.416530	0.105430
H531	H53	0.424370	0.441530	0.031230
H541	H54	0.383270	0.363630	0.091130
C431	C43	0.457570	0.367280	0.350330
C441	C44	0.368980	0.440870	0.176030
Cd111	Cd11	0.204040	0.349550	0.031090
N911	N91	0.482410	0.432340	0.162730
H551	H55	0.518270	0.446630	0.107630
N921	N92	0.411860	0.307250	0.409130
N931	N93	0.413820	0.329400	0.519030
N941	N94	0.458270	0.400790	0.523130
N951	N95	0.487590	0.427110	0.417330
N961	N96	0.396860	0.486360	0.266330
N971	N97	0.342460	0.498630	0.303430
N981	N98	0.283960	0.461560	0.238430
N991	N99	0.299310	0.424260	0.156430
C451	C45	0.144430	0.702070	0.558570
H561	H56	0.107530	0.656570	0.521670
H571	H57	0.191830	0.703970	0.553670
C461	C46	0.079630	0.749870	0.438770
H581	H58	0.091030	0.774870	0.364570
H591	H59	0.049930	0.696970	0.424470
C471	C47	0.124230	0.700620	0.683670
C481	C48	0.035640	0.774210	0.509370
Cd121	Cd12	0.870710	0.682880	0.364430
N1001	N100	0.149070	0.765680	0.496070
H601	H60	0.184930	0.779970	0.440970
N1011	N101	0.078520	0.640590	0.742470
N1021	N102	0.080480	0.662740	0.852370
N1031	N103	0.124930	0.734130	0.856470
N1041	N104	0.154250	0.760450	0.750670
N1051	N105	0.063520	0.819700	0.599670
N1061	N106	0.009120	0.831970	0.636770
N1071	N107	0.950620	0.794900	0.571770
N1081	N108	0.965970	0.757600	0.489770
C491	C49	0.964600	0.775700	0.891900
H611	H61	0.010100	0.784300	0.855000
H621	H62	0.962700	0.821200	0.887000
C501	C50	0.916800	0.663100	0.772100
H631	H63	0.891800	0.649500	0.697900
H641	H64	0.969700	0.686300	0.757800
C511	C51	0.966050	0.756950	0.017000
C521	C52	0.892460	0.594770	0.842700
Cd131	Cd13	0.983780	0.521160	0.697760
N1091	N109	0.900990	0.716730	0.829400
H651	H65	0.886700	0.738300	0.774300
N1101	N110	0.026080	0.771270	0.075800
N1111	N111	0.003930	0.751080	0.185700
N1121	N112	0.932540	0.724140	0.189800
N1131	N113	0.906220	0.727140	0.084000
N1141	N114	0.846970	0.577160	0.933000
N1151	N115	0.834700	0.510490	0.970100
N1161	N116	0.871770	0.489060	0.905100
N1171	N117	0.909070	0.541710	0.823100
C531	C53	0.631270	0.109030	0.225230
H661	H66	0.676770	0.117630	0.188330
H671	H67	0.629370	0.154530	0.220330
C541	C54	0.583470	0.996430	0.105430
H681	H68	0.558470	0.982830	0.031230
H691	H69	0.636370	0.019630	0.091130
C551	C55	0.632720	0.090280	0.350330
C561	C56	0.559130	0.928100	0.176030
Cd141	Cd14	0.650450	0.854490	0.031090
N1181	N118	0.567660	0.050060	0.162730
H701	H70	0.553370	0.071630	0.107630
N1191	N119	0.692750	0.104600	0.409130
N1201	N120	0.670600	0.084410	0.519030
N1211	N121	0.599210	0.057470	0.523130
N1221	N122	0.572890	0.060470	0.417330
N1231	N123	0.513640	0.910490	0.266330
N1241	N124	0.501370	0.843820	0.303430
N1251	N125	0.538440	0.822390	0.238430
N1261	N126	0.575740	0.875040	0.156430
C571	C57	0.297930	0.442370	0.558570
H711	H71	0.343430	0.450970	0.521670
H721	H72	0.296030	0.487870	0.553670
C581	C58	0.250130	0.329770	0.438770
H731	H73	0.225130	0.316170	0.364570
H741	H74	0.303030	0.352970	0.424470
C591	C59	0.299380	0.423620	0.683670
C601	C60	0.225790	0.261440	0.509370
Cd151	Cd15	0.317120	0.187820	0.364430
N1271	N127	0.234320	0.383400	0.496070
H751	H75	0.220030	0.404970	0.440970
N1281	N128	0.359410	0.437940	0.742470
N1291	N129	0.337260	0.417750	0.852370
N1301	N130	0.265870	0.390810	0.856470
N1311	N131	0.239550	0.393810	0.750670
N1321	N132	0.180300	0.243830	0.599670
N1331	N133	0.168030	0.177160	0.636770
N1341	N134	0.205100	0.155730	0.571770
N1351	N135	0.242400	0.208380	0.489770
C611	C61	0.224300	0.188900	0.891900
H761	H76	0.215700	0.225800	0.855000
H771	H77	0.178800	0.141500	0.887000
C621	C62	0.336900	0.253700	0.772100
H781	H78	0.350500	0.242300	0.697900
H791	H79	0.313700	0.283400	0.757800
C631	C63	0.243050	0.209100	0.017000
C641	C64	0.405230	0.297690	0.842700
Cd161	Cd16	0.478840	0.462630	0.697760
N1361	N136	0.283270	0.184260	0.829400
H801	H80	0.261700	0.148400	0.774300
N1371	N137	0.228730	0.254810	0.075800
N1381	N138	0.248920	0.252850	0.185700
N1391	N139	0.275860	0.208400	0.189800
N1401	N140	0.272860	0.179080	0.084000
N1411	N141	0.422840	0.269810	0.933000
N1421	N142	0.489510	0.324210	0.970100
N1431	N143	0.510940	0.382710	0.905100
N1441	N144	0.458290	0.367360	0.823100
C651	C65	0.890970	0.522230	0.225230
H811	H81	0.882370	0.559130	0.188330
H821	H82	0.845470	0.474830	0.220330
C661	C66	0.003570	0.587030	0.105430
H831	H83	0.017170	0.575630	0.031230
H841	H84	0.980370	0.616730	0.091130
C671	C67	0.909720	0.542430	0.350330
C681	C68	0.071900	0.631020	0.176030
Cd171	Cd17	0.145510	0.795960	0.031090
N1451	N145	0.949940	0.517590	0.162730
H851	H85	0.928370	0.481730	0.107630
N1461	N146	0.895400	0.588140	0.409130
N1471	N147	0.915590	0.586180	0.519030
N1481	N148	0.942530	0.541730	0.523130
N1491	N149	0.939530	0.512410	0.417330
N1501	N150	0.089510	0.603140	0.266330
N1511	N151	0.156180	0.657540	0.303430
N1521	N152	0.177610	0.716040	0.238430
N1531	N153	0.124960	0.700690	0.156430
C691	C69	0.557630	0.855570	0.558570
H861	H86	0.549030	0.892470	0.521670
H871	H87	0.512130	0.808170	0.553670
C701	C70	0.670230	0.920370	0.438770
H881	H88	0.683830	0.908970	0.364570
H891	H89	0.647030	0.950070	0.424470
C711	C71	0.576380	0.875770	0.683670
C721	C72	0.738560	0.964360	0.509370
Cd181	Cd18	0.812180	0.129290	0.364430
N1541	N154	0.616600	0.850930	0.496070
H901	H90	0.595030	0.815070	0.440970
N1551	N155	0.562060	0.921480	0.742470
N1561	N156	0.582250	0.919520	0.852370
N1571	N157	0.609190	0.875070	0.856470
N1581	N158	0.606190	0.845750	0.750670
N1591	N159	0.756170	0.936480	0.599670
N1601	N160	0.822840	0.990880	0.636770
N1611	N161	0.844270	0.049380	0.571770
N1621	N162	0.791620	0.034030	0.489770
