data_CUNFOH_freeONLY_PM
_symmetry_space_group_name_H-M	'P1'
_cell_length_a	15.472100
_cell_length_b	15.472100
_cell_length_c	15.472100
_cell_angle_alpha	67.846800
_cell_angle_beta	75.769000
_cell_angle_gamma	112.153000
_symmetry_Int_Tables_number 1

loop_
_symmetry_equiv_pos_as_xyz
'x,y,z'

loop_
_atom_site_label
_atom_site_type_symbol
_atom_site_fract_x
_atom_site_fract_y
_atom_site_fract_z
Cu11	Cu1	0.744820	0.192180	0.413980
Cu21	Cu2	0.725260	0.318570	0.199730
Cu31	Cu3	0.893840	0.307820	0.447360
Cu41	Cu4	0.981700	0.181430	0.593310
Cu51	Cu5	0.052640	0.658800	0.755180
Cu61	Cu6	0.906690	0.424990	0.774740
Cu71	Cu7	0.086020	0.841200	0.606160
Cu81	Cu8	0.300270	0.075010	0.518300
Cu91	Cu9	0.255180	0.807820	0.586020
Cu101	Cu10	0.274740	0.681430	0.800270
Cu111	Cu11	0.106160	0.692180	0.552640
Cu121	Cu12	0.018300	0.818570	0.406690
Cu131	Cu13	0.947360	0.341200	0.244820
Cu141	Cu14	0.093310	0.575010	0.225260
Cu151	Cu15	0.913980	0.158800	0.393840
Cu161	Cu16	0.699730	0.924990	0.481700
H11	H1	0.531400	0.292800	0.205400
H21	H2	0.440000	0.281000	0.289800
H31	H3	0.422400	0.182900	0.273300
H41	H4	0.538300	0.051700	0.618400
H51	H5	0.423700	0.979600	0.638500
H61	H6	0.001800	0.207200	0.761400
H71	H7	0.929200	0.219000	0.841000
H81	H8	0.043800	0.317100	0.760500
H91	H9	0.829900	0.448300	0.513400
H101	H10	0.881900	0.520400	0.555900
H111	H11	0.738600	0.236800	0.968600
H121	H12	0.659000	0.229800	0.060000
H131	H13	0.739500	0.195700	0.077600
H141	H14	0.986600	0.656700	0.961700
H151	H15	0.944100	0.562200	0.076300
H161	H16	0.294600	0.263200	0.498200
H171	H17	0.210200	0.270200	0.570800
H181	H18	0.226700	0.304300	0.456200
H191	H19	0.881600	0.843300	0.670100
H201	H20	0.861500	0.937800	0.618100
H211	H21	0.468600	0.707200	0.794600
H221	H22	0.560000	0.719000	0.710200
H231	H23	0.577600	0.817100	0.726700
H241	H24	0.461700	0.948300	0.381600
H251	H25	0.576300	0.020400	0.361500
H261	H26	0.998200	0.792800	0.238600
H271	H27	0.070800	0.781000	0.159000
H281	H28	0.956200	0.682900	0.239500
H291	H29	0.170100	0.551700	0.486600
H301	H30	0.118100	0.479600	0.444100
H311	H31	0.261400	0.763200	0.031400
H321	H32	0.341000	0.770200	0.940000
H331	H33	0.260500	0.804300	0.922400
H341	H34	0.013400	0.343300	0.038300
H351	H35	0.055900	0.437800	0.923700
H361	H36	0.705400	0.736800	0.501800
H371	H37	0.789800	0.729800	0.429200
H381	H38	0.773300	0.695700	0.543800
H391	H39	0.118400	0.156700	0.329900
H401	H40	0.138500	0.062200	0.381900
C11	C1	0.507500	0.200900	0.354400
C21	C2	0.472100	0.243300	0.273400
C31	C3	0.510600	0.119600	0.496800
C41	C4	0.479300	0.053000	0.609900
C51	C5	0.944700	0.299100	0.693400
C61	C6	0.983300	0.256700	0.771200
C71	C7	0.883600	0.380400	0.609000
C81	C8	0.837100	0.447000	0.573700
C91	C9	0.806600	0.361900	0.992500
C101	C10	0.728800	0.245500	0.027900
C111	C11	0.891000	0.507400	0.989400
C121	C12	0.926300	0.589200	0.020700
C131	C13	0.145600	0.138100	0.555300
C141	C14	0.226600	0.254500	0.516700
C151	C15	0.003200	0.992600	0.616400
C161	C16	0.890100	0.910800	0.662900
C171	C17	0.492500	0.799100	0.645600
C181	C18	0.527900	0.756700	0.726600
C191	C19	0.489400	0.880400	0.503200
C201	C20	0.520700	0.947000	0.390100
C211	C21	0.055300	0.700900	0.306600
C221	C22	0.016700	0.743300	0.228800
C231	C23	0.116400	0.619600	0.391000
C241	C24	0.162900	0.553000	0.426300
C251	C25	0.193400	0.638100	0.007500
C261	C26	0.271200	0.754500	0.972100
C271	C27	0.109000	0.492600	0.010600
C281	C28	0.073700	0.410800	0.979300
C291	C29	0.854400	0.861900	0.444700
C301	C30	0.773400	0.745500	0.483300
C311	C31	0.996800	0.007400	0.383600
C321	C32	0.109900	0.089200	0.337100
I11	I1	0.754540	0.078000	0.579740
I21	I2	0.842260	0.422000	0.323460
I31	I3	0.176540	0.834280	0.745460
I41	I4	0.920260	0.665720	0.657740
I51	I5	0.245460	0.922000	0.420260
I61	I6	0.157740	0.578000	0.676540
I71	I7	0.823460	0.165720	0.254540
I81	I8	0.079740	0.334280	0.342260
N11	N1	0.608000	0.173600	0.422200
N21	N2	0.605400	0.226200	0.330200
N31	N3	0.446000	0.134100	0.456700
N41	N4	0.904200	0.326400	0.565600
N51	N5	0.943600	0.273800	0.620800
N61	N6	0.909200	0.365900	0.688100
N71	N7	0.934400	0.530200	0.892000
N81	N8	0.879200	0.435600	0.894600
N91	N9	0.811900	0.402700	0.054000
N101	N10	0.077800	0.969800	0.595800
N111	N11	0.169800	0.064400	0.556400
N121	N12	0.043300	0.097300	0.590800
N131	N13	0.392000	0.826400	0.577800
N141	N14	0.394600	0.773800	0.669800
N151	N15	0.554000	0.865900	0.543300
N161	N16	0.095800	0.673600	0.434400
N171	N17	0.056400	0.726200	0.379200
N181	N18	0.090800	0.634100	0.311900
N191	N19	0.065600	0.469800	0.108000
N201	N20	0.120800	0.564400	0.105400
N211	N21	0.188100	0.597300	0.946000
N221	N22	0.922200	0.030200	0.404200
N231	N23	0.830200	0.935600	0.443600
N241	N24	0.956700	0.902700	0.409200
