data_CUNFOH01_freeONLY_PM
_symmetry_space_group_name_H-M	'P1'
_cell_length_a	15.419100
_cell_length_b	15.419100
_cell_length_c	15.419100
_cell_angle_alpha	68.769100
_cell_angle_beta	73.993500
_cell_angle_gamma	111.231000
_symmetry_Int_Tables_number 1

loop_
_symmetry_equiv_pos_as_xyz
'x,y,z'

loop_
_atom_site_label
_atom_site_type_symbol
_atom_site_fract_x
_atom_site_fract_y
_atom_site_fract_z
Cu11	Cu1	0.552550	0.806950	0.108540
Cu21	Cu2	0.225980	0.931560	0.097520
Cu31	Cu3	0.584510	0.693050	0.254400
Cu41	Cu4	0.470920	0.568440	0.705580
Cu51	Cu5	0.245600	0.161090	0.947450
Cu61	Cu6	0.794420	0.823500	0.274020
Cu71	Cu7	0.391460	0.338910	0.915490
Cu81	Cu8	0.402480	0.676500	0.029080
Cu91	Cu9	0.447450	0.193050	0.891460
Cu101	Cu10	0.774020	0.068440	0.902480
Cu111	Cu11	0.415490	0.306950	0.745600
Cu121	Cu12	0.529080	0.431560	0.294420
Cu131	Cu13	0.754400	0.838910	0.052550
Cu141	Cu14	0.205580	0.176500	0.725980
Cu151	Cu15	0.608540	0.661090	0.084510
Cu161	Cu16	0.597520	0.323500	0.970920
H11	H1	0.232500	0.704100	0.011800
H21	H2	0.243800	0.820700	0.959100
H31	H3	0.156800	0.730200	0.078600
H41	H4	0.462600	0.928500	0.203300
H51	H5	0.372800	0.957600	0.204600
H61	H6	0.485500	0.031200	0.102300
H71	H7	0.784100	0.795900	0.471600
H81	H8	0.720200	0.679300	0.576900
H91	H9	0.691200	0.769800	0.573400
H101	H10	0.368200	0.571500	0.465900
H111	H11	0.337800	0.542400	0.584800
H121	H12	0.366500	0.468800	0.545700
H131	H13	0.028400	0.744300	0.267500
H141	H14	0.923100	0.702900	0.256200
H151	H15	0.926600	0.735400	0.343200
H161	H16	0.034100	0.165900	0.037400
H171	H17	0.915200	0.077400	0.127200
H181	H18	0.954300	0.087800	0.014500
H191	H19	0.488200	0.755700	0.715900
H201	H20	0.540900	0.797100	0.779800
H211	H21	0.421400	0.764600	0.808800
H221	H22	0.296700	0.334100	0.131800
H231	H23	0.295400	0.422600	0.162200
H241	H24	0.397700	0.412200	0.133500
H251	H25	0.767500	0.295900	0.988200
H261	H26	0.756200	0.179300	0.040900
H271	H27	0.843200	0.269800	0.921400
H281	H28	0.537400	0.071500	0.796700
H291	H29	0.627200	0.042400	0.795400
H301	H30	0.514500	0.968800	0.897700
H311	H31	0.215900	0.204100	0.528400
H321	H32	0.279800	0.320700	0.423100
H331	H33	0.308800	0.230200	0.426600
H341	H34	0.631800	0.428500	0.534100
H351	H35	0.662200	0.457600	0.415200
H361	H36	0.633500	0.531200	0.454300
H371	H37	0.971600	0.255700	0.732500
H381	H38	0.076900	0.297100	0.743800
H391	H39	0.073400	0.264600	0.656800
H401	H40	0.965900	0.834100	0.962600
H411	H41	0.084800	0.922600	0.872800
H421	H42	0.045700	0.912200	0.985500
H431	H43	0.511800	0.244300	0.284100
H441	H44	0.459100	0.202900	0.220200
H451	H45	0.578600	0.235400	0.191200
H461	H46	0.703300	0.665900	0.868200
H471	H47	0.704600	0.577400	0.837800
H481	H48	0.602300	0.587800	0.866500
C11	C1	0.393800	0.886800	0.118000
C21	C2	0.306400	0.801700	0.061300
C31	C3	0.228100	0.760600	0.024500
C41	C4	0.432000	0.957100	0.160700
C51	C5	0.495200	0.613200	0.493000
C61	C6	0.637000	0.698300	0.495300
C71	C7	0.714900	0.739400	0.532500
C81	C8	0.382200	0.542900	0.525100
C91	C9	0.007000	0.011800	0.106200
C101	C10	0.004700	0.867700	0.193600
C111	C11	0.967500	0.752600	0.271900
C121	C12	0.974900	0.092700	0.068000
C131	C13	0.382000	0.488200	0.004800
C141	C14	0.438700	0.632300	0.863000
C151	C15	0.475500	0.747400	0.785100
C161	C16	0.339300	0.407300	0.117800
C171	C17	0.606200	0.113200	0.882000
C181	C18	0.693600	0.198300	0.938700
C191	C19	0.771900	0.239400	0.975500
C201	C20	0.568000	0.042900	0.839300
C211	C21	0.504800	0.386800	0.507000
C221	C22	0.363000	0.301700	0.504700
C231	C23	0.285100	0.260600	0.467500
C241	C24	0.617800	0.457100	0.474900
C251	C25	0.993000	0.988200	0.893800
C261	C26	0.995300	0.132300	0.806400
C271	C27	0.032500	0.247400	0.728100
C281	C28	0.025100	0.907300	0.932000
C291	C29	0.618000	0.511800	0.995200
C301	C30	0.561300	0.367700	0.137000
C311	C31	0.524500	0.252600	0.214900
C321	C32	0.660700	0.592700	0.882200
I11	I1	0.419560	0.579100	0.245640
I21	I2	0.675260	0.920900	0.159540
I31	I3	0.340460	0.165200	0.080440
I41	I4	0.254360	0.334800	0.824740
I51	I5	0.580440	0.420900	0.754360
I61	I6	0.324740	0.079100	0.840460
I71	I7	0.659540	0.834800	0.919560
I81	I8	0.745640	0.665200	0.175260
N11	N1	0.434300	0.827600	0.100900
N21	N2	0.314200	0.873100	0.093500
N31	N3	0.378200	0.773500	0.063300
N41	N4	0.571500	0.672400	0.393300
N51	N5	0.533400	0.626900	0.558900
N61	N6	0.663200	0.726500	0.395300
N71	N7	0.106700	0.035200	0.065700
N81	N8	0.941100	0.907700	0.185800
N91	N9	0.104700	0.941500	0.121800
N101	N10	0.399100	0.464800	0.928500
N111	N11	0.406500	0.592300	0.966600
N121	N12	0.436700	0.558500	0.836800
N131	N13	0.565700	0.172400	0.899100
N141	N14	0.685800	0.126900	0.906500
N151	N15	0.621800	0.226500	0.936700
N161	N16	0.428500	0.327600	0.606700
N171	N17	0.466600	0.373100	0.441100
N181	N18	0.336800	0.273500	0.604700
N191	N19	0.893300	0.964800	0.934300
N201	N20	0.058900	0.092300	0.814200
N211	N21	0.895300	0.058500	0.878200
N221	N22	0.600900	0.535200	0.071500
N231	N23	0.593500	0.407700	0.033400
N241	N24	0.563300	0.441500	0.163200
