data_CUNQOT_freeONLY_PM
_symmetry_space_group_name_H-M	'P1'
_cell_length_a	5.566700
_cell_length_b	15.629700
_cell_length_c	9.540800
_cell_angle_alpha	90.000000
_cell_angle_beta	91.803900
_cell_angle_gamma	90.000000
_symmetry_Int_Tables_number 1

loop_
_symmetry_equiv_pos_as_xyz
'x,y,z'

loop_
_atom_site_label
_atom_site_type_symbol
_atom_site_fract_x
_atom_site_fract_y
_atom_site_fract_z
Mn11	Mn1	0.696140	0.668450	0.561260
P11	P1	0.185030	0.698310	0.353750
O11	O1	0.436200	0.721780	0.406200
O21	O2	0.989800	0.722220	0.452800
O31	O3	0.135600	0.734500	0.207800
O41	O4	0.182800	0.596870	0.335900
H11	H1	0.054500	0.577800	0.362000
O51	O5	0.743900	0.552170	0.428700
O61	O6	0.576100	0.426810	0.370200
O71	O7	0.977400	0.625530	0.730300
H21	H2	0.017600	0.668000	0.787900
H31	H3	0.110500	0.607500	0.691400
C11	C1	0.592600	0.493750	0.441600
Mn21	Mn2	0.803860	0.168450	0.938740
P21	P2	0.314970	0.198310	0.146250
O81	O8	0.063800	0.221780	0.093800
O91	O9	0.510200	0.222220	0.047200
O101	O10	0.364400	0.234500	0.292200
O111	O11	0.317200	0.096870	0.164100
H41	H4	0.445500	0.077800	0.138000
O121	O12	0.756100	0.052170	0.071300
O131	O13	0.923900	0.926810	0.129800
O141	O14	0.522600	0.125530	0.769700
H51	H5	0.482400	0.168000	0.712100
H61	H6	0.389500	0.107500	0.808600
C21	C2	0.907400	0.993750	0.058400
Mn31	Mn3	0.303860	0.331550	0.438740
P31	P3	0.814970	0.301690	0.646250
O151	O15	0.563800	0.278220	0.593800
O161	O16	0.010200	0.277780	0.547200
O171	O17	0.864400	0.265500	0.792200
O181	O18	0.817200	0.403130	0.664100
H71	H7	0.945500	0.422200	0.638000
O191	O19	0.256100	0.447830	0.571300
O201	O20	0.423900	0.573190	0.629800
O211	O21	0.022600	0.374470	0.269700
H81	H8	0.982400	0.332000	0.212100
H91	H9	0.889500	0.392500	0.308600
C31	C3	0.407400	0.506250	0.558400
Mn41	Mn4	0.196140	0.831550	0.061260
P41	P4	0.685030	0.801690	0.853750
O221	O22	0.936200	0.778220	0.906200
O231	O23	0.489800	0.777780	0.952800
O241	O24	0.635600	0.765500	0.707800
O251	O25	0.682800	0.903130	0.835900
H101	H10	0.554500	0.922200	0.862000
O261	O26	0.243900	0.947830	0.928700
O271	O27	0.076100	0.073190	0.870200
O281	O28	0.477400	0.874470	0.230300
H111	H11	0.517600	0.832000	0.287900
H121	H12	0.610500	0.892500	0.191400
C41	C4	0.092600	0.006250	0.941600
