data_CUQROX_freeONLY_PM
_symmetry_space_group_name_H-M	'P1'
_cell_length_a	38.503000
_cell_length_b	9.451100
_cell_length_c	9.802300
_cell_angle_alpha	90.000000
_cell_angle_beta	100.578000
_cell_angle_gamma	90.000000
_symmetry_Int_Tables_number 1

loop_
_symmetry_equiv_pos_as_xyz
'x,y,z'

loop_
_atom_site_label
_atom_site_type_symbol
_atom_site_fract_x
_atom_site_fract_y
_atom_site_fract_z
Zn11	Zn1	0.214000	0.188060	0.090780
N11	N1	0.248430	0.345400	0.153600
N21	N2	0.276300	0.384000	0.091200
N31	N3	0.276210	0.526100	0.270200
O11	O1	0.164800	0.226600	0.091500
O21	O2	0.167000	0.394000	0.949200
C11	C1	0.248910	0.431000	0.258300
C21	C2	0.292300	0.492200	0.164400
C31	C3	0.223200	0.422500	0.356200
H11	H1	0.200700	0.390300	0.306800
H21	H2	0.220500	0.514400	0.394700
H31	H3	0.231900	0.357400	0.429700
C41	C4	0.323400	0.563300	0.126400
H41	H4	0.334100	0.502300	0.067600
H51	H5	0.340200	0.584200	0.209000
H61	H6	0.316100	0.649700	0.078000
C51	C5	0.151000	0.325100	0.016600
C61	C6	0.112400	0.358400	0.018800
C71	C7	0.096000	0.462200	0.934900
H71	H7	0.108000	0.508700	0.873700
C81	C8	0.094300	0.281500	0.097600
H81	H8	0.105300	0.206800	0.150400
C91	C9	0.058900	0.313400	0.100600
H91	H9	0.046600	0.260800	0.156200
C101	C10	0.060900	0.499300	0.941000
H101	H10	0.050100	0.575800	0.890600
C111	C11	0.042900	0.420100	0.023000
N41	N4	0.006500	0.446600	0.031600
Zn21	Zn2	0.714000	0.688060	0.090780
N51	N5	0.748430	0.845400	0.153600
N61	N6	0.776300	0.884000	0.091200
N71	N7	0.776210	0.026100	0.270200
O31	O3	0.664800	0.726600	0.091500
O41	O4	0.667000	0.894000	0.949200
C121	C12	0.748910	0.931000	0.258300
C131	C13	0.792300	0.992200	0.164400
C141	C14	0.723200	0.922500	0.356200
H111	H11	0.700700	0.890300	0.306800
H121	H12	0.720500	0.014400	0.394700
H131	H13	0.731900	0.857400	0.429700
C151	C15	0.823400	0.063300	0.126400
H141	H14	0.834100	0.002300	0.067600
H151	H15	0.840200	0.084200	0.209000
H161	H16	0.816100	0.149700	0.078000
C161	C16	0.651000	0.825100	0.016600
C171	C17	0.612400	0.858400	0.018800
C181	C18	0.596000	0.962200	0.934900
H171	H17	0.608000	0.008700	0.873700
C191	C19	0.594300	0.781500	0.097600
H181	H18	0.605300	0.706800	0.150400
C201	C20	0.558900	0.813400	0.100600
H191	H19	0.546600	0.760800	0.156200
C211	C21	0.560900	0.999300	0.941000
H201	H20	0.550100	0.075800	0.890600
C221	C22	0.542900	0.920100	0.023000
N81	N8	0.506500	0.946600	0.031600
Zn31	Zn3	0.786000	0.188060	0.409220
N91	N9	0.751570	0.345400	0.346400
N101	N10	0.723700	0.384000	0.408800
N111	N11	0.723790	0.526100	0.229800
O51	O5	0.835200	0.226600	0.408500
O61	O6	0.833000	0.394000	0.550800
C231	C23	0.751090	0.431000	0.241700
C241	C24	0.707700	0.492200	0.335600
C251	C25	0.776800	0.422500	0.143800
H211	H21	0.799300	0.390300	0.193200
H221	H22	0.779500	0.514400	0.105300
H231	H23	0.768100	0.357400	0.070300
C261	C26	0.676600	0.563300	0.373600
H241	H24	0.665900	0.502300	0.432400
H251	H25	0.659800	0.584200	0.291000
H261	H26	0.683900	0.649700	0.422000
C271	C27	0.849000	0.325100	0.483400
C281	C28	0.887600	0.358400	0.481200
C291	C29	0.904000	0.462200	0.565100
H271	H27	0.892000	0.508700	0.626300
C301	C30	0.905700	0.281500	0.402400
H281	H28	0.894700	0.206800	0.349600
C311	C31	0.941100	0.313400	0.399400
H291	H29	0.953400	0.260800	0.343800
C321	C32	0.939100	0.499300	0.559000
H301	H30	0.949900	0.575800	0.609400
C331	C33	0.957100	0.420100	0.477000
N121	N12	0.993500	0.446600	0.468400
Zn41	Zn4	0.286000	0.688060	0.409220
N131	N13	0.251570	0.845400	0.346400
N141	N14	0.223700	0.884000	0.408800
N151	N15	0.223790	0.026100	0.229800
O71	O7	0.335200	0.726600	0.408500
O81	O8	0.333000	0.894000	0.550800
C341	C34	0.251090	0.931000	0.241700
C351	C35	0.207700	0.992200	0.335600
C361	C36	0.276800	0.922500	0.143800
H311	H31	0.299300	0.890300	0.193200
H321	H32	0.279500	0.014400	0.105300
H331	H33	0.268100	0.857400	0.070300
C371	C37	0.176600	0.063300	0.373600
H341	H34	0.165900	0.002300	0.432400
H351	H35	0.159800	0.084200	0.291000
H361	H36	0.183900	0.149700	0.422000
C381	C38	0.349000	0.825100	0.483400
C391	C39	0.387600	0.858400	0.481200
C401	C40	0.404000	0.962200	0.565100
H371	H37	0.392000	0.008700	0.626300
C411	C41	0.405700	0.781500	0.402400
H381	H38	0.394700	0.706800	0.349600
C421	C42	0.441100	0.813400	0.399400
H391	H39	0.453400	0.760800	0.343800
C431	C43	0.439100	0.999300	0.559000
H401	H40	0.449900	0.075800	0.609400
C441	C44	0.457100	0.920100	0.477000
N161	N16	0.493500	0.946600	0.468400
Zn51	Zn5	0.786000	0.811940	0.909220
N171	N17	0.751570	0.654600	0.846400
N181	N18	0.723700	0.616000	0.908800
N191	N19	0.723790	0.473900	0.729800
O91	O9	0.835200	0.773400	0.908500
O101	O10	0.833000	0.606000	0.050800
C451	C45	0.751090	0.569000	0.741700
C461	C46	0.707700	0.507800	0.835600
C471	C47	0.776800	0.577500	0.643800
H411	H41	0.799300	0.609700	0.693200
H421	H42	0.779500	0.485600	0.605300
H431	H43	0.768100	0.642600	0.570300
C481	C48	0.676600	0.436700	0.873600
H441	H44	0.665900	0.497700	0.932400
H451	H45	0.659800	0.415800	0.791000
H461	H46	0.683900	0.350300	0.922000
C491	C49	0.849000	0.674900	0.983400
C501	C50	0.887600	0.641600	0.981200
C511	C51	0.904000	0.537800	0.065100
H471	H47	0.892000	0.491300	0.126300
C521	C52	0.905700	0.718500	0.902400
H481	H48	0.894700	0.793200	0.849600
C531	C53	0.941100	0.686600	0.899400
H491	H49	0.953400	0.739200	0.843800
C541	C54	0.939100	0.500700	0.059000
H501	H50	0.949900	0.424200	0.109400
C551	C55	0.957100	0.579900	0.977000
N201	N20	0.993500	0.553400	0.968400
Zn61	Zn6	0.286000	0.311940	0.909220
N211	N21	0.251570	0.154600	0.846400
N221	N22	0.223700	0.116000	0.908800
N231	N23	0.223790	0.973900	0.729800
O111	O11	0.335200	0.273400	0.908500
O121	O12	0.333000	0.106000	0.050800
C561	C56	0.251090	0.069000	0.741700
C571	C57	0.207700	0.007800	0.835600
C581	C58	0.276800	0.077500	0.643800
H511	H51	0.299300	0.109700	0.693200
H521	H52	0.279500	0.985600	0.605300
H531	H53	0.268100	0.142600	0.570300
C591	C59	0.176600	0.936700	0.873600
H541	H54	0.165900	0.997700	0.932400
H551	H55	0.159800	0.915800	0.791000
H561	H56	0.183900	0.850300	0.922000
C601	C60	0.349000	0.174900	0.983400
C611	C61	0.387600	0.141600	0.981200
C621	C62	0.404000	0.037800	0.065100
H571	H57	0.392000	0.991300	0.126300
C631	C63	0.405700	0.218500	0.902400
H581	H58	0.394700	0.293200	0.849600
C641	C64	0.441100	0.186600	0.899400
H591	H59	0.453400	0.239200	0.843800
C651	C65	0.439100	0.000700	0.059000
H601	H60	0.449900	0.924200	0.109400
C661	C66	0.457100	0.079900	0.977000
N241	N24	0.493500	0.053400	0.968400
Zn71	Zn7	0.214000	0.811940	0.590780
N251	N25	0.248430	0.654600	0.653600
N261	N26	0.276300	0.616000	0.591200
N271	N27	0.276210	0.473900	0.770200
O131	O13	0.164800	0.773400	0.591500
O141	O14	0.167000	0.606000	0.449200
C671	C67	0.248910	0.569000	0.758300
C681	C68	0.292300	0.507800	0.664400
C691	C69	0.223200	0.577500	0.856200
H611	H61	0.200700	0.609700	0.806800
H621	H62	0.220500	0.485600	0.894700
H631	H63	0.231900	0.642600	0.929700
C701	C70	0.323400	0.436700	0.626400
H641	H64	0.334100	0.497700	0.567600
H651	H65	0.340200	0.415800	0.709000
H661	H66	0.316100	0.350300	0.578000
C711	C71	0.151000	0.674900	0.516600
C721	C72	0.112400	0.641600	0.518800
C731	C73	0.096000	0.537800	0.434900
H671	H67	0.108000	0.491300	0.373700
C741	C74	0.094300	0.718500	0.597600
H681	H68	0.105300	0.793200	0.650400
C751	C75	0.058900	0.686600	0.600600
H691	H69	0.046600	0.739200	0.656200
C761	C76	0.060900	0.500700	0.441000
H701	H70	0.050100	0.424200	0.390600
C771	C77	0.042900	0.579900	0.523000
N281	N28	0.006500	0.553400	0.531600
Zn81	Zn8	0.714000	0.311940	0.590780
N291	N29	0.748430	0.154600	0.653600
N301	N30	0.776300	0.116000	0.591200
N311	N31	0.776210	0.973900	0.770200
O151	O15	0.664800	0.273400	0.591500
O161	O16	0.667000	0.106000	0.449200
C781	C78	0.748910	0.069000	0.758300
C791	C79	0.792300	0.007800	0.664400
C801	C80	0.723200	0.077500	0.856200
H711	H71	0.700700	0.109700	0.806800
H721	H72	0.720500	0.985600	0.894700
H731	H73	0.731900	0.142600	0.929700
C811	C81	0.823400	0.936700	0.626400
H741	H74	0.834100	0.997700	0.567600
H751	H75	0.840200	0.915800	0.709000
H761	H76	0.816100	0.850300	0.578000
C821	C82	0.651000	0.174900	0.516600
C831	C83	0.612400	0.141600	0.518800
C841	C84	0.596000	0.037800	0.434900
H771	H77	0.608000	0.991300	0.373700
C851	C85	0.594300	0.218500	0.597600
H781	H78	0.605300	0.293200	0.650400
C861	C86	0.558900	0.186600	0.600600
H791	H79	0.546600	0.239200	0.656200
C871	C87	0.560900	0.000700	0.441000
H801	H80	0.550100	0.924200	0.390600
C881	C88	0.542900	0.079900	0.523000
N321	N32	0.506500	0.053400	0.531600
