data_CUQXUI_freeONLY_PM
_symmetry_space_group_name_H-M	'P1'
_cell_length_a	11.403000
_cell_length_b	14.682000
_cell_length_c	22.264000
_cell_angle_alpha	90.000000
_cell_angle_beta	91.000000
_cell_angle_gamma	90.000000
_symmetry_Int_Tables_number 1

loop_
_symmetry_equiv_pos_as_xyz
'x,y,z'

loop_
_atom_site_label
_atom_site_type_symbol
_atom_site_fract_x
_atom_site_fract_y
_atom_site_fract_z
Cu11	Cu1	0.389300	0.768830	0.698240
N11	N1	0.506700	0.794400	0.636400
N21	N2	0.499600	0.676400	0.735300
N31	N3	0.236500	0.245700	0.744400
N41	N4	0.282900	0.865300	0.659900
N51	N5	0.145300	0.940300	0.612900
N61	N6	0.565500	0.841600	0.548300
N71	N7	0.613900	0.559200	0.738800
N81	N8	0.380300	0.278000	0.681800
C11	C1	0.598000	0.585000	0.795100
H11	H1	0.632400	0.557900	0.828700
C21	C2	0.524000	0.660200	0.796400
H21	H2	0.496200	0.691700	0.829600
C31	C3	0.656700	0.853500	0.588300
H31	H3	0.729800	0.877800	0.579700
C41	C4	0.477000	0.814000	0.576900
H41	H4	0.402200	0.807200	0.560200
C51	C5	0.287300	0.307500	0.710900
H51	H5	0.260200	0.367100	0.707900
C61	C6	0.680000	0.479600	0.716700
H61	H6	0.713100	0.493800	0.677900
H71	H7	0.744400	0.466100	0.744400
C71	C7	0.505100	0.412700	0.662100
H81	H8	0.540500	0.445400	0.629100
H91	H9	0.444600	0.451300	0.678500
C81	C8	0.450000	0.328000	0.638100
H101	H10	0.510600	0.287800	0.623600
H111	H11	0.399200	0.343500	0.604100
C91	C9	0.545000	0.978000	0.483600
H121	H12	0.532300	0.993500	0.441600
H131	H13	0.618800	0.005200	0.496000
C101	C10	0.380000	0.184600	0.695800
H141	H14	0.430400	0.141200	0.680400
C111	C11	0.555700	0.617400	0.703200
H151	H15	0.555300	0.615900	0.661500
C121	C12	0.296000	0.168100	0.734300
H161	H16	0.279700	0.111900	0.751600
C131	C13	0.040000	0.959000	0.580700
H171	H17	0.988400	0.906700	0.583600
H181	H18	0.001100	0.010200	0.599400
C141	C14	0.059000	0.981000	0.513300
H191	H19	0.120800	0.026200	0.509400
H201	H20	0.082200	0.926500	0.491900
C151	C15	0.188000	0.857100	0.629200
H211	H21	0.152300	0.801900	0.619300
C161	C16	0.221000	0.999100	0.631700
H221	H22	0.215000	0.061500	0.625300
C171	C17	0.599000	0.395100	0.710700
H231	H23	0.561600	0.383200	0.748800
H241	H24	0.644800	0.342000	0.700200
C181	C18	0.623000	0.825000	0.640500
H251	H25	0.669300	0.824200	0.675300
C191	C19	0.558000	0.879000	0.487300
H261	H26	0.628800	0.862000	0.466300
H271	H27	0.492400	0.850800	0.466400
C201	C20	0.313100	0.958100	0.662400
H281	H28	0.378700	0.985200	0.680300
Cu21	Cu2	0.110700	0.268830	0.801760
N91	N9	0.993300	0.294400	0.863600
N101	N10	0.000400	0.176400	0.764700
N111	N11	0.263500	0.745700	0.755600
N121	N12	0.217100	0.365300	0.840100
N131	N13	0.354700	0.440300	0.887100
N141	N14	0.934500	0.341600	0.951700
N151	N15	0.886100	0.059200	0.761200
N161	N16	0.119700	0.778000	0.818200
C211	C21	0.902000	0.085000	0.704900
H291	H29	0.867600	0.057900	0.671300
C221	C22	0.976000	0.160200	0.703600
H301	H30	0.003800	0.191700	0.670400
C231	C23	0.843300	0.353500	0.911700
H311	H31	0.770200	0.377800	0.920300
C241	C24	0.023000	0.314000	0.923100
H321	H32	0.097800	0.307200	0.939800
C251	C25	0.212700	0.807500	0.789100
H331	H33	0.239800	0.867100	0.792100
C261	C26	0.820000	0.979600	0.783300
H341	H34	0.786900	0.993800	0.822100
H351	H35	0.755600	0.966100	0.755600
C271	C27	0.994900	0.912700	0.837900
H361	H36	0.959500	0.945400	0.870900
H371	H37	0.055400	0.951300	0.821500
C281	C28	0.050000	0.828000	0.861900
H381	H38	0.989400	0.787800	0.876400
H391	H39	0.100800	0.843500	0.895900
C291	C29	0.955000	0.478000	0.016400
H401	H40	0.967700	0.493500	0.058400
H411	H41	0.881200	0.505200	0.004000
C301	C30	0.120000	0.684600	0.804200
H421	H42	0.069600	0.641200	0.819600
C311	C31	0.944300	0.117400	0.796800
H431	H43	0.944700	0.115900	0.838500
C321	C32	0.204000	0.668100	0.765700
H441	H44	0.220300	0.611900	0.748400
C331	C33	0.460000	0.459000	0.919300
H451	H45	0.511600	0.406700	0.916400
H461	H46	0.498900	0.510200	0.900600
C341	C34	0.441000	0.481000	0.986700
H471	H47	0.379200	0.526200	0.990600
H481	H48	0.417800	0.426500	0.008100
C351	C35	0.312000	0.357100	0.870800
H491	H49	0.347700	0.301900	0.880700
C361	C36	0.279000	0.499100	0.868300
H501	H50	0.285000	0.561500	0.874700
C371	C37	0.901000	0.895100	0.789300
H511	H51	0.938400	0.883200	0.751200
H521	H52	0.855200	0.842000	0.799800
C381	C38	0.877000	0.325000	0.859500
H531	H53	0.830700	0.324200	0.824700
C391	C39	0.942000	0.379000	0.012700
H541	H54	0.871200	0.362000	0.033700
H551	H55	0.007600	0.350800	0.033600
C401	C40	0.186900	0.458100	0.837600
H561	H56	0.121300	0.485200	0.819700
Cu31	Cu3	0.610700	0.231170	0.301760
N171	N17	0.493300	0.205600	0.363600
N181	N18	0.500400	0.323600	0.264700
N191	N19	0.763500	0.754300	0.255600
N201	N20	0.717100	0.134700	0.340100
N211	N21	0.854700	0.059700	0.387100
N221	N22	0.434500	0.158400	0.451700
N231	N23	0.386100	0.440800	0.261200
N241	N24	0.619700	0.722000	0.318200
C411	C41	0.402000	0.415000	0.204900
H571	H57	0.367600	0.442100	0.171300
C421	C42	0.476000	0.339800	0.203600
H581	H58	0.503800	0.308300	0.170400
C431	C43	0.343300	0.146500	0.411700
H591	H59	0.270200	0.122200	0.420300
C441	C44	0.523000	0.186000	0.423100
H601	H60	0.597800	0.192800	0.439800
C451	C45	0.712700	0.692500	0.289100
H611	H61	0.739800	0.632900	0.292100
C461	C46	0.320000	0.520400	0.283300
H621	H62	0.286900	0.506200	0.322100
H631	H63	0.255600	0.533900	0.255600
C471	C47	0.494900	0.587300	0.337900
H641	H64	0.459500	0.554600	0.370900
H651	H65	0.555400	0.548700	0.321500
C481	C48	0.550000	0.672000	0.361900
H661	H66	0.489400	0.712200	0.376400
H671	H67	0.600800	0.656500	0.395900
C491	C49	0.455000	0.022000	0.516400
H681	H68	0.467700	0.006500	0.558400
H691	H69	0.381200	0.994800	0.504000
C501	C50	0.620000	0.815400	0.304200
H701	H70	0.569600	0.858800	0.319600
C511	C51	0.444300	0.382600	0.296800
H711	H71	0.444700	0.384100	0.338500
C521	C52	0.704000	0.831900	0.265700
H721	H72	0.720300	0.888100	0.248400
C531	C53	0.960000	0.041000	0.419300
H731	H73	0.011600	0.093300	0.416400
H741	H74	0.998900	0.989800	0.400600
C541	C54	0.941000	0.019000	0.486700
H751	H75	0.879200	0.973800	0.490600
H761	H76	0.917800	0.073500	0.508100
C551	C55	0.812000	0.142900	0.370800
H771	H77	0.847700	0.198100	0.380700
C561	C56	0.779000	0.000900	0.368300
H781	H78	0.785000	0.938500	0.374700
C571	C57	0.401000	0.604900	0.289300
H791	H79	0.438400	0.616800	0.251200
H801	H80	0.355200	0.658000	0.299800
C581	C58	0.377000	0.175000	0.359500
H811	H81	0.330700	0.175800	0.324700
C591	C59	0.442000	0.121000	0.512700
H821	H82	0.371200	0.138000	0.533700
H831	H83	0.507600	0.149200	0.533600
C601	C60	0.686900	0.041900	0.337600
H841	H84	0.621300	0.014800	0.319700
Cu41	Cu4	0.889300	0.731170	0.198240
N251	N25	0.006700	0.705600	0.136400
N261	N26	0.999600	0.823600	0.235300
N271	N27	0.736500	0.254300	0.244400
N281	N28	0.782900	0.634700	0.159900
N291	N29	0.645300	0.559700	0.112900
N301	N30	0.065500	0.658400	0.048300
N311	N31	0.113900	0.940800	0.238800
N321	N32	0.880300	0.222000	0.181800
C611	C61	0.098000	0.915000	0.295100
H851	H85	0.132400	0.942100	0.328700
C621	C62	0.024000	0.839800	0.296400
H861	H86	0.996200	0.808300	0.329600
C631	C63	0.156700	0.646500	0.088300
H871	H87	0.229800	0.622200	0.079700
C641	C64	0.977000	0.686000	0.076900
H881	H88	0.902200	0.692800	0.060200
C651	C65	0.787300	0.192500	0.210900
H891	H89	0.760200	0.132900	0.207900
C661	C66	0.180000	0.020400	0.216700
H901	H90	0.213100	0.006200	0.177900
H911	H91	0.244400	0.033900	0.244400
C671	C67	0.005100	0.087300	0.162100
H921	H92	0.040500	0.054600	0.129100
H931	H93	0.944600	0.048700	0.178500
C681	C68	0.950000	0.172000	0.138100
H941	H94	0.010600	0.212200	0.123600
H951	H95	0.899200	0.156500	0.104100
C691	C69	0.045000	0.522000	0.983600
H961	H96	0.032300	0.506500	0.941600
H971	H97	0.118800	0.494800	0.996000
C701	C70	0.880000	0.315400	0.195800
H981	H98	0.930400	0.358800	0.180400
C711	C71	0.055700	0.882600	0.203200
H991	H99	0.055300	0.884100	0.161500
C721	C72	0.796000	0.331900	0.234300
H1001	H100	0.779700	0.388100	0.251600
C731	C73	0.540000	0.541000	0.080700
H1011	H101	0.488400	0.593300	0.083600
H1021	H102	0.501100	0.489800	0.099400
C741	C74	0.559000	0.519000	0.013300
H1031	H103	0.620800	0.473800	0.009400
H1041	H104	0.582200	0.573500	0.991900
C751	C75	0.688000	0.642900	0.129200
H1051	H105	0.652300	0.698100	0.119300
C761	C76	0.721000	0.500900	0.131700
H1061	H106	0.715000	0.438500	0.125300
C771	C77	0.099000	0.104900	0.210700
H1071	H107	0.061600	0.116800	0.248800
H1081	H108	0.144800	0.158000	0.200200
C781	C78	0.123000	0.675000	0.140500
H1091	H109	0.169300	0.675800	0.175300
C791	C79	0.058000	0.621000	0.987300
H1101	H110	0.128800	0.638000	0.966300
H1111	H111	0.992400	0.649200	0.966400
C801	C80	0.813100	0.541900	0.162400
H1121	H112	0.878700	0.514800	0.180300
