data_CUSDIE_charged_PM
_symmetry_space_group_name_H-M	'P1'
_cell_length_a	18.218600
_cell_length_b	18.218600
_cell_length_c	18.218600
_cell_angle_alpha	109.471000
_cell_angle_beta	109.471000
_cell_angle_gamma	109.471000
_symmetry_Int_Tables_number 1

loop_
_symmetry_equiv_pos_as_xyz
'x,y,z'

loop_
_atom_site_label
_atom_site_type_symbol
_atom_site_fract_x
_atom_site_fract_y
_atom_site_fract_z
Cu11	Cu1	0.000000	0.515700	0.886760
Cu21	Cu2	0.628940	0.113240	0.113240
Cu31	Cu3	0.371060	0.484300	0.484300
Cu41	Cu4	0.000000	0.886760	0.515700
Cu51	Cu5	0.484300	0.371060	0.484300
Cu61	Cu6	0.515700	0.000000	0.886760
Cu71	Cu7	0.886760	0.000000	0.515700
Cu81	Cu8	0.113240	0.628940	0.113240
Cu91	Cu9	0.113240	0.113240	0.628940
Cu101	Cu10	0.515700	0.886760	0.000000
Cu111	Cu11	0.886760	0.515700	0.000000
Cu121	Cu12	0.484300	0.484300	0.371060
H11	H1	0.869400	0.179500	0.559700
H21	H2	0.946200	0.351800	0.613000
H31	H3	0.619800	0.309700	0.440300
H41	H4	0.738800	0.333200	0.387000
H51	H5	0.380200	0.820500	0.689900
H61	H6	0.261200	0.648200	0.594400
H71	H7	0.130600	0.690300	0.310100
H81	H8	0.053800	0.666800	0.405600
H91	H9	0.689900	0.380200	0.820500
H101	H10	0.594400	0.261200	0.648200
H111	H11	0.310100	0.130600	0.690300
H121	H12	0.405600	0.053800	0.666800
H131	H13	0.559700	0.869400	0.179500
H141	H14	0.613000	0.946200	0.351800
H151	H15	0.440300	0.619800	0.309700
H161	H16	0.387000	0.738800	0.333200
H171	H17	0.309700	0.440300	0.619800
H181	H18	0.333200	0.387000	0.738800
H191	H19	0.179500	0.559700	0.869400
H201	H20	0.351800	0.613000	0.946200
H211	H21	0.690300	0.310100	0.130600
H221	H22	0.666800	0.405600	0.053800
H231	H23	0.820500	0.689900	0.380200
H241	H24	0.648200	0.594400	0.261200
H251	H25	0.309700	0.619800	0.440300
H261	H26	0.333200	0.738800	0.387000
H271	H27	0.179500	0.869400	0.559700
H281	H28	0.351800	0.946200	0.613000
H291	H29	0.690300	0.130600	0.310100
H301	H30	0.666800	0.053800	0.405600
H311	H31	0.820500	0.380200	0.689900
H321	H32	0.648200	0.261200	0.594400
H331	H33	0.869400	0.559700	0.179500
H341	H34	0.946200	0.613000	0.351800
H351	H35	0.619800	0.440300	0.309700
H361	H36	0.738800	0.387000	0.333200
H371	H37	0.380200	0.689900	0.820500
H381	H38	0.261200	0.594400	0.648200
H391	H39	0.130600	0.310100	0.690300
H401	H40	0.053800	0.405600	0.666800
H411	H41	0.689900	0.820500	0.380200
H421	H42	0.594400	0.648200	0.261200
H431	H43	0.310100	0.690300	0.130600
H441	H44	0.405600	0.666800	0.053800
H451	H45	0.559700	0.179500	0.869400
H461	H46	0.613000	0.351800	0.946200
H471	H47	0.440300	0.309700	0.619800
H481	H48	0.387000	0.333200	0.738800
C11	C1	0.930000	0.192300	0.585100
C21	C2	0.607200	0.344900	0.414900
C31	C3	0.392800	0.807700	0.737700
C41	C4	0.070000	0.655100	0.262300
C51	C5	0.737700	0.392800	0.807700
C61	C6	0.262300	0.070000	0.655100
C71	C7	0.585100	0.930000	0.192300
C81	C8	0.414900	0.607200	0.344900
C91	C9	0.344900	0.414900	0.607200
C101	C10	0.192300	0.585100	0.930000
C111	C11	0.655100	0.262300	0.070000
C121	C12	0.807700	0.737700	0.392800
C131	C13	0.344900	0.607200	0.414900
C141	C14	0.192300	0.930000	0.585100
C151	C15	0.655100	0.070000	0.262300
C161	C16	0.807700	0.392800	0.737700
C171	C17	0.930000	0.585100	0.192300
C181	C18	0.607200	0.414900	0.344900
C191	C19	0.392800	0.737700	0.807700
C201	C20	0.070000	0.262300	0.655100
C211	C21	0.737700	0.807700	0.392800
C221	C22	0.262300	0.655100	0.070000
C231	C23	0.585100	0.192300	0.930000
C241	C24	0.414900	0.344900	0.607200
C251	C25	0.000000	0.359700	0.660100
C261	C26	0.000000	0.392800	0.748000
C271	C27	0.699600	0.339900	0.339900
C281	C28	0.644800	0.252000	0.252000
C291	C29	0.300400	0.640300	0.640300
C301	C30	0.355200	0.607200	0.607200
C311	C31	0.000000	0.660100	0.359700
C321	C32	0.000000	0.748000	0.392800
C331	C33	0.640300	0.300400	0.640300
C341	C34	0.607200	0.355200	0.607200
C351	C35	0.359700	0.000000	0.660100
C361	C36	0.392800	0.000000	0.748000
C371	C37	0.660100	0.000000	0.359700
C381	C38	0.748000	0.000000	0.392800
C391	C39	0.339900	0.699600	0.339900
C401	C40	0.252000	0.644800	0.252000
C411	C41	0.339900	0.339900	0.699600
C421	C42	0.252000	0.252000	0.644800
C431	C43	0.359700	0.660100	0.000000
C441	C44	0.392800	0.748000	0.000000
C451	C45	0.660100	0.359700	0.000000
C461	C46	0.748000	0.392800	0.000000
C471	C47	0.640300	0.640300	0.300400
C481	C48	0.607200	0.607200	0.355200
N11	N1	0.954000	0.131500	0.578100
N21	N2	0.553400	0.375900	0.421900
N31	N3	0.446600	0.868500	0.822500
N41	N4	0.046000	0.624100	0.177500
N51	N5	0.822500	0.446600	0.868500
N61	N6	0.177500	0.046000	0.624100
N71	N7	0.578100	0.954000	0.131500
N81	N8	0.421900	0.553400	0.375900
N91	N9	0.375900	0.421900	0.553400
N101	N10	0.131500	0.578100	0.954000
N111	N11	0.624100	0.177500	0.046000
N121	N12	0.868500	0.822500	0.446600
N131	N13	0.375900	0.553400	0.421900
N141	N14	0.131500	0.954000	0.578100
N151	N15	0.624100	0.046000	0.177500
N161	N16	0.868500	0.446600	0.822500
N171	N17	0.954000	0.578100	0.131500
N181	N18	0.553400	0.421900	0.375900
N191	N19	0.446600	0.822500	0.868500
N201	N20	0.046000	0.177500	0.624100
N211	N21	0.822500	0.868500	0.446600
N221	N22	0.177500	0.624100	0.046000
N231	N23	0.578100	0.131500	0.954000
N241	N24	0.421900	0.375900	0.553400
N251	N25	0.000000	0.273000	0.631200
N261	N26	0.641800	0.368800	0.368800
N271	N27	0.358200	0.727000	0.727000
N281	N28	0.000000	0.631200	0.273000
N291	N29	0.727000	0.358200	0.727000
N301	N30	0.273000	0.000000	0.631200
N311	N31	0.631200	0.000000	0.273000
N321	N32	0.368800	0.641800	0.368800
N331	N33	0.368800	0.368800	0.641800
N341	N34	0.273000	0.631200	0.000000
N351	N35	0.631200	0.273000	0.000000
N361	N36	0.727000	0.727000	0.358200
O11	O1	0.000000	0.352400	0.787400
O21	O2	0.000000	0.468100	0.774100
O31	O3	0.565000	0.212600	0.212600
O41	O4	0.694000	0.225900	0.225900
O51	O5	0.435000	0.647600	0.647600
O61	O6	0.306000	0.531900	0.531900
O71	O7	0.000000	0.787400	0.352400
O81	O8	0.000000	0.774100	0.468100
O91	O9	0.647600	0.435000	0.647600
O101	O10	0.531900	0.306000	0.531900
O111	O11	0.352400	0.000000	0.787400
O121	O12	0.468100	0.000000	0.774100
O131	O13	0.787400	0.000000	0.352400
O141	O14	0.774100	0.000000	0.468100
O151	O15	0.212600	0.565000	0.212600
O161	O16	0.225900	0.694000	0.225900
O171	O17	0.212600	0.212600	0.565000
O181	O18	0.225900	0.225900	0.694000
O191	O19	0.352400	0.787400	0.000000
O201	O20	0.468100	0.774100	0.000000
O211	O21	0.787400	0.352400	0.000000
O221	O22	0.774100	0.468100	0.000000
O231	O23	0.647600	0.647600	0.435000
O241	O24	0.531900	0.531900	0.306000
O251	O25	0.000000	0.558200	0.000000
O261	O26	0.558200	0.000000	0.000000
O271	O27	0.441800	0.441800	0.441800
O281	O28	0.000000	0.000000	0.558200
B11	B1	0.750000	0.250000	0.500000
F11	F1	0.764300	0.224800	0.560100
F21	F2	0.664700	0.204200	0.439900
F31	F3	0.795800	0.235700	0.460500
F41	F4	0.775200	0.335300	0.539500
B21	B2	0.250000	0.750000	0.500000
F51	F5	0.335300	0.775200	0.539500
F61	F6	0.235700	0.795800	0.460500
F71	F7	0.204200	0.664700	0.439900
F81	F8	0.224800	0.764300	0.560100
B31	B3	0.500000	0.250000	0.750000
F91	F9	0.539500	0.335300	0.775200
F101	F10	0.460500	0.235700	0.795800
F111	F11	0.560100	0.224800	0.764300
F121	F12	0.439900	0.204200	0.664700
B41	B4	0.500000	0.750000	0.250000
F131	F13	0.560100	0.764300	0.224800
F141	F14	0.439900	0.664700	0.204200
F151	F15	0.539500	0.775200	0.335300
F161	F16	0.460500	0.795800	0.235700
B51	B5	0.250000	0.500000	0.750000
F171	F17	0.204200	0.439900	0.664700
F181	F18	0.224800	0.560100	0.764300
F191	F19	0.335300	0.539500	0.775200
F201	F20	0.235700	0.460500	0.795800
B61	B6	0.750000	0.500000	0.250000
F211	F21	0.795800	0.460500	0.235700
F221	F22	0.775200	0.539500	0.335300
F231	F23	0.764300	0.560100	0.224800
F241	F24	0.664700	0.439900	0.204200
