data_CUSYAR_freeONLY_PM
_symmetry_space_group_name_H-M	'P1'
_cell_length_a	50.745000
_cell_length_b	50.745000
_cell_length_c	71.071600
_cell_angle_alpha	69.084000
_cell_angle_beta	69.084000
_cell_angle_gamma	60.000000
_symmetry_Int_Tables_number 1

loop_
_symmetry_equiv_pos_as_xyz
'x,y,z'

loop_
_atom_site_label
_atom_site_type_symbol
_atom_site_fract_x
_atom_site_fract_y
_atom_site_fract_z
Zn11	Zn1	0.493100	0.971100	0.755700
Zn21	Zn2	0.604300	0.066300	0.411100
Zn31	Zn3	0.348400	0.611400	0.909800
Zn41	Zn4	0.435300	0.881300	0.563100
Zn51	Zn5	0.473700	0.033700	0.726900
Zn61	Zn6	0.104100	0.417100	0.910700
Zn71	Zn7	0.881300	0.120300	0.563100
Zn81	Zn8	0.780100	0.493100	0.755700
Zn91	Zn9	0.028700	0.733700	0.771900
Zn101	Zn10	0.033700	0.765700	0.726900
Zn111	Zn11	0.424100	0.863100	0.611700
Zn121	Zn12	0.130400	0.348400	0.909800
Zn131	Zn13	0.008000	0.718000	0.744000
Zn141	Zn14	0.120300	0.435300	0.563100
Zn151	Zn15	0.382300	0.934300	0.064100
Zn161	Zn16	0.431900	0.895900	0.089300
Zn171	Zn17	0.234300	0.526300	0.273100
Zn181	Zn18	0.363400	0.924400	0.110800
Zn191	Zn19	0.992000	0.282000	0.256000
Zn201	Zn20	0.136900	0.898900	0.388300
Zn211	Zn21	0.765700	0.473700	0.726900
Zn221	Zn22	0.966300	0.234300	0.273100
Zn231	Zn23	0.110900	0.847900	0.409300
Zn241	Zn24	0.506900	0.028900	0.244300
Zn251	Zn25	0.601400	0.363400	0.110800
Zn261	Zn26	0.631900	0.110900	0.409300
Zn271	Zn27	0.575900	0.136900	0.388300
Zn281	Zn28	0.651600	0.388600	0.090200
Zn291	Zn29	0.568100	0.104100	0.910700
Zn301	Zn30	0.081700	0.395700	0.588900
Zn311	Zn31	0.534300	0.971300	0.228100
Zn321	Zn32	0.733700	0.465700	0.771900
Zn331	Zn33	0.118700	0.879700	0.436900
Zn341	Zn34	0.847900	0.631900	0.409300
Zn351	Zn35	0.611400	0.130400	0.909800
Zn361	Zn36	0.933700	0.081700	0.588900
Zn371	Zn37	0.718000	0.530000	0.744000
Zn381	Zn38	0.898900	0.575900	0.388300
Zn391	Zn39	0.934300	0.619300	0.064100
Zn401	Zn40	0.152100	0.368100	0.590700
Zn411	Zn41	0.924400	0.601400	0.110800
Zn421	Zn42	0.380700	0.617700	0.935900
Zn431	Zn43	0.530000	0.008000	0.744000
Zn441	Zn44	0.417100	0.568100	0.910700
Zn451	Zn45	0.101100	0.424100	0.611700
Zn461	Zn46	0.619300	0.382300	0.064100
Zn471	Zn47	0.889100	0.152100	0.590700
Zn481	Zn48	0.526300	0.966300	0.273100
Zn491	Zn49	0.582900	0.431900	0.089300
Zn501	Zn50	0.465700	0.028700	0.771900
Zn511	Zn51	0.398600	0.636600	0.889200
Zn521	Zn52	0.066300	0.918300	0.411100
Zn531	Zn53	0.895900	0.582900	0.089300
Zn541	Zn54	0.879700	0.564700	0.436900
Zn551	Zn55	0.617700	0.065700	0.935900
Zn561	Zn56	0.266300	0.534300	0.228100
Zn571	Zn57	0.971300	0.266300	0.228100
Zn581	Zn58	0.075600	0.398600	0.889200
Zn591	Zn59	0.065700	0.380700	0.935900
Zn601	Zn60	0.219900	0.506900	0.244300
Zn611	Zn61	0.028900	0.219900	0.244300
Zn621	Zn62	0.282000	0.470000	0.256000
Zn631	Zn63	0.395700	0.933700	0.588900
Zn641	Zn64	0.869600	0.651600	0.090200
Zn651	Zn65	0.918300	0.604300	0.411100
Zn661	Zn66	0.470000	0.992000	0.256000
Zn671	Zn67	0.636600	0.075600	0.889200
Zn681	Zn68	0.971100	0.780100	0.755700
Zn691	Zn69	0.564700	0.118700	0.436900
Zn701	Zn70	0.863100	0.101100	0.611700
Zn711	Zn71	0.368100	0.889100	0.590700
Zn721	Zn72	0.388600	0.869600	0.090200
H11	H1	0.999900	0.399200	0.632100
H21	H2	0.265600	0.052100	0.597000
H31	H3	0.600800	0.031200	0.367900
H41	H4	0.978000	0.011400	0.473500
H51	H5	0.263000	0.064500	0.049000
H61	H6	0.737000	0.935500	0.951000
H71	H7	0.852300	0.265500	0.218200
H81	H8	0.480600	0.190100	0.448500
H91	H9	0.953400	0.320100	0.307200
H101	H10	0.376500	0.737000	0.951000
H111	H11	0.963300	0.466700	0.675900
H121	H12	0.837400	0.238900	0.493200
H131	H13	0.977300	0.770300	0.860100
H141	H14	0.912700	0.927700	0.705300
H151	H15	0.630700	0.217500	0.307900
H161	H16	0.304500	0.763400	0.753900
H171	H17	0.673200	0.454300	0.095000
H181	H18	0.892900	0.271400	0.359100
H191	H19	0.255800	0.244000	0.722100
H201	H20	0.045100	0.487100	0.846300
H211	H21	0.929400	0.334500	0.339300
H221	H22	0.359000	0.700100	0.841200
H231	H23	0.370100	0.356000	0.393000
H241	H24	0.455500	0.878500	0.653400
H251	H25	0.968800	0.999900	0.632100
H261	H26	0.162300	0.224700	0.985700
H271	H27	0.544500	0.121500	0.346600
H281	H28	0.010800	0.081100	0.592800
H291	H29	0.015600	0.048900	0.345100
H301	H30	0.621500	0.045100	0.846300
H311	H31	0.005300	0.977900	0.450700
H321	H32	0.536400	0.605300	0.824100
H331	H33	0.131200	0.708300	0.572800
H341	H34	0.298600	0.813600	0.663900
H351	H35	0.991200	0.457100	0.007400
H361	H36	0.291700	0.412300	0.427200
H371	H37	0.248700	0.761400	0.215200
H381	H38	0.036600	0.512100	0.973200
H391	H39	0.049200	0.603800	0.111700
H401	H40	0.209400	0.433700	0.239800
H411	H41	0.764700	0.950800	0.888300
H421	H42	0.101600	0.164800	0.160300
H431	H43	0.356000	0.880900	0.393000
H441	H44	0.333300	0.827900	0.131500
H451	H45	0.806300	0.136200	0.662100
H461	H46	0.399200	0.968800	0.632100
H471	H47	0.499200	0.916600	0.327300
H481	H48	0.836700	0.790400	0.760500
H491	H49	0.888700	0.223300	0.279400
H501	H50	0.336000	0.147700	0.781800
H511	H51	0.357500	0.831900	0.956100
H521	H52	0.504900	0.059100	0.837000
H531	H53	0.129400	0.620700	0.106600
H541	H54	0.954900	0.172200	0.595800
H551	H55	0.607700	0.022700	0.139900
H561	H56	0.113400	0.292600	0.256900
H571	H57	0.698400	0.193100	0.841200
H581	H58	0.886600	0.707400	0.743100
H591	H59	0.221900	0.744200	0.277900
H601	H60	0.934500	0.521100	0.049900
H611	H61	0.495100	0.940900	0.163000
H621	H62	0.272200	0.322300	0.902000
H631	H63	0.955200	0.042400	0.492900
H641	H64	0.929400	0.877600	0.726900
H651	H65	0.396200	0.764700	0.888300
H661	H66	0.563200	0.762200	0.548800
H671	H67	0.878500	0.012600	0.653400
H681	H68	0.806900	0.732700	0.158800
H691	H69	0.245100	0.583000	0.171400
H701	H70	0.065500	0.478900	0.950100
H711	H71	0.952000	0.351200	0.184300
H721	H72	0.700100	0.099700	0.841200
H731	H73	0.433900	0.994700	0.549300
H741	H74	0.569500	0.035200	0.773400
H751	H75	0.571400	0.020000	0.984300
H761	H76	0.218600	0.657500	0.278200
H771	H77	0.781400	0.342500	0.721800
H781	H78	0.775300	0.372700	0.014300
H791	H79	0.005600	0.596800	0.114400
H801	H80	0.419300	0.953400	0.307200
H811	H81	0.022000	0.988600	0.526500
H821	H82	0.660800	0.068300	0.007900
H831	H83	0.283200	0.005600	0.114400
H841	H84	0.677700	0.496500	0.098000
H851	H85	0.924400	0.519400	0.484300
H861	H86	0.657500	0.845700	0.278200
H871	H87	0.658500	0.118200	0.456700
H881	H88	0.653500	0.062700	0.979100
H891	H89	0.546700	0.515600	0.844500
H901	H90	0.424300	0.571400	0.984300
H911	H91	0.490400	0.184800	0.906200
H921	H92	0.663800	0.124300	0.486400
H931	H93	0.523400	0.107100	0.640900
H941	H94	0.022700	0.229700	0.139900
H951	H95	0.500800	0.083400	0.672700
H961	H96	0.777500	0.673200	0.095000
H971	H97	0.702800	0.749500	0.752400
H981	H98	0.895700	0.451200	0.388500
H991	H99	0.749500	0.795300	0.752400
H1001	H100	0.952700	0.428300	0.205600
H1011	H101	0.979100	0.383400	0.948300
H1021	H102	0.184800	0.418600	0.906200
H1031	H103	0.480600	0.928100	0.515700
H1041	H104	0.244000	0.778100	0.722100
H1051	H105	0.795300	0.702800	0.752400
H1061	H106	0.042400	0.509500	0.492900
H1071	H107	0.994400	0.403200	0.885600
H1081	H108	0.623500	0.263000	0.049000
H1091	H109	0.265500	0.664000	0.218200
H1101	H110	0.003500	0.823600	0.400300
H1111	H111	0.163300	0.209600	0.239500
H1121	H112	0.443700	0.994300	0.663000
H1131	H113	0.237800	0.874200	0.451200
H1141	H114	0.413900	0.448700	0.903200
H1151	H115	0.989200	0.918900	0.407200
H1161	H116	0.880900	0.370100	0.393000
H1171	H117	0.521900	0.963400	0.026800
H1181	H118	0.463600	0.394700	0.175900
H1191	H119	0.631500	0.679800	0.101300
H1201	H120	0.863800	0.604600	0.337900
H1211	H121	0.913700	0.793100	0.927600
H1221	H122	0.616600	0.310800	0.051700
H1231	H123	0.772600	0.003500	0.400300
H1241	H124	0.977900	0.566100	0.450700
H1251	H125	0.178700	0.131000	0.604200
H1261	H126	0.569500	0.162600	0.506800
H1271	H127	0.403200	0.716800	0.885600
H1281	H128	0.072300	0.545700	0.294700
H1291	H129	0.762200	0.125800	0.548800
H1301	H130	0.020900	0.616600	0.051700
H1311	H131	0.545700	0.222500	0.905000
H1321	H132	0.011200	0.849400	0.684600
H1331	H133	0.104700	0.729600	0.780900
H1341	H134	0.662900	0.886600	0.743100
H1351	H135	0.849400	0.454800	0.684600
H1361	H136	0.940900	0.401000	0.163000
H1371	H137	0.533900	0.070600	0.273100
H1381	H138	0.487500	0.048000	0.815700
H1391	H139	0.571700	0.586600	0.794400
H1401	H140	0.227400	0.996500	0.599700
H1411	H141	0.737000	0.339200	0.992100
H1421	H142	0.875700	0.274500	0.513600
H1431	H143	0.573300	0.101600	0.160300
H1441	H144	0.994700	0.022100	0.549300
H1451	H145	0.913900	0.821300	0.395800
H1461	H146	0.629900	0.644000	0.607000
H1471	H147	0.468300	0.896700	0.133000
H1481	H148	0.478900	0.505500	0.950100
H1491	H149	0.980000	0.575700	0.015700
H1501	H150	0.957600	0.490500	0.507100
H1511	H151	0.964800	0.378100	0.226600
H1521	H152	0.455700	0.008800	0.992600
H1531	H153	0.178200	0.304500	0.753900
H1541	H154	0.937300	0.695300	0.020900
H1551	H155	0.046600	0.679900	0.692800
H1561	H156	0.064500	0.623500	0.049000
H1571	H157	0.099700	0.359000	0.841200
H1581	H158	0.999500	0.754900	0.828600
H1591	H159	0.036700	0.533300	0.324100
H1601	H160	0.796000	0.675600	0.365800
H1611	H161	0.988800	0.150600	0.315400
H1621	H162	0.551300	0.765800	0.096800
H1631	H163	0.869000	0.913900	0.395800
H1641	H164	0.083400	0.743100	0.672700
H1651	H165	0.268300	0.879100	0.186100
H1661	H166	0.045100	0.827800	0.404200
H1671	H167	0.837700	0.775300	0.014300
H1681	H168	0.223900	0.298600	0.663900
H1691	H169	0.621900	0.569500	0.773400
H1701	H170	0.206900	0.634400	0.072400
H1711	H171	0.575700	0.428600	0.015700
H1721	H172	0.204700	0.297200	0.247600
H1731	H173	0.519400	0.071900	0.484300
H1741	H174	0.068300	0.263000	0.007900
H1751	H175	0.756000	0.221900	0.277900
H1761	H176	0.947900	0.914700	0.403000
H1771	H177	0.301600	0.806900	0.158800
H1781	H178	0.466700	0.894100	0.675900
H1791	H179	0.334500	0.396800	0.339300
H1801	H180	0.000500	0.245100	0.171400
H1811	H181	0.320200	0.412600	0.898700
H1821	H182	0.234200	0.413900	0.903200
H1831	H183	0.412300	0.868800	0.427200
H1841	H184	0.620700	0.143300	0.106600
H1851	H185	0.378500	0.954900	0.153700
H1861	H186	0.813600	0.223900	0.663900
H1871	H187	0.835200	0.426700	0.839700
H1881	H188	0.820000	0.451700	0.807900
H1891	H189	0.059100	0.599000	0.837000
H1901	H190	0.519400	0.809900	0.551500
H1911	H191	0.716800	0.994400	0.885600
H1921	H192	0.854500	0.357500	0.956100
H1931	H193	0.324400	0.837400	0.634200
H1941	H194	0.384800	0.104700	0.780900
H1951	H195	0.843900	0.630700	0.307900
H1961	H196	0.580700	0.046600	0.692800
H1971	H197	0.020000	0.424300	0.984300
H1981	H198	0.581400	0.509600	0.093800
H1991	H199	0.504900	0.783100	0.614500
H2001	H200	0.729600	0.384800	0.780900
H2011	H201	0.933100	0.707500	0.742500
H2021	H202	0.136200	0.395400	0.662100
H2031	H203	0.047300	0.571700	0.794400
H2041	H204	0.612400	0.836700	0.760500
H2051	H205	0.336200	0.875700	0.513600
H2061	H206	0.209600	0.387600	0.239500
H2071	H207	0.331700	0.858400	0.455700
H2081	H208	0.430500	0.964800	0.226600
H2091	H209	0.533300	0.105900	0.324100
H2101	H210	0.484400	0.906800	0.155500
H2111	H211	0.478100	0.036600	0.973200
H2121	H212	0.870600	0.379300	0.893400
H2131	H213	0.238600	0.225300	0.784800
H2141	H214	0.496500	0.727800	0.098000
H2151	H215	0.590400	0.015600	0.345100
H2161	H216	0.734400	0.947900	0.403000
H2171	H217	0.217500	0.843900	0.307900
H2181	H218	0.728600	0.523400	0.640900
H2191	H219	0.542900	0.455700	0.992600
H2201	H220	0.141600	0.645800	0.544300
H2211	H221	0.763400	0.178200	0.753900
H2221	H222	0.512100	0.478100	0.973200
H2231	H223	0.172100	0.292700	0.868500
H2241	H224	0.081100	0.315300	0.592800
H2251	H225	0.093200	0.546700	0.844500
H2261	H226	0.634400	0.086300	0.072400
H2271	H227	0.154300	0.781400	0.721800
H2281	H228	0.868800	0.291700	0.427200
H2291	H229	0.856700	0.870600	0.893400
H2301	H230	0.086100	0.178700	0.604200
H2311	H231	0.034200	0.536400	0.824100
H2321	H232	0.454800	0.011200	0.684600
H2331	H233	0.111300	0.776700	0.720600
H2341	H234	0.267300	0.698400	0.841200
H2351	H235	0.264600	0.895700	0.388500
H2361	H236	0.271400	0.476600	0.359100
H2371	H237	0.843300	0.733700	0.043400
H2381	H238	0.372700	0.837700	0.014300
H2391	H239	0.066900	0.292500	0.257500
H2401	H240	0.988600	0.462900	0.526500
H2411	H241	0.793100	0.365600	0.927600
H2421	H242	0.604600	0.193700	0.337900
H2431	H243	0.502000	0.468300	0.133000
H2441	H244	0.476600	0.892900	0.359100
H2451	H245	0.150600	0.545200	0.315400
H2461	H246	0.379600	0.843300	0.043400
H2471	H247	0.326800	0.545700	0.905000
H2481	H248	0.395400	0.806300	0.662100
H2491	H249	0.599000	0.504900	0.837000
H2501	H250	0.778100	0.255800	0.722100
H2511	H251	0.790400	0.612400	0.760500
H2521	H252	0.454300	0.912700	0.705300
H2531	H253	0.701400	0.186400	0.336100
H2541	H254	0.556300	0.005700	0.337000
H2551	H255	0.815200	0.581400	0.093800
H2561	H256	0.707400	0.662900	0.743100
H2571	H257	0.190100	0.880800	0.448500
H2581	H258	0.827900	0.707300	0.131500
H2591	H259	0.564000	0.156400	0.477400
H2601	H260	0.274500	0.336200	0.513600
H2611	H261	0.164800	0.573300	0.160300
H2621	H262	0.928100	0.075600	0.515700
H2631	H263	0.802200	0.564000	0.477400
H2641	H264	0.143300	0.129400	0.106600
H2651	H265	0.156700	0.266300	0.956600
H2661	H266	0.119200	0.519400	0.551500
H2671	H267	0.603800	0.235300	0.111700
H2681	H268	0.537100	0.978000	0.473500
H2691	H269	0.906800	0.453300	0.155500
H2701	H270	0.765800	0.586100	0.096800
H2711	H271	0.412600	0.368500	0.898700
H2721	H272	0.996500	0.176400	0.599700
H2731	H273	0.487900	0.521900	0.026800
H2741	H274	0.882900	0.790600	0.760200
H2751	H275	0.831900	0.854500	0.956100
H2761	H276	0.695300	0.346500	0.020900
H2771	H277	0.222500	0.326800	0.905000
H2781	H278	0.495100	0.216900	0.385500
H2791	H279	0.035200	0.621900	0.773400
H2801	H280	0.666500	0.268300	0.186100
H2811	H281	0.223300	0.608600	0.279400
H2821	H282	0.774700	0.248700	0.215200
H2831	H283	0.627300	0.162300	0.985700
H2841	H284	0.070600	0.665500	0.660700
H2851	H285	0.351200	0.512500	0.184300
H2861	H286	0.641000	0.299900	0.158800
H2871	H287	0.225300	0.751300	0.784800
H2881	H288	0.235300	0.049200	0.111700
H2891	H289	0.454300	0.777500	0.095000
H2901	H290	0.761400	0.774700	0.215200
H2911	H291	0.071900	0.924400	0.484300
H2921	H292	0.156400	0.802200	0.477400
H2931	H293	0.583000	0.000500	0.171400
H2941	H294	0.707500	0.616900	0.742500
H2951	H295	0.346500	0.937300	0.020900
H2961	H296	0.722900	0.045100	0.404200
H2971	H297	0.735400	0.104300	0.611500
H2981	H298	0.012600	0.455500	0.653400
H2991	H299	0.642500	0.168100	0.043900
H3001	H300	0.180000	0.548300	0.192100
H3011	H301	0.809900	0.119200	0.551500
H3021	H302	0.250500	0.204700	0.247600
H3031	H303	0.689200	0.979100	0.948300
H3041	H304	0.914700	0.734400	0.403000
H3051	H305	0.451700	0.920400	0.807900
H3061	H306	0.515600	0.093200	0.844500
H3071	H307	0.881800	0.233400	0.543300
H3081	H308	0.337100	0.113400	0.256900
H3091	H309	0.874200	0.436800	0.451200
H3101	H310	0.097500	0.504900	0.614500
H3111	H311	0.732700	0.301600	0.158800
H3121	H312	0.545700	0.087300	0.294700
H3131	H313	0.457100	0.544300	0.007400
H3141	H314	0.620400	0.156700	0.956600
H3151	H315	0.509500	0.955200	0.492900
H3161	H316	0.984400	0.951100	0.654900
H3171	H317	0.666700	0.172100	0.868500
H3181	H318	0.426700	0.898400	0.839700
H3191	H319	0.401000	0.495100	0.163000
H3201	H320	0.744200	0.756000	0.277900
H3211	H321	0.918900	0.684700	0.407200
H3221	H322	0.176400	0.227400	0.599700
H3231	H323	0.233400	0.341500	0.543300
H3241	H324	0.503500	0.272200	0.902000
H3251	H325	0.392300	0.977300	0.860100
H3261	H326	0.396800	0.929400	0.339300
H3271	H327	0.783100	0.097500	0.614500
H3281	H328	0.224700	0.627300	0.985700
H3291	H329	0.521100	0.494500	0.049900
H3301	H330	0.383400	0.689200	0.948300
H3311	H331	0.341500	0.881800	0.543300
H3321	H332	0.378100	0.430500	0.226600
H3331	H333	0.879100	0.666500	0.186100
H3341	H334	0.679900	0.580700	0.692800
H3351	H335	0.587400	0.631500	0.101300
H3361	H336	0.156100	0.369300	0.692100
H3371	H337	0.428300	0.413400	0.205600
H3381	H338	0.122400	0.533900	0.273100
H3391	H339	0.684700	0.989200	0.407200
H3401	H340	0.935500	0.376500	0.951000
H3411	H341	0.509600	0.815200	0.093800
H3421	H342	0.379300	0.856700	0.893400
H3431	H343	0.766600	0.658500	0.456700
H3441	H344	0.731700	0.120900	0.813900
H3451	H345	0.548300	0.079600	0.192100
H3461	H346	0.320100	0.419300	0.307200
H3471	H347	0.292600	0.337100	0.256900
H3481	H348	0.413400	0.952700	0.205600
H3491	H349	0.062700	0.304700	0.979100
H3501	H350	0.743100	0.500800	0.672700
H3511	H351	0.821300	0.869000	0.395800
H3521	H352	0.365600	0.913700	0.927600
H3531	H353	0.566300	0.882900	0.760200
H3541	H354	0.131000	0.086100	0.604200
H3551	H355	0.044800	0.957600	0.507100
H3561	H356	0.315300	0.010800	0.592800
H3571	H357	0.031200	0.000100	0.367900
H3581	H358	0.101000	0.556300	0.337000
H3591	H359	0.451200	0.264600	0.388500
H3601	H360	0.117100	0.209400	0.239800
H3611	H361	0.172200	0.277100	0.595800
H3621	H362	0.782500	0.156100	0.692100
H3631	H363	0.770300	0.392300	0.860100
H3641	H364	0.085300	0.265600	0.597000
H3651	H365	0.548800	0.735400	0.611500
H3661	H366	0.008800	0.542900	0.992600
H3671	H367	0.900300	0.641000	0.158800
H3681	H368	0.916600	0.256900	0.327300
H3691	H369	0.754900	0.417000	0.828600
H3701	H370	0.880800	0.480600	0.448500
H3711	H371	0.342500	0.154300	0.721800
H3721	H372	0.394700	0.965800	0.175900
H3731	H373	0.708300	0.587700	0.572800
H3741	H374	0.821800	0.695500	0.246100
H3751	H375	0.823600	0.772600	0.400300
H3761	H376	0.615200	0.895300	0.219100
H3771	H377	0.512900	0.378500	0.153700
H3781	H378	0.086300	0.206900	0.072400
H3791	H379	0.197800	0.436000	0.522600
H3801	H380	0.304700	0.653500	0.979100
H3811	H381	0.466100	0.929400	0.726900
H3821	H382	0.951100	0.409600	0.654900
H3831	H383	0.487100	0.621500	0.846300
H3841	H384	0.896700	0.502000	0.133000
H3851	H385	0.931700	0.737000	0.992100
H3861	H386	0.695500	0.236600	0.246100
H3871	H387	0.297200	0.250500	0.247600
H3881	H388	0.644000	0.119100	0.607000
H3891	H389	0.845700	0.218600	0.278200
H3901	H390	0.216900	0.902500	0.385500
H3911	H391	0.048900	0.590400	0.345100
H3921	H392	0.238900	0.430500	0.493200
H3931	H393	0.118200	0.766600	0.456700
H3941	H394	0.761100	0.569500	0.506800
H3951	H395	0.858400	0.354200	0.455700
H3961	H396	0.193700	0.863800	0.337900
H3971	H397	0.299900	0.900300	0.158800
H3981	H398	0.679800	0.587400	0.101300
H3991	H399	0.707300	0.333300	0.131500
H4001	H400	0.963400	0.487900	0.026800
H4011	H401	0.418600	0.490400	0.906200
H4021	H402	0.895300	0.270400	0.219100
H4031	H403	0.899000	0.443700	0.663000
H4041	H404	0.266300	0.620400	0.956600
H4051	H405	0.310800	0.020900	0.051700
H4061	H406	0.292500	0.383100	0.257500
H4071	H407	0.733700	0.379600	0.043400
H4081	H408	0.168100	0.145500	0.043900
H4091	H409	0.453300	0.484400	0.155500
H4101	H410	0.586600	0.047300	0.794400
H4111	H411	0.877600	0.466100	0.726900
H4121	H412	0.322300	0.503500	0.902000
H4131	H413	0.339200	0.931700	0.992100
H4141	H414	0.494500	0.934500	0.049900
H4151	H415	0.292700	0.666700	0.868500
H4161	H416	0.776100	0.701400	0.336100
H4171	H417	0.368500	0.320200	0.898700
H4181	H418	0.490500	0.044800	0.507100
H4191	H419	0.776700	0.391400	0.720600
H4201	H420	0.087300	0.072300	0.294700
H4211	H421	0.005700	0.101000	0.337000
H4221	H422	0.409600	0.984400	0.654900
H4231	H423	0.505500	0.065500	0.950100
H4241	H424	0.512500	0.952000	0.184300
H4251	H425	0.186400	0.776100	0.336100
H4261	H426	0.668300	0.141600	0.544300
H4271	H427	0.954900	0.512900	0.153700
H4281	H428	0.605300	0.034200	0.824100
H4291	H429	0.354200	0.331700	0.455700
H4301	H430	0.070600	0.122400	0.273100
H4311	H431	0.734500	0.336000	0.781800
H4321	H432	0.333500	0.731700	0.813900
H4331	H433	0.052100	0.085300	0.597000
H4341	H434	0.751300	0.238600	0.784800
H4351	H435	0.387600	0.163300	0.239500
H4361	H436	0.545200	0.988800	0.315400
H4371	H437	0.790600	0.566300	0.760200
H4381	H438	0.498000	0.531700	0.867000
H4391	H439	0.075600	0.480600	0.515700
H4401	H440	0.417000	0.999500	0.828600
H4411	H441	0.391400	0.111300	0.720600
H4421	H442	0.256900	0.499200	0.327300
H4431	H443	0.664000	0.852300	0.218200
H4441	H444	0.544300	0.991200	0.007400
H4451	H445	0.105900	0.036700	0.324100
H4461	H446	0.603200	0.070600	0.660700
H4471	H447	0.119100	0.629900	0.607000
H4481	H448	0.162600	0.796000	0.365800
H4491	H449	0.987400	0.544500	0.346600
H4501	H450	0.725500	0.663800	0.486400
H4511	H451	0.125800	0.563200	0.548800
H4521	H452	0.843600	0.197800	0.522600
H4531	H453	0.448700	0.234200	0.903200
H4541	H454	0.147700	0.734500	0.781800
H4551	H455	0.000100	0.600800	0.367900
H4561	H456	0.107100	0.728600	0.640900
H4571	H457	0.430500	0.837400	0.493200
H4581	H458	0.616900	0.933100	0.742500
H4591	H459	0.145500	0.642500	0.043900
H4601	H460	0.994300	0.899000	0.663000
H4611	H461	0.193100	0.267300	0.841200
H4621	H462	0.648800	0.487500	0.815700
H4631	H463	0.204000	0.324400	0.634200
H4641	H464	0.837400	0.204000	0.634200
H4651	H465	0.898400	0.835200	0.839700
H4661	H466	0.927700	0.454300	0.705300
H4671	H467	0.048000	0.648800	0.815700
H4681	H468	0.103300	0.498000	0.867000
H4691	H469	0.022100	0.433900	0.549300
H4701	H470	0.263000	0.660800	0.007900
H4711	H471	0.727800	0.677700	0.098000
H4721	H472	0.236600	0.821800	0.246100
H4731	H473	0.950800	0.396200	0.888300
H4741	H474	0.162600	0.761100	0.506800
H4751	H475	0.665500	0.603200	0.660700
H4761	H476	0.079600	0.180000	0.192100
H4771	H477	0.436000	0.843600	0.522600
H4781	H478	0.229700	0.607700	0.139900
H4791	H479	0.383100	0.066900	0.257500
H4801	H480	0.902500	0.495100	0.385500
H4811	H481	0.596800	0.283200	0.114400
H4821	H482	0.433700	0.117100	0.239800
H4831	H483	0.462900	0.022000	0.526500
H4841	H484	0.965800	0.463600	0.175900
H4851	H485	0.566100	0.005300	0.450700
H4861	H486	0.011400	0.537100	0.473500
H4871	H487	0.827800	0.722900	0.404200
H4881	H488	0.675600	0.162600	0.365800
H4891	H489	0.586100	0.551300	0.096800
H4901	H490	0.277100	0.954900	0.595800
H4911	H491	0.920400	0.820000	0.807900
H4921	H492	0.124300	0.725500	0.486400
H4931	H493	0.608600	0.888700	0.279400
H4941	H494	0.428600	0.980000	0.015700
H4951	H495	0.369300	0.782500	0.692100
H4961	H496	0.531700	0.103300	0.867000
H4971	H497	0.645800	0.668300	0.544300
H4981	H498	0.894100	0.963300	0.675900
H4991	H499	0.121500	0.987400	0.346600
H5001	H500	0.270400	0.615200	0.219100
H5011	H501	0.104300	0.548800	0.611500
H5021	H502	0.587700	0.131200	0.572800
H5031	H503	0.436800	0.237800	0.451200
H5041	H504	0.120900	0.333500	0.813900
C11	C1	0.020900	0.228900	0.169300
C21	C2	0.489900	0.991900	0.507300
C31	C3	0.562700	0.037700	0.184900
C41	C4	0.840400	0.896400	0.395800
C51	C5	0.277800	0.223800	0.247600
C61	C6	0.018300	0.105300	0.324100
C71	C7	0.021000	0.393000	0.915000
C81	C8	0.341700	0.500700	0.902900
C91	C9	0.394000	0.341000	0.899000
C101	C10	0.487500	0.948500	0.038500
C111	C11	0.483000	0.221000	0.399000
C121	C12	0.116400	0.525400	0.563800
C131	C13	0.826700	0.193700	0.645900
C141	C14	0.275300	0.974300	0.596100
C151	C15	0.607000	0.690000	0.577000
C161	C16	0.660000	0.606000	0.101000
C171	C17	0.421500	0.925500	0.140500
C181	C18	0.238600	0.756600	0.772200
C191	C19	0.860900	0.857900	0.906300
C201	C20	0.864600	0.210600	0.535200
C211	C21	0.862200	0.348200	0.443400
C221	C22	0.916600	0.465600	0.155200
C231	C23	0.545400	0.041400	0.464800
C241	C24	0.498900	0.599900	0.846300
C251	C25	0.855600	0.229600	0.266200
C261	C26	0.060600	0.928600	0.449200
C271	C27	0.983500	0.825500	0.721500
C281	C28	0.244500	0.794500	0.227500
C291	C29	0.325000	0.719000	0.825000
C301	C30	0.196700	0.285700	0.753900
C311	C31	0.310000	0.874000	0.423000
C321	C32	0.993800	0.532800	0.475600
C331	C33	0.900200	0.000200	0.653400
C341	C34	0.779000	0.103000	0.601000
C351	C35	0.054600	0.132600	0.601200
C361	C36	0.057000	0.118000	0.286000
C371	C37	0.243000	0.250000	0.735000
C381	C38	0.797000	0.191000	0.681000
C391	C39	0.153100	0.375100	0.662700
C401	C40	0.087700	0.545700	0.298900
C411	C41	0.784100	0.723100	0.264700
C421	C42	0.638600	0.153600	0.056200
C431	C43	0.521900	0.079900	0.670300
C441	C44	0.297900	0.007900	0.594300
C451	C45	0.752800	0.392800	0.750600
C461	C46	0.623900	0.451900	0.092300
C471	C47	0.052700	0.942700	0.481900
C481	C48	0.218000	0.644000	0.019000
C491	C49	0.943000	0.882000	0.714000
C501	C50	0.266600	0.052600	0.062200
C511	C51	0.021000	0.874000	0.406000
C521	C52	0.632100	0.529100	0.097700
C531	C53	0.103000	0.517000	0.601000
C541	C54	0.205800	0.317800	0.663600
C551	C55	0.974400	0.550400	0.461800
C561	C56	0.595200	0.034200	0.150400
C571	C57	0.510100	0.008100	0.492700
C581	C58	0.306700	0.194700	0.247900
C591	C59	0.986600	0.025600	0.538200
C601	C60	0.967200	0.505200	0.024400
C611	C61	0.797000	0.236000	0.247000
C621	C62	0.982400	0.397400	0.898800
C631	C63	0.266500	0.755500	0.772500
C641	C64	0.512500	0.051500	0.961500
C651	C65	0.883600	0.474600	0.436200
C661	C66	0.505200	0.503200	0.024400
C671	C67	0.243400	0.767400	0.227800
C681	C68	0.116000	0.560000	0.580000
C691	C69	0.535200	0.094200	0.651400
C701	C70	0.765600	0.640600	0.467200
C711	C71	0.818900	0.238900	0.247300
C721	C72	0.078400	0.988400	0.359800
C731	C73	0.329700	0.171700	0.247900
C741	C74	0.126000	0.301000	0.594000
C751	C75	0.606900	0.126900	0.448300
C761	C76	0.612700	0.123700	0.592900
C771	C77	0.037900	0.494900	0.504300
C781	C78	0.773700	0.613700	0.756900
C791	C79	0.383700	0.907700	0.888900
C801	C80	0.474600	0.205600	0.436200
C811	C81	0.973900	0.385900	0.936300
C821	C82	0.742500	0.347500	0.769500
C831	C83	0.711200	0.352200	0.019400
C841	C84	0.275800	0.356800	0.253600
C851	C85	0.560000	0.744000	0.580000
C861	C86	0.874000	0.393000	0.423000
C871	C87	0.606600	0.301600	0.083200
C881	C88	0.131000	0.325000	0.825000
C891	C89	0.831900	0.623900	0.092300
C901	C90	0.453200	0.911200	0.141400
C911	C91	0.228000	0.757000	0.265000
C921	C92	0.507600	0.047600	0.811200
C931	C93	0.052600	0.618600	0.062200
C941	C94	0.885300	0.260300	0.231100
C951	C95	0.491900	0.989900	0.007300
C961	C96	0.868800	0.310800	0.426600
C971	C97	0.144300	0.226300	0.243100
C981	C98	0.499300	0.745300	0.097100
C991	C99	0.134300	0.329300	0.857100
C1001	C100	0.639400	0.124400	0.593800
C1011	C101	0.205600	0.883600	0.436200
C1021	C102	0.187900	0.633900	0.073300
C1031	C103	0.997800	0.993800	0.475600
C1041	C104	0.960100	0.359100	0.207700
C1051	C105	0.867400	0.788400	0.398800
C1061	C106	0.104900	0.187900	0.073300
C1071	C107	0.951600	0.471600	0.167200
C1081	C108	0.954900	0.275900	0.294300
C1091	C109	0.412600	0.919600	0.125200
C1101	C110	0.226300	0.386300	0.243100
C1111	C111	0.803300	0.714300	0.246100
C1121	C112	0.342200	0.877200	0.126400
C1131	C113	0.724100	0.525100	0.705700
C1141	C114	0.536100	0.006100	0.995700
C1151	C115	0.745300	0.658300	0.097100
C1161	C116	0.593500	0.114500	0.611500
C1171	C117	0.825500	0.469500	0.721500
C1181	C118	0.616300	0.913300	0.746100
C1191	C119	0.634900	0.108900	0.965300
C1201	C120	0.809100	0.153100	0.662700
C1211	C121	0.382100	0.444100	0.213700
C1221	C122	0.249100	0.577100	0.249700
C1231	C123	0.171700	0.250700	0.247900
C1241	C124	0.924100	0.249100	0.249700
C1251	C125	0.310100	0.431100	0.317700
C1261	C126	0.522700	0.052700	0.481900
C1271	C127	0.584500	0.149500	0.479500
C1281	C128	0.104000	0.688000	0.628000
C1291	C129	0.054300	0.580300	0.818100
C1301	C130	0.577200	0.687200	0.100400
C1311	C131	0.041400	0.948400	0.464800
C1321	C132	0.032100	0.103100	0.596700
C1331	C133	0.785300	0.437300	0.815100
C1341	C134	0.912300	0.454300	0.701100
C1351	C135	0.438400	0.939400	0.550800
C1361	C136	0.547400	0.090400	0.332800
C1371	C137	0.305100	0.181100	0.752700
C1381	C138	0.813000	0.923000	0.397000
C1391	C139	0.894600	0.681600	0.051200
C1401	C140	0.979000	0.126000	0.594000
C1411	C141	0.054300	0.603300	0.824100
C1421	C142	0.714300	0.301300	0.159100
C1431	C143	0.116400	0.240400	0.999800
C1441	C144	0.537400	0.083400	0.844800
C1451	C145	0.722200	0.776200	0.752400
C1461	C146	0.037100	0.962100	0.495700
C1471	C147	0.702100	0.992100	0.405700
C1481	C148	0.739700	0.376700	0.768900
C1491	C149	0.329300	0.679300	0.857100
C1501	C150	0.538700	0.061700	0.685900
C1511	C151	0.660400	0.130400	0.575800
C1521	C152	0.108900	0.506900	0.583300
C1531	C153	0.570400	0.440400	0.050800
C1541	C154	0.873400	0.234400	0.532800
C1551	C155	0.974300	0.154300	0.596100
C1561	C156	0.116300	0.226300	0.243100
C1571	C157	0.367500	0.858500	0.015500
C1581	C158	0.510900	0.491900	0.007300
C1591	C159	0.547700	0.558700	0.831900
C1601	C160	0.559600	0.061600	0.949200
C1611	C161	0.634600	0.554600	0.099200
C1621	C162	0.054900	0.498900	0.846300
C1631	C163	0.140500	0.742500	0.769500
C1641	C164	0.223800	0.250800	0.247600
C1651	C165	0.861700	0.733700	0.032900
C1661	C166	0.763700	0.196700	0.753900
C1671	C167	0.643200	0.886200	0.746400
C1681	C168	0.938400	0.570400	0.050800
C1691	C169	0.981700	0.894700	0.675900
C1701	C170	0.818900	0.424900	0.837300
C1711	C171	0.607200	0.896200	0.249400
C1721	C172	0.714300	0.236300	0.246100
C1731	C173	0.143600	0.250600	0.248200
C1741	C174	0.846400	0.848400	0.943800
C1751	C175	0.892300	0.374300	0.923100
C1761	C176	0.440100	0.931100	0.818700
C1771	C177	0.505800	0.546800	0.858600
C1781	C178	0.714000	0.267000	0.193000
C1791	C179	0.236200	0.748200	0.246400
C1801	C180	0.694900	0.818900	0.247300
C1811	C181	0.896400	0.867400	0.395800
C1821	C182	0.366600	0.339600	0.424200
C1831	C183	0.113800	0.275800	0.253600
C1841	C184	0.240400	0.643400	0.999800
C1851	C185	0.340000	0.394000	0.899000
C1861	C186	0.632500	0.141500	0.984500
C1871	C187	0.298100	0.718100	0.824700
C1881	C188	0.586600	0.912600	0.751200
C1891	C189	0.241500	0.632500	0.984500
C1901	C190	0.310800	0.393800	0.426600
C1911	C191	0.847300	0.237300	0.503100
C1921	C192	0.681300	0.582300	0.663100
C1931	C193	0.086300	0.621300	0.078100
C1941	C194	0.699700	0.118700	0.840900
C1951	C195	0.989900	0.510900	0.007300
C1961	C196	0.526100	0.225100	0.904700
C1971	C197	0.606000	0.633000	0.101000
C1981	C198	0.312800	0.364800	0.899600
C1991	C199	0.941700	0.749700	0.750900
C2001	C200	0.875600	0.357600	0.406200
C2011	C201	0.512500	0.421500	0.140500
C2021	C202	0.962100	0.505100	0.495700
C2031	C203	0.452300	0.441300	0.168100
C2041	C204	0.002200	0.006200	0.524400
C2051	C205	0.356600	0.883600	0.000200
C2061	C206	0.474900	0.954900	0.294300
C2071	C207	0.909600	0.970600	0.667200
C2081	C208	0.258200	0.356200	0.515400
C2091	C209	0.191000	0.331000	0.681000
C2101	C210	0.371700	0.861700	0.032900
C2111	C211	0.546800	0.088800	0.858600
C2121	C212	0.356800	0.113800	0.253600
C2131	C213	0.088800	0.505800	0.858600
C2141	C214	0.767400	0.761400	0.227800
C2151	C215	0.046600	0.007600	0.359200
C2161	C216	0.679300	0.134300	0.857100
C2171	C217	0.918900	0.818900	0.837300
C2181	C218	0.396500	0.467500	0.903500
C2191	C219	0.159600	0.103600	0.604200
C2201	C220	0.008100	0.989100	0.492700
C2211	C221	0.935700	0.803700	0.852900
C2221	C222	0.762700	0.587700	0.496900
C2231	C223	0.237300	0.412300	0.503100
C2241	C224	0.602600	0.278600	0.101200
C2251	C225	0.882000	0.461000	0.714000
C2261	C226	0.107500	0.542500	0.599500
C2271	C227	0.398900	0.492900	0.905300
C2281	C228	0.948400	0.545400	0.464800
C2291	C229	0.657800	0.122800	0.873600
C2301	C230	0.203000	0.764000	0.753000
C2311	C231	0.121000	0.551000	0.562000
C2321	C232	0.991400	0.865400	0.688800
C2331	C233	0.214700	0.562700	0.184900
C2341	C234	0.711600	0.634600	0.099200
C2351	C235	0.873100	0.182100	0.551700
C2361	C236	0.870200	0.258200	0.515400
C2371	C237	0.859200	0.299200	0.464400
C2381	C238	0.257500	0.652500	0.230500
C2391	C239	0.785700	0.913700	0.921900
C2401	C240	0.962300	0.785300	0.815100
C2411	C241	0.821000	0.361000	0.945000
C2421	C242	0.601100	0.507100	0.094700
C2431	C243	0.614100	0.296100	0.063700
C2441	C244	0.585600	0.714600	0.578200
C2451	C245	0.301600	0.008600	0.083200
C2461	C246	0.580000	0.104000	0.628000
C2471	C247	0.200600	0.312600	0.700200
C2481	C248	0.114500	0.680500	0.611500
C2491	C249	0.846900	0.624900	0.337300
C2501	C250	0.137200	0.680200	0.555400
C2511	C251	0.530500	0.016500	0.278500
C2521	C252	0.642400	0.856400	0.751800
C2531	C253	0.384300	0.756300	0.920100
C2541	C254	0.883600	0.759600	0.000200
C2551	C255	0.557300	0.448300	0.018100
C2561	C256	0.414400	0.285400	0.421800
C2571	C257	0.393000	0.310000	0.423000
C2581	C258	0.347500	0.140500	0.769500
C2591	C259	0.043200	0.607200	0.099400
C2601	C260	0.473900	0.774900	0.095300
C2611	C261	0.856400	0.749400	0.751800
C2621	C262	0.236300	0.803300	0.246100
C2631	C263	0.801300	0.627300	0.094100
C2641	C264	0.617900	0.555900	0.786300
C2651	C265	0.633600	0.507600	0.811200
C2661	C266	0.757000	0.750000	0.265000
C2671	C267	0.392800	0.103800	0.750600
C2681	C268	0.243700	0.060700	0.079900
C2691	C269	0.494900	0.962900	0.504300
C2701	C270	0.296100	0.026100	0.063700
C2711	C271	0.755500	0.205500	0.772500
C2721	C272	0.419700	0.452700	0.181900
C2731	C273	0.264100	0.652100	0.997700
C2741	C274	0.229600	0.648600	0.266200
C2751	C275	0.415500	0.850500	0.520500
C2761	C276	0.857700	0.281700	0.480900
C2771	C277	0.606200	0.131200	0.573400
C2781	C278	0.731900	0.967900	0.403300
C2791	C279	0.238900	0.694900	0.247300
C2801	C280	0.812100	0.366100	0.926700
C2811	C281	0.203000	0.809000	0.319000
C2821	C282	0.458500	0.954500	0.035500
C2831	C283	0.525500	0.487500	0.038500
C2841	C284	0.926700	0.318700	0.336900
C2851	C285	0.590400	0.048400	0.832800
C2861	C286	0.312000	0.420000	0.372000
C2871	C287	0.230800	0.763800	0.753600
C2881	C288	0.741100	0.632100	0.097700
C2891	C289	0.431100	0.941100	0.317700
C2901	C290	0.767600	0.380600	0.733200
C2911	C291	0.699000	0.021000	0.406000
C2921	C292	0.542500	0.750500	0.599500
C2931	C293	0.357600	0.360600	0.406200
C2941	C294	0.281900	0.840900	0.175300
C2951	C295	0.039900	0.617900	0.786300
C2961	C296	0.392800	0.749800	0.900600
C2971	C297	0.372600	0.894600	0.051200
C2981	C298	0.452700	0.945700	0.181900
C2991	C299	0.194700	0.250700	0.247900
C3001	C300	0.429600	0.559600	0.949200
C3011	C301	0.205500	0.266500	0.772500
C3021	C302	0.911200	0.494200	0.141400
C3031	C303	0.242400	0.027400	0.598800
C3041	C304	0.470900	0.258900	0.902300
C3051	C305	0.812100	0.394100	0.872700
C3061	C306	0.267000	0.826000	0.193000
C3071	C307	0.724200	0.643200	0.746400
C3081	C308	0.639800	0.205800	0.319600
C3091	C309	0.001500	0.842500	0.401500
C3101	C310	0.741800	0.643800	0.484600
C3111	C311	0.153600	0.151600	0.056200
C3121	C312	0.025700	0.845700	0.403900
C3131	C313	0.857900	0.374900	0.906300
C3141	C314	0.187900	0.605900	0.127300
C3151	C315	0.400100	0.945100	0.153700
C3161	C316	0.947300	0.057300	0.518100
C3171	C317	0.613700	0.855700	0.756900
C3181	C318	0.750000	0.228000	0.265000
C3191	C319	0.800900	0.108900	0.583300
C3201	C320	0.786600	0.200600	0.700200
C3211	C321	0.006100	0.462100	0.995700
C3221	C322	0.643400	0.116400	0.999800
C3231	C323	0.719000	0.131000	0.825000
C3241	C324	0.051500	0.474500	0.961500
C3251	C325	0.462000	0.972000	0.708000
C3261	C326	0.909600	0.303600	0.352200
C3271	C327	0.771900	0.215900	0.735300
C3281	C328	0.447800	0.951800	0.681600
C3291	C329	0.368800	0.839800	0.924600
C3301	C330	0.518300	0.054300	0.824100
C3311	C331	0.548100	0.168100	0.907700
C3321	C332	0.288400	0.365400	0.900800
C3331	C333	0.420000	0.896000	0.372000
C3341	C334	0.867000	0.813000	0.397000
C3351	C335	0.938300	0.452300	0.168100
C3361	C336	0.210600	0.389600	0.535200
C3371	C337	0.187200	0.794200	0.336400
C3381	C338	0.457500	0.249500	0.400500
C3391	C339	0.894700	0.447700	0.675900
C3401	C340	0.222800	0.278800	0.247600
C3411	C341	0.586700	0.566700	0.798900
C3421	C342	0.993900	0.537900	0.004300
C3431	C343	0.690000	0.126000	0.577000
C3441	C344	0.220200	0.595200	0.150400
C3451	C345	0.374300	0.810300	0.923100
C3461	C346	0.766000	0.121000	0.562000
C3471	C347	0.099900	0.297900	0.594300
C3481	C348	0.733700	0.371700	0.032900
C3491	C349	0.892000	0.523000	0.414000
C3501	C350	0.299200	0.377200	0.464400
C3511	C351	0.394000	0.367000	0.899000
C3521	C352	0.626500	0.111500	0.092500
C3531	C353	0.082800	0.288800	0.980600
C3541	C354	0.794200	0.165200	0.680400
C3551	C355	0.644000	0.119000	0.019000
C3561	C356	0.992100	0.900100	0.405700
C3571	C357	0.537900	0.463900	0.004300
C3581	C358	0.281700	0.379700	0.480900
C3591	C359	0.633000	0.660000	0.101000
C3601	C360	0.654200	0.342200	0.126400
C3611	C361	0.945700	0.419700	0.181900
C3621	C362	0.397400	0.721400	0.898800
C3631	C363	0.122800	0.345800	0.873600
C3641	C364	0.621300	0.214300	0.078100
C3651	C365	0.919600	0.542600	0.125200
C3661	C366	0.032300	0.673300	0.779100
C3671	C367	0.551500	0.458500	0.035500
C3681	C368	0.437300	0.962300	0.815100
C3691	C369	0.506900	0.800900	0.583300
C3701	C370	0.771100	0.419100	0.830700
C3711	C371	0.412300	0.847300	0.503100
C3721	C372	0.133200	0.631200	0.075400
C3731	C373	0.032800	0.494800	0.975600
C3741	C374	0.008600	0.606600	0.083200
C3751	C375	0.377200	0.859200	0.464400
C3761	C376	0.877500	0.800500	0.964500
C3771	C377	0.805300	0.749300	0.752100
C3781	C378	0.442700	0.551700	0.981900
C3791	C379	0.440000	0.256000	0.420000
C3801	C380	0.939300	0.384300	0.920100
C3811	C381	0.526900	0.039900	0.792300
C3821	C382	0.090400	0.029400	0.332800
C3831	C383	0.383700	0.086700	0.253900
C3841	C384	0.879000	0.449000	0.438000
C3851	C385	0.157500	0.245500	0.598500
C3861	C386	0.083400	0.534400	0.844800
C3871	C387	0.952300	0.413300	0.201100
C3881	C388	0.627200	0.137200	0.555400
C3891	C389	0.346200	0.862200	0.443400
C3901	C390	0.250800	0.222800	0.247600
C3911	C391	0.393000	0.671000	0.915000
C3921	C392	0.913300	0.724300	0.746100
C3931	C393	0.932300	0.912300	0.701100
C3941	C394	0.188200	0.276200	0.791400
C3951	C395	0.633400	0.660400	0.575800
C3961	C396	0.528400	0.590400	0.832800
C3971	C397	0.858500	0.758500	0.015500
C3981	C398	0.340700	0.699700	0.840900
C3991	C399	0.825300	0.714300	0.159100
C4001	C400	0.086100	0.264100	0.997700
C4011	C401	0.622800	0.140800	0.535600
C4021	C402	0.108900	0.290900	0.965300
C4031	C403	0.721400	0.982400	0.898800
C4041	C404	0.551700	0.023700	0.981900
C4051	C405	0.837800	0.698800	0.142600
C4061	C406	0.501100	0.400100	0.153700
C4071	C407	0.126900	0.817900	0.448300
C4081	C408	0.545700	0.067700	0.298900
C4091	C409	0.603300	0.518300	0.824100
C4101	C410	0.867400	0.840400	0.395800
C4111	C411	0.027400	0.131400	0.598800
C4121	C412	0.718100	0.159100	0.824700
C4131	C413	0.373500	0.888500	0.907500
C4141	C414	0.681600	0.372600	0.051200
C4151	C415	0.232600	0.238600	0.772200
C4161	C416	0.123700	0.670700	0.592900
C4171	C417	0.575100	0.081100	0.162700
C4181	C418	0.361000	0.873000	0.945000
C4191	C419	0.477300	0.801300	0.094100
C4201	C420	0.266300	0.628300	0.967100
C4211	C421	0.060700	0.615700	0.079900
C4221	C422	0.013400	0.974400	0.461800
C4231	C423	0.756300	0.939300	0.920100
C4241	C424	0.413400	0.953400	0.640800
C4251	C425	0.134600	0.545600	0.311200
C4261	C426	0.250000	0.772000	0.735000
C4271	C427	0.360200	0.794200	0.680400
C4281	C428	0.087300	0.957300	0.375100
C4291	C429	0.960100	0.382100	0.213700
C4301	C430	0.484700	0.967700	0.220900
C4311	C431	0.376700	0.114700	0.768900
C4321	C432	0.891100	0.493100	0.416700
C4331	C433	0.698400	0.991400	0.916800
C4341	C434	0.948500	0.525500	0.038500
C4351	C435	0.339600	0.869600	0.424200
C4361	C436	0.045500	0.448500	0.964500
C4371	C437	0.643800	0.129800	0.484600
C4381	C438	0.462600	0.916600	0.155200
C4391	C439	0.045100	0.724100	0.705700
C4401	C440	0.979100	0.771100	0.830700
C4411	C441	0.345800	0.657800	0.873600
C4421	C442	0.254700	0.341700	0.902900
C4431	C443	0.640900	0.526900	0.792300
C4441	C444	0.989100	0.510100	0.492700
C4451	C445	0.788400	0.945400	0.398800
C4461	C446	0.774900	0.655900	0.095300
C4471	C447	0.925500	0.512500	0.140500
C4481	C448	0.631200	0.160200	0.075400
C4491	C449	0.058600	0.048600	0.332200
C4501	C450	0.800500	0.357500	0.964500
C4511	C451	0.799400	0.687400	0.299800
C4521	C452	0.666300	0.173300	0.354100
C4531	C453	0.007900	0.099900	0.594300
C4541	C454	0.951400	0.439400	0.667800
C4551	C455	0.154300	0.275300	0.596100
C4561	C456	0.565400	0.090400	0.647800
C4571	C457	0.280000	0.203000	0.753000
C4581	C458	0.250700	0.329700	0.247900
C4591	C459	0.647800	0.082800	0.980600
C4601	C460	0.721200	0.749200	0.752400
C4611	C461	0.557700	0.941700	0.750900
C4621	C462	0.941400	0.951400	0.667800
C4631	C463	0.865400	0.454400	0.688800
C4641	C464	0.165200	0.360200	0.680400
C4651	C465	0.039900	0.640900	0.792300
C4661	C466	0.551000	0.766000	0.562000
C4671	C467	0.105400	0.318400	0.948800
C4681	C468	0.749300	0.670300	0.752100
C4691	C469	0.381400	0.733400	0.937800
C4701	C470	0.624300	0.155300	0.372100
C4711	C471	0.374900	0.860900	0.906300
C4721	C472	0.834800	0.639800	0.319600
C4731	C473	0.151700	0.375700	0.627900
C4741	C474	0.618600	0.266600	0.062200
C4751	C475	0.496800	0.032800	0.975600
C4761	C476	0.394100	0.921100	0.872700
C4771	C477	0.962900	0.037900	0.504300
C4781	C478	0.525100	0.045100	0.705700
C4791	C479	0.422800	0.312800	0.899600
C4801	C480	0.552200	0.048200	0.318400
C4811	C481	0.099800	0.999800	0.346600
C4821	C482	0.619400	0.881400	0.266800
C4831	C483	0.140800	0.700800	0.535600
C4841	C484	0.406500	0.885500	0.388500
C4851	C485	0.126600	0.765600	0.467200
C4861	C486	0.951800	0.918800	0.681600
C4871	C487	0.750900	0.422900	0.750300
C4881	C488	0.809000	0.669000	0.319000
C4891	C489	0.585700	0.883700	0.756900
C4901	C490	0.300300	0.881300	0.159100
C4911	C491	0.319500	0.406500	0.388500
C4921	C492	0.953400	0.992400	0.640800
C4931	C493	0.680200	0.627200	0.555400
C4941	C494	0.897000	0.483000	0.399000
C4951	C495	0.087400	0.250400	0.248800
C4961	C496	0.635200	0.577200	0.100400
C4971	C497	0.417700	0.926700	0.336900
C4981	C498	0.010100	0.489100	0.992700
C4991	C499	0.413300	0.433300	0.201100
C5001	C500	0.839800	0.866800	0.924600
C5011	C501	0.449600	0.986600	0.538200
C5021	C502	0.108000	0.477000	0.586000
C5031	C503	0.667400	0.047400	0.407800
C5041	C504	0.767500	0.603500	0.096500
C5051	C505	0.850500	0.213500	0.520500
C5061	C506	0.913700	0.378700	0.921900
C5071	C507	0.454600	0.958600	0.535200
C5081	C508	0.245500	0.998500	0.598500
C5091	C509	0.196300	0.592300	0.147100
C5101	C510	0.347900	0.913900	0.002300
C5111	C511	0.938300	0.286300	0.314100
C5121	C512	0.285700	0.763700	0.753900
C5131	C513	0.442300	0.058300	0.249100
C5141	C514	0.433300	0.952300	0.201100
C5151	C515	0.819700	0.383700	0.888900
C5161	C516	0.220700	0.792700	0.283900
C5171	C517	0.367900	0.470900	0.902300
C5181	C518	0.868400	0.895400	0.395800
C5191	C519	0.249500	0.892500	0.400500
C5201	C520	0.958600	0.051600	0.535200
C5211	C521	0.445400	0.288400	0.900800
C5221	C522	0.008600	0.134600	0.311200
C5231	C523	0.122600	0.332600	0.592200
C5241	C524	0.207300	0.297300	0.716100
C5251	C525	0.000200	0.446200	0.653400
C5261	C526	0.539000	0.057000	0.286000
C5271	C527	0.418800	0.963800	0.654600
C5281	C528	0.896200	0.247200	0.249400
C5291	C529	0.599900	0.054900	0.846300
C5301	C530	0.378700	0.785700	0.921900
C5311	C531	0.912700	0.042700	0.624900
C5321	C532	0.763800	0.251800	0.753600
C5331	C533	0.830500	0.373500	0.907500
C5341	C534	0.566700	0.047700	0.798900
C5351	C535	0.700800	0.622800	0.535600
C5361	C536	0.733400	0.947400	0.937800
C5371	C537	0.655900	0.473900	0.095300
C5381	C538	0.278600	0.017600	0.101200
C5391	C539	0.580300	0.087300	0.375100
C5401	C540	0.825900	0.166900	0.645300
C5411	C541	0.900100	0.702100	0.405700
C5421	C542	0.607200	0.250200	0.099400
C5431	C543	0.359100	0.473100	0.207700
C5441	C544	0.714600	0.121600	0.578200
C5451	C545	0.193700	0.333700	0.645900
C5461	C546	0.103800	0.752800	0.750600
C5471	C547	0.770400	0.351400	0.733800
C5481	C548	0.829000	0.108000	0.586000
C5491	C549	0.580900	0.020900	0.169300
C5501	C550	0.276900	0.771900	0.735300
C5511	C551	0.623300	0.885300	0.231100
C5521	C552	0.181100	0.575100	0.162700
C5531	C553	0.463900	0.993900	0.004300
C5541	C554	0.724700	0.025700	0.403900
C5551	C555	0.467500	0.232500	0.903500
C5561	C556	0.303600	0.434600	0.352200
C5571	C557	0.921600	0.011600	0.640200
C5581	C558	0.687200	0.635200	0.100400
C5591	C559	0.079900	0.727900	0.670300
C5601	C560	0.873000	0.821000	0.945000
C5611	C561	0.159100	0.298100	0.824700
C5621	C562	0.047600	0.633600	0.811200
C5631	C563	0.855700	0.773700	0.756900
C5641	C564	0.104600	0.159600	0.604200
C5651	C565	0.555900	0.039900	0.786300
C5661	C566	0.553800	0.099800	0.346600
C5671	C567	0.121600	0.585600	0.578200
C5681	C568	0.877200	0.654200	0.126400
C5691	C569	0.698800	0.320800	0.142600
C5701	C570	0.876300	0.329300	0.407100
C5711	C571	0.256000	0.884000	0.420000
C5721	C572	0.688000	0.580000	0.628000
C5731	C573	0.048600	0.560600	0.332200
C5741	C574	0.789400	0.610400	0.464800
C5751	C575	0.275900	0.474900	0.294300
C5761	C576	0.320700	0.865700	0.142900
C5771	C577	0.007600	0.586600	0.359200
C5781	C578	0.545600	0.008600	0.311200
C5791	C579	0.250200	0.043200	0.099400
C5801	C580	0.703900	0.973900	0.936300
C5811	C581	0.653800	0.137800	0.556600
C5821	C582	0.628300	0.138300	0.967100
C5831	C583	0.749200	0.722200	0.752400
C5841	C584	0.174100	0.833100	0.354700
C5851	C585	0.581200	0.036200	0.345400
C5861	C586	0.779800	0.404800	0.849600
C5871	C587	0.627300	0.477300	0.094100
C5881	C588	0.341000	0.366000	0.899000
C5891	C589	0.845700	0.240700	0.247900
C5901	C590	0.559900	0.068900	0.181300
C5911	C591	0.957300	0.580300	0.375100
C5921	C592	0.500700	0.254700	0.902900
C5931	C593	0.917200	0.711200	0.019400
C5941	C594	0.773700	0.585700	0.756900
C5951	C595	0.992400	0.413400	0.640800
C5961	C596	0.118000	0.539000	0.286000
C5971	C597	0.419100	0.979100	0.830700
C5981	C598	0.769200	0.236200	0.246400
C5991	C599	0.522700	0.198700	0.905900
C6001	C600	0.689200	0.606200	0.573400
C6011	C601	0.389600	0.864600	0.535200
C6021	C602	0.135400	0.789400	0.464800
C6031	C603	0.761100	0.305100	0.752700
C6041	C604	0.859500	0.257500	0.230500
C6051	C605	0.317800	0.812800	0.663600
C6061	C606	0.058300	0.250300	0.249100
C6071	C607	0.383200	0.856200	0.500400
C6081	C608	0.047400	0.877400	0.407800
C6091	C609	0.174000	0.286000	0.807000
C6101	C610	0.448500	0.541500	0.964500
C6111	C611	0.748200	0.769200	0.246400
C6121	C612	0.319800	0.372800	0.444600
C6131	C613	0.453800	0.975800	0.795600
C6141	C614	0.970600	0.452600	0.667200
C6151	C615	0.532500	0.767500	0.096500
C6161	C616	0.126000	0.607000	0.577000
C6171	C617	0.552300	0.018300	0.324100
C6181	C618	0.162200	0.301200	0.857400
C6191	C619	0.886200	0.724200	0.746400
C6201	C620	0.234400	0.359400	0.532800
C6211	C621	0.560600	0.058600	0.332200
C6221	C622	0.149500	0.786500	0.479500
C6231	C623	0.578500	0.074500	0.859500
C6241	C624	0.290900	0.634900	0.965300
C6251	C625	0.061700	0.713700	0.685900
C6261	C626	0.727900	0.521900	0.670300
C6271	C627	0.858000	0.462000	0.708000
C6281	C628	0.547300	0.054300	0.818100
C6291	C629	0.874000	0.699000	0.406000
C6301	C630	0.275700	0.383700	0.253900
C6311	C631	0.764000	0.280000	0.753000
C6321	C632	0.351400	0.144400	0.733800
C6331	C633	0.550400	0.013400	0.461800
C6341	C634	0.073300	0.681300	0.663100
C6351	C635	0.301000	0.979000	0.594000
C6361	C636	0.393100	0.873100	0.551700
C6371	C637	0.888500	0.830500	0.907500
C6381	C638	0.413400	0.087400	0.248800
C6391	C639	0.967900	0.896900	0.403300
C6401	C640	0.105300	0.552300	0.324100
C6411	C641	0.991400	0.393400	0.916800
C6421	C642	0.845700	0.724700	0.403900
C6431	C643	0.461300	0.938300	0.314100
C6441	C644	0.160200	0.133200	0.075400
C6451	C645	0.276200	0.744200	0.791400
C6461	C646	0.103600	0.132600	0.604200
C6471	C647	0.462100	0.536100	0.995700
C6481	C648	0.138300	0.266300	0.967100
C6491	C649	0.954500	0.551500	0.035500
C6501	C650	0.759600	0.356600	0.000200
C6511	C651	0.923000	0.867000	0.397000
C6521	C652	0.610400	0.135400	0.464800
C6531	C653	0.573400	0.078400	0.359800
C6541	C654	0.592300	0.064300	0.147100
C6551	C655	0.988400	0.573400	0.359800
C6561	C656	0.952600	0.122600	0.592200
C6571	C657	0.133000	0.187000	0.603000
C6581	C658	0.159600	0.131600	0.604200
C6591	C659	0.199100	0.891100	0.416700
C6601	C660	0.297300	0.779300	0.716100
C6611	C661	0.225100	0.344100	0.904700
C6621	C662	0.441300	0.938300	0.168100
C6631	C663	0.332600	0.952600	0.592200
C6641	C664	0.129800	0.741800	0.484600
C6651	C665	0.735900	0.347900	0.002300
C6661	C666	0.774800	0.453800	0.795600
C6671	C667	0.638100	0.174100	0.354700
C6681	C668	0.166900	0.361900	0.645300
C6691	C669	0.659000	0.634000	0.101000
C6701	C670	0.892500	0.457500	0.400500
C6711	C671	0.833100	0.638100	0.354700
C6721	C672	0.465600	0.462600	0.155200
C6731	C673	0.260200	0.383200	0.500400
C6741	C674	0.912600	0.749600	0.751200
C6751	C675	0.320800	0.837800	0.142600
C6761	C676	0.285700	0.698700	0.840900
C6771	C677	0.189900	0.559900	0.181300
C6781	C678	0.234000	0.879000	0.438000
C6791	C679	0.779300	0.207300	0.716100
C6801	C680	0.868600	0.757600	0.401200
C6811	C681	0.634000	0.606000	0.101000
C6821	C682	0.329300	0.387300	0.407100
C6831	C683	0.605900	0.078900	0.127300
C6841	C684	0.023700	0.442700	0.981900
C6851	C685	0.582300	0.073300	0.663100
C6861	C686	0.477000	0.829000	0.586000
C6871	C687	0.505100	0.037100	0.495700
C6881	C688	0.344100	0.526100	0.904700
C6891	C689	0.037200	0.581200	0.345400
C6901	C690	0.891100	0.709100	0.034700
C6911	C691	0.723800	0.255800	0.208600
C6921	C692	0.797100	0.601100	0.094700
C6931	C693	0.348200	0.346200	0.443400
C6941	C694	0.356200	0.870200	0.515400
C6951	C695	0.979000	0.607000	0.085000
C6961	C696	0.878400	0.414400	0.421800
C6971	C697	0.124400	0.642400	0.593800
C6981	C698	0.615700	0.243700	0.079900
C6991	C699	0.508100	0.010100	0.992700
C7001	C700	0.975800	0.774800	0.795600
C7011	C701	0.422900	0.075900	0.750300
C7021	C702	0.724300	0.616300	0.746100
C7031	C703	0.232500	0.396500	0.903500
C7041	C704	0.671000	0.021000	0.915000
C7051	C705	0.268100	0.032100	0.596700
C7061	C706	0.141500	0.241500	0.984500
C7071	C707	0.659300	0.300300	0.159100
C7081	C708	0.652500	0.859500	0.230500
C7091	C709	0.532800	0.997800	0.475600
C7101	C710	0.449000	0.234000	0.438000
C7111	C711	0.024200	0.225200	0.204400
C7121	C712	0.620300	0.142300	0.519100
C7131	C713	0.782000	0.356000	0.981000
C7141	C714	0.696400	0.565400	0.647800
C7151	C715	0.733500	0.244500	0.227500
C7161	C716	0.142300	0.718300	0.519100
C7171	C717	0.945400	0.867400	0.398800
C7181	C718	0.529100	0.741100	0.097700
C7191	C719	0.842500	0.754500	0.401500
C7201	C720	0.467200	0.002200	0.524400
C7211	C721	0.221000	0.897000	0.399000
C7221	C722	0.761400	0.243400	0.227800
C7231	C723	0.991900	0.010900	0.507300
C7241	C724	0.810300	0.892300	0.923100
C7251	C725	0.616300	0.092300	0.111100
C7261	C726	0.648600	0.855600	0.266200
C7271	C727	0.457400	0.587400	0.874800
C7281	C728	0.026100	0.614100	0.063700
C7291	C729	0.709100	0.365100	0.034700
C7301	C730	0.976300	0.557300	0.018100
C7311	C731	0.965800	0.779800	0.849600
C7321	C732	0.440400	0.938400	0.050800
C7331	C733	0.794200	0.682200	0.336400
C7341	C734	0.179000	0.639000	0.055000
C7351	C735	0.750500	0.107500	0.599500
C7361	C736	0.361900	0.825900	0.645300
C7371	C737	0.972600	0.868600	0.401200
C7381	C738	0.848400	0.361400	0.943800
C7391	C739	0.439400	0.941400	0.667800
C7401	C740	0.258900	0.367900	0.902300
C7411	C741	0.561600	0.060600	0.449200
C7421	C742	0.786500	0.584500	0.479500
C7431	C743	0.862800	0.319800	0.444600
C7441	C744	0.077000	0.133000	0.603000
C7451	C745	0.963800	0.962800	0.654600
C7461	C746	0.407700	0.935700	0.852900
C7471	C747	0.939400	0.071400	0.550800
C7481	C748	0.250400	0.413400	0.248800
C7491	C749	0.881300	0.659300	0.159100
C7501	C750	0.071400	0.438400	0.550800
C7511	C751	0.689900	0.568900	0.682300
C7521	C752	0.848300	0.624300	0.372100
C7531	C753	0.036200	0.037200	0.345400
C7541	C754	0.494200	0.453200	0.141400
C7551	C755	0.174700	0.285700	0.840900
C7561	C756	0.078900	0.187900	0.127300
C7571	C757	0.881000	0.782000	0.981000
C7581	C758	0.918800	0.447800	0.681600
C7591	C759	0.642500	0.122500	0.035500
C7601	C760	0.627400	0.105400	0.948800
C7611	C761	0.356000	0.881000	0.981000
C7621	C762	0.154300	0.759300	0.752100
C7631	C763	0.326700	0.484700	0.220900
C7641	C764	0.387300	0.876300	0.407100
C7651	C765	0.945100	0.501100	0.153700
C7661	C766	0.143800	0.739800	0.499600
C7671	C767	0.865700	0.670700	0.142900
C7681	C768	0.670700	0.320700	0.142900
C7691	C769	0.749400	0.642400	0.751800
C7701	C770	0.749800	0.956800	0.900600
C7711	C771	0.393800	0.868800	0.426600
C7721	C772	0.434600	0.909600	0.352200
C7731	C773	0.250800	0.277800	0.247600
C7741	C774	0.651800	0.653800	0.556600
C7751	C775	0.507100	0.797100	0.094700
C7761	C776	0.215900	0.276900	0.735300
C7771	C777	0.702700	0.220700	0.283900
C7781	C778	0.376100	0.548100	0.907700
C7791	C779	0.424900	0.918900	0.837300
C7801	C780	0.477300	0.947300	0.518100
C7811	C781	0.169500	0.626500	0.092500
C7821	C782	0.665700	0.845700	0.247900
C7831	C783	0.503200	0.967200	0.024400
C7841	C784	0.364800	0.422800	0.899600
C7851	C785	0.131600	0.104600	0.604200
C7861	C786	0.189700	0.107700	0.076900
C7871	C787	0.826000	0.714000	0.193000
C7881	C788	0.366400	0.492400	0.188800
C7891	C789	0.952400	0.366400	0.188800
C7901	C790	0.675000	0.281000	0.175000
C7911	C791	0.866800	0.368800	0.924600
C7921	C792	0.155300	0.848300	0.372100
C7931	C793	0.278800	0.250800	0.247600
C7941	C794	0.942700	0.522700	0.481900
C7951	C795	0.493100	0.199100	0.416700
C7961	C796	0.139100	0.142100	0.093700
C7971	C797	0.331000	0.797000	0.681000
C7981	C798	0.118600	0.767600	0.733200
C7991	C799	0.913900	0.735900	0.002300
C8001	C800	0.538000	0.028000	0.292000
C8011	C801	0.580300	0.547300	0.818100
C8021	C802	0.658300	0.499300	0.097100
C8031	C803	0.682200	0.187200	0.336400
C8041	C804	0.404800	0.965800	0.849600
C8051	C805	0.090400	0.696400	0.647800
C8061	C806	0.941100	0.310100	0.317700
C8071	C807	0.016500	0.174500	0.278500
C8081	C808	0.103100	0.268100	0.596700
C8091	C809	0.357500	0.877500	0.964500
C8101	C810	0.673300	0.515300	0.779100
C8111	C811	0.856200	0.260200	0.500400
C8121	C812	0.772000	0.243000	0.735000
C8131	C813	0.587400	0.080400	0.874800
C8141	C814	0.723100	0.228100	0.264700
C8151	C815	0.372800	0.862800	0.444600
C8161	C816	0.081200	0.552200	0.318400
C8171	C817	0.301300	0.825300	0.159100
C8181	C818	0.744000	0.116000	0.580000
C8191	C819	0.286300	0.461300	0.314100
C8201	C820	0.895100	0.812100	0.926700
C8211	C821	0.251800	0.230800	0.753600
C8221	C822	0.546200	0.024200	0.204400
C8231	C823	0.132600	0.159600	0.604200
C8241	C824	0.426600	0.921600	0.640200
C8251	C825	0.419700	0.912700	0.624900
C8261	C826	0.749200	0.777200	0.752400
C8271	C827	0.180300	0.616300	0.111100
C8281	C828	0.260300	0.623300	0.231100
C8291	C829	0.587700	0.152700	0.496900
C8301	C830	0.037700	0.214700	0.184900
C8311	C831	0.107700	0.625700	0.076900
C8321	C832	0.199500	0.642500	0.035500
C8331	C833	0.921100	0.812100	0.872700
C8341	C834	0.489100	0.508100	0.992700
C8351	C835	0.094200	0.719200	0.651400
C8361	C836	0.451900	0.831900	0.092300
C8371	C837	0.396700	0.481700	0.175900
C8381	C838	0.517000	0.779000	0.601000
C8391	C839	0.739800	0.616800	0.499600
C8401	C840	0.869600	0.366600	0.424200
C8411	C841	0.061700	0.547700	0.831900
C8421	C842	0.236000	0.720000	0.247000
C8431	C843	0.792700	0.702700	0.283900
C8441	C844	0.640600	0.126600	0.467200
C8451	C845	0.068900	0.189900	0.181300
C8461	C846	0.081100	0.181100	0.162700
C8471	C847	0.972000	0.858000	0.708000
C8481	C848	0.679200	0.162200	0.857400
C8491	C849	0.749600	0.586600	0.751200
C8501	C850	0.329000	0.979000	0.085000
C8511	C851	0.577100	0.924100	0.249700
C8521	C852	0.794500	0.733500	0.227500
C8531	C853	0.375100	0.809100	0.662700
C8541	C854	0.042700	0.419700	0.624900
C8551	C855	0.469500	0.983500	0.721500
C8561	C856	0.187000	0.077000	0.603000
C8571	C857	0.006200	0.467200	0.524400
C8581	C858	0.225200	0.546200	0.204400
C8591	C859	0.625700	0.189700	0.076900
C8601	C860	0.312600	0.786600	0.700200
C8611	C861	0.142100	0.625100	0.093700
C8621	C862	0.057300	0.477300	0.518100
C8631	C863	0.301200	0.679200	0.857400
C8641	C864	0.687400	0.213400	0.299800
C8651	C865	0.017600	0.602600	0.101200
C8661	C866	0.286000	0.733000	0.807000
C8671	C867	0.255800	0.811800	0.208600
C8681	C868	0.250600	0.357600	0.248200
C8691	C869	0.718300	0.620300	0.519100
C8701	C870	0.446200	0.900200	0.653400
C8711	C871	0.281000	0.869000	0.175000
C8721	C872	0.058900	0.689900	0.682300
C8731	C873	0.492400	0.952400	0.188800
C8741	C874	0.130400	0.633400	0.575800
C8751	C875	0.931100	0.810100	0.818700
C8761	C876	0.487500	0.578500	0.859500
C8771	C877	0.174500	0.530500	0.278500
C8781	C878	0.122500	0.199500	0.035500
C8791	C879	0.119000	0.218000	0.019000
C8801	C880	0.250300	0.442300	0.249100
C8811	C881	0.701900	0.281900	0.175300
C8821	C882	0.114700	0.739700	0.768900
C8831	C883	0.558700	0.061700	0.831900
C8841	C884	0.885500	0.319500	0.388500
C8851	C885	0.759300	0.334300	0.752100
C8861	C886	0.452600	0.909600	0.667200
C8871	C887	0.828300	0.749300	0.752100
C8881	C888	0.213400	0.799400	0.299800
C8891	C889	0.670700	0.612700	0.592900
C8901	C890	0.999800	0.553800	0.346600
C8911	C891	0.928600	0.561600	0.449200
C8921	C892	0.366000	0.394000	0.899000
C8931	C893	0.357600	0.143600	0.248200
C8941	C894	0.606000	0.659000	0.101000
C8951	C895	0.877400	0.667400	0.407800
C8961	C896	0.048400	0.528400	0.832800
C8971	C897	0.444100	0.960100	0.213700
C8981	C898	0.205800	0.834800	0.319600
C8991	C899	0.285400	0.878400	0.421800
C9001	C900	0.171000	0.892000	0.414000
C9011	C901	0.198700	0.372700	0.905900
C9021	C902	0.607000	0.329000	0.085000
C9031	C903	0.776200	0.749200	0.752400
C9041	C904	0.461000	0.943000	0.714000
C9051	C905	0.333700	0.826700	0.645900
C9061	C906	0.896000	0.312000	0.372000
C9071	C907	0.232400	0.619400	0.266800
C9081	C908	0.474500	0.512500	0.961500
C9091	C909	0.211600	0.054600	0.601200
C9101	C910	0.525400	0.794400	0.563800
C9111	C911	0.883700	0.773700	0.756900
C9121	C912	0.680500	0.593500	0.611500
C9131	C913	0.092300	0.180300	0.111100
C9141	C914	0.749300	0.693300	0.752100
C9151	C915	0.616800	0.143800	0.499600
C9161	C916	0.086700	0.275700	0.253900
C9171	C917	0.756600	0.232600	0.772200
C9181	C918	0.367000	0.340000	0.899000
C9191	C919	0.414300	0.116300	0.243100
C9201	C920	0.131400	0.242400	0.598800
C9211	C921	0.318700	0.417700	0.336900
C9221	C922	0.884000	0.440000	0.420000
C9231	C923	0.693300	0.805300	0.752100
C9241	C924	0.029400	0.547400	0.332800
C9251	C925	0.182100	0.393100	0.551700
C9261	C926	0.127000	0.179000	0.055000
C9271	C927	0.132600	0.211600	0.601200
C9281	C928	0.733000	0.174000	0.807000
C9291	C929	0.962800	0.418800	0.654600
C9301	C930	0.967700	0.326700	0.220900
C9311	C931	0.352200	0.917200	0.019400
C9321	C932	0.011600	0.426600	0.640200
C9331	C933	0.047700	0.586700	0.798900
C9341	C934	0.920100	0.272100	0.329700
C9351	C935	0.409600	0.951600	0.167200
C9361	C936	0.586600	0.046600	0.359200
C9371	C937	0.131200	0.689200	0.573400
C9381	C938	0.379700	0.857700	0.480900
C9391	C939	0.905800	0.280800	0.348600
C9401	C940	0.473100	0.960100	0.207700
C9411	C941	0.280800	0.464800	0.348600
C9421	C942	0.152700	0.762700	0.496900
C9431	C943	0.806300	0.666300	0.354100
C9441	C944	0.365100	0.891100	0.034700
C9451	C945	0.288800	0.647800	0.980600
C9461	C946	0.137800	0.651800	0.556600
C9471	C947	0.454400	0.991400	0.688800
C9481	C948	0.720000	0.797000	0.247000
C9491	C949	0.228900	0.580900	0.169300
C9501	C950	0.240700	0.665700	0.247900
C9511	C951	0.542600	0.412600	0.125200
C9521	C952	0.794400	0.116400	0.563800
C9531	C953	0.366100	0.895100	0.926700
C9541	C954	0.757600	0.972600	0.401200
C9551	C955	0.624900	0.190900	0.337300
C9561	C956	0.075900	0.750900	0.750300
C9571	C957	0.173300	0.806300	0.354100
C9581	C958	0.947400	0.381400	0.937800
C9591	C959	0.361400	0.846400	0.943800
C9601	C960	0.869000	0.675000	0.175000
C9611	C961	0.811800	0.723800	0.208600
C9621	C962	0.448300	0.976300	0.018100
C9631	C963	0.250700	0.306700	0.247900
C9641	C964	0.025600	0.449600	0.538200
C9651	C965	0.840400	0.868400	0.395800
C9661	C966	0.749700	0.557700	0.750900
C9671	C967	0.810100	0.440100	0.818700
C9681	C968	0.481700	0.945700	0.175900
C9691	C969	0.372700	0.522700	0.905900
C9701	C970	0.698700	0.174700	0.840900
C9711	C971	0.226300	0.414300	0.243100
C9721	C972	0.061600	0.429600	0.949200
C9731	C973	0.386300	0.144300	0.243100
C9741	C974	0.447700	0.981700	0.675900
C9751	C975	0.840900	0.701900	0.175300
C9761	C976	0.907700	0.819700	0.888900
C9771	C977	0.228100	0.784100	0.264700
C9781	C978	0.111500	0.169500	0.092500
C9791	C979	0.515300	0.032300	0.779100
C9801	C980	0.881400	0.232400	0.266800
C9811	C981	0.048200	0.081200	0.318400
C9821	C982	0.523000	0.171000	0.414000
C9831	C983	0.010900	0.489900	0.507300
C9841	C984	0.464800	0.905800	0.348600
C9851	C985	0.067700	0.087700	0.298900
C9861	C986	0.213500	0.415500	0.520500
C9871	C987	0.359400	0.873400	0.532800
C9881	C988	0.385900	0.703900	0.936300
C9891	C989	0.142000	0.538000	0.292000
C9901	C990	0.190900	0.846900	0.337300
C9911	C991	0.844700	0.151700	0.627900
C9921	C992	0.945700	0.396700	0.175900
C9931	C993	0.754500	0.001500	0.401500
C9941	C994	0.034200	0.220200	0.150400
C9951	C995	0.471600	0.409600	0.167200
C9961	C996	0.895400	0.840400	0.395800
C9971	C997	0.051600	0.454600	0.535200
C9981	C998	0.080400	0.457400	0.874800
C9991	C999	0.318400	0.627400	0.948800
C10001	C1000	0.375700	0.844700	0.627900
C10011	C1001	0.202900	0.398900	0.905300
C10021	C1002	0.669000	0.203000	0.319000
C10031	C1003	0.028000	0.142000	0.292000
C10041	C1004	0.777200	0.721200	0.752400
C10051	C1005	0.758500	0.367500	0.015500
C10061	C1006	0.494800	0.496800	0.975600
C10071	C1007	0.144400	0.770400	0.733800
C10081	C1008	0.492900	0.202900	0.905300
C10091	C1009	0.151600	0.638600	0.056200
C10101	C1010	0.670300	0.828300	0.752100
C10111	C1011	0.534400	0.537400	0.844800
C10121	C1012	0.168100	0.376100	0.907700
C10131	C1013	0.719200	0.535200	0.651400
C10141	C1014	0.541500	0.045500	0.964500
C10151	C1015	0.074500	0.487500	0.859500
C10161	C1016	0.272100	0.478100	0.329700
C10171	C1017	0.817900	0.606900	0.448300
C10181	C1018	0.639000	0.127000	0.055000
C10191	C1019	0.568900	0.058900	0.682300
C10201	C1020	0.454300	0.932300	0.701100
C10211	C1021	0.214300	0.086300	0.078100
C10221	C1022	0.360600	0.875600	0.406200
C10231	C1023	0.247200	0.607200	0.249400
C10241	C1024	0.713700	0.538700	0.685900
C10251	C1025	0.380600	0.118600	0.733200
C10261	C1026	0.181100	0.761100	0.752700
C10271	C1027	0.365400	0.445400	0.900800
C10281	C1028	0.744200	0.188200	0.791400
C10291	C1029	0.803700	0.407700	0.852900
C10301	C1030	0.998500	0.157500	0.598500
C10311	C1031	0.603500	0.532500	0.096500
C10321	C1032	0.642400	0.639400	0.593800
C10331	C1033	0.956800	0.392800	0.900600
C10341	C1034	0.812800	0.205800	0.663600
C10351	C1035	0.478100	0.920100	0.329700
C10361	C1036	0.064300	0.196300	0.147100
C10371	C1037	0.896900	0.731900	0.403300
C10381	C1038	0.118700	0.340700	0.840900
C10391	C1039	0.554600	0.711600	0.099200
C10401	C1040	0.334300	0.154300	0.752100
C10411	C1041	0.625100	0.139100	0.093700
C10421	C1042	0.633900	0.104900	0.073300
C10431	C1043	0.393400	0.698400	0.916800
C10441	C1044	0.652100	0.086100	0.997700
O11	O1	0.532100	0.940100	0.755700
O21	O2	0.407900	0.586900	0.951300
O31	O3	0.818400	0.628400	0.431800
O41	O4	0.616900	0.071900	0.873300
O51	O5	0.342800	0.901800	0.127600
O61	O6	0.844600	0.126600	0.628200
O71	O7	0.886300	0.594400	0.411400
O81	O8	0.065300	0.763300	0.734100
O91	O9	0.665000	0.360000	0.112000
O101	O10	0.049400	0.745400	0.707800
O111	O11	0.181600	0.371600	0.568200
O121	O12	0.391200	0.906600	0.088700
O131	O13	0.164100	0.353100	0.907700
O141	O14	0.884200	0.061200	0.626400
O151	O15	0.020600	0.681600	0.763200
O161	O16	0.903900	0.644900	0.409300
O171	O17	0.254600	0.502600	0.292200
O181	O18	0.126600	0.400600	0.628200
O191	O19	0.466100	0.011100	0.716700
O201	O20	0.450600	0.003600	0.793200
O211	O21	0.608800	0.093400	0.911300
O221	O22	0.628400	0.121400	0.431800
O231	O23	0.378200	0.873200	0.067400
O241	O24	0.970600	0.288600	0.280200
O251	O25	0.137000	0.335000	0.888000
O261	O26	0.863000	0.665000	0.112000
O271	O27	0.155400	0.873400	0.371800
O281	O28	0.651500	0.030500	0.931500
O291	O29	0.250400	0.509100	0.250300
O301	O30	0.480100	0.964100	0.737700
O311	O31	0.383100	0.928100	0.126700
O321	O32	0.818100	0.480100	0.737700
O331	O33	0.502600	0.950600	0.292200
O341	O34	0.360000	0.863000	0.112000
O351	O35	0.335100	0.962100	0.102700
O361	O36	0.009800	0.749600	0.749700
O371	O37	0.644900	0.041900	0.409300
O381	O38	0.037900	0.399900	0.897300
O391	O39	0.599400	0.155400	0.371800
O401	O40	0.450200	0.918200	0.066400
O411	O41	0.519900	0.035900	0.262300
O421	O42	0.413100	0.946100	0.048700
O431	O43	0.933400	0.049400	0.610800
O441	O44	0.467900	0.059900	0.244300
O451	O45	0.114800	0.468800	0.568600
O461	O46	0.613500	0.391200	0.088700
O471	O47	0.906300	0.549300	0.111100
O481	O48	0.437300	0.065300	0.734100
O491	O49	0.964300	0.307300	0.216100
O501	O50	0.613500	0.348500	0.068500
O511	O51	0.597400	0.456400	0.090800
O521	O52	0.968300	0.726300	0.746100
O531	O53	0.549400	0.996400	0.206800
O541	O54	0.434800	0.549800	0.933600
O551	O55	0.049700	0.933700	0.433900
O561	O56	0.752600	0.450600	0.793200
O571	O57	0.212500	0.529500	0.218500
O581	O58	0.405600	0.892100	0.588600
O591	O59	0.640000	0.137000	0.888000
O601	O60	0.566600	0.937600	0.233200
O611	O61	0.318800	0.621800	0.932600
O621	O62	0.163600	0.361600	0.613200
O631	O63	0.906800	0.553800	0.451600
O641	O64	0.417300	0.950300	0.566100
O651	O65	0.386500	0.651500	0.931500
O661	O66	0.049400	0.406400	0.610800
O671	O67	0.374400	0.919400	0.048800
O681	O68	0.030500	0.386500	0.931500
O691	O69	0.787500	0.470500	0.781500
O701	O70	0.433400	0.062400	0.766800
O711	O71	0.468800	0.847800	0.568600
O721	O72	0.906600	0.613500	0.088700
O731	O73	0.039500	0.212500	0.218500
O741	O74	0.247400	0.549400	0.206800
O751	O75	0.372200	0.657200	0.872400
O761	O76	0.581000	0.126000	0.451000
O771	O77	0.101400	0.461400	0.602800
O781	O78	0.933700	0.582700	0.433900
O791	O79	0.093400	0.386500	0.911300
O801	O80	0.406400	0.933400	0.610800
O811	O81	0.625600	0.080600	0.951200
O821	O82	0.152200	0.885200	0.431400
O831	O83	0.582700	0.049700	0.433900
O841	O84	0.061200	0.428200	0.626400
O851	O85	0.960500	0.787500	0.781500
O861	O86	0.969500	0.613500	0.068500
O871	O87	0.053900	0.407900	0.951300
O881	O88	0.399900	0.664900	0.897300
O891	O89	0.559300	0.968300	0.746100
O901	O90	0.490900	0.009800	0.749700
O911	O91	0.806100	0.466100	0.716700
O921	O92	0.950300	0.066300	0.566100
O931	O93	0.562700	0.934700	0.265900
O941	O94	0.087800	0.906800	0.451600
O951	O95	0.566700	0.093700	0.888900
O961	O96	0.749600	0.490900	0.749700
O971	O97	0.565200	0.450200	0.066400
O981	O98	0.885200	0.531200	0.431400
O991	O99	0.460600	0.970600	0.280200
O1001	O100	0.400600	0.844600	0.628200
O1011	O101	0.181900	0.519900	0.262300
O1021	O102	0.531200	0.152200	0.431400
O1031	O103	0.594400	0.107900	0.411400
O1041	O104	0.925600	0.146600	0.592200
O1051	O105	0.950600	0.254600	0.292200
O1061	O106	0.456400	0.855400	0.090800
O1071	O107	0.003600	0.752600	0.793200
O1081	O108	0.898600	0.538600	0.397200
O1091	O109	0.487700	0.035700	0.783900
O1101	O110	0.011100	0.806100	0.716700
O1111	O111	0.107900	0.886300	0.411400
O1121	O112	0.918200	0.565200	0.066400
O1131	O113	0.692700	0.487700	0.783900
O1141	O114	0.035700	0.692700	0.783900
O1151	O115	0.878600	0.181600	0.568200
O1161	O116	0.593600	0.066600	0.389200
O1171	O117	0.847800	0.114800	0.568600
O1181	O118	0.873400	0.599400	0.371800
O1191	O119	0.066600	0.950600	0.389200
O1201	O120	0.465400	0.979400	0.236800
O1211	O121	0.892100	0.113700	0.588600
O1221	O122	0.273700	0.440700	0.253900
O1231	O123	0.681200	0.378200	0.067400
O1241	O124	0.115800	0.938800	0.373600
O1251	O125	0.424900	0.835900	0.092300
O1261	O126	0.437900	0.616900	0.873300
O1271	O127	0.096100	0.355100	0.590700
O1281	O128	0.144600	0.402600	0.909200
O1291	O129	0.361600	0.861600	0.613200
O1301	O130	0.158000	0.419000	0.549000
O1311	O131	0.901800	0.627800	0.127600
O1321	O132	0.081800	0.434800	0.933600
O1331	O133	0.098200	0.372200	0.872400
O1341	O134	0.592100	0.413100	0.048700
O1351	O135	0.681600	0.534600	0.763200
O1361	O136	0.342600	0.625600	0.951200
O1371	O137	0.461400	0.834400	0.602800
O1381	O138	0.657400	0.374400	0.048800
O1391	O139	0.126800	0.318800	0.932600
O1401	O140	0.533900	0.988900	0.283300
O1411	O141	0.066300	0.417300	0.566100
O1421	O142	0.402600	0.543600	0.909200
O1431	O143	0.512300	0.964300	0.216100
O1441	O144	0.627800	0.342800	0.127600
O1451	O145	0.371600	0.878600	0.568200
O1461	O146	0.307300	0.512300	0.216100
O1471	O147	0.745400	0.497400	0.707800
O1481	O148	0.074400	0.853400	0.407800
O1491	O149	0.711400	0.539400	0.719800
O1501	O150	0.571800	0.115800	0.373600
O1511	O151	0.071900	0.437900	0.873300
O1521	O152	0.386500	0.608800	0.911300
O1531	O153	0.737400	0.433400	0.766800
O1541	O154	0.355100	0.958100	0.590700
O1551	O155	0.938800	0.571800	0.373600
O1561	O156	0.288600	0.460600	0.280200
O1571	O157	0.146600	0.335600	0.592200
O1581	O158	0.138400	0.836400	0.386800
O1591	O159	0.621800	0.126800	0.932600
O1601	O160	0.126000	0.842000	0.451000
O1611	O161	0.664900	0.037900	0.897300
O1621	O162	0.861600	0.163600	0.613200
O1631	O163	0.433300	0.906300	0.111100
O1641	O164	0.543600	0.144600	0.909200
O1651	O165	0.964100	0.818100	0.737700
O1661	O166	0.873200	0.681200	0.067400
O1671	O167	0.335600	0.925600	0.592200
O1681	O168	0.538600	0.165600	0.397200
O1691	O169	0.353100	0.575100	0.907700
O1701	O170	0.586900	0.053900	0.951300
O1711	O171	0.638400	0.138400	0.386800
O1721	O172	0.962100	0.600100	0.102700
O1731	O173	0.988900	0.193900	0.283300
O1741	O174	0.035900	0.181900	0.262300
O1751	O175	0.031700	0.273700	0.253900
O1761	O176	0.113700	0.405600	0.588600
O1771	O177	0.470500	0.960500	0.781500
O1781	O178	0.950600	0.593600	0.389200
O1791	O179	0.318400	0.465400	0.236800
O1801	O180	0.958100	0.096100	0.590700
O1811	O181	0.600100	0.335100	0.102700
O1821	O182	0.121400	0.818400	0.431800
O1831	O183	0.041900	0.903900	0.409300
O1841	O184	0.227900	0.467900	0.244300
O1851	O185	0.335000	0.640000	0.888000
O1861	O186	0.029400	0.711400	0.719800
O1871	O187	0.450700	0.566700	0.888900
O1881	O188	0.657200	0.098200	0.872400
O1891	O189	0.497400	0.049400	0.707800
O1901	O190	0.946100	0.592100	0.048700
O1911	O191	0.440700	0.031700	0.253900
O1921	O192	0.835900	0.646900	0.092300
O1931	O193	0.990200	0.250400	0.250300
O1941	O194	0.093700	0.450700	0.888900
O1951	O195	0.979400	0.318400	0.236800
O1961	O196	0.940100	0.772100	0.755700
O1971	O197	0.562100	0.383100	0.126700
O1981	O198	0.937600	0.262600	0.233200
O1991	O199	0.874000	0.158000	0.549000
O2001	O200	0.928100	0.562100	0.126700
O2011	O201	0.419000	0.874000	0.549000
O2021	O202	0.236700	0.562700	0.265900
O2031	O203	0.428200	0.884200	0.626400
O2041	O204	0.912200	0.093200	0.548400
O2051	O205	0.855400	0.597400	0.090800
O2061	O206	0.553800	0.087800	0.451600
O2071	O207	0.262600	0.566600	0.233200
O2081	O208	0.549300	0.433300	0.111100
O2091	O209	0.059900	0.227900	0.244300
O2101	O210	0.509100	0.990200	0.250300
O2111	O211	0.348500	0.969500	0.068500
O2121	O212	0.534600	0.020600	0.763200
O2131	O213	0.093200	0.446200	0.548400
O2141	O214	0.062400	0.737400	0.766800
O2151	O215	0.529500	0.039500	0.218500
O2161	O216	0.919400	0.657400	0.048800
O2171	O217	0.549800	0.081800	0.933600
O2181	O218	0.646900	0.424900	0.092300
O2191	O219	0.165600	0.898600	0.397200
O2201	O220	0.836400	0.638400	0.386800
O2211	O221	0.664400	0.074400	0.407800
O2221	O222	0.996400	0.247400	0.206800
O2231	O223	0.934700	0.236700	0.265900
O2241	O224	0.726300	0.559300	0.746100
O2251	O225	0.080600	0.342600	0.951200
O2261	O226	0.193900	0.533900	0.283300
O2271	O227	0.763300	0.437300	0.734100
O2281	O228	0.842000	0.581000	0.451000
O2291	O229	0.539400	0.029400	0.719800
O2301	O230	0.834400	0.101400	0.602800
O2311	O231	0.772100	0.532100	0.755700
O2321	O232	0.853400	0.664400	0.407800
O2331	O233	0.575100	0.164100	0.907700
O2341	O234	0.446200	0.912200	0.548400
