data_CUVHEH_freeONLY_PM
_symmetry_space_group_name_H-M	'P1'
_cell_length_a	36.405000
_cell_length_b	36.405000
_cell_length_c	11.694100
_cell_angle_alpha	90.000000
_cell_angle_beta	90.000000
_cell_angle_gamma	120.000000
_symmetry_Int_Tables_number 1

loop_
_symmetry_equiv_pos_as_xyz
'x,y,z'

loop_
_atom_site_label
_atom_site_type_symbol
_atom_site_fract_x
_atom_site_fract_y
_atom_site_fract_z
Nd11	Nd1	0.379740	0.149830	0.674940
O11	O1	0.410560	0.225100	0.627800
O21	O2	0.359410	0.242580	0.637900
O31	O3	0.447940	0.405120	0.806600
O41	O4	0.512270	0.414410	0.816600
O51	O5	0.340830	0.174500	0.788500
O61	O6	0.298300	0.190500	0.877700
O71	O7	0.451050	0.173740	0.596900
O81	O8	0.381790	0.085820	0.609200
C11	C1	0.396550	0.250260	0.623500
C21	C2	0.427510	0.296740	0.598300
C31	C3	0.442860	0.325570	0.688500
C41	C4	0.465490	0.369120	0.668800
C51	C5	0.476700	0.399220	0.770100
C61	C6	0.473590	0.383580	0.556200
C71	C7	0.460400	0.355900	0.461500
C81	C8	0.437240	0.311990	0.487100
C91	C9	0.327600	0.182400	0.876800
C101	C10	0.471500	0.200900	0.528500
H11	H1	0.458800	0.214800	0.494300
C111	C11	0.526300	0.241800	0.400000
H21	H2	0.509500	0.255200	0.391400
H31	H3	0.524300	0.226300	0.331500
H41	H4	0.555400	0.263000	0.412700
C121	C12	0.529900	0.183300	0.546000
H51	H5	0.514500	0.168300	0.613100
H61	H6	0.559300	0.201200	0.564900
H71	H7	0.527100	0.163400	0.488200
C131	C13	0.353200	0.050600	0.582600
H81	H8	0.326100	0.047000	0.576600
C141	C14	0.397400	0.019500	0.569300
H91	H9	0.419000	0.048300	0.583800
H101	H10	0.403400	0.010000	0.498800
H111	H11	0.396900	0.001700	0.630800
C151	C15	0.320900	0.975700	0.540800
H121	H12	0.295700	0.977900	0.537100
H131	H13	0.318200	0.956900	0.602000
H141	H14	0.324600	0.964700	0.469800
N11	N1	0.468500	0.370370	0.351200
N21	N2	0.510600	0.212400	0.498200
N31	N3	0.357200	0.017100	0.561500
I11	I1	0.433290	0.301900	0.856250
I21	I2	0.506270	0.449230	0.525250
I31	I3	0.417190	0.268100	0.352740
Nd21	Nd2	0.046410	0.483170	0.008270
O91	O9	0.077230	0.558430	0.961130
O101	O10	0.026080	0.575910	0.971230
O111	O11	0.114610	0.738450	0.139930
O121	O12	0.178940	0.747740	0.149930
O131	O13	0.007500	0.507830	0.121830
O141	O14	0.964970	0.523830	0.211030
O151	O15	0.117720	0.507070	0.930230
O161	O16	0.048460	0.419150	0.942530
C161	C16	0.063220	0.583590	0.956830
C171	C17	0.094180	0.630070	0.931630
C181	C18	0.109530	0.658900	0.021830
C191	C19	0.132160	0.702450	0.002130
C201	C20	0.143370	0.732550	0.103430
C211	C21	0.140260	0.716910	0.889530
C221	C22	0.127070	0.689230	0.794830
C231	C23	0.103910	0.645320	0.820430
C241	C24	0.994270	0.515730	0.210130
C251	C25	0.138170	0.534230	0.861830
H151	H15	0.125470	0.548130	0.827630
C261	C26	0.192970	0.575130	0.733330
H161	H16	0.176170	0.588530	0.724730
H171	H17	0.190970	0.559630	0.664830
H181	H18	0.222070	0.596330	0.746030
C271	C27	0.196570	0.516630	0.879330
H191	H19	0.181170	0.501630	0.946430
H201	H20	0.225970	0.534530	0.898230
H211	H21	0.193770	0.496730	0.821530
C281	C28	0.019870	0.383930	0.915930
H221	H22	0.992770	0.380330	0.909930
C291	C29	0.064070	0.352830	0.902630
H231	H23	0.085670	0.381630	0.917130
H241	H24	0.070070	0.343330	0.832130
H251	H25	0.063570	0.335030	0.964130
C301	C30	0.987570	0.309030	0.874130
H261	H26	0.962370	0.311230	0.870430
H271	H27	0.984870	0.290230	0.935330
H281	H28	0.991270	0.298030	0.803130
N41	N4	0.135170	0.703700	0.684530
N51	N5	0.177270	0.545730	0.831530
N61	N6	0.023870	0.350430	0.894830
I41	I4	0.099960	0.635230	0.189580
I51	I5	0.172940	0.782560	0.858580
I61	I6	0.083860	0.601440	0.686070
Nd31	Nd3	0.713070	0.816500	0.341610
O171	O17	0.743890	0.891770	0.294470
O181	O18	0.692740	0.909250	0.304570
O191	O19	0.781270	0.071790	0.473270
O201	O20	0.845600	0.081080	0.483270
O211	O21	0.674160	0.841170	0.455170
O221	O22	0.631630	0.857170	0.544370
O231	O23	0.784380	0.840410	0.263570
O241	O24	0.715120	0.752490	0.275870
C311	C31	0.729880	0.916930	0.290170
C321	C32	0.760840	0.963410	0.264970
C331	C33	0.776190	0.992240	0.355170
C341	C34	0.798820	0.035790	0.335470
C351	C35	0.810030	0.065890	0.436770
C361	C36	0.806920	0.050250	0.222870
C371	C37	0.793730	0.022570	0.128170
C381	C38	0.770570	0.978660	0.153770
C391	C39	0.660930	0.849070	0.543470
C401	C40	0.804830	0.867570	0.195170
H291	H29	0.792130	0.881470	0.160970
C411	C41	0.859630	0.908470	0.066670
H301	H30	0.842830	0.921870	0.058070
H311	H31	0.857630	0.892970	0.998170
H321	H32	0.888730	0.929670	0.079370
C421	C42	0.863230	0.849970	0.212670
H331	H33	0.847830	0.834970	0.279770
H341	H34	0.892630	0.867870	0.231570
H351	H35	0.860430	0.830070	0.154870
C431	C43	0.686530	0.717270	0.249270
H361	H36	0.659430	0.713670	0.243270
C441	C44	0.730730	0.686170	0.235970
H371	H37	0.752330	0.714970	0.250470
H381	H38	0.736730	0.676670	0.165470
H391	H39	0.730230	0.668370	0.297470
C451	C45	0.654230	0.642370	0.207470
H401	H40	0.629030	0.644570	0.203770
H411	H41	0.651530	0.623570	0.268670
H421	H42	0.657930	0.631370	0.136470
N71	N7	0.801830	0.037040	0.017870
N81	N8	0.843930	0.879070	0.164870
N91	N9	0.690530	0.683770	0.228170
I71	I7	0.766620	0.968560	0.522920
I81	I8	0.839610	0.115890	0.191920
I91	I9	0.750520	0.934770	0.019410
Nd41	Nd4	0.850170	0.229900	0.674940
O251	O25	0.774900	0.185460	0.627800
O261	O26	0.757420	0.116830	0.637900
O271	O27	0.594880	0.042820	0.806600
O281	O28	0.585590	0.097860	0.816600
O291	O29	0.825500	0.166330	0.788500
O301	O30	0.809500	0.107800	0.877700
O311	O31	0.826260	0.277310	0.596900
O321	O32	0.914180	0.295970	0.609200
C461	C46	0.749740	0.146290	0.623500
C471	C47	0.703260	0.130770	0.598300
C481	C48	0.674430	0.117290	0.688500
C491	C49	0.630880	0.096370	0.668800
C501	C50	0.600780	0.077480	0.770100
C511	C51	0.616420	0.090010	0.556200
C521	C52	0.644100	0.104500	0.461500
C531	C53	0.688010	0.125250	0.487100
C541	C54	0.817600	0.145200	0.876800
C551	C55	0.799100	0.270600	0.528500
H431	H43	0.785200	0.244000	0.494300
C561	C56	0.758200	0.284500	0.400000
H441	H44	0.744800	0.254300	0.391400
H451	H45	0.773700	0.298000	0.331500
H461	H46	0.737000	0.292400	0.412700
C571	C57	0.816700	0.346600	0.546000
H471	H47	0.831700	0.346200	0.613100
H481	H48	0.798800	0.358100	0.564900
H491	H49	0.836600	0.363700	0.488200
C581	C58	0.949400	0.302600	0.582600
H501	H50	0.953000	0.279100	0.576600
C591	C59	0.980500	0.377900	0.569300
H511	H51	0.951700	0.370700	0.583800
H521	H52	0.990000	0.393400	0.498800
H531	H53	0.998300	0.395200	0.630800
C601	C60	0.024300	0.345200	0.540800
H541	H54	0.022100	0.317800	0.537100
H551	H55	0.043100	0.361300	0.602000
H561	H56	0.035300	0.359900	0.469800
N101	N10	0.629630	0.098130	0.351200
N111	N11	0.787600	0.298200	0.498200
N121	N12	0.982900	0.340100	0.561500
I101	I10	0.698100	0.131390	0.856250
I111	I11	0.550770	0.057050	0.525250
I121	I12	0.731900	0.149090	0.352740
Nd51	Nd5	0.516830	0.563240	0.008270
O331	O33	0.441570	0.518790	0.961130
O341	O34	0.424090	0.450160	0.971230
O351	O35	0.261550	0.376150	0.139930
O361	O36	0.252260	0.431190	0.149930
O371	O37	0.492170	0.499660	0.121830
O381	O38	0.476170	0.441130	0.211030
O391	O39	0.492930	0.610640	0.930230
O401	O40	0.580850	0.629300	0.942530
C611	C61	0.416410	0.479620	0.956830
C621	C62	0.369930	0.464100	0.931630
C631	C63	0.341100	0.450620	0.021830
C641	C64	0.297550	0.429700	0.002130
C651	C65	0.267450	0.410810	0.103430
C661	C66	0.283090	0.423340	0.889530
C671	C67	0.310770	0.437830	0.794830
C681	C68	0.354680	0.458580	0.820430
C691	C69	0.484270	0.478530	0.210130
C701	C70	0.465770	0.603930	0.861830
H571	H57	0.451870	0.577330	0.827630
C711	C71	0.424870	0.617830	0.733330
H581	H58	0.411470	0.587630	0.724730
H591	H59	0.440370	0.631330	0.664830
H601	H60	0.403670	0.625730	0.746030
C721	C72	0.483370	0.679930	0.879330
H611	H61	0.498370	0.679530	0.946430
H621	H62	0.465470	0.691430	0.898230
H631	H63	0.503270	0.697030	0.821530
C731	C73	0.616070	0.635930	0.915930
H641	H64	0.619670	0.612430	0.909930
C741	C74	0.647170	0.711230	0.902630
H651	H65	0.618370	0.704030	0.917130
H661	H66	0.656670	0.726730	0.832130
H671	H67	0.664970	0.728530	0.964130
C751	C75	0.690970	0.678530	0.874130
H681	H68	0.688770	0.651130	0.870430
H691	H69	0.709770	0.694630	0.935330
H701	H70	0.701970	0.693230	0.803130
N131	N13	0.296300	0.431460	0.684530
N141	N14	0.454270	0.631530	0.831530
N151	N15	0.649570	0.673430	0.894830
I131	I13	0.364770	0.464730	0.189580
I141	I14	0.217440	0.390380	0.858580
I151	I15	0.398560	0.482420	0.686070
Nd61	Nd6	0.183500	0.896570	0.341610
O411	O41	0.108230	0.852130	0.294470
O421	O42	0.090750	0.783500	0.304570
O431	O43	0.928210	0.709490	0.473270
O441	O44	0.918920	0.764530	0.483270
O451	O45	0.158830	0.833000	0.455170
O461	O46	0.142830	0.774470	0.544370
O471	O47	0.159590	0.943980	0.263570
O481	O48	0.247510	0.962640	0.275870
C761	C76	0.083070	0.812960	0.290170
C771	C77	0.036590	0.797440	0.264970
C781	C78	0.007760	0.783960	0.355170
C791	C79	0.964210	0.763040	0.335470
C801	C80	0.934110	0.744150	0.436770
C811	C81	0.949750	0.756680	0.222870
C821	C82	0.977430	0.771170	0.128170
C831	C83	0.021340	0.791920	0.153770
C841	C84	0.150930	0.811870	0.543470
C851	C85	0.132430	0.937270	0.195170
H711	H71	0.118530	0.910670	0.160970
C861	C86	0.091530	0.951170	0.066670
H721	H72	0.078130	0.920970	0.058070
H731	H73	0.107030	0.964670	0.998170
H741	H74	0.070330	0.959070	0.079370
C871	C87	0.150030	0.013270	0.212670
H751	H75	0.165030	0.012870	0.279770
H761	H76	0.132130	0.024770	0.231570
H771	H77	0.169930	0.030370	0.154870
C881	C88	0.282730	0.969270	0.249270
H781	H78	0.286330	0.945770	0.243270
C891	C89	0.313830	0.044570	0.235970
H791	H79	0.285030	0.037370	0.250470
H801	H80	0.323330	0.060070	0.165470
H811	H81	0.331630	0.061870	0.297470
C901	C90	0.357630	0.011870	0.207470
H821	H82	0.355430	0.984470	0.203770
H831	H83	0.376430	0.027970	0.268670
H841	H84	0.368630	0.026570	0.136470
N161	N16	0.962960	0.764800	0.017870
N171	N17	0.120930	0.964870	0.164870
N181	N18	0.316230	0.006770	0.228170
I161	I16	0.031440	0.798060	0.522920
I171	I17	0.884110	0.723710	0.191920
I181	I18	0.065230	0.815750	0.019410
Nd71	Nd7	0.770100	0.620260	0.674940
O491	O49	0.814540	0.589440	0.627800
O501	O50	0.883170	0.640590	0.637900
O511	O51	0.957180	0.552060	0.806600
O521	O52	0.902140	0.487730	0.816600
O531	O53	0.833670	0.659170	0.788500
O541	O54	0.892200	0.701700	0.877700
O551	O55	0.722690	0.548950	0.596900
O561	O56	0.704030	0.618210	0.609200
C911	C91	0.853710	0.603450	0.623500
C921	C92	0.869230	0.572490	0.598300
C931	C93	0.882710	0.557140	0.688500
C941	C94	0.903630	0.534510	0.668800
C951	C95	0.922520	0.523300	0.770100
C961	C96	0.909990	0.526410	0.556200
C971	C97	0.895500	0.539600	0.461500
C981	C98	0.874750	0.562760	0.487100
C991	C99	0.854800	0.672400	0.876800
C1001	C100	0.729400	0.528500	0.528500
H851	H85	0.756000	0.541200	0.494300
C1011	C101	0.715500	0.473700	0.400000
H861	H86	0.745700	0.490500	0.391400
H871	H87	0.702000	0.475700	0.331500
H881	H88	0.707600	0.444600	0.412700
C1021	C102	0.653400	0.470100	0.546000
H891	H89	0.653800	0.485500	0.613100
H901	H90	0.641900	0.440700	0.564900
H911	H91	0.636300	0.472900	0.488200
C1031	C103	0.697400	0.646800	0.582600
H921	H92	0.720900	0.673900	0.576600
C1041	C104	0.622100	0.602600	0.569300
H931	H93	0.629300	0.581000	0.583800
H941	H94	0.606600	0.596600	0.498800
H951	H95	0.604800	0.603100	0.630800
C1051	C105	0.654800	0.679100	0.540800
H961	H96	0.682200	0.704300	0.537100
H971	H97	0.638700	0.681800	0.602000
H981	H98	0.640100	0.675400	0.469800
N191	N19	0.901870	0.531500	0.351200
N201	N20	0.701800	0.489400	0.498200
N211	N21	0.659900	0.642800	0.561500
I191	I19	0.868610	0.566710	0.856250
I201	I20	0.942950	0.493730	0.525250
I211	I21	0.850910	0.582810	0.352740
Nd81	Nd8	0.436760	0.953590	0.008270
O571	O57	0.481210	0.922770	0.961130
O581	O58	0.549840	0.973920	0.971230
O591	O59	0.623850	0.885390	0.139930
O601	O60	0.568810	0.821060	0.149930
O611	O61	0.500340	0.992500	0.121830
O621	O62	0.558870	0.035030	0.211030
O631	O63	0.389360	0.882280	0.930230
O641	O64	0.370700	0.951540	0.942530
C1061	C106	0.520380	0.936780	0.956830
C1071	C107	0.535900	0.905820	0.931630
C1081	C108	0.549380	0.890470	0.021830
C1091	C109	0.570300	0.867840	0.002130
C1101	C110	0.589190	0.856630	0.103430
C1111	C111	0.576660	0.859740	0.889530
C1121	C112	0.562170	0.872930	0.794830
C1131	C113	0.541420	0.896090	0.820430
C1141	C114	0.521470	0.005730	0.210130
C1151	C115	0.396070	0.861830	0.861830
H991	H99	0.422670	0.874530	0.827630
C1161	C116	0.382170	0.807030	0.733330
H1001	H100	0.412370	0.823830	0.724730
H1011	H101	0.368670	0.809030	0.664830
H1021	H102	0.374270	0.777930	0.746030
C1171	C117	0.320070	0.803430	0.879330
H1031	H103	0.320470	0.818830	0.946430
H1041	H104	0.308570	0.774030	0.898230
H1051	H105	0.302970	0.806230	0.821530
C1181	C118	0.364070	0.980130	0.915930
H1061	H106	0.387570	0.007230	0.909930
C1191	C119	0.288770	0.935930	0.902630
H1071	H107	0.295970	0.914330	0.917130
H1081	H108	0.273270	0.929930	0.832130
H1091	H109	0.271470	0.936430	0.964130
C1201	C120	0.321470	0.012430	0.874130
H1101	H110	0.348870	0.037630	0.870430
H1111	H111	0.305370	0.015130	0.935330
H1121	H112	0.306770	0.008730	0.803130
N221	N22	0.568540	0.864830	0.684530
N231	N23	0.368470	0.822730	0.831530
N241	N24	0.326570	0.976130	0.894830
I221	I22	0.535270	0.900040	0.189580
I231	I23	0.609620	0.827060	0.858580
I241	I24	0.517580	0.916140	0.686070
Nd91	Nd9	0.103430	0.286930	0.341610
O651	O65	0.147870	0.256110	0.294470
O661	O66	0.216500	0.307260	0.304570
O671	O67	0.290510	0.218730	0.473270
O681	O68	0.235470	0.154400	0.483270
O691	O69	0.167000	0.325840	0.455170
O701	O70	0.225530	0.368370	0.544370
O711	O71	0.056020	0.215620	0.263570
O721	O72	0.037360	0.284880	0.275870
C1211	C121	0.187040	0.270120	0.290170
C1221	C122	0.202560	0.239160	0.264970
C1231	C123	0.216040	0.223810	0.355170
C1241	C124	0.236960	0.201180	0.335470
C1251	C125	0.255850	0.189970	0.436770
C1261	C126	0.243320	0.193080	0.222870
C1271	C127	0.228830	0.206270	0.128170
C1281	C128	0.208080	0.229430	0.153770
C1291	C129	0.188130	0.339070	0.543470
C1301	C130	0.062730	0.195170	0.195170
H1131	H113	0.089330	0.207870	0.160970
C1311	C131	0.048830	0.140370	0.066670
H1141	H114	0.079030	0.157170	0.058070
H1151	H115	0.035330	0.142370	0.998170
H1161	H116	0.040930	0.111270	0.079370
C1321	C132	0.986730	0.136770	0.212670
H1171	H117	0.987130	0.152170	0.279770
H1181	H118	0.975230	0.107370	0.231570
H1191	H119	0.969630	0.139570	0.154870
C1331	C133	0.030730	0.313470	0.249270
H1201	H120	0.054230	0.340570	0.243270
C1341	C134	0.955430	0.269270	0.235970
H1211	H121	0.962630	0.247670	0.250470
H1221	H122	0.939930	0.263270	0.165470
H1231	H123	0.938130	0.269770	0.297470
C1351	C135	0.988130	0.345770	0.207470
H1241	H124	0.015530	0.370970	0.203770
H1251	H125	0.972030	0.348470	0.268670
H1261	H126	0.973430	0.342070	0.136470
N251	N25	0.235200	0.198170	0.017870
N261	N26	0.035130	0.156070	0.164870
N271	N27	0.993230	0.309470	0.228170
I251	I25	0.201940	0.233380	0.522920
I261	I26	0.276290	0.160390	0.191920
I271	I27	0.184250	0.249480	0.019410
Nd101	Nd10	0.620260	0.850170	0.325060
O731	O73	0.589440	0.774900	0.372200
O741	O74	0.640590	0.757420	0.362100
O751	O75	0.552060	0.594880	0.193400
O761	O76	0.487730	0.585590	0.183400
O771	O77	0.659170	0.825500	0.211500
O781	O78	0.701700	0.809500	0.122300
O791	O79	0.548950	0.826260	0.403100
O801	O80	0.618210	0.914180	0.390800
C1361	C136	0.603450	0.749740	0.376500
C1371	C137	0.572490	0.703260	0.401700
C1381	C138	0.557140	0.674430	0.311500
C1391	C139	0.534510	0.630880	0.331200
C1401	C140	0.523300	0.600780	0.229900
C1411	C141	0.526410	0.616420	0.443800
C1421	C142	0.539600	0.644100	0.538500
C1431	C143	0.562760	0.688010	0.512900
C1441	C144	0.672400	0.817600	0.123200
C1451	C145	0.528500	0.799100	0.471500
H1271	H127	0.541200	0.785200	0.505700
C1461	C146	0.473700	0.758200	0.600000
H1281	H128	0.490500	0.744800	0.608600
H1291	H129	0.475700	0.773700	0.668500
H1301	H130	0.444600	0.737000	0.587300
C1471	C147	0.470100	0.816700	0.454000
H1311	H131	0.485500	0.831700	0.386900
H1321	H132	0.440700	0.798800	0.435100
H1331	H133	0.472900	0.836600	0.511800
C1481	C148	0.646800	0.949400	0.417400
H1341	H134	0.673900	0.953000	0.423400
C1491	C149	0.602600	0.980500	0.430700
H1351	H135	0.581000	0.951700	0.416200
H1361	H136	0.596600	0.990000	0.501200
H1371	H137	0.603100	0.998300	0.369200
C1501	C150	0.679100	0.024300	0.459200
H1381	H138	0.704300	0.022100	0.462900
H1391	H139	0.681800	0.043100	0.398000
H1401	H140	0.675400	0.035300	0.530200
N281	N28	0.531500	0.629630	0.648800
N291	N29	0.489400	0.787600	0.501800
N301	N30	0.642800	0.982900	0.438500
I281	I28	0.566710	0.698100	0.143750
I291	I29	0.493730	0.550770	0.474750
I301	I30	0.582810	0.731900	0.647260
Nd111	Nd11	0.286930	0.183500	0.658390
O811	O81	0.256110	0.108230	0.705530
O821	O82	0.307260	0.090750	0.695430
O831	O83	0.218730	0.928210	0.526730
O841	O84	0.154400	0.918920	0.516730
O851	O85	0.325840	0.158830	0.544830
O861	O86	0.368370	0.142830	0.455630
O871	O87	0.215620	0.159590	0.736430
O881	O88	0.284880	0.247510	0.724130
C1511	C151	0.270120	0.083070	0.709830
C1521	C152	0.239160	0.036590	0.735030
C1531	C153	0.223810	0.007760	0.644830
C1541	C154	0.201180	0.964210	0.664530
C1551	C155	0.189970	0.934110	0.563230
C1561	C156	0.193080	0.949750	0.777130
C1571	C157	0.206270	0.977430	0.871830
C1581	C158	0.229430	0.021340	0.846230
C1591	C159	0.339070	0.150930	0.456530
C1601	C160	0.195170	0.132430	0.804830
H1411	H141	0.207870	0.118530	0.839030
C1611	C161	0.140370	0.091530	0.933330
H1421	H142	0.157170	0.078130	0.941930
H1431	H143	0.142370	0.107030	0.001830
H1441	H144	0.111270	0.070330	0.920630
C1621	C162	0.136770	0.150030	0.787330
H1451	H145	0.152170	0.165030	0.720230
H1461	H146	0.107370	0.132130	0.768430
H1471	H147	0.139570	0.169930	0.845130
C1631	C163	0.313470	0.282730	0.750730
H1481	H148	0.340570	0.286330	0.756730
C1641	C164	0.269270	0.313830	0.764030
H1491	H149	0.247670	0.285030	0.749530
H1501	H150	0.263270	0.323330	0.834530
H1511	H151	0.269770	0.331630	0.702530
C1651	C165	0.345770	0.357630	0.792530
H1521	H152	0.370970	0.355430	0.796230
H1531	H153	0.348470	0.376430	0.731330
H1541	H154	0.342070	0.368630	0.863530
N311	N31	0.198170	0.962960	0.982130
N321	N32	0.156070	0.120930	0.835130
N331	N33	0.309470	0.316230	0.771830
I311	I31	0.233380	0.031440	0.477080
I321	I32	0.160390	0.884110	0.808080
I331	I33	0.249480	0.065230	0.980590
Nd121	Nd12	0.953590	0.516830	0.991730
O891	O89	0.922770	0.441570	0.038870
O901	O90	0.973920	0.424090	0.028770
O911	O91	0.885390	0.261550	0.860070
O921	O92	0.821060	0.252260	0.850070
O931	O93	0.992500	0.492170	0.878170
O941	O94	0.035030	0.476170	0.788970
O951	O95	0.882280	0.492930	0.069770
O961	O96	0.951540	0.580850	0.057470
C1661	C166	0.936780	0.416410	0.043170
C1671	C167	0.905820	0.369930	0.068370
C1681	C168	0.890470	0.341100	0.978170
C1691	C169	0.867840	0.297550	0.997870
C1701	C170	0.856630	0.267450	0.896570
C1711	C171	0.859740	0.283090	0.110470
C1721	C172	0.872930	0.310770	0.205170
C1731	C173	0.896090	0.354680	0.179570
C1741	C174	0.005730	0.484270	0.789870
C1751	C175	0.861830	0.465770	0.138170
H1551	H155	0.874530	0.451870	0.172370
C1761	C176	0.807030	0.424870	0.266670
H1561	H156	0.823830	0.411470	0.275270
H1571	H157	0.809030	0.440370	0.335170
H1581	H158	0.777930	0.403670	0.253970
C1771	C177	0.803430	0.483370	0.120670
H1591	H159	0.818830	0.498370	0.053570
H1601	H160	0.774030	0.465470	0.101770
H1611	H161	0.806230	0.503270	0.178470
C1781	C178	0.980130	0.616070	0.084070
H1621	H162	0.007230	0.619670	0.090070
C1791	C179	0.935930	0.647170	0.097370
H1631	H163	0.914330	0.618370	0.082870
H1641	H164	0.929930	0.656670	0.167870
H1651	H165	0.936430	0.664970	0.035870
C1801	C180	0.012430	0.690970	0.125870
H1661	H166	0.037630	0.688770	0.129570
H1671	H167	0.015130	0.709770	0.064670
H1681	H168	0.008730	0.701970	0.196870
N341	N34	0.864830	0.296300	0.315470
N351	N35	0.822730	0.454270	0.168470
N361	N36	0.976130	0.649570	0.105170
I341	I34	0.900040	0.364770	0.810420
I351	I35	0.827060	0.217440	0.141420
I361	I36	0.916140	0.398560	0.313930
Nd131	Nd13	0.149830	0.770100	0.325060
O971	O97	0.225100	0.814540	0.372200
O981	O98	0.242580	0.883170	0.362100
O991	O99	0.405120	0.957180	0.193400
O1001	O100	0.414410	0.902140	0.183400
O1011	O101	0.174500	0.833670	0.211500
O1021	O102	0.190500	0.892200	0.122300
O1031	O103	0.173740	0.722690	0.403100
O1041	O104	0.085820	0.704030	0.390800
C1811	C181	0.250260	0.853710	0.376500
C1821	C182	0.296740	0.869230	0.401700
C1831	C183	0.325570	0.882710	0.311500
C1841	C184	0.369120	0.903630	0.331200
C1851	C185	0.399220	0.922520	0.229900
C1861	C186	0.383580	0.909990	0.443800
C1871	C187	0.355900	0.895500	0.538500
C1881	C188	0.311990	0.874750	0.512900
C1891	C189	0.182400	0.854800	0.123200
C1901	C190	0.200900	0.729400	0.471500
H1691	H169	0.214800	0.756000	0.505700
C1911	C191	0.241800	0.715500	0.600000
H1701	H170	0.255200	0.745700	0.608600
H1711	H171	0.226300	0.702000	0.668500
H1721	H172	0.263000	0.707600	0.587300
C1921	C192	0.183300	0.653400	0.454000
H1731	H173	0.168300	0.653800	0.386900
H1741	H174	0.201200	0.641900	0.435100
H1751	H175	0.163400	0.636300	0.511800
C1931	C193	0.050600	0.697400	0.417400
H1761	H176	0.047000	0.720900	0.423400
C1941	C194	0.019500	0.622100	0.430700
H1771	H177	0.048300	0.629300	0.416200
H1781	H178	0.010000	0.606600	0.501200
H1791	H179	0.001700	0.604800	0.369200
C1951	C195	0.975700	0.654800	0.459200
H1801	H180	0.977900	0.682200	0.462900
H1811	H181	0.956900	0.638700	0.398000
H1821	H182	0.964700	0.640100	0.530200
N371	N37	0.370370	0.901870	0.648800
N381	N38	0.212400	0.701800	0.501800
N391	N39	0.017100	0.659900	0.438500
I371	I37	0.301900	0.868610	0.143750
I381	I38	0.449230	0.942950	0.474750
I391	I39	0.268100	0.850910	0.647260
Nd141	Nd14	0.816500	0.103430	0.658390
O1051	O105	0.891770	0.147870	0.705530
O1061	O106	0.909250	0.216500	0.695430
O1071	O107	0.071790	0.290510	0.526730
O1081	O108	0.081080	0.235470	0.516730
O1091	O109	0.841170	0.167000	0.544830
O1101	O110	0.857170	0.225530	0.455630
O1111	O111	0.840410	0.056020	0.736430
O1121	O112	0.752490	0.037360	0.724130
C1961	C196	0.916930	0.187040	0.709830
C1971	C197	0.963410	0.202560	0.735030
C1981	C198	0.992240	0.216040	0.644830
C1991	C199	0.035790	0.236960	0.664530
C2001	C200	0.065890	0.255850	0.563230
C2011	C201	0.050250	0.243320	0.777130
C2021	C202	0.022570	0.228830	0.871830
C2031	C203	0.978660	0.208080	0.846230
C2041	C204	0.849070	0.188130	0.456530
C2051	C205	0.867570	0.062730	0.804830
H1831	H183	0.881470	0.089330	0.839030
C2061	C206	0.908470	0.048830	0.933330
H1841	H184	0.921870	0.079030	0.941930
H1851	H185	0.892970	0.035330	0.001830
H1861	H186	0.929670	0.040930	0.920630
C2071	C207	0.849970	0.986730	0.787330
H1871	H187	0.834970	0.987130	0.720230
H1881	H188	0.867870	0.975230	0.768430
H1891	H189	0.830070	0.969630	0.845130
C2081	C208	0.717270	0.030730	0.750730
H1901	H190	0.713670	0.054230	0.756730
C2091	C209	0.686170	0.955430	0.764030
H1911	H191	0.714970	0.962630	0.749530
H1921	H192	0.676670	0.939930	0.834530
H1931	H193	0.668370	0.938130	0.702530
C2101	C210	0.642370	0.988130	0.792530
H1941	H194	0.644570	0.015530	0.796230
H1951	H195	0.623570	0.972030	0.731330
H1961	H196	0.631370	0.973430	0.863530
N401	N40	0.037040	0.235200	0.982130
N411	N41	0.879070	0.035130	0.835130
N421	N42	0.683770	0.993230	0.771830
I401	I40	0.968560	0.201940	0.477080
I411	I41	0.115890	0.276290	0.808080
I421	I42	0.934770	0.184250	0.980590
Nd151	Nd15	0.483170	0.436760	0.991730
O1131	O113	0.558430	0.481210	0.038870
O1141	O114	0.575910	0.549840	0.028770
O1151	O115	0.738450	0.623850	0.860070
O1161	O116	0.747740	0.568810	0.850070
O1171	O117	0.507830	0.500340	0.878170
O1181	O118	0.523830	0.558870	0.788970
O1191	O119	0.507070	0.389360	0.069770
O1201	O120	0.419150	0.370700	0.057470
C2111	C211	0.583590	0.520380	0.043170
C2121	C212	0.630070	0.535900	0.068370
C2131	C213	0.658900	0.549380	0.978170
C2141	C214	0.702450	0.570300	0.997870
C2151	C215	0.732550	0.589190	0.896570
C2161	C216	0.716910	0.576660	0.110470
C2171	C217	0.689230	0.562170	0.205170
C2181	C218	0.645320	0.541420	0.179570
C2191	C219	0.515730	0.521470	0.789870
C2201	C220	0.534230	0.396070	0.138170
H1971	H197	0.548130	0.422670	0.172370
C2211	C221	0.575130	0.382170	0.266670
H1981	H198	0.588530	0.412370	0.275270
H1991	H199	0.559630	0.368670	0.335170
H2001	H200	0.596330	0.374270	0.253970
C2221	C222	0.516630	0.320070	0.120670
H2011	H201	0.501630	0.320470	0.053570
H2021	H202	0.534530	0.308570	0.101770
H2031	H203	0.496730	0.302970	0.178470
C2231	C223	0.383930	0.364070	0.084070
H2041	H204	0.380330	0.387570	0.090070
C2241	C224	0.352830	0.288770	0.097370
H2051	H205	0.381630	0.295970	0.082870
H2061	H206	0.343330	0.273270	0.167870
H2071	H207	0.335030	0.271470	0.035870
C2251	C225	0.309030	0.321470	0.125870
H2081	H208	0.311230	0.348870	0.129570
H2091	H209	0.290230	0.305370	0.064670
H2101	H210	0.298030	0.306770	0.196870
N431	N43	0.703700	0.568540	0.315470
N441	N44	0.545730	0.368470	0.168470
N451	N45	0.350430	0.326570	0.105170
I431	I43	0.635230	0.535270	0.810420
I441	I44	0.782560	0.609620	0.141420
I451	I45	0.601440	0.517580	0.313930
Nd161	Nd16	0.229900	0.379740	0.325060
O1211	O121	0.185460	0.410560	0.372200
O1221	O122	0.116830	0.359410	0.362100
O1231	O123	0.042820	0.447940	0.193400
O1241	O124	0.097860	0.512270	0.183400
O1251	O125	0.166330	0.340830	0.211500
O1261	O126	0.107800	0.298300	0.122300
O1271	O127	0.277310	0.451050	0.403100
O1281	O128	0.295970	0.381790	0.390800
C2261	C226	0.146290	0.396550	0.376500
C2271	C227	0.130770	0.427510	0.401700
C2281	C228	0.117290	0.442860	0.311500
C2291	C229	0.096370	0.465490	0.331200
C2301	C230	0.077480	0.476700	0.229900
C2311	C231	0.090010	0.473590	0.443800
C2321	C232	0.104500	0.460400	0.538500
C2331	C233	0.125250	0.437240	0.512900
C2341	C234	0.145200	0.327600	0.123200
C2351	C235	0.270600	0.471500	0.471500
H2111	H211	0.244000	0.458800	0.505700
C2361	C236	0.284500	0.526300	0.600000
H2121	H212	0.254300	0.509500	0.608600
H2131	H213	0.298000	0.524300	0.668500
H2141	H214	0.292400	0.555400	0.587300
C2371	C237	0.346600	0.529900	0.454000
H2151	H215	0.346200	0.514500	0.386900
H2161	H216	0.358100	0.559300	0.435100
H2171	H217	0.363700	0.527100	0.511800
C2381	C238	0.302600	0.353200	0.417400
H2181	H218	0.279100	0.326100	0.423400
C2391	C239	0.377900	0.397400	0.430700
H2191	H219	0.370700	0.419000	0.416200
H2201	H220	0.393400	0.403400	0.501200
H2211	H221	0.395200	0.396900	0.369200
C2401	C240	0.345200	0.320900	0.459200
H2221	H222	0.317800	0.295700	0.462900
H2231	H223	0.361300	0.318200	0.398000
H2241	H224	0.359900	0.324600	0.530200
N461	N46	0.098130	0.468500	0.648800
N471	N47	0.298200	0.510600	0.501800
N481	N48	0.340100	0.357200	0.438500
I461	I46	0.131390	0.433290	0.143750
I471	I47	0.057050	0.506270	0.474750
I481	I48	0.149090	0.417190	0.647260
Nd171	Nd17	0.896570	0.713070	0.658390
O1291	O129	0.852130	0.743890	0.705530
O1301	O130	0.783500	0.692740	0.695430
O1311	O131	0.709490	0.781270	0.526730
O1321	O132	0.764530	0.845600	0.516730
O1331	O133	0.833000	0.674160	0.544830
O1341	O134	0.774470	0.631630	0.455630
O1351	O135	0.943980	0.784380	0.736430
O1361	O136	0.962640	0.715120	0.724130
C2411	C241	0.812960	0.729880	0.709830
C2421	C242	0.797440	0.760840	0.735030
C2431	C243	0.783960	0.776190	0.644830
C2441	C244	0.763040	0.798820	0.664530
C2451	C245	0.744150	0.810030	0.563230
C2461	C246	0.756680	0.806920	0.777130
C2471	C247	0.771170	0.793730	0.871830
C2481	C248	0.791920	0.770570	0.846230
C2491	C249	0.811870	0.660930	0.456530
C2501	C250	0.937270	0.804830	0.804830
H2251	H225	0.910670	0.792130	0.839030
C2511	C251	0.951170	0.859630	0.933330
H2261	H226	0.920970	0.842830	0.941930
H2271	H227	0.964670	0.857630	0.001830
H2281	H228	0.959070	0.888730	0.920630
C2521	C252	0.013270	0.863230	0.787330
H2291	H229	0.012870	0.847830	0.720230
H2301	H230	0.024770	0.892630	0.768430
H2311	H231	0.030370	0.860430	0.845130
C2531	C253	0.969270	0.686530	0.750730
H2321	H232	0.945770	0.659430	0.756730
C2541	C254	0.044570	0.730730	0.764030
H2331	H233	0.037370	0.752330	0.749530
H2341	H234	0.060070	0.736730	0.834530
H2351	H235	0.061870	0.730230	0.702530
C2551	C255	0.011870	0.654230	0.792530
H2361	H236	0.984470	0.629030	0.796230
H2371	H237	0.027970	0.651530	0.731330
H2381	H238	0.026570	0.657930	0.863530
N491	N49	0.764800	0.801830	0.982130
N501	N50	0.964870	0.843930	0.835130
N511	N51	0.006770	0.690530	0.771830
I491	I49	0.798060	0.766620	0.477080
I501	I50	0.723710	0.839610	0.808080
I511	I51	0.815750	0.750520	0.980590
Nd181	Nd18	0.563240	0.046410	0.991730
O1371	O137	0.518790	0.077230	0.038870
O1381	O138	0.450160	0.026080	0.028770
O1391	O139	0.376150	0.114610	0.860070
O1401	O140	0.431190	0.178940	0.850070
O1411	O141	0.499660	0.007500	0.878170
O1421	O142	0.441130	0.964970	0.788970
O1431	O143	0.610640	0.117720	0.069770
O1441	O144	0.629300	0.048460	0.057470
C2561	C256	0.479620	0.063220	0.043170
C2571	C257	0.464100	0.094180	0.068370
C2581	C258	0.450620	0.109530	0.978170
C2591	C259	0.429700	0.132160	0.997870
C2601	C260	0.410810	0.143370	0.896570
C2611	C261	0.423340	0.140260	0.110470
C2621	C262	0.437830	0.127070	0.205170
C2631	C263	0.458580	0.103910	0.179570
C2641	C264	0.478530	0.994270	0.789870
C2651	C265	0.603930	0.138170	0.138170
H2391	H239	0.577330	0.125470	0.172370
C2661	C266	0.617830	0.192970	0.266670
H2401	H240	0.587630	0.176170	0.275270
H2411	H241	0.631330	0.190970	0.335170
H2421	H242	0.625730	0.222070	0.253970
C2671	C267	0.679930	0.196570	0.120670
H2431	H243	0.679530	0.181170	0.053570
H2441	H244	0.691430	0.225970	0.101770
H2451	H245	0.697030	0.193770	0.178470
C2681	C268	0.635930	0.019870	0.084070
H2461	H246	0.612430	0.992770	0.090070
C2691	C269	0.711230	0.064070	0.097370
H2471	H247	0.704030	0.085670	0.082870
H2481	H248	0.726730	0.070070	0.167870
H2491	H249	0.728530	0.063570	0.035870
C2701	C270	0.678530	0.987570	0.125870
H2501	H250	0.651130	0.962370	0.129570
H2511	H251	0.694630	0.984870	0.064670
H2521	H252	0.693230	0.991270	0.196870
N521	N52	0.431460	0.135170	0.315470
N531	N53	0.631530	0.177270	0.168470
N541	N54	0.673430	0.023870	0.105170
I521	I52	0.464730	0.099960	0.810420
I531	I53	0.390380	0.172940	0.141420
I541	I54	0.482420	0.083860	0.313930
