data_CUVHIL01_freeONLY_PM
_symmetry_space_group_name_H-M	'P1'
_cell_length_a	11.663500
_cell_length_b	21.380700
_cell_length_c	21.380700
_cell_angle_alpha	63.230500
_cell_angle_beta	79.523200
_cell_angle_gamma	100.477000
_symmetry_Int_Tables_number 1

loop_
_symmetry_equiv_pos_as_xyz
'x,y,z'

loop_
_atom_site_label
_atom_site_type_symbol
_atom_site_fract_x
_atom_site_fract_y
_atom_site_fract_z
Nd11	Nd1	0.444740	0.390540	0.079670
Nd21	Nd2	0.524410	0.079670	0.529790
Nd31	Nd3	0.054200	0.529790	0.390540
Nd41	Nd4	0.555270	0.609470	0.920320
Nd51	Nd5	0.475590	0.920330	0.470210
Nd61	Nd6	0.945800	0.470210	0.609470
H11	H1	0.151100	0.081800	0.164800
H21	H2	0.173200	0.132500	0.199000
H31	H3	0.284500	0.127300	0.150000
H41	H4	0.152000	0.204200	0.408100
H51	H5	0.266000	0.212200	0.350100
H61	H6	0.139100	0.207800	0.334900
H71	H7	0.153100	0.296500	0.417000
H81	H8	0.141300	0.364700	0.350200
H91	H9	0.268000	0.365000	0.365200
H101	H10	0.790000	0.502000	0.988000
H111	H11	0.315900	0.164800	0.753400
H121	H12	0.372200	0.199000	0.668500
H131	H13	0.434500	0.150000	0.722700
H141	H14	0.560100	0.408100	0.387700
H151	H15	0.616100	0.350100	0.437700
H161	H16	0.474000	0.334900	0.457300
H171	H17	0.570100	0.417000	0.286500
H181	H18	0.491500	0.350200	0.285100
H191	H19	0.633200	0.365200	0.269800
H201	H20	0.778000	0.988000	0.510000
H211	H21	0.069300	0.753400	0.081800
H221	H22	0.040700	0.668500	0.132500
H231	H23	0.157200	0.722700	0.127300
H241	H24	0.947800	0.387700	0.204200
H251	H25	0.053800	0.437700	0.212200
H261	H26	0.931300	0.457300	0.207800
H271	H27	0.856600	0.286500	0.296500
H281	H28	0.776600	0.285100	0.364700
H291	H29	0.903000	0.269800	0.365000
H301	H30	0.288000	0.510000	0.502000
H311	H31	0.848900	0.918200	0.835200
H321	H32	0.826800	0.867500	0.801000
H331	H33	0.715500	0.872700	0.850000
H341	H34	0.848000	0.795800	0.591900
H351	H35	0.734000	0.787800	0.649900
H361	H36	0.860900	0.792200	0.665100
H371	H37	0.846900	0.703500	0.583000
H381	H38	0.858700	0.635300	0.649800
H391	H39	0.732000	0.635000	0.634800
H401	H40	0.210000	0.498000	0.012000
H411	H41	0.684100	0.835200	0.246600
H421	H42	0.627800	0.801000	0.331500
H431	H43	0.565500	0.850000	0.277300
H441	H44	0.439900	0.591900	0.612300
H451	H45	0.383900	0.649900	0.562300
H461	H46	0.526000	0.665100	0.542700
H471	H47	0.429900	0.583000	0.713500
H481	H48	0.508500	0.649800	0.714900
H491	H49	0.366800	0.634800	0.730200
H501	H50	0.222000	0.012000	0.490000
H511	H51	0.930700	0.246600	0.918200
H521	H52	0.959300	0.331500	0.867500
H531	H53	0.842800	0.277300	0.872700
H541	H54	0.052200	0.612300	0.795800
H551	H55	0.946200	0.562300	0.787800
H561	H56	0.068700	0.542700	0.792200
H571	H57	0.143400	0.713500	0.703500
H581	H58	0.223400	0.714900	0.635300
H591	H59	0.097000	0.730200	0.635000
H601	H60	0.712000	0.490000	0.498000
C11	C1	0.476600	0.458100	0.895800
C21	C2	0.467700	0.443700	0.832800
C31	C3	0.572000	0.441700	0.790900
C41	C4	0.570800	0.439500	0.726900
C51	C5	0.694300	0.446500	0.678700
C61	C6	0.466900	0.438100	0.706300
C71	C7	0.356600	0.437500	0.748300
C81	C8	0.363900	0.440200	0.811600
C91	C9	0.732500	0.525900	0.962100
C101	C10	0.259800	0.260000	0.073600
C111	C11	0.200800	0.127300	0.156900
C121	C12	0.278600	0.346000	0.249900
C131	C13	0.192300	0.225600	0.356600
C141	C14	0.193800	0.335200	0.367200
C151	C15	0.372400	0.895800	0.646100
C161	C16	0.300500	0.832800	0.723500
C171	C17	0.362900	0.790900	0.767400
C181	C18	0.297700	0.726900	0.833600
C191	C19	0.373000	0.678700	0.874800
C201	C20	0.173200	0.706300	0.855600
C211	C21	0.104900	0.748300	0.814200
C221	C22	0.175500	0.811600	0.748200
C231	C23	0.694600	0.962100	0.512000
C241	C24	0.333400	0.073600	0.666400
C251	C25	0.357700	0.156900	0.715800
C261	C26	0.528500	0.249900	0.404100
C271	C27	0.548900	0.356600	0.417800
C281	C28	0.561000	0.367200	0.297600
C291	C29	0.018500	0.646100	0.458100
C301	C30	0.024000	0.723500	0.443700
C311	C31	0.130300	0.767400	0.441700
C321	C32	0.131300	0.833600	0.439500
C331	C33	0.247800	0.874800	0.446500
C341	C34	0.028800	0.855600	0.438100
C351	C35	0.919100	0.814200	0.437500
C361	C36	0.923700	0.748200	0.440200
C371	C37	0.206600	0.512000	0.525900
C381	C38	0.999800	0.666400	0.260000
C391	C39	0.073500	0.715800	0.127300
C401	C40	0.932600	0.404100	0.346000
C411	C41	0.966700	0.417800	0.225600
C421	C42	0.858600	0.297600	0.335200
C431	C43	0.523400	0.541900	0.104200
C441	C44	0.532300	0.556300	0.167200
C451	C45	0.428000	0.558300	0.209100
C461	C46	0.429200	0.560500	0.273100
C471	C47	0.305700	0.553500	0.321300
C481	C48	0.533100	0.561900	0.293700
C491	C49	0.643400	0.562500	0.251700
C501	C50	0.636100	0.559800	0.188400
C511	C51	0.267500	0.474100	0.037900
C521	C52	0.740200	0.740000	0.926400
C531	C53	0.799200	0.872700	0.843100
C541	C54	0.721400	0.654000	0.750100
C551	C55	0.807700	0.774400	0.643400
C561	C56	0.806200	0.664800	0.632800
C571	C57	0.627600	0.104200	0.353900
C581	C58	0.699500	0.167200	0.276500
C591	C59	0.637100	0.209100	0.232600
C601	C60	0.702300	0.273100	0.166400
C611	C61	0.627000	0.321300	0.125200
C621	C62	0.826800	0.293700	0.144400
C631	C63	0.895100	0.251700	0.185800
C641	C64	0.824500	0.188400	0.251800
C651	C65	0.305400	0.037900	0.488000
C661	C66	0.666600	0.926400	0.333600
C671	C67	0.642300	0.843100	0.284200
C681	C68	0.471500	0.750100	0.595900
C691	C69	0.451100	0.643400	0.582200
C701	C70	0.439000	0.632800	0.702400
C711	C71	0.981500	0.353900	0.541900
C721	C72	0.976000	0.276500	0.556300
C731	C73	0.869700	0.232600	0.558300
C741	C74	0.868700	0.166400	0.560500
C751	C75	0.752200	0.125200	0.553500
C761	C76	0.971200	0.144400	0.561900
C771	C77	0.080900	0.185800	0.562500
C781	C78	0.076300	0.251800	0.559800
C791	C79	0.793400	0.488000	0.474100
C801	C80	0.000200	0.333600	0.740000
C811	C81	0.926500	0.284200	0.872700
C821	C82	0.067400	0.595900	0.654000
C831	C83	0.033300	0.582200	0.774400
C841	C84	0.141400	0.702400	0.664800
I11	I1	0.724480	0.434760	0.830100
I21	I2	0.468230	0.437640	0.608230
I31	I3	0.205690	0.437890	0.879220
I41	I4	0.554580	0.830100	0.735140
I51	I5	0.076460	0.608230	0.954130
I61	I6	0.084910	0.879220	0.682890
I71	I7	0.289720	0.735140	0.434760
I81	I8	0.030590	0.954130	0.437640
I91	I9	0.767800	0.682890	0.437890
I101	I10	0.275520	0.565240	0.169900
I111	I11	0.531770	0.562360	0.391770
I121	I12	0.794310	0.562110	0.120780
I131	I13	0.445420	0.169900	0.264860
I141	I14	0.923540	0.391770	0.045870
I151	I15	0.915090	0.120780	0.317110
I161	I16	0.710280	0.264860	0.565240
I171	I17	0.969410	0.045870	0.562360
I181	I18	0.232200	0.317110	0.562110
N11	N1	0.189900	0.194200	0.085500
N21	N2	0.253900	0.435800	0.727100
N31	N3	0.221600	0.303900	0.321800
N41	N4	0.275400	0.085500	0.720300
N51	N5	0.981000	0.727100	0.837100
N61	N6	0.543400	0.321800	0.374300
N71	N7	0.995700	0.720300	0.194200
N81	N8	0.818100	0.837100	0.435800
N91	N9	0.917700	0.374300	0.303900
N101	N10	0.810100	0.805800	0.914500
N111	N11	0.746100	0.564200	0.272900
N121	N12	0.778400	0.696100	0.678200
N131	N13	0.724600	0.914500	0.279700
N141	N14	0.019000	0.272900	0.162900
N151	N15	0.456600	0.678200	0.625700
N161	N16	0.004300	0.279700	0.805800
N171	N17	0.181900	0.162900	0.564200
N181	N18	0.082300	0.625700	0.696100
O11	O1	0.442210	0.403880	0.959750
O21	O2	0.521830	0.524670	0.874380
O31	O3	0.716500	0.390400	0.683500
O41	O4	0.764500	0.508300	0.638500
O51	O5	0.623000	0.491920	0.992620
O61	O6	0.769500	0.593700	0.918000
O71	O7	0.323400	0.273000	0.102800
O81	O8	0.311400	0.322700	0.209500
O91	O9	0.401960	0.959750	0.636370
O101	O10	0.396210	0.874380	0.600950
O111	O11	0.400000	0.683500	0.926100
O121	O12	0.403000	0.638500	0.853200
O131	O13	0.615620	0.992620	0.515460
O141	O14	0.687500	0.918000	0.488300
O151	O15	0.426200	0.102800	0.624200
O161	O16	0.520900	0.209500	0.467800
O171	O17	0.038330	0.636370	0.403880
O181	O18	0.997160	0.600950	0.524670
O191	O19	0.326100	0.926100	0.390400
O201	O20	0.256200	0.853200	0.508300
O211	O21	0.131080	0.515460	0.491920
O221	O22	0.175800	0.488300	0.593700
O231	O23	0.050400	0.624200	0.273000
O241	O24	0.988700	0.467800	0.322700
O251	O25	0.557790	0.596120	0.040250
O261	O26	0.478170	0.475330	0.125620
O271	O27	0.283500	0.609600	0.316500
O281	O28	0.235500	0.491700	0.361500
O291	O29	0.377000	0.508080	0.007380
O301	O30	0.230500	0.406300	0.082000
O311	O31	0.676600	0.727000	0.897200
O321	O32	0.688600	0.677300	0.790500
O331	O33	0.598040	0.040250	0.363630
O341	O34	0.603790	0.125620	0.399050
O351	O35	0.600000	0.316500	0.073900
O361	O36	0.597000	0.361500	0.146800
O371	O37	0.384380	0.007380	0.484540
O381	O38	0.312500	0.082000	0.511700
O391	O39	0.573800	0.897200	0.375800
O401	O40	0.479100	0.790500	0.532200
O411	O41	0.961670	0.363630	0.596120
O421	O42	0.002840	0.399050	0.475330
O431	O43	0.673900	0.073900	0.609600
O441	O44	0.743800	0.146800	0.491700
O451	O45	0.868920	0.484540	0.508080
O461	O46	0.824200	0.511700	0.406300
O471	O47	0.949600	0.375800	0.727000
O481	O48	0.011300	0.532200	0.677300
