data_CUVXAT_freeONLY_PM
_symmetry_space_group_name_H-M	'P1'
_cell_length_a	13.643000
_cell_length_b	19.759800
_cell_length_c	22.183400
_cell_angle_alpha	77.888200
_cell_angle_beta	72.091100
_cell_angle_gamma	69.804700
_symmetry_Int_Tables_number 1

loop_
_symmetry_equiv_pos_as_xyz
'x,y,z'

loop_
_atom_site_label
_atom_site_type_symbol
_atom_site_fract_x
_atom_site_fract_y
_atom_site_fract_z
Mn11	Mn1	0.285110	0.452810	0.473590
Mn21	Mn2	0.711510	0.047190	0.026410
Mn31	Mn3	0.714890	0.547190	0.526410
Mn41	Mn4	0.288490	0.952810	0.973590
Mn51	Mn5	0.500000	0.500000	0.500000
Mn61	Mn6	0.000000	0.000000	0.000000
H11	H1	0.129100	0.679100	0.397500
H21	H2	0.063100	0.800500	0.366100
H31	H3	0.264600	0.843200	0.439000
H41	H4	0.339100	0.720000	0.464800
H51	H5	0.086000	0.558100	0.414900
H61	H6	0.918100	0.446800	0.387400
H71	H7	0.972700	0.303300	0.427300
H81	H8	0.966900	0.016700	0.204500
H91	H9	0.961700	0.002600	0.310200
H101	H10	0.249500	0.853300	0.279300
H111	H11	0.260500	0.870700	0.172100
H121	H12	0.547200	0.387500	0.278300
H131	H13	0.713600	0.324600	0.220400
H141	H14	0.831500	0.285300	0.372500
H151	H15	0.665800	0.350500	0.429500
H161	H16	0.944100	0.551600	0.385000
H171	H17	0.397700	0.286100	0.530900
H181	H18	0.250100	0.153000	0.509200
H191	H19	0.373000	0.169000	0.547400
H201	H20	0.094200	0.209700	0.453300
H211	H21	0.705700	0.820900	0.102500
H221	H22	0.729700	0.699500	0.133900
H231	H23	0.046800	0.656800	0.061000
H241	H24	0.023900	0.780000	0.035200
H251	H25	0.559000	0.941900	0.085100
H261	H26	0.252300	0.053200	0.112600
H271	H27	0.203300	0.196700	0.072700
H281	H28	0.688100	0.483300	0.295500
H291	H29	0.774500	0.497400	0.189800
H301	H30	0.882100	0.646700	0.220700
H311	H31	0.803300	0.629300	0.327900
H321	H32	0.713000	0.112500	0.221700
H331	H33	0.758600	0.175400	0.279600
H341	H34	0.989300	0.214700	0.127500
H351	H35	0.945800	0.149500	0.070500
H361	H36	0.380700	0.948400	0.115000
H371	H37	0.714700	0.213900	0.969100
H381	H38	0.412300	0.347000	0.990800
H391	H39	0.589400	0.331000	0.952600
H401	H40	0.257200	0.290300	0.046700
H411	H41	0.870900	0.320900	0.602500
H421	H42	0.936900	0.199500	0.633900
H431	H43	0.735400	0.156800	0.561000
H441	H44	0.660900	0.280000	0.535200
H451	H45	0.914000	0.441900	0.585100
H461	H46	0.081900	0.553200	0.612600
H471	H47	0.027300	0.696700	0.572700
H481	H48	0.033100	0.983300	0.795500
H491	H49	0.038300	0.997400	0.689800
H501	H50	0.750500	0.146700	0.720700
H511	H51	0.739500	0.129300	0.827900
H521	H52	0.452800	0.612500	0.721700
H531	H53	0.286400	0.675400	0.779600
H541	H54	0.168500	0.714700	0.627500
H551	H55	0.334200	0.649500	0.570500
H561	H56	0.055900	0.448400	0.615000
H571	H57	0.602300	0.713900	0.469100
H581	H58	0.749900	0.847000	0.490800
H591	H59	0.627000	0.831000	0.452600
H601	H60	0.905800	0.790300	0.546700
H611	H61	0.294300	0.179100	0.897500
H621	H62	0.270300	0.300500	0.866100
H631	H63	0.953200	0.343200	0.939000
H641	H64	0.976100	0.220000	0.964800
H651	H65	0.441000	0.058100	0.914900
H661	H66	0.747700	0.946800	0.887400
H671	H67	0.796700	0.803300	0.927300
H681	H68	0.311900	0.516700	0.704500
H691	H69	0.225500	0.502600	0.810200
H701	H70	0.117900	0.353300	0.779300
H711	H71	0.196700	0.370700	0.672100
H721	H72	0.287000	0.887500	0.778300
H731	H73	0.241400	0.824600	0.720400
H741	H74	0.010700	0.785300	0.872500
H751	H75	0.054200	0.850500	0.929500
H761	H76	0.619300	0.051600	0.885000
H771	H77	0.285300	0.786100	0.030900
H781	H78	0.587700	0.653000	0.009200
H791	H79	0.410600	0.669000	0.047400
H801	H80	0.742800	0.709700	0.953300
C11	C1	0.289000	0.606730	0.454270
C21	C2	0.241530	0.686560	0.435180
C31	C3	0.158140	0.711720	0.405200
C41	C4	0.118460	0.784580	0.386700
C51	C5	0.157570	0.834320	0.397740
C61	C6	0.238770	0.810160	0.429100
C71	C7	0.281640	0.736220	0.445900
C81	C8	0.075400	0.513200	0.418800
C91	C9	0.974000	0.448000	0.402400
C101	C10	0.031100	0.309200	0.436400
C111	C11	0.125100	0.389800	0.447400
C121	C12	0.192500	0.328300	0.473700
C131	C13	0.025120	0.984390	0.219170
C141	C14	0.021460	0.974980	0.282500
C151	C15	0.103820	0.925940	0.306220
C161	C16	0.192740	0.887020	0.264100
C171	C17	0.199240	0.897020	0.199900
C181	C18	0.115280	0.945970	0.176670
C191	C19	0.122380	0.957420	0.107020
C201	C20	0.105600	0.915700	0.376700
C211	C21	0.993890	0.938620	0.422200
C221	C22	0.166400	0.964500	0.382100
C231	C23	0.477730	0.410640	0.399500
C241	C24	0.589310	0.374150	0.360430
C251	C25	0.604250	0.366610	0.297490
C261	C26	0.703730	0.328220	0.263120
C271	C27	0.789100	0.295040	0.290960
C281	C28	0.774290	0.305000	0.353420
C291	C29	0.674980	0.344160	0.387480
C301	C30	0.955600	0.304000	0.210200
C311	C31	0.990800	0.509000	0.400000
C321	C32	0.039700	0.383600	0.427400
C331	C33	0.342400	0.280000	0.518400
C341	C34	0.253900	0.199700	0.506900
C351	C35	0.328800	0.208300	0.527300
C361	C36	0.096800	0.255600	0.455400
C371	C37	0.176200	0.261400	0.480400
C381	C38	0.850000	0.893270	0.045730
C391	C39	0.863270	0.813440	0.064820
C401	C40	0.775060	0.788280	0.094800
C411	C41	0.789740	0.715420	0.113300
C421	C42	0.889630	0.665680	0.102260
C431	C43	0.978030	0.689840	0.070900
C441	C44	0.963760	0.763780	0.054100
C451	C45	0.507400	0.986800	0.081200
C461	C46	0.324400	0.052000	0.097600
C471	C47	0.276700	0.190800	0.063600
C481	C48	0.462300	0.110200	0.052600
C491	C49	0.494500	0.171700	0.026300
C501	C50	0.728680	0.515610	0.280830
C511	C51	0.778940	0.525020	0.217500
C521	C52	0.835980	0.574060	0.193780
C531	C53	0.843860	0.612980	0.235900
C541	C54	0.796160	0.602980	0.300100
C551	C55	0.737920	0.554030	0.323330
C561	C56	0.686820	0.542580	0.392980
C571	C57	0.898000	0.584300	0.123300
C581	C58	0.854710	0.561380	0.077800
C591	C59	0.013000	0.535500	0.117900
C601	C60	0.787870	0.089360	0.100500
C611	C61	0.823890	0.125850	0.139570
C621	C62	0.768350	0.133390	0.202510
C631	C63	0.795070	0.171780	0.236880
C641	C64	0.875100	0.204960	0.209040
C651	C65	0.932710	0.195000	0.146580
C661	C66	0.906620	0.155840	0.112520
C671	C67	0.969800	0.196000	0.289800
C681	C68	0.399800	0.991000	0.100000
C691	C69	0.350700	0.116400	0.072600
C701	C70	0.640800	0.220000	0.981600
C711	C71	0.460500	0.300300	0.993100
C721	C72	0.564400	0.291700	0.972700
C731	C73	0.307800	0.244400	0.044600
C741	C74	0.418000	0.238600	0.019600
C751	C75	0.711000	0.393270	0.545730
C761	C76	0.758470	0.313440	0.564820
C771	C77	0.841860	0.288280	0.594800
C781	C78	0.881540	0.215420	0.613300
C791	C79	0.842430	0.165680	0.602260
C801	C80	0.761230	0.189840	0.570900
C811	C81	0.718360	0.263780	0.554100
C821	C82	0.924600	0.486800	0.581200
C831	C83	0.026000	0.552000	0.597600
C841	C84	0.968900	0.690800	0.563600
C851	C85	0.874900	0.610200	0.552600
C861	C86	0.807500	0.671700	0.526300
C871	C87	0.974880	0.015610	0.780830
C881	C88	0.978540	0.025020	0.717500
C891	C89	0.896180	0.074060	0.693780
C901	C90	0.807260	0.112980	0.735900
C911	C91	0.800760	0.102980	0.800100
C921	C92	0.884720	0.054030	0.823330
C931	C93	0.877620	0.042580	0.892980
C941	C94	0.894400	0.084300	0.623300
C951	C95	0.006110	0.061380	0.577800
C961	C96	0.833600	0.035500	0.617900
C971	C97	0.522270	0.589360	0.600500
C981	C98	0.410690	0.625850	0.639570
C991	C99	0.395750	0.633390	0.702510
C1001	C100	0.296270	0.671780	0.736880
C1011	C101	0.210900	0.704960	0.709040
C1021	C102	0.225710	0.695000	0.646580
C1031	C103	0.325020	0.655840	0.612520
C1041	C104	0.044400	0.696000	0.789800
C1051	C105	0.009200	0.491000	0.600000
C1061	C106	0.960300	0.616400	0.572600
C1071	C107	0.657600	0.720000	0.481600
C1081	C108	0.746100	0.800300	0.493100
C1091	C109	0.671200	0.791700	0.472700
C1101	C110	0.903200	0.744400	0.544600
C1111	C111	0.823800	0.738600	0.519600
C1121	C112	0.150000	0.106730	0.954270
C1131	C113	0.136730	0.186560	0.935180
C1141	C114	0.224940	0.211720	0.905200
C1151	C115	0.210260	0.284580	0.886700
C1161	C116	0.110370	0.334320	0.897740
C1171	C117	0.021970	0.310160	0.929100
C1181	C118	0.036240	0.236220	0.945900
C1191	C119	0.492600	0.013200	0.918800
C1201	C120	0.675600	0.948000	0.902400
C1211	C121	0.723300	0.809200	0.936400
C1221	C122	0.537700	0.889800	0.947400
C1231	C123	0.505500	0.828300	0.973700
C1241	C124	0.271320	0.484390	0.719170
C1251	C125	0.221060	0.474980	0.782500
C1261	C126	0.164020	0.425940	0.806220
C1271	C127	0.156140	0.387020	0.764100
C1281	C128	0.203840	0.397020	0.699900
C1291	C129	0.262080	0.445970	0.676670
C1301	C130	0.313180	0.457420	0.607020
C1311	C131	0.102000	0.415700	0.876700
C1321	C132	0.145290	0.438620	0.922200
C1331	C133	0.987000	0.464500	0.882100
C1341	C134	0.212130	0.910640	0.899500
C1351	C135	0.176110	0.874150	0.860430
C1361	C136	0.231650	0.866610	0.797490
C1371	C137	0.204930	0.828220	0.763120
C1381	C138	0.124900	0.795040	0.790960
C1391	C139	0.067290	0.805000	0.853420
C1401	C140	0.093380	0.844160	0.887480
C1411	C141	0.030200	0.804000	0.710200
C1421	C142	0.600200	0.009000	0.900000
C1431	C143	0.649300	0.883600	0.927400
C1441	C144	0.359200	0.780000	0.018400
C1451	C145	0.539500	0.699700	0.006900
C1461	C146	0.435600	0.708300	0.027300
C1471	C147	0.692200	0.755600	0.955400
C1481	C148	0.582000	0.761400	0.980400
C1491	C149	0.898500	0.250000	0.250000
C1501	C150	0.101500	0.750000	0.750000
N11	N1	0.142310	0.454380	0.442600
N21	N2	0.275050	0.337300	0.492200
N31	N3	0.539290	0.045620	0.057400
N41	N4	0.604550	0.162700	0.007800
N51	N5	0.857690	0.545620	0.557400
N61	N6	0.724950	0.662700	0.507800
N71	N7	0.460710	0.954380	0.942600
N81	N8	0.395450	0.837300	0.992200
O11	O1	0.373140	0.588380	0.471340
O21	O2	0.238630	0.565270	0.451470
O31	O3	0.466840	0.421310	0.455550
O41	O4	0.400080	0.426410	0.376830
O51	O5	0.036200	0.978820	0.090180
O61	O6	0.216480	0.944300	0.070740
O71	O7	0.932860	0.911620	0.028660
O81	O8	0.755370	0.934730	0.048530
O91	O9	0.843700	0.078690	0.044450
O101	O10	0.703320	0.073590	0.123170
O111	O11	0.605200	0.521180	0.409820
O121	O12	0.731520	0.555700	0.429260
O131	O13	0.626860	0.411620	0.528660
O141	O14	0.761370	0.434730	0.548530
O151	O15	0.533160	0.578690	0.544450
O161	O16	0.599920	0.573590	0.623170
O171	O17	0.963800	0.021180	0.909820
O181	O18	0.783520	0.055700	0.929260
O191	O19	0.067140	0.088380	0.971340
O201	O20	0.244630	0.065270	0.951470
O211	O21	0.156300	0.921310	0.955550
O221	O22	0.296680	0.926410	0.876830
O231	O23	0.394800	0.478820	0.590180
O241	O24	0.268480	0.444300	0.570740
F11	F1	0.271710	0.940920	0.350260
F21	F2	0.167020	0.967810	0.440950
F31	F3	0.130720	0.032190	0.356570
F41	F4	0.946220	0.010780	0.418580
F51	F5	0.995520	0.916910	0.482450
F61	F6	0.924550	0.911150	0.411150
F71	F7	0.957660	0.350920	0.245160
F81	F8	0.906830	0.344870	0.165070
F91	F9	0.058040	0.274110	0.179810
F101	F10	0.062890	0.559080	0.149740
F111	F11	0.075780	0.532190	0.059050
F121	F12	0.019480	0.467810	0.143430
F131	F13	0.875580	0.489220	0.081420
F141	F14	0.894880	0.583090	0.017550
F151	F15	0.746850	0.588850	0.088850
F161	F16	0.053740	0.149080	0.254840
F171	F17	0.916770	0.155130	0.334930
F181	F18	0.011960	0.225890	0.320190
F191	F19	0.728290	0.059080	0.649740
F201	F20	0.832980	0.032190	0.559050
F211	F21	0.869280	0.967810	0.643430
F221	F22	0.053780	0.989220	0.581420
F231	F23	0.004480	0.083090	0.517550
F241	F24	0.075450	0.088850	0.588850
F251	F25	0.042340	0.649080	0.754840
F261	F26	0.093170	0.655130	0.834930
F271	F27	0.941960	0.725890	0.820190
F281	F28	0.937110	0.440920	0.850260
F291	F29	0.924220	0.467810	0.940950
F301	F30	0.980520	0.532190	0.856570
F311	F31	0.124420	0.510780	0.918580
F321	F32	0.105120	0.416910	0.982450
F331	F33	0.253150	0.411150	0.911150
F341	F34	0.946260	0.850920	0.745160
F351	F35	0.083230	0.844870	0.665070
F361	F36	0.988040	0.774110	0.679810
