data_CUWNOZ_freeONLY_PM
_symmetry_space_group_name_H-M	'P1'
_cell_length_a	15.898300
_cell_length_b	26.422000
_cell_length_c	16.341800
_cell_angle_alpha	90.000000
_cell_angle_beta	116.881000
_cell_angle_gamma	90.000000
_symmetry_Int_Tables_number 1

loop_
_symmetry_equiv_pos_as_xyz
'x,y,z'

loop_
_atom_site_label
_atom_site_type_symbol
_atom_site_fract_x
_atom_site_fract_y
_atom_site_fract_z
Co11	Co1	0.230190	0.503470	0.522200
Co21	Co2	0.446860	0.508410	0.679910
Co31	Co3	0.391050	0.523690	0.440820
N11	N1	0.087700	0.502480	0.501500
O11	O1	0.391500	0.443250	0.711200
O21	O2	0.242600	0.438730	0.601500
O31	O3	0.235100	0.257340	0.848700
O41	O4	0.486100	0.073360	0.840000
O51	O5	0.468200	0.050130	0.962700
O61	O6	0.258800	0.548570	0.639400
O71	O7	0.403900	0.554820	0.752900
O81	O8	0.171600	0.687480	0.906800
O91	O9	0.202400	0.926810	0.955600
O101	O10	0.335200	0.907650	0.946400
O111	O11	0.420700	0.546160	0.335000
O121	O12	0.426400	0.510520	0.215600
O131	O13	0.037300	0.625160	0.003900
O141	O14	0.816200	0.539810	0.596600
O151	O15	0.728900	0.509980	0.661600
O161	O16	0.369700	0.496220	0.546200
C11	C1	0.309200	0.425780	0.676200
C21	C2	0.289200	0.383700	0.726200
C31	C3	0.198900	0.363100	0.693800
H11	H1	0.148300	0.378100	0.642100
C41	C4	0.181100	0.322000	0.734600
H21	H2	0.119200	0.308400	0.710800
C51	C5	0.253600	0.300400	0.810200
C61	C6	0.342400	0.319800	0.846700
H31	H3	0.391200	0.305000	0.900100
C71	C7	0.362000	0.362600	0.804000
H41	H4	0.423800	0.376400	0.828500
C81	C8	0.290000	0.214700	0.858200
C91	C9	0.339000	0.206500	0.809800
H51	H5	0.337600	0.231000	0.766600
C101	C10	0.390600	0.163300	0.822800
H61	H6	0.422900	0.158100	0.786800
C111	C11	0.397700	0.126700	0.885700
C121	C12	0.343400	0.134800	0.931700
H71	H7	0.343100	0.109900	0.973500
C131	C13	0.290000	0.178000	0.918200
H81	H8	0.253200	0.182500	0.950100
C141	C14	0.455700	0.080200	0.896400
C151	C15	0.315800	0.563950	0.716500
C161	C16	0.280900	0.595910	0.769600
C171	C17	0.192900	0.620200	0.722900
H91	H9	0.156800	0.615500	0.658600
C181	C18	0.158900	0.650500	0.769300
H101	H10	0.100500	0.667600	0.736700
C191	C19	0.208500	0.656200	0.861900
C201	C20	0.294500	0.632100	0.910700
H111	H11	0.329000	0.636200	0.975300
C211	C21	0.328900	0.602100	0.863400
H121	H12	0.387400	0.585200	0.896500
C221	C22	0.190300	0.738700	0.909800
C231	C23	0.134100	0.770700	0.929800
H131	H13	0.081700	0.757800	0.936400
C241	C24	0.154600	0.822300	0.940300
H141	H14	0.116200	0.844500	0.954600
C251	C25	0.229700	0.841600	0.930200
C261	C26	0.284500	0.808700	0.909500
H151	H15	0.337300	0.821500	0.903700
C271	C27	0.264600	0.757600	0.897000
H161	H16	0.301400	0.735800	0.879700
C281	C28	0.258000	0.897300	0.945400
C291	C29	0.385600	0.538170	0.249300
C301	C30	0.293500	0.562370	0.183600
C311	C31	0.244600	0.592390	0.214500
H171	H17	0.269800	0.599500	0.278200
C321	C32	0.158100	0.612900	0.153700
H181	H18	0.123500	0.633600	0.175400
C331	C33	0.123100	0.602470	0.060300
C341	C34	0.171700	0.572200	0.028800
H191	H19	0.146700	0.564700	0.965200
C351	C35	0.258400	0.552600	0.090800
H201	H20	0.293800	0.532400	0.069300
C361	C36	0.981400	0.601700	0.918300
C371	C37	0.940400	0.555500	0.918700
H211	H21	0.953100	0.538900	0.974700
C381	C38	0.879800	0.534300	0.834300
H221	H22	0.848600	0.503300	0.832700
C391	C39	0.864400	0.557400	0.753400
C401	C40	0.909800	0.602700	0.756100
H231	H23	0.901200	0.618400	0.700600
C411	C41	0.967000	0.625000	0.839000
H241	H24	0.996400	0.656600	0.840700
C421	C42	0.798400	0.533700	0.662600
C431	C43	0.040700	0.459100	0.487200
H251	H25	0.056000	0.433000	0.475000
C441	C44	0.045100	0.543800	0.513400
H261	H26	0.079000	0.574100	0.521000
H271	H27	0.387000	0.469000	0.551000
Co41	Co4	0.769810	0.003470	0.977800
Co51	Co5	0.553140	0.008410	0.820090
Co61	Co6	0.608950	0.023690	0.059180
N21	N2	0.912300	0.002480	0.998500
O171	O17	0.608500	0.943250	0.788800
O181	O18	0.757400	0.938730	0.898500
O191	O19	0.764900	0.757340	0.651300
O201	O20	0.513900	0.573360	0.660000
O211	O21	0.531800	0.550130	0.537300
O221	O22	0.741200	0.048570	0.860600
O231	O23	0.596100	0.054820	0.747100
O241	O24	0.828400	0.187480	0.593200
O251	O25	0.797600	0.426810	0.544400
O261	O26	0.664800	0.407650	0.553600
O271	O27	0.579300	0.046160	0.165000
O281	O28	0.573600	0.010520	0.284400
O291	O29	0.962700	0.125160	0.496100
O301	O30	0.183800	0.039810	0.903400
O311	O31	0.271100	0.009980	0.838400
O321	O32	0.630300	0.996220	0.953800
C451	C45	0.690800	0.925780	0.823800
C461	C46	0.710800	0.883700	0.773800
C471	C47	0.801100	0.863100	0.806200
H281	H28	0.851700	0.878100	0.857900
C481	C48	0.818900	0.822000	0.765400
H291	H29	0.880800	0.808400	0.789200
C491	C49	0.746400	0.800400	0.689800
C501	C50	0.657600	0.819800	0.653300
H301	H30	0.608800	0.805000	0.599900
C511	C51	0.638000	0.862600	0.696000
H311	H31	0.576200	0.876400	0.671500
C521	C52	0.710000	0.714700	0.641800
C531	C53	0.661000	0.706500	0.690200
H321	H32	0.662400	0.731000	0.733400
C541	C54	0.609400	0.663300	0.677200
H331	H33	0.577100	0.658100	0.713200
C551	C55	0.602300	0.626700	0.614300
C561	C56	0.656600	0.634800	0.568300
H341	H34	0.656900	0.609900	0.526500
C571	C57	0.710000	0.678000	0.581800
H351	H35	0.746800	0.682500	0.549900
C581	C58	0.544300	0.580200	0.603600
C591	C59	0.684200	0.063950	0.783500
C601	C60	0.719100	0.095910	0.730400
C611	C61	0.807100	0.120200	0.777100
H361	H36	0.843200	0.115500	0.841400
C621	C62	0.841100	0.150500	0.730700
H371	H37	0.899500	0.167600	0.763300
C631	C63	0.791500	0.156200	0.638100
C641	C64	0.705500	0.132100	0.589300
H381	H38	0.671000	0.136200	0.524700
C651	C65	0.671100	0.102100	0.636600
H391	H39	0.612600	0.085200	0.603500
C661	C66	0.809700	0.238700	0.590200
C671	C67	0.865900	0.270700	0.570200
H401	H40	0.918300	0.257800	0.563600
C681	C68	0.845400	0.322300	0.559700
H411	H41	0.883800	0.344500	0.545400
C691	C69	0.770300	0.341600	0.569800
C701	C70	0.715500	0.308700	0.590500
H421	H42	0.662700	0.321500	0.596300
C711	C71	0.735400	0.257600	0.603000
H431	H43	0.698600	0.235800	0.620300
C721	C72	0.742000	0.397300	0.554600
C731	C73	0.614400	0.038170	0.250700
C741	C74	0.706500	0.062370	0.316400
C751	C75	0.755400	0.092390	0.285500
H441	H44	0.730200	0.099500	0.221800
C761	C76	0.841900	0.112900	0.346300
H451	H45	0.876500	0.133600	0.324600
C771	C77	0.876900	0.102470	0.439700
C781	C78	0.828300	0.072200	0.471200
H461	H46	0.853300	0.064700	0.534800
C791	C79	0.741600	0.052600	0.409200
H471	H47	0.706200	0.032400	0.430700
C801	C80	0.018600	0.101700	0.581700
C811	C81	0.059600	0.055500	0.581300
H481	H48	0.046900	0.038900	0.525300
C821	C82	0.120200	0.034300	0.665700
H491	H49	0.151400	0.003300	0.667300
C831	C83	0.135600	0.057400	0.746600
C841	C84	0.090200	0.102700	0.743900
H501	H50	0.098800	0.118400	0.799400
C851	C85	0.033000	0.125000	0.661000
H511	H51	0.003600	0.156600	0.659300
C861	C86	0.201600	0.033700	0.837400
C871	C87	0.959300	0.959100	0.012800
H521	H52	0.944000	0.933000	0.025000
C881	C88	0.954900	0.043800	0.986600
H531	H53	0.921000	0.074100	0.979000
H541	H54	0.613000	0.969000	0.949000
Co71	Co7	0.769810	0.496530	0.477800
Co81	Co8	0.553140	0.491590	0.320090
Co91	Co9	0.608950	0.476310	0.559180
N31	N3	0.912300	0.497520	0.498500
O331	O33	0.608500	0.556750	0.288800
O341	O34	0.757400	0.561270	0.398500
O351	O35	0.764900	0.742660	0.151300
O361	O36	0.513900	0.926640	0.160000
O371	O37	0.531800	0.949870	0.037300
O381	O38	0.741200	0.451430	0.360600
O391	O39	0.596100	0.445180	0.247100
O401	O40	0.828400	0.312520	0.093200
O411	O41	0.797600	0.073190	0.044400
O421	O42	0.664800	0.092350	0.053600
O431	O43	0.579300	0.453840	0.665000
O441	O44	0.573600	0.489480	0.784400
O451	O45	0.962700	0.374840	0.996100
O461	O46	0.183800	0.460190	0.403400
O471	O47	0.271100	0.490020	0.338400
O481	O48	0.630300	0.503780	0.453800
C891	C89	0.690800	0.574220	0.323800
C901	C90	0.710800	0.616300	0.273800
C911	C91	0.801100	0.636900	0.306200
H551	H55	0.851700	0.621900	0.357900
C921	C92	0.818900	0.678000	0.265400
H561	H56	0.880800	0.691600	0.289200
C931	C93	0.746400	0.699600	0.189800
C941	C94	0.657600	0.680200	0.153300
H571	H57	0.608800	0.695000	0.099900
C951	C95	0.638000	0.637400	0.196000
H581	H58	0.576200	0.623600	0.171500
C961	C96	0.710000	0.785300	0.141800
C971	C97	0.661000	0.793500	0.190200
H591	H59	0.662400	0.769000	0.233400
C981	C98	0.609400	0.836700	0.177200
H601	H60	0.577100	0.841900	0.213200
C991	C99	0.602300	0.873300	0.114300
C1001	C100	0.656600	0.865200	0.068300
H611	H61	0.656900	0.890100	0.026500
C1011	C101	0.710000	0.822000	0.081800
H621	H62	0.746800	0.817500	0.049900
C1021	C102	0.544300	0.919800	0.103600
C1031	C103	0.684200	0.436050	0.283500
C1041	C104	0.719100	0.404090	0.230400
C1051	C105	0.807100	0.379800	0.277100
H631	H63	0.843200	0.384500	0.341400
C1061	C106	0.841100	0.349500	0.230700
H641	H64	0.899500	0.332400	0.263300
C1071	C107	0.791500	0.343800	0.138100
C1081	C108	0.705500	0.367900	0.089300
H651	H65	0.671000	0.363800	0.024700
C1091	C109	0.671100	0.397900	0.136600
H661	H66	0.612600	0.414800	0.103500
C1101	C110	0.809700	0.261300	0.090200
C1111	C111	0.865900	0.229300	0.070200
H671	H67	0.918300	0.242200	0.063600
C1121	C112	0.845400	0.177700	0.059700
H681	H68	0.883800	0.155500	0.045400
C1131	C113	0.770300	0.158400	0.069800
C1141	C114	0.715500	0.191300	0.090500
H691	H69	0.662700	0.178500	0.096300
C1151	C115	0.735400	0.242400	0.103000
H701	H70	0.698600	0.264200	0.120300
C1161	C116	0.742000	0.102700	0.054600
C1171	C117	0.614400	0.461830	0.750700
C1181	C118	0.706500	0.437630	0.816400
C1191	C119	0.755400	0.407610	0.785500
H711	H71	0.730200	0.400500	0.721800
C1201	C120	0.841900	0.387100	0.846300
H721	H72	0.876500	0.366400	0.824600
C1211	C121	0.876900	0.397530	0.939700
C1221	C122	0.828300	0.427800	0.971200
H731	H73	0.853300	0.435300	0.034800
C1231	C123	0.741600	0.447400	0.909200
H741	H74	0.706200	0.467600	0.930700
C1241	C124	0.018600	0.398300	0.081700
C1251	C125	0.059600	0.444500	0.081300
H751	H75	0.046900	0.461100	0.025300
C1261	C126	0.120200	0.465700	0.165700
H761	H76	0.151400	0.496700	0.167300
C1271	C127	0.135600	0.442600	0.246600
C1281	C128	0.090200	0.397300	0.243900
H771	H77	0.098800	0.381600	0.299400
C1291	C129	0.033000	0.375000	0.161000
H781	H78	0.003600	0.343400	0.159300
C1301	C130	0.201600	0.466300	0.337400
C1311	C131	0.959300	0.540900	0.512800
H791	H79	0.944000	0.567000	0.525000
C1321	C132	0.954900	0.456200	0.486600
H801	H80	0.921000	0.425900	0.479000
H811	H81	0.613000	0.531000	0.449000
Co101	Co10	0.230190	0.996530	0.022200
Co111	Co11	0.446860	0.991590	0.179910
Co121	Co12	0.391050	0.976310	0.940820
N41	N4	0.087700	0.997520	0.001500
O491	O49	0.391500	0.056750	0.211200
O501	O50	0.242600	0.061270	0.101500
O511	O51	0.235100	0.242660	0.348700
O521	O52	0.486100	0.426640	0.340000
O531	O53	0.468200	0.449870	0.462700
O541	O54	0.258800	0.951430	0.139400
O551	O55	0.403900	0.945180	0.252900
O561	O56	0.171600	0.812520	0.406800
O571	O57	0.202400	0.573190	0.455600
O581	O58	0.335200	0.592350	0.446400
O591	O59	0.420700	0.953840	0.835000
O601	O60	0.426400	0.989480	0.715600
O611	O61	0.037300	0.874840	0.503900
O621	O62	0.816200	0.960190	0.096600
O631	O63	0.728900	0.990020	0.161600
O641	O64	0.369700	0.003780	0.046200
C1331	C133	0.309200	0.074220	0.176200
C1341	C134	0.289200	0.116300	0.226200
C1351	C135	0.198900	0.136900	0.193800
H821	H82	0.148300	0.121900	0.142100
C1361	C136	0.181100	0.178000	0.234600
H831	H83	0.119200	0.191600	0.210800
C1371	C137	0.253600	0.199600	0.310200
C1381	C138	0.342400	0.180200	0.346700
H841	H84	0.391200	0.195000	0.400100
C1391	C139	0.362000	0.137400	0.304000
H851	H85	0.423800	0.123600	0.328500
C1401	C140	0.290000	0.285300	0.358200
C1411	C141	0.339000	0.293500	0.309800
H861	H86	0.337600	0.269000	0.266600
C1421	C142	0.390600	0.336700	0.322800
H871	H87	0.422900	0.341900	0.286800
C1431	C143	0.397700	0.373300	0.385700
C1441	C144	0.343400	0.365200	0.431700
H881	H88	0.343100	0.390100	0.473500
C1451	C145	0.290000	0.322000	0.418200
H891	H89	0.253200	0.317500	0.450100
C1461	C146	0.455700	0.419800	0.396400
C1471	C147	0.315800	0.936050	0.216500
C1481	C148	0.280900	0.904090	0.269600
C1491	C149	0.192900	0.879800	0.222900
H901	H90	0.156800	0.884500	0.158600
C1501	C150	0.158900	0.849500	0.269300
H911	H91	0.100500	0.832400	0.236700
C1511	C151	0.208500	0.843800	0.361900
C1521	C152	0.294500	0.867900	0.410700
H921	H92	0.329000	0.863800	0.475300
C1531	C153	0.328900	0.897900	0.363400
H931	H93	0.387400	0.914800	0.396500
C1541	C154	0.190300	0.761300	0.409800
C1551	C155	0.134100	0.729300	0.429800
H941	H94	0.081700	0.742200	0.436400
C1561	C156	0.154600	0.677700	0.440300
H951	H95	0.116200	0.655500	0.454600
C1571	C157	0.229700	0.658400	0.430200
C1581	C158	0.284500	0.691300	0.409500
H961	H96	0.337300	0.678500	0.403700
C1591	C159	0.264600	0.742400	0.397000
H971	H97	0.301400	0.764200	0.379700
C1601	C160	0.258000	0.602700	0.445400
C1611	C161	0.385600	0.961830	0.749300
C1621	C162	0.293500	0.937630	0.683600
C1631	C163	0.244600	0.907610	0.714500
H981	H98	0.269800	0.900500	0.778200
C1641	C164	0.158100	0.887100	0.653700
H991	H99	0.123500	0.866400	0.675400
C1651	C165	0.123100	0.897530	0.560300
C1661	C166	0.171700	0.927800	0.528800
H1001	H100	0.146700	0.935300	0.465200
C1671	C167	0.258400	0.947400	0.590800
H1011	H101	0.293800	0.967600	0.569300
C1681	C168	0.981400	0.898300	0.418300
C1691	C169	0.940400	0.944500	0.418700
H1021	H102	0.953100	0.961100	0.474700
C1701	C170	0.879800	0.965700	0.334300
H1031	H103	0.848600	0.996700	0.332700
C1711	C171	0.864400	0.942600	0.253400
C1721	C172	0.909800	0.897300	0.256100
H1041	H104	0.901200	0.881600	0.200600
C1731	C173	0.967000	0.875000	0.339000
H1051	H105	0.996400	0.843400	0.340700
C1741	C174	0.798400	0.966300	0.162600
C1751	C175	0.040700	0.040900	0.987200
H1061	H106	0.056000	0.067000	0.975000
C1761	C176	0.045100	0.956200	0.013400
H1071	H107	0.079000	0.925900	0.021000
H1081	H108	0.387000	0.031000	0.051000
