data_CUWNIT_freeONLY_PM
_symmetry_space_group_name_H-M	'P1'
_cell_length_a	28.834000
_cell_length_b	16.381000
_cell_length_c	23.199000
_cell_angle_alpha	90.000000
_cell_angle_beta	92.893000
_cell_angle_gamma	90.000000
_symmetry_Int_Tables_number 1

loop_
_symmetry_equiv_pos_as_xyz
'x,y,z'

loop_
_atom_site_label
_atom_site_type_symbol
_atom_site_fract_x
_atom_site_fract_y
_atom_site_fract_z
Co11	Co1	0.798060	0.718630	0.035160
Co21	Co2	0.795110	0.606350	0.156660
Co31	Co3	0.708840	0.755470	0.129810
O11	O1	0.835540	0.613500	0.025500
O21	O2	0.814820	0.525970	0.094620
O31	O3	0.953390	0.302300	0.961410
O41	O4	0.166220	0.238880	0.037740
O51	O5	0.140360	0.285900	0.119150
O61	O6	0.837780	0.784280	0.093160
O71	O7	0.852300	0.683660	0.156870
O81	O8	0.755950	0.822990	0.023970
O91	O9	0.732080	0.872130	0.106980
O101	O10	0.810550	0.183400	0.973650
O111	O11	0.727080	0.222100	0.713800
O121	O12	0.772260	0.332100	0.726450
O131	O13	0.755270	0.676010	0.098840
H11	H1	0.737300	0.642100	0.081300
O141	O14	0.670750	0.637500	0.147830
H21	H2	0.651000	0.638500	0.173800
H31	H3	0.695900	0.614000	0.158900
C11	C1	0.835980	0.544600	0.050090
C21	C2	0.865260	0.479200	0.024740
C31	C3	0.860210	0.398300	0.039740
H41	H4	0.836700	0.383100	0.064900
C41	C4	0.889250	0.338700	0.018500
H51	H5	0.885500	0.283000	0.028600
C51	C5	0.923510	0.361700	0.982600
C61	C6	0.928780	0.441800	0.965900
H61	H6	0.952200	0.456700	0.940500
C71	C7	0.899120	0.500600	0.987000
H71	H7	0.902100	0.555900	0.975500
C81	C8	0.133060	0.266200	0.066660
C91	C9	0.085420	0.274000	0.040600
C101	C10	0.050300	0.311500	0.071000
H81	H8	0.056900	0.329800	0.109400
C111	C11	0.006080	0.322000	0.045600
H91	H9	0.982600	0.348100	0.066200
C121	C12	0.996350	0.294300	0.990000
C131	C13	0.030520	0.254800	0.959900
H101	H10	0.023500	0.234100	0.922200
C141	C14	0.074670	0.245700	0.985100
H111	H11	0.098000	0.219800	0.964200
C151	C15	0.858210	0.753700	0.136980
C161	C16	0.894670	0.805900	0.168000
C171	C17	0.910430	0.877700	0.143790
H121	H12	0.897000	0.895500	0.107700
C181	C18	0.945130	0.923500	0.171100
H131	H13	0.955900	0.972000	0.153800
C191	C19	0.964060	0.897600	0.224100
C201	C20	0.947510	0.828600	0.250400
H141	H14	0.959800	0.812600	0.287500
C211	C21	0.912690	0.782500	0.222100
H151	H15	0.901200	0.734900	0.239900
C221	C22	0.750970	0.881000	0.059630
C231	C23	0.768550	0.962200	0.041500
C241	C24	0.749130	0.034700	0.059970
H161	H16	0.726400	0.033600	0.088200
C251	C25	0.762780	0.108800	0.037300
H171	H17	0.749400	0.158500	0.049500
C261	C26	0.796420	0.108800	0.996590
C271	C27	0.817580	0.038000	0.979800
H181	H18	0.841600	0.039800	0.953300
C281	C28	0.803530	0.963900	0.001860
H191	H19	0.817600	0.914500	0.990100
C291	C29	0.754310	0.267800	0.743590
C301	C30	0.767580	0.243600	0.804840
C311	C31	0.746110	0.179600	0.831990
H201	H20	0.721600	0.151000	0.812000
C321	C32	0.759810	0.156400	0.887910
H211	H21	0.745100	0.111900	0.905900
C331	C33	0.795170	0.199200	0.916900
C341	C34	0.817320	0.263700	0.890700
H221	H22	0.841800	0.292200	0.910900
C351	C35	0.803350	0.285900	0.834820
H231	H23	0.818200	0.330200	0.816800
O151	O15	0.834830	0.538300	0.219120
N11	N1	0.869350	0.427300	0.258510
C361	C36	0.854190	0.472800	0.213800
H241	H24	0.858700	0.453200	0.175900
C371	C37	0.861600	0.454800	0.317300
H251	H25	0.861200	0.514600	0.318400
H261	H26	0.886600	0.434400	0.343700
H271	H27	0.831700	0.433800	0.329300
C381	C38	0.887200	0.344400	0.249500
H281	H28	0.887800	0.333500	0.208000
H291	H29	0.867000	0.304600	0.267300
H301	H30	0.918700	0.340000	0.267100
O161	O16	0.738020	0.524800	0.171090
N21	N2	0.696050	0.463800	0.239550
C391	C39	0.732730	0.503000	0.221880
H311	H31	0.756900	0.515600	0.249900
C401	C40	0.657680	0.440500	0.200300
H321	H32	0.663100	0.461000	0.161600
H331	H33	0.628800	0.463700	0.213700
H341	H34	0.655200	0.380800	0.199300
C411	C41	0.693500	0.440500	0.300000
H351	H35	0.720600	0.462100	0.322200
H361	H36	0.693100	0.380800	0.303100
H371	H37	0.665100	0.462800	0.315300
Co41	Co4	0.298060	0.218630	0.035160
Co51	Co5	0.295110	0.106350	0.156660
Co61	Co6	0.208840	0.255470	0.129810
O171	O17	0.335540	0.113500	0.025500
O181	O18	0.314820	0.025970	0.094620
O191	O19	0.453390	0.802300	0.961410
O201	O20	0.666220	0.738880	0.037740
O211	O21	0.640360	0.785900	0.119150
O221	O22	0.337780	0.284280	0.093160
O231	O23	0.352300	0.183660	0.156870
O241	O24	0.255950	0.322990	0.023970
O251	O25	0.232080	0.372130	0.106980
O261	O26	0.310550	0.683400	0.973650
O271	O27	0.227080	0.722100	0.713800
O281	O28	0.272260	0.832100	0.726450
O291	O29	0.255270	0.176010	0.098840
H381	H38	0.237300	0.142100	0.081300
O301	O30	0.170750	0.137500	0.147830
H391	H39	0.151000	0.138500	0.173800
H401	H40	0.195900	0.114000	0.158900
C421	C42	0.335980	0.044600	0.050090
C431	C43	0.365260	0.979200	0.024740
C441	C44	0.360210	0.898300	0.039740
H411	H41	0.336700	0.883100	0.064900
C451	C45	0.389250	0.838700	0.018500
H421	H42	0.385500	0.783000	0.028600
C461	C46	0.423510	0.861700	0.982600
C471	C47	0.428780	0.941800	0.965900
H431	H43	0.452200	0.956700	0.940500
C481	C48	0.399120	0.000600	0.987000
H441	H44	0.402100	0.055900	0.975500
C491	C49	0.633060	0.766200	0.066660
C501	C50	0.585420	0.774000	0.040600
C511	C51	0.550300	0.811500	0.071000
H451	H45	0.556900	0.829800	0.109400
C521	C52	0.506080	0.822000	0.045600
H461	H46	0.482600	0.848100	0.066200
C531	C53	0.496350	0.794300	0.990000
C541	C54	0.530520	0.754800	0.959900
H471	H47	0.523500	0.734100	0.922200
C551	C55	0.574670	0.745700	0.985100
H481	H48	0.598000	0.719800	0.964200
C561	C56	0.358210	0.253700	0.136980
C571	C57	0.394670	0.305900	0.168000
C581	C58	0.410430	0.377700	0.143790
H491	H49	0.397000	0.395500	0.107700
C591	C59	0.445130	0.423500	0.171100
H501	H50	0.455900	0.472000	0.153800
C601	C60	0.464060	0.397600	0.224100
C611	C61	0.447510	0.328600	0.250400
H511	H51	0.459800	0.312600	0.287500
C621	C62	0.412690	0.282500	0.222100
H521	H52	0.401200	0.234900	0.239900
C631	C63	0.250970	0.381000	0.059630
C641	C64	0.268550	0.462200	0.041500
C651	C65	0.249130	0.534700	0.059970
H531	H53	0.226400	0.533600	0.088200
C661	C66	0.262780	0.608800	0.037300
H541	H54	0.249400	0.658500	0.049500
C671	C67	0.296420	0.608800	0.996590
C681	C68	0.317580	0.538000	0.979800
H551	H55	0.341600	0.539800	0.953300
C691	C69	0.303530	0.463900	0.001860
H561	H56	0.317600	0.414500	0.990100
C701	C70	0.254310	0.767800	0.743590
C711	C71	0.267580	0.743600	0.804840
C721	C72	0.246110	0.679600	0.831990
H571	H57	0.221600	0.651000	0.812000
C731	C73	0.259810	0.656400	0.887910
H581	H58	0.245100	0.611900	0.905900
C741	C74	0.295170	0.699200	0.916900
C751	C75	0.317320	0.763700	0.890700
H591	H59	0.341800	0.792200	0.910900
C761	C76	0.303350	0.785900	0.834820
H601	H60	0.318200	0.830200	0.816800
O311	O31	0.334830	0.038300	0.219120
N31	N3	0.369350	0.927300	0.258510
C771	C77	0.354190	0.972800	0.213800
H611	H61	0.358700	0.953200	0.175900
C781	C78	0.361600	0.954800	0.317300
H621	H62	0.361200	0.014600	0.318400
H631	H63	0.386600	0.934400	0.343700
H641	H64	0.331700	0.933800	0.329300
C791	C79	0.387200	0.844400	0.249500
H651	H65	0.387800	0.833500	0.208000
H661	H66	0.367000	0.804600	0.267300
H671	H67	0.418700	0.840000	0.267100
O321	O32	0.238020	0.024800	0.171090
N41	N4	0.196050	0.963800	0.239550
C801	C80	0.232730	0.003000	0.221880
H681	H68	0.256900	0.015600	0.249900
C811	C81	0.157680	0.940500	0.200300
H691	H69	0.163100	0.961000	0.161600
H701	H70	0.128800	0.963700	0.213700
H711	H71	0.155200	0.880800	0.199300
C821	C82	0.193500	0.940500	0.300000
H721	H72	0.220600	0.962100	0.322200
H731	H73	0.193100	0.880800	0.303100
H741	H74	0.165100	0.962800	0.315300
Co71	Co7	0.201940	0.718630	0.464840
Co81	Co8	0.204890	0.606350	0.343340
Co91	Co9	0.291160	0.755470	0.370190
O331	O33	0.164460	0.613500	0.474500
O341	O34	0.185180	0.525970	0.405380
O351	O35	0.046610	0.302300	0.538590
O361	O36	0.833780	0.238880	0.462260
O371	O37	0.859640	0.285900	0.380850
O381	O38	0.162220	0.784280	0.406840
O391	O39	0.147700	0.683660	0.343130
O401	O40	0.244050	0.822990	0.476030
O411	O41	0.267920	0.872130	0.393020
O421	O42	0.189450	0.183400	0.526350
O431	O43	0.272920	0.222100	0.786200
O441	O44	0.227740	0.332100	0.773550
O451	O45	0.244730	0.676010	0.401160
H751	H75	0.262700	0.642100	0.418700
O461	O46	0.329250	0.637500	0.352170
H761	H76	0.349000	0.638500	0.326200
H771	H77	0.304100	0.614000	0.341100
C831	C83	0.164020	0.544600	0.449910
C841	C84	0.134740	0.479200	0.475260
C851	C85	0.139790	0.398300	0.460260
H781	H78	0.163300	0.383100	0.435100
C861	C86	0.110750	0.338700	0.481500
H791	H79	0.114500	0.283000	0.471400
C871	C87	0.076490	0.361700	0.517400
C881	C88	0.071220	0.441800	0.534100
H801	H80	0.047800	0.456700	0.559500
C891	C89	0.100880	0.500600	0.513000
H811	H81	0.097900	0.555900	0.524500
C901	C90	0.866940	0.266200	0.433340
C911	C91	0.914580	0.274000	0.459400
C921	C92	0.949700	0.311500	0.429000
H821	H82	0.943100	0.329800	0.390600
C931	C93	0.993920	0.322000	0.454400
H831	H83	0.017400	0.348100	0.433800
C941	C94	0.003650	0.294300	0.510000
C951	C95	0.969480	0.254800	0.540100
H841	H84	0.976500	0.234100	0.577800
C961	C96	0.925330	0.245700	0.514900
H851	H85	0.902000	0.219800	0.535800
C971	C97	0.141790	0.753700	0.363020
C981	C98	0.105330	0.805900	0.332000
C991	C99	0.089570	0.877700	0.356210
H861	H86	0.103000	0.895500	0.392300
C1001	C100	0.054870	0.923500	0.328900
H871	H87	0.044100	0.972000	0.346200
C1011	C101	0.035940	0.897600	0.275900
C1021	C102	0.052490	0.828600	0.249600
H881	H88	0.040200	0.812600	0.212500
C1031	C103	0.087310	0.782500	0.277900
H891	H89	0.098800	0.734900	0.260100
C1041	C104	0.249030	0.881000	0.440370
C1051	C105	0.231450	0.962200	0.458500
C1061	C106	0.250870	0.034700	0.440030
H901	H90	0.273600	0.033600	0.411800
C1071	C107	0.237220	0.108800	0.462700
H911	H91	0.250600	0.158500	0.450500
C1081	C108	0.203580	0.108800	0.503410
C1091	C109	0.182420	0.038000	0.520200
H921	H92	0.158400	0.039800	0.546700
C1101	C110	0.196470	0.963900	0.498140
H931	H93	0.182400	0.914500	0.509900
C1111	C111	0.245690	0.267800	0.756410
C1121	C112	0.232420	0.243600	0.695160
C1131	C113	0.253890	0.179600	0.668010
H941	H94	0.278400	0.151000	0.688000
C1141	C114	0.240190	0.156400	0.612090
H951	H95	0.254900	0.111900	0.594100
C1151	C115	0.204830	0.199200	0.583100
C1161	C116	0.182680	0.263700	0.609300
H961	H96	0.158200	0.292200	0.589100
C1171	C117	0.196650	0.285900	0.665180
H971	H97	0.181800	0.330200	0.683200
O471	O47	0.165170	0.538300	0.280880
N51	N5	0.130650	0.427300	0.241490
C1181	C118	0.145810	0.472800	0.286200
H981	H98	0.141300	0.453200	0.324100
C1191	C119	0.138400	0.454800	0.182700
H991	H99	0.138800	0.514600	0.181600
H1001	H100	0.113400	0.434400	0.156300
H1011	H101	0.168300	0.433800	0.170700
C1201	C120	0.112800	0.344400	0.250500
H1021	H102	0.112200	0.333500	0.292000
H1031	H103	0.133000	0.304600	0.232700
H1041	H104	0.081300	0.340000	0.232900
O481	O48	0.261980	0.524800	0.328910
N61	N6	0.303950	0.463800	0.260450
C1211	C121	0.267270	0.503000	0.278120
H1051	H105	0.243100	0.515600	0.250100
C1221	C122	0.342320	0.440500	0.299700
H1061	H106	0.336900	0.461000	0.338400
H1071	H107	0.371200	0.463700	0.286300
H1081	H108	0.344800	0.380800	0.300700
C1231	C123	0.306500	0.440500	0.200000
H1091	H109	0.279400	0.462100	0.177800
H1101	H110	0.306900	0.380800	0.196900
H1111	H111	0.334900	0.462800	0.184700
Co101	Co10	0.701940	0.218630	0.464840
Co111	Co11	0.704890	0.106350	0.343340
Co121	Co12	0.791160	0.255470	0.370190
O491	O49	0.664460	0.113500	0.474500
O501	O50	0.685180	0.025970	0.405380
O511	O51	0.546610	0.802300	0.538590
O521	O52	0.333780	0.738880	0.462260
O531	O53	0.359640	0.785900	0.380850
O541	O54	0.662220	0.284280	0.406840
O551	O55	0.647700	0.183660	0.343130
O561	O56	0.744050	0.322990	0.476030
O571	O57	0.767920	0.372130	0.393020
O581	O58	0.689450	0.683400	0.526350
O591	O59	0.772920	0.722100	0.786200
O601	O60	0.727740	0.832100	0.773550
O611	O61	0.744730	0.176010	0.401160
H1121	H112	0.762700	0.142100	0.418700
O621	O62	0.829250	0.137500	0.352170
H1131	H113	0.849000	0.138500	0.326200
H1141	H114	0.804100	0.114000	0.341100
C1241	C124	0.664020	0.044600	0.449910
C1251	C125	0.634740	0.979200	0.475260
C1261	C126	0.639790	0.898300	0.460260
H1151	H115	0.663300	0.883100	0.435100
C1271	C127	0.610750	0.838700	0.481500
H1161	H116	0.614500	0.783000	0.471400
C1281	C128	0.576490	0.861700	0.517400
C1291	C129	0.571220	0.941800	0.534100
H1171	H117	0.547800	0.956700	0.559500
C1301	C130	0.600880	0.000600	0.513000
H1181	H118	0.597900	0.055900	0.524500
C1311	C131	0.366940	0.766200	0.433340
C1321	C132	0.414580	0.774000	0.459400
C1331	C133	0.449700	0.811500	0.429000
H1191	H119	0.443100	0.829800	0.390600
C1341	C134	0.493920	0.822000	0.454400
H1201	H120	0.517400	0.848100	0.433800
C1351	C135	0.503650	0.794300	0.510000
C1361	C136	0.469480	0.754800	0.540100
H1211	H121	0.476500	0.734100	0.577800
C1371	C137	0.425330	0.745700	0.514900
H1221	H122	0.402000	0.719800	0.535800
C1381	C138	0.641790	0.253700	0.363020
C1391	C139	0.605330	0.305900	0.332000
C1401	C140	0.589570	0.377700	0.356210
H1231	H123	0.603000	0.395500	0.392300
C1411	C141	0.554870	0.423500	0.328900
H1241	H124	0.544100	0.472000	0.346200
C1421	C142	0.535940	0.397600	0.275900
C1431	C143	0.552490	0.328600	0.249600
H1251	H125	0.540200	0.312600	0.212500
C1441	C144	0.587310	0.282500	0.277900
H1261	H126	0.598800	0.234900	0.260100
C1451	C145	0.749030	0.381000	0.440370
C1461	C146	0.731450	0.462200	0.458500
C1471	C147	0.750870	0.534700	0.440030
H1271	H127	0.773600	0.533600	0.411800
C1481	C148	0.737220	0.608800	0.462700
H1281	H128	0.750600	0.658500	0.450500
C1491	C149	0.703580	0.608800	0.503410
C1501	C150	0.682420	0.538000	0.520200
H1291	H129	0.658400	0.539800	0.546700
C1511	C151	0.696470	0.463900	0.498140
H1301	H130	0.682400	0.414500	0.509900
C1521	C152	0.745690	0.767800	0.756410
C1531	C153	0.732420	0.743600	0.695160
C1541	C154	0.753890	0.679600	0.668010
H1311	H131	0.778400	0.651000	0.688000
C1551	C155	0.740190	0.656400	0.612090
H1321	H132	0.754900	0.611900	0.594100
C1561	C156	0.704830	0.699200	0.583100
C1571	C157	0.682680	0.763700	0.609300
H1331	H133	0.658200	0.792200	0.589100
C1581	C158	0.696650	0.785900	0.665180
H1341	H134	0.681800	0.830200	0.683200
O631	O63	0.665170	0.038300	0.280880
N71	N7	0.630650	0.927300	0.241490
C1591	C159	0.645810	0.972800	0.286200
H1351	H135	0.641300	0.953200	0.324100
C1601	C160	0.638400	0.954800	0.182700
H1361	H136	0.638800	0.014600	0.181600
H1371	H137	0.613400	0.934400	0.156300
H1381	H138	0.668300	0.933800	0.170700
C1611	C161	0.612800	0.844400	0.250500
H1391	H139	0.612200	0.833500	0.292000
H1401	H140	0.633000	0.804600	0.232700
H1411	H141	0.581300	0.840000	0.232900
O641	O64	0.761980	0.024800	0.328910
N81	N8	0.803950	0.963800	0.260450
C1621	C162	0.767270	0.003000	0.278120
H1421	H142	0.743100	0.015600	0.250100
C1631	C163	0.842320	0.940500	0.299700
H1431	H143	0.836900	0.961000	0.338400
H1441	H144	0.871200	0.963700	0.286300
H1451	H145	0.844800	0.880800	0.300700
C1641	C164	0.806500	0.940500	0.200000
H1461	H146	0.779400	0.962100	0.177800
H1471	H147	0.806900	0.880800	0.196900
H1481	H148	0.834900	0.962800	0.184700
Co131	Co13	0.201940	0.281370	0.964840
Co141	Co14	0.204890	0.393650	0.843340
Co151	Co15	0.291160	0.244530	0.870190
O651	O65	0.164460	0.386500	0.974500
O661	O66	0.185180	0.474030	0.905380
O671	O67	0.046610	0.697700	0.038590
O681	O68	0.833780	0.761120	0.962260
O691	O69	0.859640	0.714100	0.880850
O701	O70	0.162220	0.215720	0.906840
O711	O71	0.147700	0.316340	0.843130
O721	O72	0.244050	0.177010	0.976030
O731	O73	0.267920	0.127870	0.893020
O741	O74	0.189450	0.816600	0.026350
O751	O75	0.272920	0.777900	0.286200
O761	O76	0.227740	0.667900	0.273550
O771	O77	0.244730	0.323990	0.901160
H1491	H149	0.262700	0.357900	0.918700
O781	O78	0.329250	0.362500	0.852170
H1501	H150	0.349000	0.361500	0.826200
H1511	H151	0.304100	0.386000	0.841100
C1651	C165	0.164020	0.455400	0.949910
C1661	C166	0.134740	0.520800	0.975260
C1671	C167	0.139790	0.601700	0.960260
H1521	H152	0.163300	0.616900	0.935100
C1681	C168	0.110750	0.661300	0.981500
H1531	H153	0.114500	0.717000	0.971400
C1691	C169	0.076490	0.638300	0.017400
C1701	C170	0.071220	0.558200	0.034100
H1541	H154	0.047800	0.543300	0.059500
C1711	C171	0.100880	0.499400	0.013000
H1551	H155	0.097900	0.444100	0.024500
C1721	C172	0.866940	0.733800	0.933340
C1731	C173	0.914580	0.726000	0.959400
C1741	C174	0.949700	0.688500	0.929000
H1561	H156	0.943100	0.670200	0.890600
C1751	C175	0.993920	0.678000	0.954400
H1571	H157	0.017400	0.651900	0.933800
C1761	C176	0.003650	0.705700	0.010000
C1771	C177	0.969480	0.745200	0.040100
H1581	H158	0.976500	0.765900	0.077800
C1781	C178	0.925330	0.754300	0.014900
H1591	H159	0.902000	0.780200	0.035800
C1791	C179	0.141790	0.246300	0.863020
C1801	C180	0.105330	0.194100	0.832000
C1811	C181	0.089570	0.122300	0.856210
H1601	H160	0.103000	0.104500	0.892300
C1821	C182	0.054870	0.076500	0.828900
H1611	H161	0.044100	0.028000	0.846200
C1831	C183	0.035940	0.102400	0.775900
C1841	C184	0.052490	0.171400	0.749600
H1621	H162	0.040200	0.187400	0.712500
C1851	C185	0.087310	0.217500	0.777900
H1631	H163	0.098800	0.265100	0.760100
C1861	C186	0.249030	0.119000	0.940370
C1871	C187	0.231450	0.037800	0.958500
C1881	C188	0.250870	0.965300	0.940030
H1641	H164	0.273600	0.966400	0.911800
C1891	C189	0.237220	0.891200	0.962700
H1651	H165	0.250600	0.841500	0.950500
C1901	C190	0.203580	0.891200	0.003410
C1911	C191	0.182420	0.962000	0.020200
H1661	H166	0.158400	0.960200	0.046700
C1921	C192	0.196470	0.036100	0.998140
H1671	H167	0.182400	0.085500	0.009900
C1931	C193	0.245690	0.732200	0.256410
C1941	C194	0.232420	0.756400	0.195160
C1951	C195	0.253890	0.820400	0.168010
H1681	H168	0.278400	0.849000	0.188000
C1961	C196	0.240190	0.843600	0.112090
H1691	H169	0.254900	0.888100	0.094100
C1971	C197	0.204830	0.800800	0.083100
C1981	C198	0.182680	0.736300	0.109300
H1701	H170	0.158200	0.707800	0.089100
C1991	C199	0.196650	0.714100	0.165180
H1711	H171	0.181800	0.669800	0.183200
O791	O79	0.165170	0.461700	0.780880
N91	N9	0.130650	0.572700	0.741490
C2001	C200	0.145810	0.527200	0.786200
H1721	H172	0.141300	0.546800	0.824100
C2011	C201	0.138400	0.545200	0.682700
H1731	H173	0.138800	0.485400	0.681600
H1741	H174	0.113400	0.565600	0.656300
H1751	H175	0.168300	0.566200	0.670700
C2021	C202	0.112800	0.655600	0.750500
H1761	H176	0.112200	0.666500	0.792000
H1771	H177	0.133000	0.695400	0.732700
H1781	H178	0.081300	0.660000	0.732900
O801	O80	0.261980	0.475200	0.828910
N101	N10	0.303950	0.536200	0.760450
C2031	C203	0.267270	0.497000	0.778120
H1791	H179	0.243100	0.484400	0.750100
C2041	C204	0.342320	0.559500	0.799700
H1801	H180	0.336900	0.539000	0.838400
H1811	H181	0.371200	0.536300	0.786300
H1821	H182	0.344800	0.619200	0.800700
C2051	C205	0.306500	0.559500	0.700000
H1831	H183	0.279400	0.537900	0.677800
H1841	H184	0.306900	0.619200	0.696900
H1851	H185	0.334900	0.537200	0.684700
Co161	Co16	0.701940	0.781370	0.964840
Co171	Co17	0.704890	0.893650	0.843340
Co181	Co18	0.791160	0.744530	0.870190
O811	O81	0.664460	0.886500	0.974500
O821	O82	0.685180	0.974030	0.905380
O831	O83	0.546610	0.197700	0.038590
O841	O84	0.333780	0.261120	0.962260
O851	O85	0.359640	0.214100	0.880850
O861	O86	0.662220	0.715720	0.906840
O871	O87	0.647700	0.816340	0.843130
O881	O88	0.744050	0.677010	0.976030
O891	O89	0.767920	0.627870	0.893020
O901	O90	0.689450	0.316600	0.026350
O911	O91	0.772920	0.277900	0.286200
O921	O92	0.727740	0.167900	0.273550
O931	O93	0.744730	0.823990	0.901160
H1861	H186	0.762700	0.857900	0.918700
O941	O94	0.829250	0.862500	0.852170
H1871	H187	0.849000	0.861500	0.826200
H1881	H188	0.804100	0.886000	0.841100
C2061	C206	0.664020	0.955400	0.949910
C2071	C207	0.634740	0.020800	0.975260
C2081	C208	0.639790	0.101700	0.960260
H1891	H189	0.663300	0.116900	0.935100
C2091	C209	0.610750	0.161300	0.981500
H1901	H190	0.614500	0.217000	0.971400
C2101	C210	0.576490	0.138300	0.017400
C2111	C211	0.571220	0.058200	0.034100
H1911	H191	0.547800	0.043300	0.059500
C2121	C212	0.600880	0.999400	0.013000
H1921	H192	0.597900	0.944100	0.024500
C2131	C213	0.366940	0.233800	0.933340
C2141	C214	0.414580	0.226000	0.959400
C2151	C215	0.449700	0.188500	0.929000
H1931	H193	0.443100	0.170200	0.890600
C2161	C216	0.493920	0.178000	0.954400
H1941	H194	0.517400	0.151900	0.933800
C2171	C217	0.503650	0.205700	0.010000
C2181	C218	0.469480	0.245200	0.040100
H1951	H195	0.476500	0.265900	0.077800
C2191	C219	0.425330	0.254300	0.014900
H1961	H196	0.402000	0.280200	0.035800
C2201	C220	0.641790	0.746300	0.863020
C2211	C221	0.605330	0.694100	0.832000
C2221	C222	0.589570	0.622300	0.856210
H1971	H197	0.603000	0.604500	0.892300
C2231	C223	0.554870	0.576500	0.828900
H1981	H198	0.544100	0.528000	0.846200
C2241	C224	0.535940	0.602400	0.775900
C2251	C225	0.552490	0.671400	0.749600
H1991	H199	0.540200	0.687400	0.712500
C2261	C226	0.587310	0.717500	0.777900
H2001	H200	0.598800	0.765100	0.760100
C2271	C227	0.749030	0.619000	0.940370
C2281	C228	0.731450	0.537800	0.958500
C2291	C229	0.750870	0.465300	0.940030
H2011	H201	0.773600	0.466400	0.911800
C2301	C230	0.737220	0.391200	0.962700
H2021	H202	0.750600	0.341500	0.950500
C2311	C231	0.703580	0.391200	0.003410
C2321	C232	0.682420	0.462000	0.020200
H2031	H203	0.658400	0.460200	0.046700
C2331	C233	0.696470	0.536100	0.998140
H2041	H204	0.682400	0.585500	0.009900
C2341	C234	0.745690	0.232200	0.256410
C2351	C235	0.732420	0.256400	0.195160
C2361	C236	0.753890	0.320400	0.168010
H2051	H205	0.778400	0.349000	0.188000
C2371	C237	0.740190	0.343600	0.112090
H2061	H206	0.754900	0.388100	0.094100
C2381	C238	0.704830	0.300800	0.083100
C2391	C239	0.682680	0.236300	0.109300
H2071	H207	0.658200	0.207800	0.089100
C2401	C240	0.696650	0.214100	0.165180
H2081	H208	0.681800	0.169800	0.183200
O951	O95	0.665170	0.961700	0.780880
N111	N11	0.630650	0.072700	0.741490
C2411	C241	0.645810	0.027200	0.786200
H2091	H209	0.641300	0.046800	0.824100
C2421	C242	0.638400	0.045200	0.682700
H2101	H210	0.638800	0.985400	0.681600
H2111	H211	0.613400	0.065600	0.656300
H2121	H212	0.668300	0.066200	0.670700
C2431	C243	0.612800	0.155600	0.750500
H2131	H213	0.612200	0.166500	0.792000
H2141	H214	0.633000	0.195400	0.732700
H2151	H215	0.581300	0.160000	0.732900
O961	O96	0.761980	0.975200	0.828910
N121	N12	0.803950	0.036200	0.760450
C2441	C244	0.767270	0.997000	0.778120
H2161	H216	0.743100	0.984400	0.750100
C2451	C245	0.842320	0.059500	0.799700
H2171	H217	0.836900	0.039000	0.838400
H2181	H218	0.871200	0.036300	0.786300
H2191	H219	0.844800	0.119200	0.800700
C2461	C246	0.806500	0.059500	0.700000
H2201	H220	0.779400	0.037900	0.677800
H2211	H221	0.806900	0.119200	0.696900
H2221	H222	0.834900	0.037200	0.684700
Co191	Co19	0.798060	0.281370	0.535160
Co201	Co20	0.795110	0.393650	0.656660
Co211	Co21	0.708840	0.244530	0.629810
O971	O97	0.835540	0.386500	0.525500
O981	O98	0.814820	0.474030	0.594620
O991	O99	0.953390	0.697700	0.461410
O1001	O100	0.166220	0.761120	0.537740
O1011	O101	0.140360	0.714100	0.619150
O1021	O102	0.837780	0.215720	0.593160
O1031	O103	0.852300	0.316340	0.656870
O1041	O104	0.755950	0.177010	0.523970
O1051	O105	0.732080	0.127870	0.606980
O1061	O106	0.810550	0.816600	0.473650
O1071	O107	0.727080	0.777900	0.213800
O1081	O108	0.772260	0.667900	0.226450
O1091	O109	0.755270	0.323990	0.598840
H2231	H223	0.737300	0.357900	0.581300
O1101	O110	0.670750	0.362500	0.647830
H2241	H224	0.651000	0.361500	0.673800
H2251	H225	0.695900	0.386000	0.658900
C2471	C247	0.835980	0.455400	0.550090
C2481	C248	0.865260	0.520800	0.524740
C2491	C249	0.860210	0.601700	0.539740
H2261	H226	0.836700	0.616900	0.564900
C2501	C250	0.889250	0.661300	0.518500
H2271	H227	0.885500	0.717000	0.528600
C2511	C251	0.923510	0.638300	0.482600
C2521	C252	0.928780	0.558200	0.465900
H2281	H228	0.952200	0.543300	0.440500
C2531	C253	0.899120	0.499400	0.487000
H2291	H229	0.902100	0.444100	0.475500
C2541	C254	0.133060	0.733800	0.566660
C2551	C255	0.085420	0.726000	0.540600
C2561	C256	0.050300	0.688500	0.571000
H2301	H230	0.056900	0.670200	0.609400
C2571	C257	0.006080	0.678000	0.545600
H2311	H231	0.982600	0.651900	0.566200
C2581	C258	0.996350	0.705700	0.490000
C2591	C259	0.030520	0.745200	0.459900
H2321	H232	0.023500	0.765900	0.422200
C2601	C260	0.074670	0.754300	0.485100
H2331	H233	0.098000	0.780200	0.464200
C2611	C261	0.858210	0.246300	0.636980
C2621	C262	0.894670	0.194100	0.668000
C2631	C263	0.910430	0.122300	0.643790
H2341	H234	0.897000	0.104500	0.607700
C2641	C264	0.945130	0.076500	0.671100
H2351	H235	0.955900	0.028000	0.653800
C2651	C265	0.964060	0.102400	0.724100
C2661	C266	0.947510	0.171400	0.750400
H2361	H236	0.959800	0.187400	0.787500
C2671	C267	0.912690	0.217500	0.722100
H2371	H237	0.901200	0.265100	0.739900
C2681	C268	0.750970	0.119000	0.559630
C2691	C269	0.768550	0.037800	0.541500
C2701	C270	0.749130	0.965300	0.559970
H2381	H238	0.726400	0.966400	0.588200
C2711	C271	0.762780	0.891200	0.537300
H2391	H239	0.749400	0.841500	0.549500
C2721	C272	0.796420	0.891200	0.496590
C2731	C273	0.817580	0.962000	0.479800
H2401	H240	0.841600	0.960200	0.453300
C2741	C274	0.803530	0.036100	0.501860
H2411	H241	0.817600	0.085500	0.490100
C2751	C275	0.754310	0.732200	0.243590
C2761	C276	0.767580	0.756400	0.304840
C2771	C277	0.746110	0.820400	0.331990
H2421	H242	0.721600	0.849000	0.312000
C2781	C278	0.759810	0.843600	0.387910
H2431	H243	0.745100	0.888100	0.405900
C2791	C279	0.795170	0.800800	0.416900
C2801	C280	0.817320	0.736300	0.390700
H2441	H244	0.841800	0.707800	0.410900
C2811	C281	0.803350	0.714100	0.334820
H2451	H245	0.818200	0.669800	0.316800
O1111	O111	0.834830	0.461700	0.719120
N131	N13	0.869350	0.572700	0.758510
C2821	C282	0.854190	0.527200	0.713800
H2461	H246	0.858700	0.546800	0.675900
C2831	C283	0.861600	0.545200	0.817300
H2471	H247	0.861200	0.485400	0.818400
H2481	H248	0.886600	0.565600	0.843700
H2491	H249	0.831700	0.566200	0.829300
C2841	C284	0.887200	0.655600	0.749500
H2501	H250	0.887800	0.666500	0.708000
H2511	H251	0.867000	0.695400	0.767300
H2521	H252	0.918700	0.660000	0.767100
O1121	O112	0.738020	0.475200	0.671090
N141	N14	0.696050	0.536200	0.739550
C2851	C285	0.732730	0.497000	0.721880
H2531	H253	0.756900	0.484400	0.749900
C2861	C286	0.657680	0.559500	0.700300
H2541	H254	0.663100	0.539000	0.661600
H2551	H255	0.628800	0.536300	0.713700
H2561	H256	0.655200	0.619200	0.699300
C2871	C287	0.693500	0.559500	0.800000
H2571	H257	0.720600	0.537900	0.822200
H2581	H258	0.693100	0.619200	0.803100
H2591	H259	0.665100	0.537200	0.815300
Co221	Co22	0.298060	0.781370	0.535160
Co231	Co23	0.295110	0.893650	0.656660
Co241	Co24	0.208840	0.744530	0.629810
O1131	O113	0.335540	0.886500	0.525500
O1141	O114	0.314820	0.974030	0.594620
O1151	O115	0.453390	0.197700	0.461410
O1161	O116	0.666220	0.261120	0.537740
O1171	O117	0.640360	0.214100	0.619150
O1181	O118	0.337780	0.715720	0.593160
O1191	O119	0.352300	0.816340	0.656870
O1201	O120	0.255950	0.677010	0.523970
O1211	O121	0.232080	0.627870	0.606980
O1221	O122	0.310550	0.316600	0.473650
O1231	O123	0.227080	0.277900	0.213800
O1241	O124	0.272260	0.167900	0.226450
O1251	O125	0.255270	0.823990	0.598840
H2601	H260	0.237300	0.857900	0.581300
O1261	O126	0.170750	0.862500	0.647830
H2611	H261	0.151000	0.861500	0.673800
H2621	H262	0.195900	0.886000	0.658900
C2881	C288	0.335980	0.955400	0.550090
C2891	C289	0.365260	0.020800	0.524740
C2901	C290	0.360210	0.101700	0.539740
H2631	H263	0.336700	0.116900	0.564900
C2911	C291	0.389250	0.161300	0.518500
H2641	H264	0.385500	0.217000	0.528600
C2921	C292	0.423510	0.138300	0.482600
C2931	C293	0.428780	0.058200	0.465900
H2651	H265	0.452200	0.043300	0.440500
C2941	C294	0.399120	0.999400	0.487000
H2661	H266	0.402100	0.944100	0.475500
C2951	C295	0.633060	0.233800	0.566660
C2961	C296	0.585420	0.226000	0.540600
C2971	C297	0.550300	0.188500	0.571000
H2671	H267	0.556900	0.170200	0.609400
C2981	C298	0.506080	0.178000	0.545600
H2681	H268	0.482600	0.151900	0.566200
C2991	C299	0.496350	0.205700	0.490000
C3001	C300	0.530520	0.245200	0.459900
H2691	H269	0.523500	0.265900	0.422200
C3011	C301	0.574670	0.254300	0.485100
H2701	H270	0.598000	0.280200	0.464200
C3021	C302	0.358210	0.746300	0.636980
C3031	C303	0.394670	0.694100	0.668000
C3041	C304	0.410430	0.622300	0.643790
H2711	H271	0.397000	0.604500	0.607700
C3051	C305	0.445130	0.576500	0.671100
H2721	H272	0.455900	0.528000	0.653800
C3061	C306	0.464060	0.602400	0.724100
C3071	C307	0.447510	0.671400	0.750400
H2731	H273	0.459800	0.687400	0.787500
C3081	C308	0.412690	0.717500	0.722100
H2741	H274	0.401200	0.765100	0.739900
C3091	C309	0.250970	0.619000	0.559630
C3101	C310	0.268550	0.537800	0.541500
C3111	C311	0.249130	0.465300	0.559970
H2751	H275	0.226400	0.466400	0.588200
C3121	C312	0.262780	0.391200	0.537300
H2761	H276	0.249400	0.341500	0.549500
C3131	C313	0.296420	0.391200	0.496590
C3141	C314	0.317580	0.462000	0.479800
H2771	H277	0.341600	0.460200	0.453300
C3151	C315	0.303530	0.536100	0.501860
H2781	H278	0.317600	0.585500	0.490100
C3161	C316	0.254310	0.232200	0.243590
C3171	C317	0.267580	0.256400	0.304840
C3181	C318	0.246110	0.320400	0.331990
H2791	H279	0.221600	0.349000	0.312000
C3191	C319	0.259810	0.343600	0.387910
H2801	H280	0.245100	0.388100	0.405900
C3201	C320	0.295170	0.300800	0.416900
C3211	C321	0.317320	0.236300	0.390700
H2811	H281	0.341800	0.207800	0.410900
C3221	C322	0.303350	0.214100	0.334820
H2821	H282	0.318200	0.169800	0.316800
O1271	O127	0.334830	0.961700	0.719120
N151	N15	0.369350	0.072700	0.758510
C3231	C323	0.354190	0.027200	0.713800
H2831	H283	0.358700	0.046800	0.675900
C3241	C324	0.361600	0.045200	0.817300
H2841	H284	0.361200	0.985400	0.818400
H2851	H285	0.386600	0.065600	0.843700
H2861	H286	0.331700	0.066200	0.829300
C3251	C325	0.387200	0.155600	0.749500
H2871	H287	0.387800	0.166500	0.708000
H2881	H288	0.367000	0.195400	0.767300
H2891	H289	0.418700	0.160000	0.767100
O1281	O128	0.238020	0.975200	0.671090
N161	N16	0.196050	0.036200	0.739550
C3261	C326	0.232730	0.997000	0.721880
H2901	H290	0.256900	0.984400	0.749900
C3271	C327	0.157680	0.059500	0.700300
H2911	H291	0.163100	0.039000	0.661600
H2921	H292	0.128800	0.036300	0.713700
H2931	H293	0.155200	0.119200	0.699300
C3281	C328	0.193500	0.059500	0.800000
H2941	H294	0.220600	0.037900	0.822200
H2951	H295	0.193100	0.119200	0.803100
H2961	H296	0.165100	0.037200	0.815300
O1291	O129	0.000000	0.943300	0.250000
O1301	O130	0.500000	0.443300	0.250000
O1311	O131	0.000000	0.056700	0.750000
O1321	O132	0.500000	0.556700	0.750000
