data_CUWROC_freeONLY_PM
_symmetry_space_group_name_H-M	'P1'
_cell_length_a	17.236900
_cell_length_b	35.547200
_cell_length_c	9.984500
_cell_angle_alpha	90.000000
_cell_angle_beta	90.000000
_cell_angle_gamma	90.000000
_symmetry_Int_Tables_number 1

loop_
_symmetry_equiv_pos_as_xyz
'x,y,z'

loop_
_atom_site_label
_atom_site_type_symbol
_atom_site_fract_x
_atom_site_fract_y
_atom_site_fract_z
N11	N1	0.769700	0.751500	0.336300
C11	C1	0.736300	0.716700	0.328100
H11	H1	0.767800	0.695500	0.334900
C21	C2	0.656800	0.711800	0.309900
H21	H2	0.636100	0.687600	0.311600
C31	C3	0.607300	0.742500	0.289000
C41	C4	0.641300	0.777900	0.306500
H31	H3	0.610600	0.799400	0.308200
C51	C5	0.722400	0.780800	0.321600
H41	H4	0.744200	0.804700	0.321300
C61	C6	0.525100	0.736900	0.262500
H51	H5	0.506900	0.712300	0.263600
N21	N2	0.769700	0.251500	0.836300
C71	C7	0.736300	0.216700	0.828100
H61	H6	0.767800	0.195500	0.834900
C81	C8	0.656800	0.211800	0.809900
H71	H7	0.636100	0.187600	0.811600
C91	C9	0.607300	0.242500	0.789000
C101	C10	0.641300	0.277900	0.806500
H81	H8	0.610600	0.299400	0.808200
C111	C11	0.722400	0.280800	0.821600
H91	H9	0.744200	0.304700	0.821300
C121	C12	0.525100	0.236900	0.762500
H101	H10	0.506900	0.212300	0.763600
N31	N3	0.269700	0.751500	0.836300
C131	C13	0.236300	0.716700	0.828100
H111	H11	0.267800	0.695500	0.834900
C141	C14	0.156800	0.711800	0.809900
H121	H12	0.136100	0.687600	0.811600
C151	C15	0.107300	0.742500	0.789000
C161	C16	0.141300	0.777900	0.806500
H131	H13	0.110600	0.799400	0.808200
C171	C17	0.222400	0.780800	0.821600
H141	H14	0.244200	0.804700	0.821300
C181	C18	0.025100	0.736900	0.762500
H151	H15	0.006900	0.712300	0.763600
N41	N4	0.269700	0.251500	0.336300
C191	C19	0.236300	0.216700	0.328100
H161	H16	0.267800	0.195500	0.334900
C201	C20	0.156800	0.211800	0.309900
H171	H17	0.136100	0.187600	0.311600
C211	C21	0.107300	0.242500	0.289000
C221	C22	0.141300	0.277900	0.306500
H181	H18	0.110600	0.299400	0.308200
C231	C23	0.222400	0.280800	0.321600
H191	H19	0.244200	0.304700	0.321300
C241	C24	0.025100	0.236900	0.262500
H201	H20	0.006900	0.212300	0.263600
N51	N5	0.980300	0.998500	0.336300
C251	C25	0.013700	0.033300	0.328100
H211	H21	0.982200	0.054500	0.334900
C261	C26	0.093200	0.038200	0.309900
H221	H22	0.113900	0.062400	0.311600
C271	C27	0.142700	0.007500	0.289000
C281	C28	0.108700	0.972100	0.306500
H231	H23	0.139400	0.950600	0.308200
C291	C29	0.027600	0.969200	0.321600
H241	H24	0.005800	0.945300	0.321300
C301	C30	0.224900	0.013100	0.262500
H251	H25	0.243100	0.037700	0.263600
N61	N6	0.980300	0.498500	0.836300
C311	C31	0.013700	0.533300	0.828100
H261	H26	0.982200	0.554500	0.834900
C321	C32	0.093200	0.538200	0.809900
H271	H27	0.113900	0.562400	0.811600
C331	C33	0.142700	0.507500	0.789000
C341	C34	0.108700	0.472100	0.806500
H281	H28	0.139400	0.450600	0.808200
C351	C35	0.027600	0.469200	0.821600
H291	H29	0.005800	0.445300	0.821300
C361	C36	0.224900	0.513100	0.762500
H301	H30	0.243100	0.537700	0.763600
N71	N7	0.480300	0.998500	0.836300
C371	C37	0.513700	0.033300	0.828100
H311	H31	0.482200	0.054500	0.834900
C381	C38	0.593200	0.038200	0.809900
H321	H32	0.613900	0.062400	0.811600
C391	C39	0.642700	0.007500	0.789000
C401	C40	0.608700	0.972100	0.806500
H331	H33	0.639400	0.950600	0.808200
C411	C41	0.527600	0.969200	0.821600
H341	H34	0.505800	0.945300	0.821300
C421	C42	0.724900	0.013100	0.762500
H351	H35	0.743100	0.037700	0.763600
N81	N8	0.480300	0.498500	0.336300
C431	C43	0.513700	0.533300	0.328100
H361	H36	0.482200	0.554500	0.334900
C441	C44	0.593200	0.538200	0.309900
H371	H37	0.613900	0.562400	0.311600
C451	C45	0.642700	0.507500	0.289000
C461	C46	0.608700	0.472100	0.306500
H381	H38	0.639400	0.450600	0.308200
C471	C47	0.527600	0.469200	0.321600
H391	H39	0.505800	0.445300	0.321300
C481	C48	0.724900	0.513100	0.262500
H401	H40	0.743100	0.537700	0.263600
N91	N9	0.980300	0.751500	0.413700
C491	C49	0.013700	0.716700	0.421900
H411	H41	0.982200	0.695500	0.415100
C501	C50	0.093200	0.711800	0.440100
H421	H42	0.113900	0.687600	0.438400
C511	C51	0.142700	0.742500	0.461000
C521	C52	0.108700	0.777900	0.443500
H431	H43	0.139400	0.799400	0.441800
C531	C53	0.027600	0.780800	0.428400
H441	H44	0.005800	0.804700	0.428700
C541	C54	0.224900	0.736900	0.487500
H451	H45	0.243100	0.712300	0.486400
N101	N10	0.980300	0.251500	0.913700
C551	C55	0.013700	0.216700	0.921900
H461	H46	0.982200	0.195500	0.915100
C561	C56	0.093200	0.211800	0.940100
H471	H47	0.113900	0.187600	0.938400
C571	C57	0.142700	0.242500	0.961000
C581	C58	0.108700	0.277900	0.943500
H481	H48	0.139400	0.299400	0.941800
C591	C59	0.027600	0.280800	0.928400
H491	H49	0.005800	0.304700	0.928700
C601	C60	0.224900	0.236900	0.987500
H501	H50	0.243100	0.212300	0.986400
N111	N11	0.480300	0.751500	0.913700
C611	C61	0.513700	0.716700	0.921900
H511	H51	0.482200	0.695500	0.915100
C621	C62	0.593200	0.711800	0.940100
H521	H52	0.613900	0.687600	0.938400
C631	C63	0.642700	0.742500	0.961000
C641	C64	0.608700	0.777900	0.943500
H531	H53	0.639400	0.799400	0.941800
C651	C65	0.527600	0.780800	0.928400
H541	H54	0.505800	0.804700	0.928700
C661	C66	0.724900	0.736900	0.987500
H551	H55	0.743100	0.712300	0.986400
N121	N12	0.480300	0.251500	0.413700
C671	C67	0.513700	0.216700	0.421900
H561	H56	0.482200	0.195500	0.415100
C681	C68	0.593200	0.211800	0.440100
H571	H57	0.613900	0.187600	0.438400
C691	C69	0.642700	0.242500	0.461000
C701	C70	0.608700	0.277900	0.443500
H581	H58	0.639400	0.299400	0.441800
C711	C71	0.527600	0.280800	0.428400
H591	H59	0.505800	0.304700	0.428700
C721	C72	0.724900	0.236900	0.487500
H601	H60	0.743100	0.212300	0.486400
N131	N13	0.769700	0.998500	0.413700
C731	C73	0.736300	0.033300	0.421900
H611	H61	0.767800	0.054500	0.415100
C741	C74	0.656800	0.038200	0.440100
H621	H62	0.636100	0.062400	0.438400
C751	C75	0.607300	0.007500	0.461000
C761	C76	0.641300	0.972100	0.443500
H631	H63	0.610600	0.950600	0.441800
C771	C77	0.722400	0.969200	0.428400
H641	H64	0.744200	0.945300	0.428700
C781	C78	0.525100	0.013100	0.487500
H651	H65	0.506900	0.037700	0.486400
N141	N14	0.769700	0.498500	0.913700
C791	C79	0.736300	0.533300	0.921900
H661	H66	0.767800	0.554500	0.915100
C801	C80	0.656800	0.538200	0.940100
H671	H67	0.636100	0.562400	0.938400
C811	C81	0.607300	0.507500	0.961000
C821	C82	0.641300	0.472100	0.943500
H681	H68	0.610600	0.450600	0.941800
C831	C83	0.722400	0.469200	0.928400
H691	H69	0.744200	0.445300	0.928700
C841	C84	0.525100	0.513100	0.987500
H701	H70	0.506900	0.537700	0.986400
N151	N15	0.269700	0.998500	0.913700
C851	C85	0.236300	0.033300	0.921900
H711	H71	0.267800	0.054500	0.915100
C861	C86	0.156800	0.038200	0.940100
H721	H72	0.136100	0.062400	0.938400
C871	C87	0.107300	0.007500	0.961000
C881	C88	0.141300	0.972100	0.943500
H731	H73	0.110600	0.950600	0.941800
C891	C89	0.222400	0.969200	0.928400
H741	H74	0.244200	0.945300	0.928700
C901	C90	0.025100	0.013100	0.987500
H751	H75	0.006900	0.037700	0.986400
N161	N16	0.269700	0.498500	0.413700
C911	C91	0.236300	0.533300	0.421900
H761	H76	0.267800	0.554500	0.415100
C921	C92	0.156800	0.538200	0.440100
H771	H77	0.136100	0.562400	0.438400
C931	C93	0.107300	0.507500	0.461000
C941	C94	0.141300	0.472100	0.443500
H781	H78	0.110600	0.450600	0.441800
C951	C95	0.222400	0.469200	0.428400
H791	H79	0.244200	0.445300	0.428700
C961	C96	0.025100	0.513100	0.487500
H801	H80	0.006900	0.537700	0.486400
N171	N17	0.230300	0.248500	0.663700
C971	C97	0.263700	0.283300	0.671900
H811	H81	0.232200	0.304500	0.665100
C981	C98	0.343200	0.288200	0.690100
H821	H82	0.363900	0.312400	0.688400
C991	C99	0.392700	0.257500	0.711000
C1001	C100	0.358700	0.222100	0.693500
H831	H83	0.389400	0.200600	0.691800
C1011	C101	0.277600	0.219200	0.678400
H841	H84	0.255800	0.195300	0.678700
C1021	C102	0.474900	0.263100	0.737500
H851	H85	0.493100	0.287700	0.736400
N181	N18	0.230300	0.748500	0.163700
C1031	C103	0.263700	0.783300	0.171900
H861	H86	0.232200	0.804500	0.165100
C1041	C104	0.343200	0.788200	0.190100
H871	H87	0.363900	0.812400	0.188400
C1051	C105	0.392700	0.757500	0.211000
C1061	C106	0.358700	0.722100	0.193500
H881	H88	0.389400	0.700600	0.191800
C1071	C107	0.277600	0.719200	0.178400
H891	H89	0.255800	0.695300	0.178700
C1081	C108	0.474900	0.763100	0.237500
H901	H90	0.493100	0.787700	0.236400
N191	N19	0.730300	0.248500	0.163700
C1091	C109	0.763700	0.283300	0.171900
H911	H91	0.732200	0.304500	0.165100
C1101	C110	0.843200	0.288200	0.190100
H921	H92	0.863900	0.312400	0.188400
C1111	C111	0.892700	0.257500	0.211000
C1121	C112	0.858700	0.222100	0.193500
H931	H93	0.889400	0.200600	0.191800
C1131	C113	0.777600	0.219200	0.178400
H941	H94	0.755800	0.195300	0.178700
C1141	C114	0.974900	0.263100	0.237500
H951	H95	0.993100	0.287700	0.236400
N201	N20	0.730300	0.748500	0.663700
C1151	C115	0.763700	0.783300	0.671900
H961	H96	0.732200	0.804500	0.665100
C1161	C116	0.843200	0.788200	0.690100
H971	H97	0.863900	0.812400	0.688400
C1171	C117	0.892700	0.757500	0.711000
C1181	C118	0.858700	0.722100	0.693500
H981	H98	0.889400	0.700600	0.691800
C1191	C119	0.777600	0.719200	0.678400
H991	H99	0.755800	0.695300	0.678700
C1201	C120	0.974900	0.763100	0.737500
H1001	H100	0.993100	0.787700	0.736400
N211	N21	0.019700	0.001500	0.663700
C1211	C121	0.986300	0.966700	0.671900
H1011	H101	0.017800	0.945500	0.665100
C1221	C122	0.906800	0.961800	0.690100
H1021	H102	0.886100	0.937600	0.688400
C1231	C123	0.857300	0.992500	0.711000
C1241	C124	0.891300	0.027900	0.693500
H1031	H103	0.860600	0.049400	0.691800
C1251	C125	0.972400	0.030800	0.678400
H1041	H104	0.994200	0.054700	0.678700
C1261	C126	0.775100	0.986900	0.737500
H1051	H105	0.756900	0.962300	0.736400
N221	N22	0.019700	0.501500	0.163700
C1271	C127	0.986300	0.466700	0.171900
H1061	H106	0.017800	0.445500	0.165100
C1281	C128	0.906800	0.461800	0.190100
H1071	H107	0.886100	0.437600	0.188400
C1291	C129	0.857300	0.492500	0.211000
C1301	C130	0.891300	0.527900	0.193500
H1081	H108	0.860600	0.549400	0.191800
C1311	C131	0.972400	0.530800	0.178400
H1091	H109	0.994200	0.554700	0.178700
C1321	C132	0.775100	0.486900	0.237500
H1101	H110	0.756900	0.462300	0.236400
N231	N23	0.519700	0.001500	0.163700
C1331	C133	0.486300	0.966700	0.171900
H1111	H111	0.517800	0.945500	0.165100
C1341	C134	0.406800	0.961800	0.190100
H1121	H112	0.386100	0.937600	0.188400
C1351	C135	0.357300	0.992500	0.211000
C1361	C136	0.391300	0.027900	0.193500
H1131	H113	0.360600	0.049400	0.191800
C1371	C137	0.472400	0.030800	0.178400
H1141	H114	0.494200	0.054700	0.178700
C1381	C138	0.275100	0.986900	0.237500
H1151	H115	0.256900	0.962300	0.236400
N241	N24	0.519700	0.501500	0.663700
C1391	C139	0.486300	0.466700	0.671900
H1161	H116	0.517800	0.445500	0.665100
C1401	C140	0.406800	0.461800	0.690100
H1171	H117	0.386100	0.437600	0.688400
C1411	C141	0.357300	0.492500	0.711000
C1421	C142	0.391300	0.527900	0.693500
H1181	H118	0.360600	0.549400	0.691800
C1431	C143	0.472400	0.530800	0.678400
H1191	H119	0.494200	0.554700	0.678700
C1441	C144	0.275100	0.486900	0.737500
H1201	H120	0.256900	0.462300	0.736400
N251	N25	0.019700	0.248500	0.586300
C1451	C145	0.986300	0.283300	0.578100
H1211	H121	0.017800	0.304500	0.584900
C1461	C146	0.906800	0.288200	0.559900
H1221	H122	0.886100	0.312400	0.561600
C1471	C147	0.857300	0.257500	0.539000
C1481	C148	0.891300	0.222100	0.556500
H1231	H123	0.860600	0.200600	0.558200
C1491	C149	0.972400	0.219200	0.571600
H1241	H124	0.994200	0.195300	0.571300
C1501	C150	0.775100	0.263100	0.512500
H1251	H125	0.756900	0.287700	0.513600
N261	N26	0.019700	0.748500	0.086300
C1511	C151	0.986300	0.783300	0.078100
H1261	H126	0.017800	0.804500	0.084900
C1521	C152	0.906800	0.788200	0.059900
H1271	H127	0.886100	0.812400	0.061600
C1531	C153	0.857300	0.757500	0.039000
C1541	C154	0.891300	0.722100	0.056500
H1281	H128	0.860600	0.700600	0.058200
C1551	C155	0.972400	0.719200	0.071600
H1291	H129	0.994200	0.695300	0.071300
C1561	C156	0.775100	0.763100	0.012500
H1301	H130	0.756900	0.787700	0.013600
N271	N27	0.519700	0.248500	0.086300
C1571	C157	0.486300	0.283300	0.078100
H1311	H131	0.517800	0.304500	0.084900
C1581	C158	0.406800	0.288200	0.059900
H1321	H132	0.386100	0.312400	0.061600
C1591	C159	0.357300	0.257500	0.039000
C1601	C160	0.391300	0.222100	0.056500
H1331	H133	0.360600	0.200600	0.058200
C1611	C161	0.472400	0.219200	0.071600
H1341	H134	0.494200	0.195300	0.071300
C1621	C162	0.275100	0.263100	0.012500
H1351	H135	0.256900	0.287700	0.013600
N281	N28	0.519700	0.748500	0.586300
C1631	C163	0.486300	0.783300	0.578100
H1361	H136	0.517800	0.804500	0.584900
C1641	C164	0.406800	0.788200	0.559900
H1371	H137	0.386100	0.812400	0.561600
C1651	C165	0.357300	0.757500	0.539000
C1661	C166	0.391300	0.722100	0.556500
H1381	H138	0.360600	0.700600	0.558200
C1671	C167	0.472400	0.719200	0.571600
H1391	H139	0.494200	0.695300	0.571300
C1681	C168	0.275100	0.763100	0.512500
H1401	H140	0.256900	0.787700	0.513600
N291	N29	0.230300	0.001500	0.586300
C1691	C169	0.263700	0.966700	0.578100
H1411	H141	0.232200	0.945500	0.584900
C1701	C170	0.343200	0.961800	0.559900
H1421	H142	0.363900	0.937600	0.561600
C1711	C171	0.392700	0.992500	0.539000
C1721	C172	0.358700	0.027900	0.556500
H1431	H143	0.389400	0.049400	0.558200
C1731	C173	0.277600	0.030800	0.571600
H1441	H144	0.255800	0.054700	0.571300
C1741	C174	0.474900	0.986900	0.512500
H1451	H145	0.493100	0.962300	0.513600
N301	N30	0.230300	0.501500	0.086300
C1751	C175	0.263700	0.466700	0.078100
H1461	H146	0.232200	0.445500	0.084900
C1761	C176	0.343200	0.461800	0.059900
H1471	H147	0.363900	0.437600	0.061600
C1771	C177	0.392700	0.492500	0.039000
C1781	C178	0.358700	0.527900	0.056500
H1481	H148	0.389400	0.549400	0.058200
C1791	C179	0.277600	0.530800	0.071600
H1491	H149	0.255800	0.554700	0.071300
C1801	C180	0.474900	0.486900	0.012500
H1501	H150	0.493100	0.462300	0.013600
N311	N31	0.730300	0.001500	0.086300
C1811	C181	0.763700	0.966700	0.078100
H1511	H151	0.732200	0.945500	0.084900
C1821	C182	0.843200	0.961800	0.059900
H1521	H152	0.863900	0.937600	0.061600
C1831	C183	0.892700	0.992500	0.039000
C1841	C184	0.858700	0.027900	0.056500
H1531	H153	0.889400	0.049400	0.058200
C1851	C185	0.777600	0.030800	0.071600
H1541	H154	0.755800	0.054700	0.071300
C1861	C186	0.974900	0.986900	0.012500
H1551	H155	0.993100	0.962300	0.013600
N321	N32	0.730300	0.501500	0.586300
C1871	C187	0.763700	0.466700	0.578100
H1561	H156	0.732200	0.445500	0.584900
C1881	C188	0.843200	0.461800	0.559900
H1571	H157	0.863900	0.437600	0.561600
C1891	C189	0.892700	0.492500	0.539000
C1901	C190	0.858700	0.527900	0.556500
H1581	H158	0.889400	0.549400	0.558200
C1911	C191	0.777600	0.530800	0.571600
H1591	H159	0.755800	0.554700	0.571300
C1921	C192	0.974900	0.486900	0.512500
H1601	H160	0.993100	0.462300	0.513600
Nb11	Nb1	0.875000	0.875000	0.375000
Nb21	Nb2	0.875000	0.375000	0.875000
Nb31	Nb3	0.375000	0.875000	0.875000
Nb41	Nb4	0.375000	0.375000	0.375000
Nb51	Nb5	0.125000	0.125000	0.625000
Nb61	Nb6	0.125000	0.625000	0.125000
Nb71	Nb7	0.625000	0.125000	0.125000
Nb81	Nb8	0.625000	0.625000	0.625000
Cu11	Cu1	0.875000	0.757940	0.375000
F11	F1	0.875000	0.822000	0.375000
Cu21	Cu2	0.875000	0.257940	0.875000
F21	F2	0.875000	0.322000	0.875000
Cu31	Cu3	0.375000	0.757940	0.875000
F31	F3	0.375000	0.822000	0.875000
Cu41	Cu4	0.375000	0.257940	0.375000
F41	F4	0.375000	0.322000	0.375000
Cu51	Cu5	0.875000	0.992060	0.375000
F51	F5	0.875000	0.928000	0.375000
Cu61	Cu6	0.875000	0.492060	0.875000
F61	F6	0.875000	0.428000	0.875000
Cu71	Cu7	0.375000	0.992060	0.875000
F71	F7	0.375000	0.928000	0.875000
Cu81	Cu8	0.375000	0.492060	0.375000
F81	F8	0.375000	0.428000	0.375000
Cu91	Cu9	0.125000	0.242060	0.625000
F91	F9	0.125000	0.178000	0.625000
Cu101	Cu10	0.125000	0.742060	0.125000
F101	F10	0.125000	0.678000	0.125000
Cu111	Cu11	0.625000	0.242060	0.125000
F111	F11	0.625000	0.178000	0.125000
Cu121	Cu12	0.625000	0.742060	0.625000
F121	F12	0.625000	0.678000	0.625000
Cu131	Cu13	0.125000	0.007940	0.625000
F131	F13	0.125000	0.072000	0.625000
Cu141	Cu14	0.125000	0.507940	0.125000
F141	F14	0.125000	0.572000	0.125000
Cu151	Cu15	0.625000	0.007940	0.125000
F151	F15	0.625000	0.072000	0.125000
Cu161	Cu16	0.625000	0.507940	0.625000
F161	F16	0.625000	0.572000	0.625000
F171	F17	0.875000	0.875000	0.569400
F181	F18	0.875000	0.375000	0.069400
F191	F19	0.375000	0.875000	0.069400
F201	F20	0.375000	0.375000	0.569400
F211	F21	0.875000	0.875000	0.180600
F221	F22	0.875000	0.375000	0.680600
F231	F23	0.375000	0.875000	0.680600
F241	F24	0.375000	0.375000	0.180600
F251	F25	0.125000	0.125000	0.430600
F261	F26	0.125000	0.625000	0.930600
F271	F27	0.625000	0.125000	0.930600
F281	F28	0.625000	0.625000	0.430600
F291	F29	0.125000	0.125000	0.819400
F301	F30	0.125000	0.625000	0.319400
F311	F31	0.625000	0.125000	0.319400
F321	F32	0.625000	0.625000	0.819400
F331	F33	0.989200	0.875000	0.375000
F341	F34	0.989200	0.375000	0.875000
F351	F35	0.489200	0.875000	0.875000
F361	F36	0.489200	0.375000	0.375000
F371	F37	0.760800	0.875000	0.375000
F381	F38	0.760800	0.375000	0.875000
F391	F39	0.260800	0.875000	0.875000
F401	F40	0.260800	0.375000	0.375000
F411	F41	0.010800	0.125000	0.625000
F421	F42	0.010800	0.625000	0.125000
F431	F43	0.510800	0.125000	0.125000
F441	F44	0.510800	0.625000	0.625000
F451	F45	0.239200	0.125000	0.625000
F461	F46	0.239200	0.625000	0.125000
F471	F47	0.739200	0.125000	0.125000
F481	F48	0.739200	0.625000	0.625000
