data_DABFET_freeONLY_PM
_symmetry_space_group_name_H-M	'P1'
_cell_length_a	23.006500
_cell_length_b	23.006500
_cell_length_c	23.006500
_cell_angle_alpha	90.000000
_cell_angle_beta	90.000000
_cell_angle_gamma	90.000000
_symmetry_Int_Tables_number 1

loop_
_symmetry_equiv_pos_as_xyz
'x,y,z'

loop_
_atom_site_label
_atom_site_type_symbol
_atom_site_fract_x
_atom_site_fract_y
_atom_site_fract_z
N11	N1	0.701710	0.898500	0.113700
C11	C1	0.728300	0.902500	0.059570
C21	C2	0.788300	0.908500	0.055800
H11	H1	0.806500	0.911300	0.018800
C31	C3	0.821720	0.910400	0.106100
H21	H2	0.862700	0.914500	0.103400
C41	C4	0.795100	0.906300	0.160200
H31	H3	0.818000	0.907600	0.194500
C51	C5	0.735100	0.900400	0.163970
H41	H4	0.717000	0.897600	0.200900
N21	N2	0.604500	0.898200	0.966200
N31	N3	0.631900	0.895200	0.021460
C61	C6	0.692670	0.901800	0.013000
C71	C7	0.702800	0.908900	0.952500
H51	H5	0.739600	0.914200	0.934500
C81	C8	0.648300	0.906600	0.923610
H61	H6	0.642300	0.910100	0.882900
C91	C9	0.546400	0.884300	0.958500
H71	H7	0.531800	0.904300	0.923300
H81	H8	0.523900	0.898800	0.992200
C101	C10	0.535600	0.817420	0.951900
C111	C11	0.582480	0.779500	0.954500
H91	H9	0.620800	0.794300	0.958800
C121	C12	0.573400	0.719850	0.950700
H101	H10	0.605400	0.693900	0.952500
C131	C13	0.517300	0.698210	0.944400
C141	C14	0.470380	0.736200	0.941800
C151	C15	0.479500	0.795800	0.945600
C161	C16	0.415300	0.712600	0.933800
H111	H11	0.410800	0.671800	0.929600
C171	C17	0.366940	0.748700	0.931800
H121	H12	0.328700	0.733200	0.931000
C181	C18	0.376590	0.808300	0.931100
H131	H13	0.344800	0.833700	0.923900
C191	C19	0.431500	0.832150	0.940700
H141	H14	0.436100	0.873100	0.943800
C201	C20	0.511200	0.637600	0.947900
N41	N4	0.504000	0.583600	0.949700
N51	N5	0.798290	0.101500	0.613700
C211	C21	0.771700	0.097500	0.559570
C221	C22	0.711700	0.091500	0.555800
H151	H15	0.693500	0.088700	0.518800
C231	C23	0.678280	0.089600	0.606100
H161	H16	0.637300	0.085500	0.603400
C241	C24	0.704900	0.093700	0.660200
H171	H17	0.682000	0.092400	0.694500
C251	C25	0.764900	0.099600	0.663970
H181	H18	0.783000	0.102400	0.700900
N61	N6	0.895500	0.101800	0.466200
N71	N7	0.868100	0.104800	0.521460
C261	C26	0.807330	0.098200	0.513000
C271	C27	0.797200	0.091100	0.452500
H191	H19	0.760400	0.085800	0.434500
C281	C28	0.851700	0.093400	0.423610
H201	H20	0.857700	0.089900	0.382900
C291	C29	0.953600	0.115700	0.458500
H211	H21	0.968200	0.095700	0.423300
H221	H22	0.976100	0.101200	0.492200
C301	C30	0.964400	0.182580	0.451900
C311	C31	0.917520	0.220500	0.454500
H231	H23	0.879200	0.205700	0.458800
C321	C32	0.926600	0.280150	0.450700
H241	H24	0.894600	0.306100	0.452500
C331	C33	0.982700	0.301790	0.444400
C341	C34	0.029620	0.263800	0.441800
C351	C35	0.020500	0.204200	0.445600
C361	C36	0.084700	0.287400	0.433800
H251	H25	0.089200	0.328200	0.429600
C371	C37	0.133060	0.251300	0.431800
H261	H26	0.171300	0.266800	0.431000
C381	C38	0.123410	0.191700	0.431100
H271	H27	0.155200	0.166300	0.423900
C391	C39	0.068500	0.167850	0.440700
H281	H28	0.063900	0.126900	0.443800
C401	C40	0.988800	0.362400	0.447900
N81	N8	0.996000	0.416400	0.449700
N91	N9	0.298290	0.398500	0.386300
C411	C41	0.271700	0.402500	0.440430
C421	C42	0.211700	0.408500	0.444200
H291	H29	0.193500	0.411300	0.481200
C431	C43	0.178280	0.410400	0.393900
H301	H30	0.137300	0.414500	0.396600
C441	C44	0.204900	0.406300	0.339800
H311	H31	0.182000	0.407600	0.305500
C451	C45	0.264900	0.400400	0.336030
H321	H32	0.283000	0.397600	0.299100
N101	N10	0.395500	0.398200	0.533800
N111	N11	0.368100	0.395200	0.478540
C461	C46	0.307330	0.401800	0.487000
C471	C47	0.297200	0.408900	0.547500
H331	H33	0.260400	0.414200	0.565500
C481	C48	0.351700	0.406600	0.576390
H341	H34	0.357700	0.410100	0.617100
C491	C49	0.453600	0.384300	0.541500
H351	H35	0.468200	0.404300	0.576700
H361	H36	0.476100	0.398800	0.507800
C501	C50	0.464400	0.317420	0.548100
C511	C51	0.417520	0.279500	0.545500
H371	H37	0.379200	0.294300	0.541200
C521	C52	0.426600	0.219850	0.549300
H381	H38	0.394600	0.193900	0.547500
C531	C53	0.482700	0.198210	0.555600
C541	C54	0.529620	0.236200	0.558200
C551	C55	0.520500	0.295800	0.554400
C561	C56	0.584700	0.212600	0.566200
H391	H39	0.589200	0.171800	0.570400
C571	C57	0.633060	0.248700	0.568200
H401	H40	0.671300	0.233200	0.569000
C581	C58	0.623410	0.308300	0.568900
H411	H41	0.655200	0.333700	0.576100
C591	C59	0.568500	0.332150	0.559300
H421	H42	0.563900	0.373100	0.556200
C601	C60	0.488800	0.137600	0.552100
N121	N12	0.496000	0.083600	0.550300
N131	N13	0.201710	0.601500	0.886300
C611	C61	0.228300	0.597500	0.940430
C621	C62	0.288300	0.591500	0.944200
H431	H43	0.306500	0.588700	0.981200
C631	C63	0.321720	0.589600	0.893900
H441	H44	0.362700	0.585500	0.896600
C641	C64	0.295100	0.593700	0.839800
H451	H45	0.318000	0.592400	0.805500
C651	C65	0.235100	0.599600	0.836030
H461	H46	0.217000	0.602400	0.799100
N141	N14	0.104500	0.601800	0.033800
N151	N15	0.131900	0.604800	0.978540
C661	C66	0.192670	0.598200	0.987000
C671	C67	0.202800	0.591100	0.047500
H471	H47	0.239600	0.585800	0.065500
C681	C68	0.148300	0.593400	0.076390
H481	H48	0.142300	0.589900	0.117100
C691	C69	0.046400	0.615700	0.041500
H491	H49	0.031800	0.595700	0.076700
H501	H50	0.023900	0.601200	0.007800
C701	C70	0.035600	0.682580	0.048100
C711	C71	0.082480	0.720500	0.045500
H511	H51	0.120800	0.705700	0.041200
C721	C72	0.073400	0.780150	0.049300
H521	H52	0.105400	0.806100	0.047500
C731	C73	0.017300	0.801790	0.055600
C741	C74	0.970380	0.763800	0.058200
C751	C75	0.979500	0.704200	0.054400
C761	C76	0.915300	0.787400	0.066200
H531	H53	0.910800	0.828200	0.070400
C771	C77	0.866940	0.751300	0.068200
H541	H54	0.828700	0.766800	0.069000
C781	C78	0.876590	0.691700	0.068900
H551	H55	0.844800	0.666300	0.076100
C791	C79	0.931500	0.667850	0.059300
H561	H56	0.936100	0.626900	0.056200
C801	C80	0.011200	0.862400	0.052100
N161	N16	0.004000	0.916400	0.050300
N171	N17	0.113700	0.701710	0.898500
C811	C81	0.059570	0.728300	0.902500
C821	C82	0.055800	0.788300	0.908500
H571	H57	0.018800	0.806500	0.911300
C831	C83	0.106100	0.821720	0.910400
H581	H58	0.103400	0.862700	0.914500
C841	C84	0.160200	0.795100	0.906300
H591	H59	0.194500	0.818000	0.907600
C851	C85	0.163970	0.735100	0.900400
H601	H60	0.200900	0.717000	0.897600
N181	N18	0.966200	0.604500	0.898200
N191	N19	0.021460	0.631900	0.895200
C861	C86	0.013000	0.692670	0.901800
C871	C87	0.952500	0.702800	0.908900
H611	H61	0.934500	0.739600	0.914200
C881	C88	0.923610	0.648300	0.906600
H621	H62	0.882900	0.642300	0.910100
C891	C89	0.958500	0.546400	0.884300
H631	H63	0.923300	0.531800	0.904300
H641	H64	0.992200	0.523900	0.898800
C901	C90	0.951900	0.535600	0.817420
C911	C91	0.954500	0.582480	0.779500
H651	H65	0.958800	0.620800	0.794300
C921	C92	0.950700	0.573400	0.719850
H661	H66	0.952500	0.605400	0.693900
C931	C93	0.944400	0.517300	0.698210
C941	C94	0.941800	0.470380	0.736200
C951	C95	0.945600	0.479500	0.795800
C961	C96	0.933800	0.415300	0.712600
H671	H67	0.929600	0.410800	0.671800
C971	C97	0.931800	0.366940	0.748700
H681	H68	0.931000	0.328700	0.733200
C981	C98	0.931100	0.376590	0.808300
H691	H69	0.923900	0.344800	0.833700
C991	C99	0.940700	0.431500	0.832150
H701	H70	0.943800	0.436100	0.873100
C1001	C100	0.947900	0.511200	0.637600
N201	N20	0.949700	0.504000	0.583600
N211	N21	0.613700	0.798290	0.101500
C1011	C101	0.559570	0.771700	0.097500
C1021	C102	0.555800	0.711700	0.091500
H711	H71	0.518800	0.693500	0.088700
C1031	C103	0.606100	0.678280	0.089600
H721	H72	0.603400	0.637300	0.085500
C1041	C104	0.660200	0.704900	0.093700
H731	H73	0.694500	0.682000	0.092400
C1051	C105	0.663970	0.764900	0.099600
H741	H74	0.700900	0.783000	0.102400
N221	N22	0.466200	0.895500	0.101800
N231	N23	0.521460	0.868100	0.104800
C1061	C106	0.513000	0.807330	0.098200
C1071	C107	0.452500	0.797200	0.091100
H751	H75	0.434500	0.760400	0.085800
C1081	C108	0.423610	0.851700	0.093400
H761	H76	0.382900	0.857700	0.089900
C1091	C109	0.458500	0.953600	0.115700
H771	H77	0.423300	0.968200	0.095700
H781	H78	0.492200	0.976100	0.101200
C1101	C110	0.451900	0.964400	0.182580
C1111	C111	0.454500	0.917520	0.220500
H791	H79	0.458800	0.879200	0.205700
C1121	C112	0.450700	0.926600	0.280150
H801	H80	0.452500	0.894600	0.306100
C1131	C113	0.444400	0.982700	0.301790
C1141	C114	0.441800	0.029620	0.263800
C1151	C115	0.445600	0.020500	0.204200
C1161	C116	0.433800	0.084700	0.287400
H811	H81	0.429600	0.089200	0.328200
C1171	C117	0.431800	0.133060	0.251300
H821	H82	0.431000	0.171300	0.266800
C1181	C118	0.431100	0.123410	0.191700
H831	H83	0.423900	0.155200	0.166300
C1191	C119	0.440700	0.068500	0.167850
H841	H84	0.443800	0.063900	0.126900
C1201	C120	0.447900	0.988800	0.362400
N241	N24	0.449700	0.996000	0.416400
N251	N25	0.386300	0.298290	0.398500
C1211	C121	0.440430	0.271700	0.402500
C1221	C122	0.444200	0.211700	0.408500
H851	H85	0.481200	0.193500	0.411300
C1231	C123	0.393900	0.178280	0.410400
H861	H86	0.396600	0.137300	0.414500
C1241	C124	0.339800	0.204900	0.406300
H871	H87	0.305500	0.182000	0.407600
C1251	C125	0.336030	0.264900	0.400400
H881	H88	0.299100	0.283000	0.397600
N261	N26	0.533800	0.395500	0.398200
N271	N27	0.478540	0.368100	0.395200
C1261	C126	0.487000	0.307330	0.401800
C1271	C127	0.547500	0.297200	0.408900
H891	H89	0.565500	0.260400	0.414200
C1281	C128	0.576390	0.351700	0.406600
H901	H90	0.617100	0.357700	0.410100
C1291	C129	0.541500	0.453600	0.384300
H911	H91	0.576700	0.468200	0.404300
H921	H92	0.507800	0.476100	0.398800
C1301	C130	0.548100	0.464400	0.317420
C1311	C131	0.545500	0.417520	0.279500
H931	H93	0.541200	0.379200	0.294300
C1321	C132	0.549300	0.426600	0.219850
H941	H94	0.547500	0.394600	0.193900
C1331	C133	0.555600	0.482700	0.198210
C1341	C134	0.558200	0.529620	0.236200
C1351	C135	0.554400	0.520500	0.295800
C1361	C136	0.566200	0.584700	0.212600
H951	H95	0.570400	0.589200	0.171800
C1371	C137	0.568200	0.633060	0.248700
H961	H96	0.569000	0.671300	0.233200
C1381	C138	0.568900	0.623410	0.308300
H971	H97	0.576100	0.655200	0.333700
C1391	C139	0.559300	0.568500	0.332150
H981	H98	0.556200	0.563900	0.373100
C1401	C140	0.552100	0.488800	0.137600
N281	N28	0.550300	0.496000	0.083600
N291	N29	0.886300	0.201710	0.601500
C1411	C141	0.940430	0.228300	0.597500
C1421	C142	0.944200	0.288300	0.591500
H991	H99	0.981200	0.306500	0.588700
C1431	C143	0.893900	0.321720	0.589600
H1001	H100	0.896600	0.362700	0.585500
C1441	C144	0.839800	0.295100	0.593700
H1011	H101	0.805500	0.318000	0.592400
C1451	C145	0.836030	0.235100	0.599600
H1021	H102	0.799100	0.217000	0.602400
N301	N30	0.033800	0.104500	0.601800
N311	N31	0.978540	0.131900	0.604800
C1461	C146	0.987000	0.192670	0.598200
C1471	C147	0.047500	0.202800	0.591100
H1031	H103	0.065500	0.239600	0.585800
C1481	C148	0.076390	0.148300	0.593400
H1041	H104	0.117100	0.142300	0.589900
C1491	C149	0.041500	0.046400	0.615700
H1051	H105	0.076700	0.031800	0.595700
H1061	H106	0.007800	0.023900	0.601200
C1501	C150	0.048100	0.035600	0.682580
C1511	C151	0.045500	0.082480	0.720500
H1071	H107	0.041200	0.120800	0.705700
C1521	C152	0.049300	0.073400	0.780150
H1081	H108	0.047500	0.105400	0.806100
C1531	C153	0.055600	0.017300	0.801790
C1541	C154	0.058200	0.970380	0.763800
C1551	C155	0.054400	0.979500	0.704200
C1561	C156	0.066200	0.915300	0.787400
H1091	H109	0.070400	0.910800	0.828200
C1571	C157	0.068200	0.866940	0.751300
H1101	H110	0.069000	0.828700	0.766800
C1581	C158	0.068900	0.876590	0.691700
H1111	H111	0.076100	0.844800	0.666300
C1591	C159	0.059300	0.931500	0.667850
H1121	H112	0.056200	0.936100	0.626900
C1601	C160	0.052100	0.011200	0.862400
N321	N32	0.050300	0.004000	0.916400
N331	N33	0.898500	0.113700	0.701710
C1611	C161	0.902500	0.059570	0.728300
C1621	C162	0.908500	0.055800	0.788300
H1131	H113	0.911300	0.018800	0.806500
C1631	C163	0.910400	0.106100	0.821720
H1141	H114	0.914500	0.103400	0.862700
C1641	C164	0.906300	0.160200	0.795100
H1151	H115	0.907600	0.194500	0.818000
C1651	C165	0.900400	0.163970	0.735100
H1161	H116	0.897600	0.200900	0.717000
N341	N34	0.898200	0.966200	0.604500
N351	N35	0.895200	0.021460	0.631900
C1661	C166	0.901800	0.013000	0.692670
C1671	C167	0.908900	0.952500	0.702800
H1171	H117	0.914200	0.934500	0.739600
C1681	C168	0.906600	0.923610	0.648300
H1181	H118	0.910100	0.882900	0.642300
C1691	C169	0.884300	0.958500	0.546400
H1191	H119	0.904300	0.923300	0.531800
H1201	H120	0.898800	0.992200	0.523900
C1701	C170	0.817420	0.951900	0.535600
C1711	C171	0.779500	0.954500	0.582480
H1211	H121	0.794300	0.958800	0.620800
C1721	C172	0.719850	0.950700	0.573400
H1221	H122	0.693900	0.952500	0.605400
C1731	C173	0.698210	0.944400	0.517300
C1741	C174	0.736200	0.941800	0.470380
C1751	C175	0.795800	0.945600	0.479500
C1761	C176	0.712600	0.933800	0.415300
H1231	H123	0.671800	0.929600	0.410800
C1771	C177	0.748700	0.931800	0.366940
H1241	H124	0.733200	0.931000	0.328700
C1781	C178	0.808300	0.931100	0.376590
H1251	H125	0.833700	0.923900	0.344800
C1791	C179	0.832150	0.940700	0.431500
H1261	H126	0.873100	0.943800	0.436100
C1801	C180	0.637600	0.947900	0.511200
N361	N36	0.583600	0.949700	0.504000
N371	N37	0.101500	0.613700	0.798290
C1811	C181	0.097500	0.559570	0.771700
C1821	C182	0.091500	0.555800	0.711700
H1271	H127	0.088700	0.518800	0.693500
C1831	C183	0.089600	0.606100	0.678280
H1281	H128	0.085500	0.603400	0.637300
C1841	C184	0.093700	0.660200	0.704900
H1291	H129	0.092400	0.694500	0.682000
C1851	C185	0.099600	0.663970	0.764900
H1301	H130	0.102400	0.700900	0.783000
N381	N38	0.101800	0.466200	0.895500
N391	N39	0.104800	0.521460	0.868100
C1861	C186	0.098200	0.513000	0.807330
C1871	C187	0.091100	0.452500	0.797200
H1311	H131	0.085800	0.434500	0.760400
C1881	C188	0.093400	0.423610	0.851700
H1321	H132	0.089900	0.382900	0.857700
C1891	C189	0.115700	0.458500	0.953600
H1331	H133	0.095700	0.423300	0.968200
H1341	H134	0.101200	0.492200	0.976100
C1901	C190	0.182580	0.451900	0.964400
C1911	C191	0.220500	0.454500	0.917520
H1351	H135	0.205700	0.458800	0.879200
C1921	C192	0.280150	0.450700	0.926600
H1361	H136	0.306100	0.452500	0.894600
C1931	C193	0.301790	0.444400	0.982700
C1941	C194	0.263800	0.441800	0.029620
C1951	C195	0.204200	0.445600	0.020500
C1961	C196	0.287400	0.433800	0.084700
H1371	H137	0.328200	0.429600	0.089200
C1971	C197	0.251300	0.431800	0.133060
H1381	H138	0.266800	0.431000	0.171300
C1981	C198	0.191700	0.431100	0.123410
H1391	H139	0.166300	0.423900	0.155200
C1991	C199	0.167850	0.440700	0.068500
H1401	H140	0.126900	0.443800	0.063900
C2001	C200	0.362400	0.447900	0.988800
N401	N40	0.416400	0.449700	0.996000
N411	N41	0.398500	0.386300	0.298290
C2011	C201	0.402500	0.440430	0.271700
C2021	C202	0.408500	0.444200	0.211700
H1411	H141	0.411300	0.481200	0.193500
C2031	C203	0.410400	0.393900	0.178280
H1421	H142	0.414500	0.396600	0.137300
C2041	C204	0.406300	0.339800	0.204900
H1431	H143	0.407600	0.305500	0.182000
C2051	C205	0.400400	0.336030	0.264900
H1441	H144	0.397600	0.299100	0.283000
N421	N42	0.398200	0.533800	0.395500
N431	N43	0.395200	0.478540	0.368100
C2061	C206	0.401800	0.487000	0.307330
C2071	C207	0.408900	0.547500	0.297200
H1451	H145	0.414200	0.565500	0.260400
C2081	C208	0.406600	0.576390	0.351700
H1461	H146	0.410100	0.617100	0.357700
C2091	C209	0.384300	0.541500	0.453600
H1471	H147	0.404300	0.576700	0.468200
H1481	H148	0.398800	0.507800	0.476100
C2101	C210	0.317420	0.548100	0.464400
C2111	C211	0.279500	0.545500	0.417520
H1491	H149	0.294300	0.541200	0.379200
C2121	C212	0.219850	0.549300	0.426600
H1501	H150	0.193900	0.547500	0.394600
C2131	C213	0.198210	0.555600	0.482700
C2141	C214	0.236200	0.558200	0.529620
C2151	C215	0.295800	0.554400	0.520500
C2161	C216	0.212600	0.566200	0.584700
H1511	H151	0.171800	0.570400	0.589200
C2171	C217	0.248700	0.568200	0.633060
H1521	H152	0.233200	0.569000	0.671300
C2181	C218	0.308300	0.568900	0.623410
H1531	H153	0.333700	0.576100	0.655200
C2191	C219	0.332150	0.559300	0.568500
H1541	H154	0.373100	0.556200	0.563900
C2201	C220	0.137600	0.552100	0.488800
N441	N44	0.083600	0.550300	0.496000
N451	N45	0.601500	0.886300	0.201710
C2211	C221	0.597500	0.940430	0.228300
C2221	C222	0.591500	0.944200	0.288300
H1551	H155	0.588700	0.981200	0.306500
C2231	C223	0.589600	0.893900	0.321720
H1561	H156	0.585500	0.896600	0.362700
C2241	C224	0.593700	0.839800	0.295100
H1571	H157	0.592400	0.805500	0.318000
C2251	C225	0.599600	0.836030	0.235100
H1581	H158	0.602400	0.799100	0.217000
N461	N46	0.601800	0.033800	0.104500
N471	N47	0.604800	0.978540	0.131900
C2261	C226	0.598200	0.987000	0.192670
C2271	C227	0.591100	0.047500	0.202800
H1591	H159	0.585800	0.065500	0.239600
C2281	C228	0.593400	0.076390	0.148300
H1601	H160	0.589900	0.117100	0.142300
C2291	C229	0.615700	0.041500	0.046400
H1611	H161	0.595700	0.076700	0.031800
H1621	H162	0.601200	0.007800	0.023900
C2301	C230	0.682580	0.048100	0.035600
C2311	C231	0.720500	0.045500	0.082480
H1631	H163	0.705700	0.041200	0.120800
C2321	C232	0.780150	0.049300	0.073400
H1641	H164	0.806100	0.047500	0.105400
C2331	C233	0.801790	0.055600	0.017300
C2341	C234	0.763800	0.058200	0.970380
C2351	C235	0.704200	0.054400	0.979500
C2361	C236	0.787400	0.066200	0.915300
H1651	H165	0.828200	0.070400	0.910800
C2371	C237	0.751300	0.068200	0.866940
H1661	H166	0.766800	0.069000	0.828700
C2381	C238	0.691700	0.068900	0.876590
H1671	H167	0.666300	0.076100	0.844800
C2391	C239	0.667850	0.059300	0.931500
H1681	H168	0.626900	0.056200	0.936100
C2401	C240	0.862400	0.052100	0.011200
N481	N48	0.916400	0.050300	0.004000
Ag11	Ag1	0.489610	0.510390	0.010390
Ag21	Ag2	0.010390	0.489610	0.510390
Ag31	Ag3	0.510390	0.010390	0.489610
Ag41	Ag4	0.989610	0.989610	0.989610
Ni11	Ni1	0.610950	0.889050	0.110950
Ni21	Ni2	0.889050	0.110950	0.610950
Ni31	Ni3	0.389050	0.389050	0.389050
Ni41	Ni4	0.110950	0.610950	0.889050
N491	N49	0.612200	0.368100	0.972310
C2411	C241	0.665300	0.362400	0.000600
C2421	C242	0.666800	0.350100	0.059700
H1691	H169	0.703100	0.346200	0.079100
C2431	C243	0.615300	0.343400	0.090560
H1701	H170	0.616300	0.335000	0.131000
C2441	C244	0.562200	0.349100	0.062300
H1711	H171	0.527000	0.344500	0.083300
C2451	C245	0.560700	0.361400	0.003100
H1721	H172	0.524400	0.365300	0.983800
N501	N50	0.762400	0.372200	0.880150
N511	N51	0.706220	0.371800	0.905680
C2461	C246	0.713000	0.365300	0.966670
C2471	C247	0.773400	0.361600	0.978800
H1731	H173	0.790400	0.357000	0.016200
C2481	C248	0.803950	0.365800	0.925400
H1741	H174	0.845000	0.364700	0.920700
C2491	C249	0.773600	0.386500	0.823300
H1751	H175	0.740700	0.372700	0.799200
H1761	H176	0.808700	0.364900	0.810700
C2501	C250	0.783100	0.450040	0.810400
C2511	C251	0.786400	0.488800	0.856620
H1771	H177	0.783500	0.475000	0.895400
C2521	C252	0.794100	0.547800	0.846100
H1781	H178	0.796300	0.574300	0.877700
C2531	C253	0.798400	0.568040	0.789300
C2541	C254	0.795100	0.529300	0.743100
C2551	C255	0.787500	0.470300	0.753630
C2561	C256	0.793700	0.550200	0.686440
H1791	H179	0.794400	0.590900	0.679500
C2571	C257	0.791200	0.511700	0.640000
H1801	H180	0.792100	0.525800	0.601200
C2581	C258	0.787400	0.452300	0.650520
H1811	H181	0.785100	0.425900	0.618900
C2591	C259	0.786800	0.431400	0.707400
H1821	H182	0.786000	0.390800	0.714500
C2601	C260	0.805800	0.629000	0.783800
N521	N52	0.812700	0.679000	0.778000
N531	N53	0.887800	0.631900	0.472310
C2611	C261	0.834700	0.637600	0.500600
C2621	C262	0.833200	0.649900	0.559700
H1831	H183	0.796900	0.653800	0.579100
C2631	C263	0.884700	0.656600	0.590560
H1841	H184	0.883700	0.665000	0.631000
C2641	C264	0.937800	0.650900	0.562300
H1851	H185	0.973000	0.655500	0.583300
C2651	C265	0.939300	0.638600	0.503100
H1861	H186	0.975600	0.634700	0.483800
N541	N54	0.737600	0.627800	0.380150
N551	N55	0.793780	0.628200	0.405680
C2661	C266	0.787000	0.634700	0.466670
C2671	C267	0.726600	0.638400	0.478800
H1871	H187	0.709600	0.643000	0.516200
C2681	C268	0.696050	0.634200	0.425400
H1881	H188	0.655000	0.635300	0.420700
C2691	C269	0.726400	0.613500	0.323300
H1891	H189	0.759300	0.627300	0.299200
H1901	H190	0.691300	0.635100	0.310700
C2701	C270	0.716900	0.549960	0.310400
C2711	C271	0.713600	0.511200	0.356620
H1911	H191	0.716500	0.525000	0.395400
C2721	C272	0.705900	0.452200	0.346100
H1921	H192	0.703700	0.425700	0.377700
C2731	C273	0.701600	0.431960	0.289300
C2741	C274	0.704900	0.470700	0.243100
C2751	C275	0.712500	0.529700	0.253630
C2761	C276	0.706300	0.449800	0.186440
H1931	H193	0.705600	0.409100	0.179500
C2771	C277	0.708800	0.488300	0.140000
H1941	H194	0.707900	0.474200	0.101200
C2781	C278	0.712600	0.547700	0.150520
H1951	H195	0.714900	0.574100	0.118900
C2791	C279	0.713200	0.568600	0.207400
H1961	H196	0.714000	0.609200	0.214500
C2801	C280	0.694200	0.371000	0.283800
N561	N56	0.687300	0.321000	0.278000
N571	N57	0.387800	0.868100	0.527690
C2811	C281	0.334700	0.862400	0.499400
C2821	C282	0.333200	0.850100	0.440300
H1971	H197	0.296900	0.846200	0.420900
C2831	C283	0.384700	0.843400	0.409440
H1981	H198	0.383700	0.835000	0.369000
C2841	C284	0.437800	0.849100	0.437700
H1991	H199	0.473000	0.844500	0.416700
C2851	C285	0.439300	0.861400	0.496900
H2001	H200	0.475600	0.865300	0.516200
N581	N58	0.237600	0.872200	0.619850
N591	N59	0.293780	0.871800	0.594320
C2861	C286	0.287000	0.865300	0.533330
C2871	C287	0.226600	0.861600	0.521200
H2011	H201	0.209600	0.857000	0.483800
C2881	C288	0.196050	0.865800	0.574600
H2021	H202	0.155000	0.864700	0.579300
C2891	C289	0.226400	0.886500	0.676700
H2031	H203	0.259300	0.872700	0.700800
H2041	H204	0.191300	0.864900	0.689300
C2901	C290	0.216900	0.950040	0.689600
C2911	C291	0.213600	0.988800	0.643380
H2051	H205	0.216500	0.975000	0.604600
C2921	C292	0.205900	0.047800	0.653900
H2061	H206	0.203700	0.074300	0.622300
C2931	C293	0.201600	0.068040	0.710700
C2941	C294	0.204900	0.029300	0.756900
C2951	C295	0.212500	0.970300	0.746370
C2961	C296	0.206300	0.050200	0.813560
H2071	H207	0.205600	0.090900	0.820500
C2971	C297	0.208800	0.011700	0.860000
H2081	H208	0.207900	0.025800	0.898800
C2981	C298	0.212600	0.952300	0.849480
H2091	H209	0.214900	0.925900	0.881100
C2991	C299	0.213200	0.931400	0.792600
H2101	H210	0.214000	0.890800	0.785500
C3001	C300	0.194200	0.129000	0.716200
N601	N60	0.187300	0.179000	0.722000
N611	N61	0.112200	0.131900	0.027690
C3011	C301	0.165300	0.137600	0.999400
C3021	C302	0.166800	0.149900	0.940300
H2111	H211	0.203100	0.153800	0.920900
C3031	C303	0.115300	0.156600	0.909440
H2121	H212	0.116300	0.165000	0.869000
C3041	C304	0.062200	0.150900	0.937700
H2131	H213	0.027000	0.155500	0.916700
C3051	C305	0.060700	0.138600	0.996900
H2141	H214	0.024400	0.134700	0.016200
N621	N62	0.262400	0.127800	0.119850
N631	N63	0.206220	0.128200	0.094320
C3061	C306	0.213000	0.134700	0.033330
C3071	C307	0.273400	0.138400	0.021200
H2151	H215	0.290400	0.143000	0.983800
C3081	C308	0.303950	0.134200	0.074600
H2161	H216	0.345000	0.135300	0.079300
C3091	C309	0.273600	0.113500	0.176700
H2171	H217	0.240700	0.127300	0.200800
H2181	H218	0.308700	0.135100	0.189300
C3101	C310	0.283100	0.049960	0.189600
C3111	C311	0.286400	0.011200	0.143380
H2191	H219	0.283500	0.025000	0.104600
C3121	C312	0.294100	0.952200	0.153900
H2201	H220	0.296300	0.925700	0.122300
C3131	C313	0.298400	0.931960	0.210700
C3141	C314	0.295100	0.970700	0.256900
C3151	C315	0.287500	0.029700	0.246370
C3161	C316	0.293700	0.949800	0.313560
H2211	H221	0.294400	0.909100	0.320500
C3171	C317	0.291200	0.988300	0.360000
H2221	H222	0.292100	0.974200	0.398800
C3181	C318	0.287400	0.047700	0.349480
H2231	H223	0.285100	0.074100	0.381100
C3191	C319	0.286800	0.068600	0.292600
H2241	H224	0.286000	0.109200	0.285500
C3201	C320	0.305800	0.871000	0.216200
N641	N64	0.312700	0.821000	0.222000
N651	N65	0.972310	0.612200	0.368100
C3211	C321	0.000600	0.665300	0.362400
C3221	C322	0.059700	0.666800	0.350100
H2251	H225	0.079100	0.703100	0.346200
C3231	C323	0.090560	0.615300	0.343400
H2261	H226	0.131000	0.616300	0.335000
C3241	C324	0.062300	0.562200	0.349100
H2271	H227	0.083300	0.527000	0.344500
C3251	C325	0.003100	0.560700	0.361400
H2281	H228	0.983800	0.524400	0.365300
N661	N66	0.880150	0.762400	0.372200
N671	N67	0.905680	0.706220	0.371800
C3261	C326	0.966670	0.713000	0.365300
C3271	C327	0.978800	0.773400	0.361600
H2291	H229	0.016200	0.790400	0.357000
C3281	C328	0.925400	0.803950	0.365800
H2301	H230	0.920700	0.845000	0.364700
C3291	C329	0.823300	0.773600	0.386500
H2311	H231	0.799200	0.740700	0.372700
H2321	H232	0.810700	0.808700	0.364900
C3301	C330	0.810400	0.783100	0.450040
C3311	C331	0.856620	0.786400	0.488800
H2331	H233	0.895400	0.783500	0.475000
C3321	C332	0.846100	0.794100	0.547800
H2341	H234	0.877700	0.796300	0.574300
C3331	C333	0.789300	0.798400	0.568040
C3341	C334	0.743100	0.795100	0.529300
C3351	C335	0.753630	0.787500	0.470300
C3361	C336	0.686440	0.793700	0.550200
H2351	H235	0.679500	0.794400	0.590900
C3371	C337	0.640000	0.791200	0.511700
H2361	H236	0.601200	0.792100	0.525800
C3381	C338	0.650520	0.787400	0.452300
H2371	H237	0.618900	0.785100	0.425900
C3391	C339	0.707400	0.786800	0.431400
H2381	H238	0.714500	0.786000	0.390800
C3401	C340	0.783800	0.805800	0.629000
N681	N68	0.778000	0.812700	0.679000
N691	N69	0.472310	0.887800	0.631900
C3411	C341	0.500600	0.834700	0.637600
C3421	C342	0.559700	0.833200	0.649900
H2391	H239	0.579100	0.796900	0.653800
C3431	C343	0.590560	0.884700	0.656600
H2401	H240	0.631000	0.883700	0.665000
C3441	C344	0.562300	0.937800	0.650900
H2411	H241	0.583300	0.973000	0.655500
C3451	C345	0.503100	0.939300	0.638600
H2421	H242	0.483800	0.975600	0.634700
N701	N70	0.380150	0.737600	0.627800
N711	N71	0.405680	0.793780	0.628200
C3461	C346	0.466670	0.787000	0.634700
C3471	C347	0.478800	0.726600	0.638400
H2431	H243	0.516200	0.709600	0.643000
C3481	C348	0.425400	0.696050	0.634200
H2441	H244	0.420700	0.655000	0.635300
C3491	C349	0.323300	0.726400	0.613500
H2451	H245	0.299200	0.759300	0.627300
H2461	H246	0.310700	0.691300	0.635100
C3501	C350	0.310400	0.716900	0.549960
C3511	C351	0.356620	0.713600	0.511200
H2471	H247	0.395400	0.716500	0.525000
C3521	C352	0.346100	0.705900	0.452200
H2481	H248	0.377700	0.703700	0.425700
C3531	C353	0.289300	0.701600	0.431960
C3541	C354	0.243100	0.704900	0.470700
C3551	C355	0.253630	0.712500	0.529700
C3561	C356	0.186440	0.706300	0.449800
H2491	H249	0.179500	0.705600	0.409100
C3571	C357	0.140000	0.708800	0.488300
H2501	H250	0.101200	0.707900	0.474200
C3581	C358	0.150520	0.712600	0.547700
H2511	H251	0.118900	0.714900	0.574100
C3591	C359	0.207400	0.713200	0.568600
H2521	H252	0.214500	0.714000	0.609200
C3601	C360	0.283800	0.694200	0.371000
N721	N72	0.278000	0.687300	0.321000
N731	N73	0.527690	0.387800	0.868100
C3611	C361	0.499400	0.334700	0.862400
C3621	C362	0.440300	0.333200	0.850100
H2531	H253	0.420900	0.296900	0.846200
C3631	C363	0.409440	0.384700	0.843400
H2541	H254	0.369000	0.383700	0.835000
C3641	C364	0.437700	0.437800	0.849100
H2551	H255	0.416700	0.473000	0.844500
C3651	C365	0.496900	0.439300	0.861400
H2561	H256	0.516200	0.475600	0.865300
N741	N74	0.619850	0.237600	0.872200
N751	N75	0.594320	0.293780	0.871800
C3661	C366	0.533330	0.287000	0.865300
C3671	C367	0.521200	0.226600	0.861600
H2571	H257	0.483800	0.209600	0.857000
C3681	C368	0.574600	0.196050	0.865800
H2581	H258	0.579300	0.155000	0.864700
C3691	C369	0.676700	0.226400	0.886500
H2591	H259	0.700800	0.259300	0.872700
H2601	H260	0.689300	0.191300	0.864900
C3701	C370	0.689600	0.216900	0.950040
C3711	C371	0.643380	0.213600	0.988800
H2611	H261	0.604600	0.216500	0.975000
C3721	C372	0.653900	0.205900	0.047800
H2621	H262	0.622300	0.203700	0.074300
C3731	C373	0.710700	0.201600	0.068040
C3741	C374	0.756900	0.204900	0.029300
C3751	C375	0.746370	0.212500	0.970300
C3761	C376	0.813560	0.206300	0.050200
H2631	H263	0.820500	0.205600	0.090900
C3771	C377	0.860000	0.208800	0.011700
H2641	H264	0.898800	0.207900	0.025800
C3781	C378	0.849480	0.212600	0.952300
H2651	H265	0.881100	0.214900	0.925900
C3791	C379	0.792600	0.213200	0.931400
H2661	H266	0.785500	0.214000	0.890800
C3801	C380	0.716200	0.194200	0.129000
N761	N76	0.722000	0.187300	0.179000
N771	N77	0.027690	0.112200	0.131900
C3811	C381	0.999400	0.165300	0.137600
C3821	C382	0.940300	0.166800	0.149900
H2671	H267	0.920900	0.203100	0.153800
C3831	C383	0.909440	0.115300	0.156600
H2681	H268	0.869000	0.116300	0.165000
C3841	C384	0.937700	0.062200	0.150900
H2691	H269	0.916700	0.027000	0.155500
C3851	C385	0.996900	0.060700	0.138600
H2701	H270	0.016200	0.024400	0.134700
N781	N78	0.119850	0.262400	0.127800
N791	N79	0.094320	0.206220	0.128200
C3861	C386	0.033330	0.213000	0.134700
C3871	C387	0.021200	0.273400	0.138400
H2711	H271	0.983800	0.290400	0.143000
C3881	C388	0.074600	0.303950	0.134200
H2721	H272	0.079300	0.345000	0.135300
C3891	C389	0.176700	0.273600	0.113500
H2731	H273	0.200800	0.240700	0.127300
H2741	H274	0.189300	0.308700	0.135100
C3901	C390	0.189600	0.283100	0.049960
C3911	C391	0.143380	0.286400	0.011200
H2751	H275	0.104600	0.283500	0.025000
C3921	C392	0.153900	0.294100	0.952200
H2761	H276	0.122300	0.296300	0.925700
C3931	C393	0.210700	0.298400	0.931960
C3941	C394	0.256900	0.295100	0.970700
C3951	C395	0.246370	0.287500	0.029700
C3961	C396	0.313560	0.293700	0.949800
H2771	H277	0.320500	0.294400	0.909100
C3971	C397	0.360000	0.291200	0.988300
H2781	H278	0.398800	0.292100	0.974200
C3981	C398	0.349480	0.287400	0.047700
H2791	H279	0.381100	0.285100	0.074100
C3991	C399	0.292600	0.286800	0.068600
H2801	H280	0.285500	0.286000	0.109200
C4001	C400	0.216200	0.305800	0.871000
N801	N80	0.222000	0.312700	0.821000
N811	N81	0.368100	0.972310	0.612200
C4011	C401	0.362400	0.000600	0.665300
C4021	C402	0.350100	0.059700	0.666800
H2811	H281	0.346200	0.079100	0.703100
C4031	C403	0.343400	0.090560	0.615300
H2821	H282	0.335000	0.131000	0.616300
C4041	C404	0.349100	0.062300	0.562200
H2831	H283	0.344500	0.083300	0.527000
C4051	C405	0.361400	0.003100	0.560700
H2841	H284	0.365300	0.983800	0.524400
N821	N82	0.372200	0.880150	0.762400
N831	N83	0.371800	0.905680	0.706220
C4061	C406	0.365300	0.966670	0.713000
C4071	C407	0.361600	0.978800	0.773400
H2851	H285	0.357000	0.016200	0.790400
C4081	C408	0.365800	0.925400	0.803950
H2861	H286	0.364700	0.920700	0.845000
C4091	C409	0.386500	0.823300	0.773600
H2871	H287	0.372700	0.799200	0.740700
H2881	H288	0.364900	0.810700	0.808700
C4101	C410	0.450040	0.810400	0.783100
C4111	C411	0.488800	0.856620	0.786400
H2891	H289	0.475000	0.895400	0.783500
C4121	C412	0.547800	0.846100	0.794100
H2901	H290	0.574300	0.877700	0.796300
C4131	C413	0.568040	0.789300	0.798400
C4141	C414	0.529300	0.743100	0.795100
C4151	C415	0.470300	0.753630	0.787500
C4161	C416	0.550200	0.686440	0.793700
H2911	H291	0.590900	0.679500	0.794400
C4171	C417	0.511700	0.640000	0.791200
H2921	H292	0.525800	0.601200	0.792100
C4181	C418	0.452300	0.650520	0.787400
H2931	H293	0.425900	0.618900	0.785100
C4191	C419	0.431400	0.707400	0.786800
H2941	H294	0.390800	0.714500	0.786000
C4201	C420	0.629000	0.783800	0.805800
N841	N84	0.679000	0.778000	0.812700
N851	N85	0.631900	0.472310	0.887800
C4211	C421	0.637600	0.500600	0.834700
C4221	C422	0.649900	0.559700	0.833200
H2951	H295	0.653800	0.579100	0.796900
C4231	C423	0.656600	0.590560	0.884700
H2961	H296	0.665000	0.631000	0.883700
C4241	C424	0.650900	0.562300	0.937800
H2971	H297	0.655500	0.583300	0.973000
C4251	C425	0.638600	0.503100	0.939300
H2981	H298	0.634700	0.483800	0.975600
N861	N86	0.627800	0.380150	0.737600
N871	N87	0.628200	0.405680	0.793780
C4261	C426	0.634700	0.466670	0.787000
C4271	C427	0.638400	0.478800	0.726600
H2991	H299	0.643000	0.516200	0.709600
C4281	C428	0.634200	0.425400	0.696050
H3001	H300	0.635300	0.420700	0.655000
C4291	C429	0.613500	0.323300	0.726400
H3011	H301	0.627300	0.299200	0.759300
H3021	H302	0.635100	0.310700	0.691300
C4301	C430	0.549960	0.310400	0.716900
C4311	C431	0.511200	0.356620	0.713600
H3031	H303	0.525000	0.395400	0.716500
C4321	C432	0.452200	0.346100	0.705900
H3041	H304	0.425700	0.377700	0.703700
C4331	C433	0.431960	0.289300	0.701600
C4341	C434	0.470700	0.243100	0.704900
C4351	C435	0.529700	0.253630	0.712500
C4361	C436	0.449800	0.186440	0.706300
H3051	H305	0.409100	0.179500	0.705600
C4371	C437	0.488300	0.140000	0.708800
H3061	H306	0.474200	0.101200	0.707900
C4381	C438	0.547700	0.150520	0.712600
H3071	H307	0.574100	0.118900	0.714900
C4391	C439	0.568600	0.207400	0.713200
H3081	H308	0.609200	0.214500	0.714000
C4401	C440	0.371000	0.283800	0.694200
N881	N88	0.321000	0.278000	0.687300
N891	N89	0.868100	0.527690	0.387800
C4411	C441	0.862400	0.499400	0.334700
C4421	C442	0.850100	0.440300	0.333200
H3091	H309	0.846200	0.420900	0.296900
C4431	C443	0.843400	0.409440	0.384700
H3101	H310	0.835000	0.369000	0.383700
C4441	C444	0.849100	0.437700	0.437800
H3111	H311	0.844500	0.416700	0.473000
C4451	C445	0.861400	0.496900	0.439300
H3121	H312	0.865300	0.516200	0.475600
N901	N90	0.872200	0.619850	0.237600
N911	N91	0.871800	0.594320	0.293780
C4461	C446	0.865300	0.533330	0.287000
C4471	C447	0.861600	0.521200	0.226600
H3131	H313	0.857000	0.483800	0.209600
C4481	C448	0.865800	0.574600	0.196050
H3141	H314	0.864700	0.579300	0.155000
C4491	C449	0.886500	0.676700	0.226400
H3151	H315	0.872700	0.700800	0.259300
H3161	H316	0.864900	0.689300	0.191300
C4501	C450	0.950040	0.689600	0.216900
C4511	C451	0.988800	0.643380	0.213600
H3171	H317	0.975000	0.604600	0.216500
C4521	C452	0.047800	0.653900	0.205900
H3181	H318	0.074300	0.622300	0.203700
C4531	C453	0.068040	0.710700	0.201600
C4541	C454	0.029300	0.756900	0.204900
C4551	C455	0.970300	0.746370	0.212500
C4561	C456	0.050200	0.813560	0.206300
H3191	H319	0.090900	0.820500	0.205600
C4571	C457	0.011700	0.860000	0.208800
H3201	H320	0.025800	0.898800	0.207900
C4581	C458	0.952300	0.849480	0.212600
H3211	H321	0.925900	0.881100	0.214900
C4591	C459	0.931400	0.792600	0.213200
H3221	H322	0.890800	0.785500	0.214000
C4601	C460	0.129000	0.716200	0.194200
N921	N92	0.179000	0.722000	0.187300
N931	N93	0.131900	0.027690	0.112200
C4611	C461	0.137600	0.999400	0.165300
C4621	C462	0.149900	0.940300	0.166800
H3231	H323	0.153800	0.920900	0.203100
C4631	C463	0.156600	0.909440	0.115300
H3241	H324	0.165000	0.869000	0.116300
C4641	C464	0.150900	0.937700	0.062200
H3251	H325	0.155500	0.916700	0.027000
C4651	C465	0.138600	0.996900	0.060700
H3261	H326	0.134700	0.016200	0.024400
N941	N94	0.127800	0.119850	0.262400
N951	N95	0.128200	0.094320	0.206220
C4661	C466	0.134700	0.033330	0.213000
C4671	C467	0.138400	0.021200	0.273400
H3271	H327	0.143000	0.983800	0.290400
C4681	C468	0.134200	0.074600	0.303950
H3281	H328	0.135300	0.079300	0.345000
C4691	C469	0.113500	0.176700	0.273600
H3291	H329	0.127300	0.200800	0.240700
H3301	H330	0.135100	0.189300	0.308700
C4701	C470	0.049960	0.189600	0.283100
C4711	C471	0.011200	0.143380	0.286400
H3311	H331	0.025000	0.104600	0.283500
C4721	C472	0.952200	0.153900	0.294100
H3321	H332	0.925700	0.122300	0.296300
C4731	C473	0.931960	0.210700	0.298400
C4741	C474	0.970700	0.256900	0.295100
C4751	C475	0.029700	0.246370	0.287500
C4761	C476	0.949800	0.313560	0.293700
H3331	H333	0.909100	0.320500	0.294400
C4771	C477	0.988300	0.360000	0.291200
H3341	H334	0.974200	0.398800	0.292100
C4781	C478	0.047700	0.349480	0.287400
H3351	H335	0.074100	0.381100	0.285100
C4791	C479	0.068600	0.292600	0.286800
H3361	H336	0.109200	0.285500	0.286000
C4801	C480	0.871000	0.216200	0.305800
N961	N96	0.821000	0.222000	0.312700
Ni51	Ni5	0.618290	0.381710	0.881710
Ni61	Ni6	0.881710	0.618290	0.381710
Ni71	Ni7	0.381710	0.881710	0.618290
Ni81	Ni8	0.118290	0.118290	0.118290
Ag51	Ag5	0.757360	0.757360	0.757360
Ag61	Ag6	0.742640	0.242640	0.257360
Ag71	Ag7	0.242640	0.257360	0.742640
Ag81	Ag8	0.257360	0.742640	0.242640
