data_DACYAI_freeONLY_PM
_symmetry_space_group_name_H-M	'P1'
_cell_length_a	10.876200
_cell_length_b	12.229400
_cell_length_c	12.332800
_cell_angle_alpha	93.931700
_cell_angle_beta	106.674000
_cell_angle_gamma	101.261000
_symmetry_Int_Tables_number 1

loop_
_symmetry_equiv_pos_as_xyz
'x,y,z'

loop_
_atom_site_label
_atom_site_type_symbol
_atom_site_fract_x
_atom_site_fract_y
_atom_site_fract_z
Yb11	Yb1	0.915980	0.190280	0.001880
Yb21	Yb2	0.084020	0.809720	0.998120
H11	H1	0.711100	0.933300	0.974300
H21	H2	0.495600	0.829500	0.904200
H31	H3	0.335600	0.911100	0.802200
H41	H4	0.273400	0.083700	0.713800
H51	H5	0.330200	0.262600	0.689400
H61	H6	0.512100	0.435700	0.709600
H71	H7	0.730800	0.524300	0.777900
H81	H8	0.878100	0.430100	0.883700
H91	H9	0.744100	0.301200	0.317900
H101	H10	0.760400	0.393800	0.488700
H111	H11	0.104900	0.467400	0.337100
H121	H12	0.178200	0.458900	0.834700
H131	H13	0.360400	0.588600	0.831400
H141	H14	0.396500	0.328100	0.088100
H151	H15	0.975800	0.185100	0.711200
H161	H16	0.980300	0.209900	0.529400
H171	H17	0.013400	0.867000	0.660600
H181	H18	0.288900	0.066700	0.025700
H191	H19	0.504400	0.170500	0.095800
H201	H20	0.664400	0.088900	0.197800
H211	H21	0.726600	0.916300	0.286200
H221	H22	0.669800	0.737400	0.310600
H231	H23	0.487900	0.564300	0.290400
H241	H24	0.269200	0.475700	0.222100
H251	H25	0.121900	0.569900	0.116300
H261	H26	0.255900	0.698800	0.682100
H271	H27	0.239600	0.606200	0.511300
H281	H28	0.895100	0.532600	0.662900
H291	H29	0.821800	0.541100	0.165300
H301	H30	0.639600	0.411400	0.168600
H311	H31	0.603500	0.671900	0.911900
H321	H32	0.024200	0.814900	0.288800
H331	H33	0.019700	0.790100	0.470600
H341	H34	0.986600	0.133000	0.339400
C11	C1	0.646600	0.967600	0.933100
C21	C2	0.516400	0.903800	0.890800
C31	C3	0.422300	0.952200	0.830400
C41	C4	0.453900	0.064900	0.809400
C51	C5	0.360800	0.122100	0.745200
C61	C6	0.394800	0.227600	0.729000
C71	C7	0.529500	0.290000	0.771200
C81	C8	0.572700	0.398300	0.751500
C91	C9	0.701900	0.451500	0.792100
C101	C10	0.789600	0.393700	0.855500
C111	C11	0.625200	0.237000	0.836600
C121	C12	0.587100	0.121900	0.856200
C131	C13	0.911600	0.318400	0.194200
C141	C14	0.924800	0.376900	0.310800
C151	C15	0.820600	0.354200	0.357500
C161	C16	0.830700	0.408600	0.459300
C171	C17	0.036400	0.452800	0.368900
C181	C18	0.948200	0.489000	0.522800
C191	C19	0.148700	0.306400	0.971200
C201	C20	0.271600	0.383300	0.965600
C211	C21	0.260000	0.460200	0.886200
C221	C22	0.369100	0.537400	0.884100
C231	C23	0.390300	0.381700	0.038000
C241	C24	0.494000	0.540100	0.960500
C251	C25	0.991000	0.005900	0.822600
C261	C26	0.994400	0.022000	0.702800
C271	C27	0.983800	0.126300	0.663600
C281	C28	0.985500	0.140600	0.554600
C291	C29	0.005400	0.935100	0.633100
C301	C30	0.995100	0.052900	0.480600
C311	C31	0.353400	0.032400	0.066900
C321	C32	0.483600	0.096200	0.109200
C331	C33	0.577700	0.047800	0.169600
C341	C34	0.546100	0.935100	0.190600
C351	C35	0.639200	0.877900	0.254800
C361	C36	0.605200	0.772400	0.271000
C371	C37	0.470500	0.710000	0.228800
C381	C38	0.427300	0.601700	0.248500
C391	C39	0.298100	0.548500	0.207900
C401	C40	0.210400	0.606300	0.144500
C411	C41	0.374800	0.763000	0.163400
C421	C42	0.412900	0.878100	0.143800
C431	C43	0.088400	0.681600	0.805800
C441	C44	0.075200	0.623100	0.689200
C451	C45	0.179400	0.645800	0.642500
C461	C46	0.169300	0.591400	0.540700
C471	C47	0.963600	0.547200	0.631100
C481	C48	0.051800	0.511000	0.477200
C491	C49	0.851300	0.693600	0.028800
C501	C50	0.728400	0.616700	0.034400
C511	C51	0.740000	0.539800	0.113800
C521	C52	0.630900	0.462600	0.115900
C531	C53	0.609700	0.618300	0.962000
C541	C54	0.506000	0.459900	0.039500
C551	C55	0.009000	0.994100	0.177400
C561	C56	0.005600	0.978000	0.297200
C571	C57	0.016200	0.873700	0.336400
C581	C58	0.014500	0.859400	0.445400
C591	C59	0.994600	0.064900	0.366900
C601	C60	0.004900	0.947100	0.519400
N11	N1	0.682400	0.073100	0.917800
N21	N2	0.754700	0.289900	0.878000
N31	N3	0.317600	0.926900	0.082200
N41	N4	0.245300	0.710100	0.122000
O11	O1	0.808300	0.248600	0.139800
O21	O2	0.008500	0.339000	0.155700
O31	O3	0.039100	0.318700	0.913300
O41	O4	0.157300	0.230900	0.037900
O51	O5	0.930700	0.065400	0.864800
O61	O6	0.046700	0.934700	0.871300
O71	O7	0.191700	0.751400	0.860200
O81	O8	0.991500	0.661000	0.844300
O91	O9	0.960900	0.681300	0.086700
O101	O10	0.842700	0.769100	0.962100
O111	O11	0.069300	0.934600	0.135200
O121	O12	0.953300	0.065300	0.128700
