data_DADLEC_freeONLY_PM
_symmetry_space_group_name_H-M	'P1'
_cell_length_a	37.475000
_cell_length_b	13.327000
_cell_length_c	15.994100
_cell_angle_alpha	90.000000
_cell_angle_beta	90.000000
_cell_angle_gamma	90.000000
_symmetry_Int_Tables_number 1

loop_
_symmetry_equiv_pos_as_xyz
'x,y,z'

loop_
_atom_site_label
_atom_site_type_symbol
_atom_site_fract_x
_atom_site_fract_y
_atom_site_fract_z
Mn11	Mn1	0.971640	0.135970	0.138800
C11	C1	0.746080	0.877100	0.935200
C21	C2	0.685520	0.872500	0.834100
C31	C3	0.809960	0.232800	0.176900
C41	C4	0.837980	0.628900	0.050000
C51	C5	0.800190	0.146400	0.124800
C61	C6	0.737600	0.959100	0.885000
H11	H1	0.752300	0.015400	0.884000
C71	C7	0.694100	0.791900	0.882800
H21	H2	0.679500	0.735400	0.882400
C81	C8	0.803550	0.727700	0.950500
H31	H3	0.794600	0.734900	0.896600
C91	C9	0.874700	0.367200	0.047400
H41	H4	0.869300	0.305600	0.023200
C101	C10	0.859660	0.541700	0.069600
C111	C11	0.584850	0.893400	0.706100
C121	C12	0.649990	0.877400	0.785800
C131	C13	0.905110	0.376400	0.097900
C141	C14	0.724390	0.793600	0.932700
H51	H5	0.730100	0.737800	0.964900
C151	C15	0.796370	0.798000	0.009700
C161	C16	0.911540	0.467900	0.137500
H61	H6	0.930700	0.474200	0.174000
C171	C17	0.800700	0.399000	0.231500
H71	H7	0.786000	0.455100	0.235100
C181	C18	0.789270	0.315800	0.187600
H81	H8	0.766500	0.316500	0.164400
C191	C19	0.706910	0.955400	0.836300
H91	H9	0.700800	0.011000	0.804300
C201	C20	0.765690	0.109600	0.122800
H101	H10	0.748000	0.141600	0.153700
C211	C21	0.852400	0.450400	0.032900
H111	H11	0.832600	0.443700	0.998200
C221	C22	0.889470	0.549400	0.122500
H121	H12	0.894500	0.610400	0.148100
C231	C23	0.591300	0.816800	0.761500
H131	H13	0.573600	0.770300	0.773600
C241	C24	0.829750	0.702000	0.110400
H141	H14	0.838300	0.694500	0.164600
C251	C25	0.782260	0.975000	0.033100
C261	C26	0.809300	0.784400	0.091000
H151	H15	0.804000	0.831400	0.132200
C271	C27	0.548100	0.908200	0.669200
C281	C28	0.928600	0.287400	0.112900
C291	C29	0.842700	0.235100	0.218100
H161	H16	0.857400	0.179100	0.214400
C301	C30	0.833500	0.399900	0.269900
C311	C31	0.825060	0.642200	0.971500
H171	H17	0.830200	0.595000	0.930500
C321	C32	0.624290	0.809500	0.798900
H181	H18	0.628800	0.755800	0.834400
C331	C33	0.854100	0.314700	0.263200
H191	H19	0.876100	0.311900	0.289900
C341	C34	0.817870	0.014300	0.032700
H201	H20	0.835800	0.982900	0.002300
C351	C35	0.824620	0.097000	0.076900
H211	H21	0.847700	0.122800	0.074900
C361	C36	0.610900	0.960500	0.689300
H221	H22	0.607300	0.011800	0.650800
C371	C37	0.844100	0.492600	0.314500
C381	C38	0.757020	0.026300	0.075900
H231	H23	0.733400	0.005100	0.073600
C391	C39	0.643230	0.950900	0.730800
H241	H24	0.661100	0.997700	0.720000
O11	O1	0.918990	0.201800	0.090600
O21	O2	0.958230	0.301600	0.151100
O31	O3	0.542990	0.983800	0.622400
O41	O4	0.524730	0.841100	0.681100
O51	O5	0.875380	0.476300	0.352500
H251	H25	0.882000	0.528000	0.375500
O61	O6	0.828840	0.568200	0.317300
O71	O7	0.990200	0.137100	0.007200
O81	O8	0.955200	0.119400	0.270800
N11	N1	0.775570	0.883200	0.989400
Mn21	Mn2	0.028360	0.864030	0.138800
C401	C40	0.253920	0.122900	0.935200
C411	C41	0.314480	0.127500	0.834100
C421	C42	0.190040	0.767200	0.176900
C431	C43	0.162020	0.371100	0.050000
C441	C44	0.199810	0.853600	0.124800
C451	C45	0.262400	0.040900	0.885000
H261	H26	0.247700	0.984600	0.884000
C461	C46	0.305900	0.208100	0.882800
H271	H27	0.320500	0.264600	0.882400
C471	C47	0.196450	0.272300	0.950500
H281	H28	0.205400	0.265100	0.896600
C481	C48	0.125300	0.632800	0.047400
H291	H29	0.130700	0.694400	0.023200
C491	C49	0.140340	0.458300	0.069600
C501	C50	0.415150	0.106600	0.706100
C511	C51	0.350010	0.122600	0.785800
C521	C52	0.094890	0.623600	0.097900
C531	C53	0.275610	0.206400	0.932700
H301	H30	0.269900	0.262200	0.964900
C541	C54	0.203630	0.202000	0.009700
C551	C55	0.088460	0.532100	0.137500
H311	H31	0.069300	0.525800	0.174000
C561	C56	0.199300	0.601000	0.231500
H321	H32	0.214000	0.544900	0.235100
C571	C57	0.210730	0.684200	0.187600
H331	H33	0.233500	0.683500	0.164400
C581	C58	0.293090	0.044600	0.836300
H341	H34	0.299200	0.989000	0.804300
C591	C59	0.234310	0.890400	0.122800
H351	H35	0.252000	0.858400	0.153700
C601	C60	0.147600	0.549600	0.032900
H361	H36	0.167400	0.556300	0.998200
C611	C61	0.110530	0.450600	0.122500
H371	H37	0.105500	0.389600	0.148100
C621	C62	0.408700	0.183200	0.761500
H381	H38	0.426400	0.229700	0.773600
C631	C63	0.170250	0.298000	0.110400
H391	H39	0.161700	0.305500	0.164600
C641	C64	0.217740	0.025000	0.033100
C651	C65	0.190700	0.215600	0.091000
H401	H40	0.196000	0.168600	0.132200
C661	C66	0.451900	0.091800	0.669200
C671	C67	0.071400	0.712600	0.112900
C681	C68	0.157300	0.764900	0.218100
H411	H41	0.142600	0.820900	0.214400
C691	C69	0.166500	0.600100	0.269900
C701	C70	0.174940	0.357800	0.971500
H421	H42	0.169800	0.405000	0.930500
C711	C71	0.375710	0.190500	0.798900
H431	H43	0.371200	0.244200	0.834400
C721	C72	0.145900	0.685300	0.263200
H441	H44	0.123900	0.688100	0.289900
C731	C73	0.182130	0.985700	0.032700
H451	H45	0.164200	0.017100	0.002300
C741	C74	0.175380	0.903000	0.076900
H461	H46	0.152300	0.877200	0.074900
C751	C75	0.389100	0.039500	0.689300
H471	H47	0.392700	0.988200	0.650800
C761	C76	0.155900	0.507400	0.314500
C771	C77	0.242980	0.973700	0.075900
H481	H48	0.266600	0.994900	0.073600
C781	C78	0.356770	0.049100	0.730800
H491	H49	0.338900	0.002300	0.720000
O91	O9	0.081010	0.798200	0.090600
O101	O10	0.041770	0.698400	0.151100
O111	O11	0.457010	0.016200	0.622400
O121	O12	0.475270	0.158900	0.681100
O131	O13	0.124620	0.523700	0.352500
H501	H50	0.118000	0.472000	0.375500
O141	O14	0.171160	0.431800	0.317300
O151	O15	0.009800	0.862900	0.007200
O161	O16	0.044800	0.880600	0.270800
N21	N2	0.224430	0.116800	0.989400
Mn31	Mn3	0.471640	0.864030	0.638800
C791	C79	0.246080	0.122900	0.435200
C801	C80	0.185520	0.127500	0.334100
C811	C81	0.309960	0.767200	0.676900
C821	C82	0.337980	0.371100	0.550000
C831	C83	0.300190	0.853600	0.624800
C841	C84	0.237600	0.040900	0.385000
H511	H51	0.252300	0.984600	0.384000
C851	C85	0.194100	0.208100	0.382800
H521	H52	0.179500	0.264600	0.382400
C861	C86	0.303550	0.272300	0.450500
H531	H53	0.294600	0.265100	0.396600
C871	C87	0.374700	0.632800	0.547400
H541	H54	0.369300	0.694400	0.523200
C881	C88	0.359660	0.458300	0.569600
C891	C89	0.084850	0.106600	0.206100
C901	C90	0.149990	0.122600	0.285800
C911	C91	0.405110	0.623600	0.597900
C921	C92	0.224390	0.206400	0.432700
H551	H55	0.230100	0.262200	0.464900
C931	C93	0.296370	0.202000	0.509700
C941	C94	0.411540	0.532100	0.637500
H561	H56	0.430700	0.525800	0.674000
C951	C95	0.300700	0.601000	0.731500
H571	H57	0.286000	0.544900	0.735100
C961	C96	0.289270	0.684200	0.687600
H581	H58	0.266500	0.683500	0.664400
C971	C97	0.206910	0.044600	0.336300
H591	H59	0.200800	0.989000	0.304300
C981	C98	0.265690	0.890400	0.622800
H601	H60	0.248000	0.858400	0.653700
C991	C99	0.352400	0.549600	0.532900
H611	H61	0.332600	0.556300	0.498200
C1001	C100	0.389470	0.450600	0.622500
H621	H62	0.394500	0.389600	0.648100
C1011	C101	0.091300	0.183200	0.261500
H631	H63	0.073600	0.229700	0.273600
C1021	C102	0.329750	0.298000	0.610400
H641	H64	0.338300	0.305500	0.664600
C1031	C103	0.282260	0.025000	0.533100
C1041	C104	0.309300	0.215600	0.591000
H651	H65	0.304000	0.168600	0.632200
C1051	C105	0.048100	0.091800	0.169200
C1061	C106	0.428600	0.712600	0.612900
C1071	C107	0.342700	0.764900	0.718100
H661	H66	0.357400	0.820900	0.714400
C1081	C108	0.333500	0.600100	0.769900
C1091	C109	0.325060	0.357800	0.471500
H671	H67	0.330200	0.405000	0.430500
C1101	C110	0.124290	0.190500	0.298900
H681	H68	0.128800	0.244200	0.334400
C1111	C111	0.354100	0.685300	0.763200
H691	H69	0.376100	0.688100	0.789900
C1121	C112	0.317870	0.985700	0.532700
H701	H70	0.335800	0.017100	0.502300
C1131	C113	0.324620	0.903000	0.576900
H711	H71	0.347700	0.877200	0.574900
C1141	C114	0.110900	0.039500	0.189300
H721	H72	0.107300	0.988200	0.150800
C1151	C115	0.344100	0.507400	0.814500
C1161	C116	0.257020	0.973700	0.575900
H731	H73	0.233400	0.994900	0.573600
C1171	C117	0.143230	0.049100	0.230800
H741	H74	0.161100	0.002300	0.220000
O171	O17	0.418990	0.798200	0.590600
O181	O18	0.458230	0.698400	0.651100
O191	O19	0.042990	0.016200	0.122400
O201	O20	0.024730	0.158900	0.181100
O211	O21	0.375380	0.523700	0.852500
H751	H75	0.382000	0.472000	0.875500
O221	O22	0.328840	0.431800	0.817300
O231	O23	0.490200	0.862900	0.507200
O241	O24	0.455200	0.880600	0.770800
N31	N3	0.275570	0.116800	0.489400
Mn41	Mn4	0.528360	0.135970	0.638800
C1181	C118	0.753920	0.877100	0.435200
C1191	C119	0.814480	0.872500	0.334100
C1201	C120	0.690040	0.232800	0.676900
C1211	C121	0.662020	0.628900	0.550000
C1221	C122	0.699810	0.146400	0.624800
C1231	C123	0.762400	0.959100	0.385000
H761	H76	0.747700	0.015400	0.384000
C1241	C124	0.805900	0.791900	0.382800
H771	H77	0.820500	0.735400	0.382400
C1251	C125	0.696450	0.727700	0.450500
H781	H78	0.705400	0.734900	0.396600
C1261	C126	0.625300	0.367200	0.547400
H791	H79	0.630700	0.305600	0.523200
C1271	C127	0.640340	0.541700	0.569600
C1281	C128	0.915150	0.893400	0.206100
C1291	C129	0.850010	0.877400	0.285800
C1301	C130	0.594890	0.376400	0.597900
C1311	C131	0.775610	0.793600	0.432700
H801	H80	0.769900	0.737800	0.464900
C1321	C132	0.703630	0.798000	0.509700
C1331	C133	0.588460	0.467900	0.637500
H811	H81	0.569300	0.474200	0.674000
C1341	C134	0.699300	0.399000	0.731500
H821	H82	0.714000	0.455100	0.735100
C1351	C135	0.710730	0.315800	0.687600
H831	H83	0.733500	0.316500	0.664400
C1361	C136	0.793090	0.955400	0.336300
H841	H84	0.799200	0.011000	0.304300
C1371	C137	0.734310	0.109600	0.622800
H851	H85	0.752000	0.141600	0.653700
C1381	C138	0.647600	0.450400	0.532900
H861	H86	0.667400	0.443700	0.498200
C1391	C139	0.610530	0.549400	0.622500
H871	H87	0.605500	0.610400	0.648100
C1401	C140	0.908700	0.816800	0.261500
H881	H88	0.926400	0.770300	0.273600
C1411	C141	0.670250	0.702000	0.610400
H891	H89	0.661700	0.694500	0.664600
C1421	C142	0.717740	0.975000	0.533100
C1431	C143	0.690700	0.784400	0.591000
H901	H90	0.696000	0.831400	0.632200
C1441	C144	0.951900	0.908200	0.169200
C1451	C145	0.571400	0.287400	0.612900
C1461	C146	0.657300	0.235100	0.718100
H911	H91	0.642600	0.179100	0.714400
C1471	C147	0.666500	0.399900	0.769900
C1481	C148	0.674940	0.642200	0.471500
H921	H92	0.669800	0.595000	0.430500
C1491	C149	0.875710	0.809500	0.298900
H931	H93	0.871200	0.755800	0.334400
C1501	C150	0.645900	0.314700	0.763200
H941	H94	0.623900	0.311900	0.789900
C1511	C151	0.682130	0.014300	0.532700
H951	H95	0.664200	0.982900	0.502300
C1521	C152	0.675380	0.097000	0.576900
H961	H96	0.652300	0.122800	0.574900
C1531	C153	0.889100	0.960500	0.189300
H971	H97	0.892700	0.011800	0.150800
C1541	C154	0.655900	0.492600	0.814500
C1551	C155	0.742980	0.026300	0.575900
H981	H98	0.766600	0.005100	0.573600
C1561	C156	0.856770	0.950900	0.230800
H991	H99	0.838900	0.997700	0.220000
O251	O25	0.581010	0.201800	0.590600
O261	O26	0.541770	0.301600	0.651100
O271	O27	0.957010	0.983800	0.122400
O281	O28	0.975270	0.841100	0.181100
O291	O29	0.624620	0.476300	0.852500
H1001	H100	0.618000	0.528000	0.875500
O301	O30	0.671160	0.568200	0.817300
O311	O31	0.509800	0.137100	0.507200
O321	O32	0.544800	0.119400	0.770800
N41	N4	0.724430	0.883200	0.489400
Mn51	Mn5	0.971640	0.635970	0.638800
C1571	C157	0.746080	0.377100	0.435200
C1581	C158	0.685520	0.372500	0.334100
C1591	C159	0.809960	0.732800	0.676900
C1601	C160	0.837980	0.128900	0.550000
C1611	C161	0.800190	0.646400	0.624800
C1621	C162	0.737600	0.459100	0.385000
H1011	H101	0.752300	0.515400	0.384000
C1631	C163	0.694100	0.291900	0.382800
H1021	H102	0.679500	0.235400	0.382400
C1641	C164	0.803550	0.227700	0.450500
H1031	H103	0.794600	0.234900	0.396600
C1651	C165	0.874700	0.867200	0.547400
H1041	H104	0.869300	0.805600	0.523200
C1661	C166	0.859660	0.041700	0.569600
C1671	C167	0.584850	0.393400	0.206100
C1681	C168	0.649990	0.377400	0.285800
C1691	C169	0.905110	0.876400	0.597900
C1701	C170	0.724390	0.293600	0.432700
H1051	H105	0.730100	0.237800	0.464900
C1711	C171	0.796370	0.298000	0.509700
C1721	C172	0.911540	0.967900	0.637500
H1061	H106	0.930700	0.974200	0.674000
C1731	C173	0.800700	0.899000	0.731500
H1071	H107	0.786000	0.955100	0.735100
C1741	C174	0.789270	0.815800	0.687600
H1081	H108	0.766500	0.816500	0.664400
C1751	C175	0.706910	0.455400	0.336300
H1091	H109	0.700800	0.511000	0.304300
C1761	C176	0.765690	0.609600	0.622800
H1101	H110	0.748000	0.641600	0.653700
C1771	C177	0.852400	0.950400	0.532900
H1111	H111	0.832600	0.943700	0.498200
C1781	C178	0.889470	0.049400	0.622500
H1121	H112	0.894500	0.110400	0.648100
C1791	C179	0.591300	0.316800	0.261500
H1131	H113	0.573600	0.270300	0.273600
C1801	C180	0.829750	0.202000	0.610400
H1141	H114	0.838300	0.194500	0.664600
C1811	C181	0.782260	0.475000	0.533100
C1821	C182	0.809300	0.284400	0.591000
H1151	H115	0.804000	0.331400	0.632200
C1831	C183	0.548100	0.408200	0.169200
C1841	C184	0.928600	0.787400	0.612900
C1851	C185	0.842700	0.735100	0.718100
H1161	H116	0.857400	0.679100	0.714400
C1861	C186	0.833500	0.899900	0.769900
C1871	C187	0.825060	0.142200	0.471500
H1171	H117	0.830200	0.095000	0.430500
C1881	C188	0.624290	0.309500	0.298900
H1181	H118	0.628800	0.255800	0.334400
C1891	C189	0.854100	0.814700	0.763200
H1191	H119	0.876100	0.811900	0.789900
C1901	C190	0.817870	0.514300	0.532700
H1201	H120	0.835800	0.482900	0.502300
C1911	C191	0.824620	0.597000	0.576900
H1211	H121	0.847700	0.622800	0.574900
C1921	C192	0.610900	0.460500	0.189300
H1221	H122	0.607300	0.511800	0.150800
C1931	C193	0.844100	0.992600	0.814500
C1941	C194	0.757020	0.526300	0.575900
H1231	H123	0.733400	0.505100	0.573600
C1951	C195	0.643230	0.450900	0.230800
H1241	H124	0.661100	0.497700	0.220000
O331	O33	0.918990	0.701800	0.590600
O341	O34	0.958230	0.801600	0.651100
O351	O35	0.542990	0.483800	0.122400
O361	O36	0.524730	0.341100	0.181100
O371	O37	0.875380	0.976300	0.852500
H1251	H125	0.882000	0.028000	0.875500
O381	O38	0.828840	0.068200	0.817300
O391	O39	0.990200	0.637100	0.507200
O401	O40	0.955200	0.619400	0.770800
N51	N5	0.775570	0.383200	0.489400
Mn61	Mn6	0.028360	0.364030	0.638800
C1961	C196	0.253920	0.622900	0.435200
C1971	C197	0.314480	0.627500	0.334100
C1981	C198	0.190040	0.267200	0.676900
C1991	C199	0.162020	0.871100	0.550000
C2001	C200	0.199810	0.353600	0.624800
C2011	C201	0.262400	0.540900	0.385000
H1261	H126	0.247700	0.484600	0.384000
C2021	C202	0.305900	0.708100	0.382800
H1271	H127	0.320500	0.764600	0.382400
C2031	C203	0.196450	0.772300	0.450500
H1281	H128	0.205400	0.765100	0.396600
C2041	C204	0.125300	0.132800	0.547400
H1291	H129	0.130700	0.194400	0.523200
C2051	C205	0.140340	0.958300	0.569600
C2061	C206	0.415150	0.606600	0.206100
C2071	C207	0.350010	0.622600	0.285800
C2081	C208	0.094890	0.123600	0.597900
C2091	C209	0.275610	0.706400	0.432700
H1301	H130	0.269900	0.762200	0.464900
C2101	C210	0.203630	0.702000	0.509700
C2111	C211	0.088460	0.032100	0.637500
H1311	H131	0.069300	0.025800	0.674000
C2121	C212	0.199300	0.101000	0.731500
H1321	H132	0.214000	0.044900	0.735100
C2131	C213	0.210730	0.184200	0.687600
H1331	H133	0.233500	0.183500	0.664400
C2141	C214	0.293090	0.544600	0.336300
H1341	H134	0.299200	0.489000	0.304300
C2151	C215	0.234310	0.390400	0.622800
H1351	H135	0.252000	0.358400	0.653700
C2161	C216	0.147600	0.049600	0.532900
H1361	H136	0.167400	0.056300	0.498200
C2171	C217	0.110530	0.950600	0.622500
H1371	H137	0.105500	0.889600	0.648100
C2181	C218	0.408700	0.683200	0.261500
H1381	H138	0.426400	0.729700	0.273600
C2191	C219	0.170250	0.798000	0.610400
H1391	H139	0.161700	0.805500	0.664600
C2201	C220	0.217740	0.525000	0.533100
C2211	C221	0.190700	0.715600	0.591000
H1401	H140	0.196000	0.668600	0.632200
C2221	C222	0.451900	0.591800	0.169200
C2231	C223	0.071400	0.212600	0.612900
C2241	C224	0.157300	0.264900	0.718100
H1411	H141	0.142600	0.320900	0.714400
C2251	C225	0.166500	0.100100	0.769900
C2261	C226	0.174940	0.857800	0.471500
H1421	H142	0.169800	0.905000	0.430500
C2271	C227	0.375710	0.690500	0.298900
H1431	H143	0.371200	0.744200	0.334400
C2281	C228	0.145900	0.185300	0.763200
H1441	H144	0.123900	0.188100	0.789900
C2291	C229	0.182130	0.485700	0.532700
H1451	H145	0.164200	0.517100	0.502300
C2301	C230	0.175380	0.403000	0.576900
H1461	H146	0.152300	0.377200	0.574900
C2311	C231	0.389100	0.539500	0.189300
H1471	H147	0.392700	0.488200	0.150800
C2321	C232	0.155900	0.007400	0.814500
C2331	C233	0.242980	0.473700	0.575900
H1481	H148	0.266600	0.494900	0.573600
C2341	C234	0.356770	0.549100	0.230800
H1491	H149	0.338900	0.502300	0.220000
O411	O41	0.081010	0.298200	0.590600
O421	O42	0.041770	0.198400	0.651100
O431	O43	0.457010	0.516200	0.122400
O441	O44	0.475270	0.658900	0.181100
O451	O45	0.124620	0.023700	0.852500
H1501	H150	0.118000	0.972000	0.875500
O461	O46	0.171160	0.931800	0.817300
O471	O47	0.009800	0.362900	0.507200
O481	O48	0.044800	0.380600	0.770800
N61	N6	0.224430	0.616800	0.489400
Mn71	Mn7	0.471640	0.364030	0.138800
C2351	C235	0.246080	0.622900	0.935200
C2361	C236	0.185520	0.627500	0.834100
C2371	C237	0.309960	0.267200	0.176900
C2381	C238	0.337980	0.871100	0.050000
C2391	C239	0.300190	0.353600	0.124800
C2401	C240	0.237600	0.540900	0.885000
H1511	H151	0.252300	0.484600	0.884000
C2411	C241	0.194100	0.708100	0.882800
H1521	H152	0.179500	0.764600	0.882400
C2421	C242	0.303550	0.772300	0.950500
H1531	H153	0.294600	0.765100	0.896600
C2431	C243	0.374700	0.132800	0.047400
H1541	H154	0.369300	0.194400	0.023200
C2441	C244	0.359660	0.958300	0.069600
C2451	C245	0.084850	0.606600	0.706100
C2461	C246	0.149990	0.622600	0.785800
C2471	C247	0.405110	0.123600	0.097900
C2481	C248	0.224390	0.706400	0.932700
H1551	H155	0.230100	0.762200	0.964900
C2491	C249	0.296370	0.702000	0.009700
C2501	C250	0.411540	0.032100	0.137500
H1561	H156	0.430700	0.025800	0.174000
C2511	C251	0.300700	0.101000	0.231500
H1571	H157	0.286000	0.044900	0.235100
C2521	C252	0.289270	0.184200	0.187600
H1581	H158	0.266500	0.183500	0.164400
C2531	C253	0.206910	0.544600	0.836300
H1591	H159	0.200800	0.489000	0.804300
C2541	C254	0.265690	0.390400	0.122800
H1601	H160	0.248000	0.358400	0.153700
C2551	C255	0.352400	0.049600	0.032900
H1611	H161	0.332600	0.056300	0.998200
C2561	C256	0.389470	0.950600	0.122500
H1621	H162	0.394500	0.889600	0.148100
C2571	C257	0.091300	0.683200	0.761500
H1631	H163	0.073600	0.729700	0.773600
C2581	C258	0.329750	0.798000	0.110400
H1641	H164	0.338300	0.805500	0.164600
C2591	C259	0.282260	0.525000	0.033100
C2601	C260	0.309300	0.715600	0.091000
H1651	H165	0.304000	0.668600	0.132200
C2611	C261	0.048100	0.591800	0.669200
C2621	C262	0.428600	0.212600	0.112900
C2631	C263	0.342700	0.264900	0.218100
H1661	H166	0.357400	0.320900	0.214400
C2641	C264	0.333500	0.100100	0.269900
C2651	C265	0.325060	0.857800	0.971500
H1671	H167	0.330200	0.905000	0.930500
C2661	C266	0.124290	0.690500	0.798900
H1681	H168	0.128800	0.744200	0.834400
C2671	C267	0.354100	0.185300	0.263200
H1691	H169	0.376100	0.188100	0.289900
C2681	C268	0.317870	0.485700	0.032700
H1701	H170	0.335800	0.517100	0.002300
C2691	C269	0.324620	0.403000	0.076900
H1711	H171	0.347700	0.377200	0.074900
C2701	C270	0.110900	0.539500	0.689300
H1721	H172	0.107300	0.488200	0.650800
C2711	C271	0.344100	0.007400	0.314500
C2721	C272	0.257020	0.473700	0.075900
H1731	H173	0.233400	0.494900	0.073600
C2731	C273	0.143230	0.549100	0.730800
H1741	H174	0.161100	0.502300	0.720000
O491	O49	0.418990	0.298200	0.090600
O501	O50	0.458230	0.198400	0.151100
O511	O51	0.042990	0.516200	0.622400
O521	O52	0.024730	0.658900	0.681100
O531	O53	0.375380	0.023700	0.352500
H1751	H175	0.382000	0.972000	0.375500
O541	O54	0.328840	0.931800	0.317300
O551	O55	0.490200	0.362900	0.007200
O561	O56	0.455200	0.380600	0.270800
N71	N7	0.275570	0.616800	0.989400
Mn81	Mn8	0.528360	0.635970	0.138800
C2741	C274	0.753920	0.377100	0.935200
C2751	C275	0.814480	0.372500	0.834100
C2761	C276	0.690040	0.732800	0.176900
C2771	C277	0.662020	0.128900	0.050000
C2781	C278	0.699810	0.646400	0.124800
C2791	C279	0.762400	0.459100	0.885000
H1761	H176	0.747700	0.515400	0.884000
C2801	C280	0.805900	0.291900	0.882800
H1771	H177	0.820500	0.235400	0.882400
C2811	C281	0.696450	0.227700	0.950500
H1781	H178	0.705400	0.234900	0.896600
C2821	C282	0.625300	0.867200	0.047400
H1791	H179	0.630700	0.805600	0.023200
C2831	C283	0.640340	0.041700	0.069600
C2841	C284	0.915150	0.393400	0.706100
C2851	C285	0.850010	0.377400	0.785800
C2861	C286	0.594890	0.876400	0.097900
C2871	C287	0.775610	0.293600	0.932700
H1801	H180	0.769900	0.237800	0.964900
C2881	C288	0.703630	0.298000	0.009700
C2891	C289	0.588460	0.967900	0.137500
H1811	H181	0.569300	0.974200	0.174000
C2901	C290	0.699300	0.899000	0.231500
H1821	H182	0.714000	0.955100	0.235100
C2911	C291	0.710730	0.815800	0.187600
H1831	H183	0.733500	0.816500	0.164400
C2921	C292	0.793090	0.455400	0.836300
H1841	H184	0.799200	0.511000	0.804300
C2931	C293	0.734310	0.609600	0.122800
H1851	H185	0.752000	0.641600	0.153700
C2941	C294	0.647600	0.950400	0.032900
H1861	H186	0.667400	0.943700	0.998200
C2951	C295	0.610530	0.049400	0.122500
H1871	H187	0.605500	0.110400	0.148100
C2961	C296	0.908700	0.316800	0.761500
H1881	H188	0.926400	0.270300	0.773600
C2971	C297	0.670250	0.202000	0.110400
H1891	H189	0.661700	0.194500	0.164600
C2981	C298	0.717740	0.475000	0.033100
C2991	C299	0.690700	0.284400	0.091000
H1901	H190	0.696000	0.331400	0.132200
C3001	C300	0.951900	0.408200	0.669200
C3011	C301	0.571400	0.787400	0.112900
C3021	C302	0.657300	0.735100	0.218100
H1911	H191	0.642600	0.679100	0.214400
C3031	C303	0.666500	0.899900	0.269900
C3041	C304	0.674940	0.142200	0.971500
H1921	H192	0.669800	0.095000	0.930500
C3051	C305	0.875710	0.309500	0.798900
H1931	H193	0.871200	0.255800	0.834400
C3061	C306	0.645900	0.814700	0.263200
H1941	H194	0.623900	0.811900	0.289900
C3071	C307	0.682130	0.514300	0.032700
H1951	H195	0.664200	0.482900	0.002300
C3081	C308	0.675380	0.597000	0.076900
H1961	H196	0.652300	0.622800	0.074900
C3091	C309	0.889100	0.460500	0.689300
H1971	H197	0.892700	0.511800	0.650800
C3101	C310	0.655900	0.992600	0.314500
C3111	C311	0.742980	0.526300	0.075900
H1981	H198	0.766600	0.505100	0.073600
C3121	C312	0.856770	0.450900	0.730800
H1991	H199	0.838900	0.497700	0.720000
O571	O57	0.581010	0.701800	0.090600
O581	O58	0.541770	0.801600	0.151100
O591	O59	0.957010	0.483800	0.622400
O601	O60	0.975270	0.341100	0.681100
O611	O61	0.624620	0.976300	0.352500
H2001	H200	0.618000	0.028000	0.375500
O621	O62	0.671160	0.068200	0.317300
O631	O63	0.509800	0.637100	0.007200
O641	O64	0.544800	0.619400	0.270800
N81	N8	0.724430	0.383200	0.989400
