data_DADPAC_freeONLY_PM
_symmetry_space_group_name_H-M	'P1'
_cell_length_a	15.498000
_cell_length_b	16.400000
_cell_length_c	12.660000
_cell_angle_alpha	90.000000
_cell_angle_beta	93.360000
_cell_angle_gamma	90.000000
_symmetry_Int_Tables_number 1

loop_
_symmetry_equiv_pos_as_xyz
'x,y,z'

loop_
_atom_site_label
_atom_site_type_symbol
_atom_site_fract_x
_atom_site_fract_y
_atom_site_fract_z
Sm11	Sm1	0.122570	0.190190	0.913780
S11	S1	0.108220	0.219110	0.667770
S21	S2	0.182080	0.350540	0.074580
O11	O1	0.053800	0.062900	0.901500
O21	O2	0.103500	0.141600	0.729400
O31	O3	0.086100	0.142700	0.079000
O41	O4	0.025200	0.234300	0.609700
O51	O5	0.124600	0.325600	0.986000
O61	O6	0.123600	0.282300	0.749900
O71	O7	0.075100	0.040200	0.186000
O81	O8	0.177400	0.217200	0.598100
O91	O9	0.253400	0.400600	0.042900
C11	C1	0.063600	0.072700	0.096900
O101	O10	0.131300	0.389100	0.152800
O111	O11	0.225100	0.275500	0.117900
C21	C2	0.036800	0.023100	0.996000
H11	H1	0.081300	0.980600	0.998500
Sm21	Sm2	0.622570	0.690190	0.913780
S31	S3	0.608220	0.719110	0.667770
S41	S4	0.682080	0.850540	0.074580
O121	O12	0.553800	0.562900	0.901500
O131	O13	0.603500	0.641600	0.729400
O141	O14	0.586100	0.642700	0.079000
O151	O15	0.525200	0.734300	0.609700
O161	O16	0.624600	0.825600	0.986000
O171	O17	0.623600	0.782300	0.749900
O181	O18	0.575100	0.540200	0.186000
O191	O19	0.677400	0.717200	0.598100
O201	O20	0.753400	0.900600	0.042900
C31	C3	0.563600	0.572700	0.096900
O211	O21	0.631300	0.889100	0.152800
O221	O22	0.725100	0.775500	0.117900
C41	C4	0.536800	0.523100	0.996000
H21	H2	0.581300	0.480600	0.998500
Sm31	Sm3	0.877430	0.190190	0.586220
S51	S5	0.891780	0.219110	0.832230
S61	S6	0.817920	0.350540	0.425420
O231	O23	0.946200	0.062900	0.598500
O241	O24	0.896500	0.141600	0.770600
O251	O25	0.913900	0.142700	0.421000
O261	O26	0.974800	0.234300	0.890300
O271	O27	0.875400	0.325600	0.514000
O281	O28	0.876400	0.282300	0.750100
O291	O29	0.924900	0.040200	0.314000
O301	O30	0.822600	0.217200	0.901900
O311	O31	0.746600	0.400600	0.457100
C51	C5	0.936400	0.072700	0.403100
O321	O32	0.868700	0.389100	0.347200
O331	O33	0.774900	0.275500	0.382100
C61	C6	0.963200	0.023100	0.504000
H31	H3	0.918700	0.980600	0.501500
Sm41	Sm4	0.377430	0.690190	0.586220
S71	S7	0.391780	0.719110	0.832230
S81	S8	0.317920	0.850540	0.425420
O341	O34	0.446200	0.562900	0.598500
O351	O35	0.396500	0.641600	0.770600
O361	O36	0.413900	0.642700	0.421000
O371	O37	0.474800	0.734300	0.890300
O381	O38	0.375400	0.825600	0.514000
O391	O39	0.376400	0.782300	0.750100
O401	O40	0.424900	0.540200	0.314000
O411	O41	0.322600	0.717200	0.901900
O421	O42	0.246600	0.900600	0.457100
C71	C7	0.436400	0.572700	0.403100
O431	O43	0.368700	0.889100	0.347200
O441	O44	0.274900	0.775500	0.382100
C81	C8	0.463200	0.523100	0.504000
H41	H4	0.418700	0.480600	0.501500
Sm51	Sm5	0.877430	0.809810	0.086220
S91	S9	0.891780	0.780890	0.332230
S101	S10	0.817920	0.649460	0.925420
O451	O45	0.946200	0.937100	0.098500
O461	O46	0.896500	0.858400	0.270600
O471	O47	0.913900	0.857300	0.921000
O481	O48	0.974800	0.765700	0.390300
O491	O49	0.875400	0.674400	0.014000
O501	O50	0.876400	0.717700	0.250100
O511	O51	0.924900	0.959800	0.814000
O521	O52	0.822600	0.782800	0.401900
O531	O53	0.746600	0.599400	0.957100
C91	C9	0.936400	0.927300	0.903100
O541	O54	0.868700	0.610900	0.847200
O551	O55	0.774900	0.724500	0.882100
C101	C10	0.963200	0.976900	0.004000
H51	H5	0.918700	0.019400	0.001500
Sm61	Sm6	0.377430	0.309810	0.086220
S111	S11	0.391780	0.280890	0.332230
S121	S12	0.317920	0.149460	0.925420
O561	O56	0.446200	0.437100	0.098500
O571	O57	0.396500	0.358400	0.270600
O581	O58	0.413900	0.357300	0.921000
O591	O59	0.474800	0.265700	0.390300
O601	O60	0.375400	0.174400	0.014000
O611	O61	0.376400	0.217700	0.250100
O621	O62	0.424900	0.459800	0.814000
O631	O63	0.322600	0.282800	0.401900
O641	O64	0.246600	0.099400	0.957100
C111	C11	0.436400	0.427300	0.903100
O651	O65	0.368700	0.110900	0.847200
O661	O66	0.274900	0.224500	0.882100
C121	C12	0.463200	0.476900	0.004000
H61	H6	0.418700	0.519400	0.001500
Sm71	Sm7	0.122570	0.809810	0.413780
S131	S13	0.108220	0.780890	0.167770
S141	S14	0.182080	0.649460	0.574580
O671	O67	0.053800	0.937100	0.401500
O681	O68	0.103500	0.858400	0.229400
O691	O69	0.086100	0.857300	0.579000
O701	O70	0.025200	0.765700	0.109700
O711	O71	0.124600	0.674400	0.486000
O721	O72	0.123600	0.717700	0.249900
O731	O73	0.075100	0.959800	0.686000
O741	O74	0.177400	0.782800	0.098100
O751	O75	0.253400	0.599400	0.542900
C131	C13	0.063600	0.927300	0.596900
O761	O76	0.131300	0.610900	0.652800
O771	O77	0.225100	0.724500	0.617900
C141	C14	0.036800	0.976900	0.496000
H71	H7	0.081300	0.019400	0.498500
Sm81	Sm8	0.622570	0.309810	0.413780
S151	S15	0.608220	0.280890	0.167770
S161	S16	0.682080	0.149460	0.574580
O781	O78	0.553800	0.437100	0.401500
O791	O79	0.603500	0.358400	0.229400
O801	O80	0.586100	0.357300	0.579000
O811	O81	0.525200	0.265700	0.109700
O821	O82	0.624600	0.174400	0.486000
O831	O83	0.623600	0.217700	0.249900
O841	O84	0.575100	0.459800	0.686000
O851	O85	0.677400	0.282800	0.098100
O861	O86	0.753400	0.099400	0.542900
C151	C15	0.563600	0.427300	0.596900
O871	O87	0.631300	0.110900	0.652800
O881	O88	0.725100	0.224500	0.617900
C161	C16	0.536800	0.476900	0.496000
H81	H8	0.581300	0.519400	0.498500
Fe11	Fe1	0.000000	0.050610	0.750000
Fe21	Fe2	0.500000	0.550610	0.750000
Fe31	Fe3	0.000000	0.949390	0.250000
Fe41	Fe4	0.500000	0.449390	0.250000
