data_DAFHID_freeONLY_PM
_symmetry_space_group_name_H-M	'P1'
_cell_length_a	15.491200
_cell_length_b	11.668700
_cell_length_c	23.750200
_cell_angle_alpha	90.000000
_cell_angle_beta	90.000000
_cell_angle_gamma	90.000000
_symmetry_Int_Tables_number 1

loop_
_symmetry_equiv_pos_as_xyz
'x,y,z'

loop_
_atom_site_label
_atom_site_type_symbol
_atom_site_fract_x
_atom_site_fract_y
_atom_site_fract_z
Ni11	Ni1	0.046980	0.357330	0.123110
O11	O1	0.157950	0.287410	0.083860
O21	O2	0.098920	0.449450	0.056840
O31	O3	0.442790	0.158310	0.001530
O41	O4	0.467050	0.242710	0.918020
O51	O5	0.864270	0.900190	0.305510
O61	O6	0.952860	0.754460	0.307100
O71	O7	0.926890	0.550960	0.066800
O81	O8	0.960810	0.471850	0.150590
C11	C1	0.239190	0.399900	0.019920
C21	C2	0.300050	0.314200	0.012630
H11	H1	0.291800	0.243500	0.029900
C31	C3	0.372950	0.332000	0.980020
C41	C4	0.386500	0.441400	0.957760
H21	H2	0.435500	0.455800	0.936300
C51	C5	0.327940	0.528100	0.967320
H31	H3	0.339100	0.601300	0.953800
C61	C6	0.252140	0.506900	0.997140
H41	H4	0.211000	0.564200	0.001600
C71	C7	0.161410	0.376200	0.054260
C81	C8	0.433570	0.235100	0.966010
C91	C9	0.863430	0.772700	0.226840
C101	C10	0.900810	0.676800	0.201730
H51	H5	0.942500	0.635400	0.221200
C111	C11	0.876850	0.642300	0.148210
C121	C12	0.812980	0.701800	0.120970
H61	H6	0.796300	0.679000	0.085100
C131	C13	0.772830	0.795100	0.145690
H71	H7	0.728900	0.833500	0.126900
C141	C14	0.798690	0.830600	0.198770
H81	H8	0.772400	0.893600	0.215500
C151	C15	0.893560	0.812100	0.283590
C161	C16	0.925020	0.546300	0.119370
Ni21	Ni2	0.453020	0.642670	0.623110
O91	O9	0.342050	0.712590	0.583860
O101	O10	0.401080	0.550550	0.556840
O111	O11	0.057210	0.841690	0.501530
O121	O12	0.032950	0.757290	0.418020
O131	O13	0.635730	0.099810	0.805510
O141	O14	0.547140	0.245540	0.807100
O151	O15	0.573110	0.449040	0.566800
O161	O16	0.539190	0.528150	0.650590
C171	C17	0.260810	0.600100	0.519920
C181	C18	0.199950	0.685800	0.512630
H91	H9	0.208200	0.756500	0.529900
C191	C19	0.127050	0.668000	0.480020
C201	C20	0.113500	0.558600	0.457760
H101	H10	0.064500	0.544200	0.436300
C211	C21	0.172060	0.471900	0.467320
H111	H11	0.160900	0.398700	0.453800
C221	C22	0.247860	0.493100	0.497140
H121	H12	0.289000	0.435800	0.501600
C231	C23	0.338590	0.623800	0.554260
C241	C24	0.066430	0.764900	0.466010
C251	C25	0.636570	0.227300	0.726840
C261	C26	0.599190	0.323200	0.701730
H131	H13	0.557500	0.364600	0.721200
C271	C27	0.623150	0.357700	0.648210
C281	C28	0.687020	0.298200	0.620970
H141	H14	0.703700	0.321000	0.585100
C291	C29	0.727170	0.204900	0.645690
H151	H15	0.771100	0.166500	0.626900
C301	C30	0.701310	0.169400	0.698770
H161	H16	0.727600	0.106400	0.715500
C311	C31	0.606440	0.187900	0.783590
C321	C32	0.574980	0.453700	0.619370
Ni31	Ni3	0.953020	0.857330	0.376890
O171	O17	0.842050	0.787410	0.416140
O181	O18	0.901080	0.949450	0.443160
O191	O19	0.557210	0.658310	0.498470
O201	O20	0.532950	0.742710	0.581980
O211	O21	0.135730	0.400190	0.194490
O221	O22	0.047140	0.254460	0.192900
O231	O23	0.073110	0.050960	0.433200
O241	O24	0.039190	0.971850	0.349410
C331	C33	0.760810	0.899900	0.480080
C341	C34	0.699950	0.814200	0.487370
H171	H17	0.708200	0.743500	0.470100
C351	C35	0.627050	0.832000	0.519980
C361	C36	0.613500	0.941400	0.542240
H181	H18	0.564500	0.955800	0.563700
C371	C37	0.672060	0.028100	0.532680
H191	H19	0.660900	0.101300	0.546200
C381	C38	0.747860	0.006900	0.502860
H201	H20	0.789000	0.064200	0.498400
C391	C39	0.838590	0.876200	0.445740
C401	C40	0.566430	0.735100	0.533990
C411	C41	0.136570	0.272700	0.273160
C421	C42	0.099190	0.176800	0.298270
H211	H21	0.057500	0.135400	0.278800
C431	C43	0.123150	0.142300	0.351790
C441	C44	0.187020	0.201800	0.379030
H221	H22	0.203700	0.179000	0.414900
C451	C45	0.227170	0.295100	0.354310
H231	H23	0.271100	0.333500	0.373100
C461	C46	0.201310	0.330600	0.301230
H241	H24	0.227600	0.393600	0.284500
C471	C47	0.106440	0.312100	0.216410
C481	C48	0.074980	0.046300	0.380630
Ni41	Ni4	0.546980	0.142670	0.876890
O251	O25	0.657950	0.212590	0.916140
O261	O26	0.598920	0.050550	0.943160
O271	O27	0.942790	0.341690	0.998470
O281	O28	0.967050	0.257290	0.081980
O291	O29	0.364270	0.599810	0.694490
O301	O30	0.452860	0.745540	0.692900
O311	O31	0.426890	0.949040	0.933200
O321	O32	0.460810	0.028150	0.849410
C491	C49	0.739190	0.100100	0.980080
C501	C50	0.800050	0.185800	0.987370
H251	H25	0.791800	0.256500	0.970100
C511	C51	0.872950	0.168000	0.019980
C521	C52	0.886500	0.058600	0.042240
H261	H26	0.935500	0.044200	0.063700
C531	C53	0.827940	0.971900	0.032680
H271	H27	0.839100	0.898700	0.046200
C541	C54	0.752140	0.993100	0.002860
H281	H28	0.711000	0.935800	0.998400
C551	C55	0.661410	0.123800	0.945740
C561	C56	0.933570	0.264900	0.033990
C571	C57	0.363430	0.727300	0.773160
C581	C58	0.400810	0.823200	0.798270
H291	H29	0.442500	0.864600	0.778800
C591	C59	0.376850	0.857700	0.851790
C601	C60	0.312980	0.798200	0.879030
H301	H30	0.296300	0.821000	0.914900
C611	C61	0.272830	0.704900	0.854310
H311	H31	0.228900	0.666500	0.873100
C621	C62	0.298690	0.669400	0.801230
H321	H32	0.272400	0.606400	0.784500
C631	C63	0.393560	0.687900	0.716410
C641	C64	0.425020	0.953700	0.880630
Ni51	Ni5	0.953020	0.642670	0.876890
O331	O33	0.842050	0.712590	0.916140
O341	O34	0.901080	0.550550	0.943160
O351	O35	0.557210	0.841690	0.998470
O361	O36	0.532950	0.757290	0.081980
O371	O37	0.135730	0.099810	0.694490
O381	O38	0.047140	0.245540	0.692900
O391	O39	0.073110	0.449040	0.933200
O401	O40	0.039190	0.528150	0.849410
C651	C65	0.760810	0.600100	0.980080
C661	C66	0.699950	0.685800	0.987370
H331	H33	0.708200	0.756500	0.970100
C671	C67	0.627050	0.668000	0.019980
C681	C68	0.613500	0.558600	0.042240
H341	H34	0.564500	0.544200	0.063700
C691	C69	0.672060	0.471900	0.032680
H351	H35	0.660900	0.398700	0.046200
C701	C70	0.747860	0.493100	0.002860
H361	H36	0.789000	0.435800	0.998400
C711	C71	0.838590	0.623800	0.945740
C721	C72	0.566430	0.764900	0.033990
C731	C73	0.136570	0.227300	0.773160
C741	C74	0.099190	0.323200	0.798270
H371	H37	0.057500	0.364600	0.778800
C751	C75	0.123150	0.357700	0.851790
C761	C76	0.187020	0.298200	0.879030
H381	H38	0.203700	0.321000	0.914900
C771	C77	0.227170	0.204900	0.854310
H391	H39	0.271100	0.166500	0.873100
C781	C78	0.201310	0.169400	0.801230
H401	H40	0.227600	0.106400	0.784500
C791	C79	0.106440	0.187900	0.716410
C801	C80	0.074980	0.453700	0.880630
Ni61	Ni6	0.546980	0.357330	0.376890
O411	O41	0.657950	0.287410	0.416140
O421	O42	0.598920	0.449450	0.443160
O431	O43	0.942790	0.158310	0.498470
O441	O44	0.967050	0.242710	0.581980
O451	O45	0.364270	0.900190	0.194490
O461	O46	0.452860	0.754460	0.192900
O471	O47	0.426890	0.550960	0.433200
O481	O48	0.460810	0.471850	0.349410
C811	C81	0.739190	0.399900	0.480080
C821	C82	0.800050	0.314200	0.487370
H411	H41	0.791800	0.243500	0.470100
C831	C83	0.872950	0.332000	0.519980
C841	C84	0.886500	0.441400	0.542240
H421	H42	0.935500	0.455800	0.563700
C851	C85	0.827940	0.528100	0.532680
H431	H43	0.839100	0.601300	0.546200
C861	C86	0.752140	0.506900	0.502860
H441	H44	0.711000	0.564200	0.498400
C871	C87	0.661410	0.376200	0.445740
C881	C88	0.933570	0.235100	0.533990
C891	C89	0.363430	0.772700	0.273160
C901	C90	0.400810	0.676800	0.298270
H451	H45	0.442500	0.635400	0.278800
C911	C91	0.376850	0.642300	0.351790
C921	C92	0.312980	0.701800	0.379030
H461	H46	0.296300	0.679000	0.414900
C931	C93	0.272830	0.795100	0.354310
H471	H47	0.228900	0.833500	0.373100
C941	C94	0.298690	0.830600	0.301230
H481	H48	0.272400	0.893600	0.284500
C951	C95	0.393560	0.812100	0.216410
C961	C96	0.425020	0.546300	0.380630
Ni71	Ni7	0.046980	0.142670	0.623110
O491	O49	0.157950	0.212590	0.583860
O501	O50	0.098920	0.050550	0.556840
O511	O51	0.442790	0.341690	0.501530
O521	O52	0.467050	0.257290	0.418020
O531	O53	0.864270	0.599810	0.805510
O541	O54	0.952860	0.745540	0.807100
O551	O55	0.926890	0.949040	0.566800
O561	O56	0.960810	0.028150	0.650590
C971	C97	0.239190	0.100100	0.519920
C981	C98	0.300050	0.185800	0.512630
H491	H49	0.291800	0.256500	0.529900
C991	C99	0.372950	0.168000	0.480020
C1001	C100	0.386500	0.058600	0.457760
H501	H50	0.435500	0.044200	0.436300
C1011	C101	0.327940	0.971900	0.467320
H511	H51	0.339100	0.898700	0.453800
C1021	C102	0.252140	0.993100	0.497140
H521	H52	0.211000	0.935800	0.501600
C1031	C103	0.161410	0.123800	0.554260
C1041	C104	0.433570	0.264900	0.466010
C1051	C105	0.863430	0.727300	0.726840
C1061	C106	0.900810	0.823200	0.701730
H531	H53	0.942500	0.864600	0.721200
C1071	C107	0.876850	0.857700	0.648210
C1081	C108	0.812980	0.798200	0.620970
H541	H54	0.796300	0.821000	0.585100
C1091	C109	0.772830	0.704900	0.645690
H551	H55	0.728900	0.666500	0.626900
C1101	C110	0.798690	0.669400	0.698770
H561	H56	0.772400	0.606400	0.715500
C1111	C111	0.893560	0.687900	0.783590
C1121	C112	0.925020	0.953700	0.619370
Ni81	Ni8	0.453020	0.857330	0.123110
O571	O57	0.342050	0.787410	0.083860
O581	O58	0.401080	0.949450	0.056840
O591	O59	0.057210	0.658310	0.001530
O601	O60	0.032950	0.742710	0.918020
O611	O61	0.635730	0.400190	0.305510
O621	O62	0.547140	0.254460	0.307100
O631	O63	0.573110	0.050960	0.066800
O641	O64	0.539190	0.971850	0.150590
C1131	C113	0.260810	0.899900	0.019920
C1141	C114	0.199950	0.814200	0.012630
H571	H57	0.208200	0.743500	0.029900
C1151	C115	0.127050	0.832000	0.980020
C1161	C116	0.113500	0.941400	0.957760
H581	H58	0.064500	0.955800	0.936300
C1171	C117	0.172060	0.028100	0.967320
H591	H59	0.160900	0.101300	0.953800
C1181	C118	0.247860	0.006900	0.997140
H601	H60	0.289000	0.064200	0.001600
C1191	C119	0.338590	0.876200	0.054260
C1201	C120	0.066430	0.735100	0.966010
C1211	C121	0.636570	0.272700	0.226840
C1221	C122	0.599190	0.176800	0.201730
H611	H61	0.557500	0.135400	0.221200
C1231	C123	0.623150	0.142300	0.148210
C1241	C124	0.687020	0.201800	0.120970
H621	H62	0.703700	0.179000	0.085100
C1251	C125	0.727170	0.295100	0.145690
H631	H63	0.771100	0.333500	0.126900
C1261	C126	0.701310	0.330600	0.198770
H641	H64	0.727600	0.393600	0.215500
C1271	C127	0.606440	0.312100	0.283590
C1281	C128	0.574980	0.046300	0.119370
Ni91	Ni9	0.000000	0.500000	0.000000
Ni101	Ni10	0.500000	0.500000	0.500000
Ni111	Ni11	0.000000	0.000000	0.500000
Ni121	Ni12	0.500000	0.000000	0.000000
