data_DAFHOJ_freeONLY_PM
_symmetry_space_group_name_H-M	'P1'
_cell_length_a	13.092000
_cell_length_b	14.490000
_cell_length_c	12.640000
_cell_angle_alpha	90.000000
_cell_angle_beta	116.850000
_cell_angle_gamma	90.000000
_symmetry_Int_Tables_number 1

loop_
_symmetry_equiv_pos_as_xyz
'x,y,z'

loop_
_atom_site_label
_atom_site_type_symbol
_atom_site_fract_x
_atom_site_fract_y
_atom_site_fract_z
Mn11	Mn1	0.271350	0.442890	0.244770
O11	O1	0.971500	0.056900	0.328300
O21	O2	0.818400	0.001000	0.171700
O31	O3	0.192800	0.304700	0.254800
O41	O4	0.116400	0.381700	0.086900
O51	O5	0.144200	0.573500	0.005500
O61	O6	0.307900	0.560900	0.172200
O71	O7	0.583900	0.835100	0.255400
O81	O8	0.574000	0.910900	0.099300
C11	C1	0.935800	0.105900	0.135000
C21	C2	0.014000	0.177600	0.177900
H11	H1	0.055400	0.186500	0.259200
C31	C3	0.031400	0.236700	0.099800
C41	C4	0.971800	0.223000	0.978000
H21	H2	0.982600	0.262400	0.925700
C51	C5	0.895200	0.148600	0.935600
H31	H3	0.855600	0.137600	0.854500
C61	C6	0.878300	0.091700	0.013600
H41	H4	0.827200	0.042600	0.984100
C71	C7	0.908800	0.049000	0.219200
C81	C8	0.118000	0.312600	0.150400
C91	C9	0.293400	0.674700	0.030300
C101	C10	0.391900	0.722900	0.107600
H51	H5	0.429000	0.707000	0.187500
C111	C11	0.434500	0.794500	0.065300
C121	C12	0.379900	0.816100	0.944000
H61	H6	0.408900	0.862900	0.915000
C131	C13	0.283400	0.768200	0.867500
H71	H7	0.248000	0.782100	0.787000
C141	C14	0.239500	0.698900	0.911600
H81	H8	0.172800	0.668500	0.860500
C151	C15	0.243700	0.597700	0.071900
C161	C16	0.537700	0.849100	0.146900
Mn21	Mn2	0.728650	0.942890	0.255230
O91	O9	0.028500	0.556900	0.171700
O101	O10	0.181600	0.501000	0.328300
O111	O11	0.807200	0.804700	0.245200
O121	O12	0.883600	0.881700	0.413100
O131	O13	0.855800	0.073500	0.494500
O141	O14	0.692100	0.060900	0.327800
O151	O15	0.416100	0.335100	0.244600
O161	O16	0.426000	0.410900	0.400700
C171	C17	0.064200	0.605900	0.365000
C181	C18	0.986000	0.677600	0.322100
H91	H9	0.944600	0.686500	0.240800
C191	C19	0.968600	0.736700	0.400200
C201	C20	0.028200	0.723000	0.522000
H101	H10	0.017400	0.762400	0.574300
C211	C21	0.104800	0.648600	0.564400
H111	H11	0.144400	0.637600	0.645500
C221	C22	0.121700	0.591700	0.486400
H121	H12	0.172800	0.542600	0.515900
C231	C23	0.091200	0.549000	0.280800
C241	C24	0.882000	0.812600	0.349600
C251	C25	0.706600	0.174700	0.469700
C261	C26	0.608100	0.222900	0.392400
H131	H13	0.571000	0.207000	0.312500
C271	C27	0.565500	0.294500	0.434700
C281	C28	0.620100	0.316100	0.556000
H141	H14	0.591100	0.362900	0.585000
C291	C29	0.716600	0.268200	0.632500
H151	H15	0.752000	0.282100	0.713000
C301	C30	0.760500	0.198900	0.588400
H161	H16	0.827200	0.168500	0.639500
C311	C31	0.756300	0.097700	0.428100
C321	C32	0.462300	0.349100	0.353100
Mn31	Mn3	0.728650	0.557110	0.755230
O171	O17	0.028500	0.943100	0.671700
O181	O18	0.181600	0.999000	0.828300
O191	O19	0.807200	0.695300	0.745200
O201	O20	0.883600	0.618300	0.913100
O211	O21	0.855800	0.426500	0.994500
O221	O22	0.692100	0.439100	0.827800
O231	O23	0.416100	0.164900	0.744600
O241	O24	0.426000	0.089100	0.900700
C331	C33	0.064200	0.894100	0.865000
C341	C34	0.986000	0.822400	0.822100
H171	H17	0.944600	0.813500	0.740800
C351	C35	0.968600	0.763300	0.900200
C361	C36	0.028200	0.777000	0.022000
H181	H18	0.017400	0.737600	0.074300
C371	C37	0.104800	0.851400	0.064400
H191	H19	0.144400	0.862400	0.145500
C381	C38	0.121700	0.908300	0.986400
H201	H20	0.172800	0.957400	0.015900
C391	C39	0.091200	0.951000	0.780800
C401	C40	0.882000	0.687400	0.849600
C411	C41	0.706600	0.325300	0.969700
C421	C42	0.608100	0.277100	0.892400
H211	H21	0.571000	0.293000	0.812500
C431	C43	0.565500	0.205500	0.934700
C441	C44	0.620100	0.183900	0.056000
H221	H22	0.591100	0.137100	0.085000
C451	C45	0.716600	0.231800	0.132500
H231	H23	0.752000	0.217900	0.213000
C461	C46	0.760500	0.301100	0.088400
H241	H24	0.827200	0.331500	0.139500
C471	C47	0.756300	0.402300	0.928100
C481	C48	0.462300	0.150900	0.853100
Mn41	Mn4	0.271350	0.057110	0.744770
O251	O25	0.971500	0.443100	0.828300
O261	O26	0.818400	0.499000	0.671700
O271	O27	0.192800	0.195300	0.754800
O281	O28	0.116400	0.118300	0.586900
O291	O29	0.144200	0.926500	0.505500
O301	O30	0.307900	0.939100	0.672200
O311	O31	0.583900	0.664900	0.755400
O321	O32	0.574000	0.589100	0.599300
C491	C49	0.935800	0.394100	0.635000
C501	C50	0.014000	0.322400	0.677900
H251	H25	0.055400	0.313500	0.759200
C511	C51	0.031400	0.263300	0.599800
C521	C52	0.971800	0.277000	0.478000
H261	H26	0.982600	0.237600	0.425700
C531	C53	0.895200	0.351400	0.435600
H271	H27	0.855600	0.362400	0.354500
C541	C54	0.878300	0.408300	0.513600
H281	H28	0.827200	0.457400	0.484100
C551	C55	0.908800	0.451000	0.719200
C561	C56	0.118000	0.187400	0.650400
C571	C57	0.293400	0.825300	0.530300
C581	C58	0.391900	0.777100	0.607600
H291	H29	0.429000	0.793000	0.687500
C591	C59	0.434500	0.705500	0.565300
C601	C60	0.379900	0.683900	0.444000
H301	H30	0.408900	0.637100	0.415000
C611	C61	0.283400	0.731800	0.367500
H311	H31	0.248000	0.717900	0.287000
C621	C62	0.239500	0.801100	0.411600
H321	H32	0.172800	0.831500	0.360500
C631	C63	0.243700	0.902300	0.571900
C641	C64	0.537700	0.650900	0.646900
Mn51	Mn5	0.000000	0.500000	0.000000
Mn61	Mn6	0.000000	0.000000	0.500000
