data_DAFTIQ_freeONLY_PM
_symmetry_space_group_name_H-M	'P1'
_cell_length_a	11.082600
_cell_length_b	9.150400
_cell_length_c	19.496400
_cell_angle_alpha	93.727300
_cell_angle_beta	91.308800
_cell_angle_gamma	117.621000
_symmetry_Int_Tables_number 1

loop_
_symmetry_equiv_pos_as_xyz
'x,y,z'

loop_
_atom_site_label
_atom_site_type_symbol
_atom_site_fract_x
_atom_site_fract_y
_atom_site_fract_z
Zn11	Zn1	0.416870	0.329720	0.529330
Zn21	Zn2	0.145480	0.705710	0.011830
Zn31	Zn3	0.600260	0.656960	0.476180
Zn41	Zn4	0.816280	0.261610	0.991070
Zn51	Zn5	0.492760	0.987640	0.491330
Zn61	Zn6	0.989650	0.000310	0.004310
O11	O1	0.468240	0.092920	0.602910
O21	O2	0.348020	0.241960	0.625950
O31	O3	0.246150	0.787540	0.927670
O41	O4	0.180410	0.988420	0.954220
N11	N1	0.626030	0.216370	0.443570
N21	N2	0.585860	0.333650	0.464020
N31	N3	0.668520	0.472450	0.434170
C11	C1	0.396640	0.143190	0.642300
C21	C2	0.362400	0.088370	0.713610
C31	C3	0.412360	0.986220	0.739570
H11	H1	0.481320	0.950650	0.707650
C41	C4	0.373560	0.930710	0.804660
H21	H2	0.411210	0.850080	0.824560
C51	C5	0.284700	0.977590	0.845080
C61	C6	0.236830	0.082110	0.819790
H31	H3	0.164760	0.113740	0.851290
C71	C7	0.274700	0.136360	0.754590
H41	H4	0.233950	0.213410	0.733610
C81	C8	0.233870	0.915680	0.913390
C91	C9	0.735230	0.280940	0.400660
H51	H5	0.784930	0.208210	0.377570
C101	C10	0.762110	0.442240	0.394860
H61	H6	0.840070	0.537270	0.366270
N41	N4	0.889780	0.754960	0.987090
N51	N5	0.944860	0.650410	0.995720
N61	N6	0.840730	0.492310	0.982060
C111	C11	0.750180	0.662670	0.968400
H71	H7	0.683840	0.720840	0.959770
C121	C12	0.718910	0.497200	0.965060
H81	H8	0.620250	0.383400	0.952740
O51	O5	0.535020	0.940230	0.400520
O61	O6	0.680400	0.820500	0.384310
O71	O7	0.707340	0.215400	0.070540
O81	O8	0.809520	0.050760	0.046900
N71	N7	0.374920	0.743040	0.542500
N81	N8	0.425530	0.635430	0.522740
N91	N9	0.347130	0.492470	0.550820
C131	C13	0.616570	0.900490	0.363680
C141	C14	0.643110	0.946700	0.290890
C151	C15	0.562930	0.011180	0.259960
H91	H9	0.480490	0.023920	0.290070
C161	C16	0.588210	0.057090	0.192910
H101	H10	0.526370	0.107460	0.168670
C171	C17	0.696450	0.040130	0.156000
C181	C18	0.776070	0.974250	0.186200
H111	H11	0.862090	0.965740	0.156930
C191	C19	0.749560	0.928420	0.253260
H121	H12	0.812250	0.880060	0.277900
C201	C20	0.738230	0.102430	0.087160
C211	C21	0.263260	0.668200	0.583050
H131	H13	0.206720	0.733030	0.605490
C221	C22	0.245590	0.510110	0.588040
H141	H14	0.170240	0.409920	0.615290
O91	O9	0.946960	0.989990	0.883740
O101	O10	0.803130	0.112770	0.888090
O111	O11	0.804580	0.855030	0.519130
O121	O12	0.713120	0.034930	0.527710
C231	C23	0.872400	0.044910	0.855330
C241	C24	0.860920	0.034220	0.776800
C251	C25	0.929000	0.963470	0.732310
H151	H15	0.995780	0.916640	0.754240
C261	C26	0.910690	0.951220	0.659650
H161	H16	0.959480	0.892360	0.624330
C271	C27	0.823720	0.008170	0.630000
C281	C28	0.761170	0.085520	0.674300
H171	H17	0.690630	0.125120	0.650790
C291	C29	0.779270	0.097990	0.746860
H181	H18	0.726700	0.153480	0.781430
C301	C30	0.779310	0.966930	0.553410
O131	O13	0.072140	0.983760	0.098250
O141	O14	0.211640	0.853240	0.093630
O151	O15	0.252000	0.138950	0.458660
O161	O16	0.311260	0.929130	0.448950
C311	C31	0.142300	0.922650	0.126340
C321	C32	0.151510	0.931020	0.204600
C331	C33	0.113470	0.036380	0.248400
H191	H19	0.069510	0.107860	0.225070
C341	C34	0.136030	0.053220	0.320800
H201	H20	0.112220	0.139060	0.355650
C351	C35	0.198480	0.966380	0.350310
C361	C36	0.227510	0.853090	0.306820
H211	H21	0.279230	0.790470	0.331050
C371	C37	0.204100	0.835290	0.234430
H221	H22	0.231550	0.751800	0.199970
C381	C38	0.255320	0.010730	0.424900
N101	N10	0.081800	0.233780	0.043660
N111	N11	0.039950	0.345150	0.026460
N121	N12	0.140620	0.499900	0.050940
C391	C39	0.208880	0.317090	0.079640
H231	H23	0.261900	0.251030	0.099260
C401	C40	0.246640	0.485170	0.084400
H241	H24	0.340170	0.594280	0.108440
