data_DAFTEM_freeONLY_PM
_symmetry_space_group_name_H-M	'P1'
_cell_length_a	9.105400
_cell_length_b	19.380000
_cell_length_c	8.300000
_cell_angle_alpha	90.000000
_cell_angle_beta	111.200000
_cell_angle_gamma	90.000000
_symmetry_Int_Tables_number 1

loop_
_symmetry_equiv_pos_as_xyz
'x,y,z'

loop_
_atom_site_label
_atom_site_type_symbol
_atom_site_fract_x
_atom_site_fract_y
_atom_site_fract_z
Zn11	Zn1	0.341100	0.461460	0.966880
O11	O1	0.045420	0.398250	0.580920
O21	O2	0.202150	0.376940	0.859140
O31	O3	0.823630	0.042780	0.492140
O41	O4	0.009880	0.018990	0.749300
N11	N1	0.247530	0.534620	0.576030
N21	N2	0.346210	0.520740	0.736790
N31	N3	0.490690	0.545460	0.759270
C11	C1	0.108150	0.358360	0.709240
C21	C2	0.071130	0.280810	0.683910
C31	C3	0.947840	0.258260	0.537760
H11	H1	0.883100	0.298040	0.444320
C41	C4	0.909110	0.186590	0.514240
H21	H2	0.813130	0.168630	0.401290
C51	C5	0.993210	0.136490	0.636740
C61	C6	0.119150	0.158980	0.779930
H31	H3	0.179990	0.119560	0.876200
C71	C7	0.157820	0.230650	0.803960
H41	H4	0.252120	0.248710	0.918460
C81	C8	0.941280	0.060840	0.626150
C91	C9	0.329990	0.568160	0.495000
H51	H5	0.276820	0.583900	0.362030
C101	C10	0.481750	0.575180	0.609240
H61	H6	0.582220	0.599380	0.594510
Zn21	Zn2	0.658900	0.961460	0.533120
O51	O5	0.954580	0.898250	0.919080
O61	O6	0.797850	0.876940	0.640860
O71	O7	0.176370	0.542780	0.007860
O81	O8	0.990120	0.518990	0.750700
N41	N4	0.752470	0.034620	0.923970
N51	N5	0.653790	0.020740	0.763210
N61	N6	0.509310	0.045460	0.740730
C111	C11	0.891850	0.858360	0.790760
C121	C12	0.928870	0.780810	0.816090
C131	C13	0.052160	0.758260	0.962240
H71	H7	0.116900	0.798040	0.055680
C141	C14	0.090890	0.686590	0.985760
H81	H8	0.186870	0.668630	0.098710
C151	C15	0.006790	0.636490	0.863260
C161	C16	0.880850	0.658980	0.720070
H91	H9	0.820010	0.619560	0.623800
C171	C17	0.842180	0.730650	0.696040
H101	H10	0.747880	0.748710	0.581540
C181	C18	0.058720	0.560840	0.873850
C191	C19	0.670010	0.068160	0.005000
H111	H11	0.723180	0.083900	0.137970
C201	C20	0.518250	0.075180	0.890760
H121	H12	0.417780	0.099380	0.905490
Zn31	Zn3	0.658900	0.538540	0.033120
O91	O9	0.954580	0.601750	0.419080
O101	O10	0.797850	0.623060	0.140860
O111	O11	0.176370	0.957220	0.507860
O121	O12	0.990120	0.981010	0.250700
N71	N7	0.752470	0.465380	0.423970
N81	N8	0.653790	0.479260	0.263210
N91	N9	0.509310	0.454540	0.240730
C211	C21	0.891850	0.641640	0.290760
C221	C22	0.928870	0.719190	0.316090
C231	C23	0.052160	0.741740	0.462240
H131	H13	0.116900	0.701960	0.555680
C241	C24	0.090890	0.813410	0.485760
H141	H14	0.186870	0.831370	0.598710
C251	C25	0.006790	0.863510	0.363260
C261	C26	0.880850	0.841020	0.220070
H151	H15	0.820010	0.880440	0.123800
C271	C27	0.842180	0.769350	0.196040
H161	H16	0.747880	0.751290	0.081540
C281	C28	0.058720	0.939160	0.373850
C291	C29	0.670010	0.431840	0.505000
H171	H17	0.723180	0.416100	0.637970
C301	C30	0.518250	0.424820	0.390760
H181	H18	0.417780	0.400620	0.405490
Zn41	Zn4	0.341100	0.038540	0.466880
O131	O13	0.045420	0.101750	0.080920
O141	O14	0.202150	0.123060	0.359140
O151	O15	0.823630	0.457220	0.992140
O161	O16	0.009880	0.481010	0.249300
N101	N10	0.247530	0.965380	0.076030
N111	N11	0.346210	0.979260	0.236790
N121	N12	0.490690	0.954540	0.259270
C311	C31	0.108150	0.141640	0.209240
C321	C32	0.071130	0.219190	0.183910
C331	C33	0.947840	0.241740	0.037760
H191	H19	0.883100	0.201960	0.944320
C341	C34	0.909110	0.313410	0.014240
H201	H20	0.813130	0.331370	0.901290
C351	C35	0.993210	0.363510	0.136740
C361	C36	0.119150	0.341020	0.279930
H211	H21	0.179990	0.380440	0.376200
C371	C37	0.157820	0.269350	0.303960
H221	H22	0.252120	0.251290	0.418460
C381	C38	0.941280	0.439160	0.126150
C391	C39	0.329990	0.931840	0.995000
H231	H23	0.276820	0.916100	0.862030
C401	C40	0.481750	0.924820	0.109240
H241	H24	0.582220	0.900620	0.094510
Zn51	Zn5	0.000000	0.500000	0.500000
Zn61	Zn6	0.000000	0.000000	0.000000
