data_DAHNOQ_freeONLY_PM
_symmetry_space_group_name_H-M	'P1'
_cell_length_a	14.184000
_cell_length_b	11.515000
_cell_length_c	15.619000
_cell_angle_alpha	90.000000
_cell_angle_beta	106.633000
_cell_angle_gamma	90.000000
_symmetry_Int_Tables_number 1

loop_
_symmetry_equiv_pos_as_xyz
'x,y,z'

loop_
_atom_site_label
_atom_site_type_symbol
_atom_site_fract_x
_atom_site_fract_y
_atom_site_fract_z
Nd11	Nd1	0.324550	0.357170	0.339830
O11	O1	0.195150	0.239820	0.236000
O21	O2	0.142890	0.066770	0.176520
O31	O3	0.321720	0.977950	0.245620
O41	O4	0.376530	0.150730	0.306940
O51	O5	0.356740	0.220680	0.468630
O61	O6	0.305420	0.146090	0.580190
O71	O7	0.503470	0.364810	0.363260
O81	O8	0.627570	0.365990	0.300230
O91	O9	0.387810	0.465190	0.489830
H11	H1	0.418000	0.534100	0.502200
H21	H2	0.409000	0.416300	0.540800
C11	C1	0.207450	0.134400	0.221880
C21	C2	0.311860	0.083700	0.262030
C31	C3	0.297290	0.211200	0.514240
C41	C4	0.537950	0.364800	0.297780
Nd21	Nd2	0.824550	0.857170	0.339830
O101	O10	0.695150	0.739820	0.236000
O111	O11	0.642890	0.566770	0.176520
O121	O12	0.821720	0.477950	0.245620
O131	O13	0.876530	0.650730	0.306940
O141	O14	0.856740	0.720680	0.468630
O151	O15	0.805420	0.646090	0.580190
O161	O16	0.003470	0.864810	0.363260
O171	O17	0.127570	0.865990	0.300230
O181	O18	0.887810	0.965190	0.489830
H31	H3	0.918000	0.034100	0.502200
H41	H4	0.909000	0.916300	0.540800
C51	C5	0.707450	0.634400	0.221880
C61	C6	0.811860	0.583700	0.262030
C71	C7	0.797290	0.711200	0.514240
C81	C8	0.037950	0.864800	0.297780
Nd31	Nd3	0.675450	0.357170	0.160170
O191	O19	0.804850	0.239820	0.264000
O201	O20	0.857110	0.066770	0.323480
O211	O21	0.678280	0.977950	0.254380
O221	O22	0.623470	0.150730	0.193060
O231	O23	0.643260	0.220680	0.031370
O241	O24	0.694580	0.146090	0.919810
O251	O25	0.496530	0.364810	0.136740
O261	O26	0.372430	0.365990	0.199770
O271	O27	0.612190	0.465190	0.010170
H51	H5	0.582000	0.534100	0.997800
H61	H6	0.591000	0.416300	0.959200
C91	C9	0.792550	0.134400	0.278120
C101	C10	0.688140	0.083700	0.237970
C111	C11	0.702710	0.211200	0.985760
C121	C12	0.462050	0.364800	0.202220
Nd41	Nd4	0.175450	0.857170	0.160170
O281	O28	0.304850	0.739820	0.264000
O291	O29	0.357110	0.566770	0.323480
O301	O30	0.178280	0.477950	0.254380
O311	O31	0.123470	0.650730	0.193060
O321	O32	0.143260	0.720680	0.031370
O331	O33	0.194580	0.646090	0.919810
O341	O34	0.996530	0.864810	0.136740
O351	O35	0.872430	0.865990	0.199770
O361	O36	0.112190	0.965190	0.010170
H71	H7	0.082000	0.034100	0.997800
H81	H8	0.091000	0.916300	0.959200
C131	C13	0.292550	0.634400	0.278120
C141	C14	0.188140	0.583700	0.237970
C151	C15	0.202710	0.711200	0.985760
C161	C16	0.962050	0.864800	0.202220
Nd51	Nd5	0.675450	0.642830	0.660170
O371	O37	0.804850	0.760180	0.764000
O381	O38	0.857110	0.933230	0.823480
O391	O39	0.678280	0.022050	0.754380
O401	O40	0.623470	0.849270	0.693060
O411	O41	0.643260	0.779320	0.531370
O421	O42	0.694580	0.853910	0.419810
O431	O43	0.496530	0.635190	0.636740
O441	O44	0.372430	0.634010	0.699770
O451	O45	0.612190	0.534810	0.510170
H91	H9	0.582000	0.465900	0.497800
H101	H10	0.591000	0.583700	0.459200
C171	C17	0.792550	0.865600	0.778120
C181	C18	0.688140	0.916300	0.737970
C191	C19	0.702710	0.788800	0.485760
C201	C20	0.462050	0.635200	0.702220
Nd61	Nd6	0.175450	0.142830	0.660170
O461	O46	0.304850	0.260180	0.764000
O471	O47	0.357110	0.433230	0.823480
O481	O48	0.178280	0.522050	0.754380
O491	O49	0.123470	0.349270	0.693060
O501	O50	0.143260	0.279320	0.531370
O511	O51	0.194580	0.353910	0.419810
O521	O52	0.996530	0.135190	0.636740
O531	O53	0.872430	0.134010	0.699770
O541	O54	0.112190	0.034810	0.510170
H111	H11	0.082000	0.965900	0.497800
H121	H12	0.091000	0.083700	0.459200
C211	C21	0.292550	0.365600	0.778120
C221	C22	0.188140	0.416300	0.737970
C231	C23	0.202710	0.288800	0.485760
C241	C24	0.962050	0.135200	0.702220
Nd71	Nd7	0.324550	0.642830	0.839830
O551	O55	0.195150	0.760180	0.736000
O561	O56	0.142890	0.933230	0.676520
O571	O57	0.321720	0.022050	0.745620
O581	O58	0.376530	0.849270	0.806940
O591	O59	0.356740	0.779320	0.968630
O601	O60	0.305420	0.853910	0.080190
O611	O61	0.503470	0.635190	0.863260
O621	O62	0.627570	0.634010	0.800230
O631	O63	0.387810	0.534810	0.989830
H131	H13	0.418000	0.465900	0.002200
H141	H14	0.409000	0.583700	0.040800
C251	C25	0.207450	0.865600	0.721880
C261	C26	0.311860	0.916300	0.762030
C271	C27	0.297290	0.788800	0.014240
C281	C28	0.537950	0.635200	0.797780
Nd81	Nd8	0.824550	0.142830	0.839830
O641	O64	0.695150	0.260180	0.736000
O651	O65	0.642890	0.433230	0.676520
O661	O66	0.821720	0.522050	0.745620
O671	O67	0.876530	0.349270	0.806940
O681	O68	0.856740	0.279320	0.968630
O691	O69	0.805420	0.353910	0.080190
O701	O70	0.003470	0.135190	0.863260
O711	O71	0.127570	0.134010	0.800230
O721	O72	0.887810	0.034810	0.989830
H151	H15	0.918000	0.965900	0.002200
H161	H16	0.909000	0.083700	0.040800
C291	C29	0.707450	0.365600	0.721880
C301	C30	0.811860	0.416300	0.762030
C311	C31	0.797290	0.288800	0.014240
C321	C32	0.037950	0.135200	0.797780
