data_DAJHUS_freeONLY_PM
_symmetry_space_group_name_H-M	'P1'
_cell_length_a	12.127700
_cell_length_b	13.164400
_cell_length_c	13.164400
_cell_angle_alpha	100.135000
_cell_angle_beta	106.875000
_cell_angle_gamma	106.875000
_symmetry_Int_Tables_number 1

loop_
_symmetry_equiv_pos_as_xyz
'x,y,z'

loop_
_atom_site_label
_atom_site_type_symbol
_atom_site_fract_x
_atom_site_fract_y
_atom_site_fract_z
Co11	Co1	0.622340	0.165310	0.726170
Co21	Co2	0.877660	0.273830	0.834690
Co31	Co3	0.377660	0.834690	0.273830
Co41	Co4	0.122340	0.726170	0.165310
H11	H1	0.895900	0.283600	0.177400
H21	H2	0.986500	0.300900	0.379300
H31	H3	0.959500	0.280600	0.539400
H41	H4	0.592600	0.136000	0.379400
H51	H5	0.504000	0.101000	0.174000
H61	H6	0.531000	0.123400	0.014000
H71	H7	0.410000	0.116100	0.807700
H81	H8	0.200300	0.059700	0.746300
H91	H9	0.196400	0.033200	0.438600
H101	H10	0.408700	0.088900	0.508300
H111	H11	0.003200	0.999100	0.602700
H121	H12	0.604100	0.822600	0.716400
H131	H13	0.513500	0.620700	0.699100
H141	H14	0.540500	0.460600	0.719400
H151	H15	0.907400	0.620600	0.864000
H161	H16	0.996000	0.826000	0.899000
H171	H17	0.969000	0.986000	0.876600
H181	H18	0.090000	0.192300	0.883900
H191	H19	0.299700	0.253700	0.940300
H201	H20	0.303600	0.561400	0.966800
H211	H21	0.091300	0.491700	0.911100
H221	H22	0.496800	0.397300	0.000900
H231	H23	0.104100	0.716400	0.822600
H241	H24	0.013500	0.699100	0.620700
H251	H25	0.040500	0.719400	0.460600
H261	H26	0.407400	0.864000	0.620600
H271	H27	0.496000	0.899000	0.826000
H281	H28	0.469000	0.876600	0.986000
H291	H29	0.590000	0.883900	0.192300
H301	H30	0.799700	0.940300	0.253700
H311	H31	0.803600	0.966800	0.561400
H321	H32	0.591300	0.911100	0.491700
H331	H33	0.996800	0.000900	0.397300
H341	H34	0.395900	0.177400	0.283600
H351	H35	0.486500	0.379300	0.300900
H361	H36	0.459500	0.539400	0.280600
H371	H37	0.092600	0.379400	0.136000
H381	H38	0.004000	0.174000	0.101000
H391	H39	0.031000	0.014000	0.123400
H401	H40	0.910000	0.807700	0.116100
H411	H41	0.700300	0.746300	0.059700
H421	H42	0.696400	0.438600	0.033200
H431	H43	0.908700	0.508300	0.088900
H441	H44	0.503200	0.602700	0.999100
C11	C1	0.717900	0.208610	0.080350
C21	C2	0.817800	0.247120	0.177480
C31	C3	0.804700	0.232370	0.277630
C41	C4	0.907000	0.268710	0.378690
C51	C5	0.891000	0.257170	0.474230
C61	C6	0.770600	0.209940	0.475940
C71	C7	0.671000	0.170210	0.378790
C81	C8	0.684400	0.179840	0.277740
C91	C9	0.582800	0.138140	0.175660
C101	C10	0.598800	0.151690	0.080110
C111	C11	0.733300	0.221600	0.973900
C121	C12	0.754700	0.205110	0.583550
C131	C13	0.366600	0.099580	0.732220
C141	C14	0.240500	0.066200	0.696200
C151	C15	0.173400	0.042120	0.585080
C161	C16	0.238300	0.050270	0.514330
C171	C17	0.366400	0.084150	0.557050
C181	C18	0.037600	0.008600	0.548800
C191	C19	0.782100	0.919650	0.791390
C201	C20	0.682200	0.822520	0.752880
C211	C21	0.695300	0.722370	0.767630
C221	C22	0.593000	0.621310	0.731290
C231	C23	0.609000	0.525770	0.742830
C241	C24	0.729400	0.524060	0.790060
C251	C25	0.829000	0.621210	0.829790
C261	C26	0.815600	0.722260	0.820160
C271	C27	0.917200	0.824340	0.861860
C281	C28	0.901200	0.919890	0.848310
C291	C29	0.766700	0.026100	0.778400
C301	C30	0.745300	0.416450	0.794890
C311	C31	0.133400	0.267780	0.900420
C321	C32	0.259500	0.303800	0.933800
C331	C33	0.326600	0.414920	0.957880
C341	C34	0.261700	0.485670	0.949730
C351	C35	0.133600	0.442950	0.915850
C361	C36	0.462400	0.451200	0.991400
C371	C37	0.282100	0.791390	0.919650
C381	C38	0.182200	0.752880	0.822520
C391	C39	0.195300	0.767630	0.722370
C401	C40	0.093000	0.731290	0.621310
C411	C41	0.109000	0.742830	0.525770
C421	C42	0.229400	0.790060	0.524060
C431	C43	0.329000	0.829790	0.621210
C441	C44	0.315600	0.820160	0.722260
C451	C45	0.417200	0.861860	0.824340
C461	C46	0.401200	0.848310	0.919890
C471	C47	0.266700	0.778400	0.026100
C481	C48	0.245300	0.794890	0.416450
C491	C49	0.633400	0.900420	0.267780
C501	C50	0.759500	0.933800	0.303800
C511	C51	0.826600	0.957880	0.414920
C521	C52	0.761700	0.949730	0.485670
C531	C53	0.633600	0.915850	0.442950
C541	C54	0.962400	0.991400	0.451200
C551	C55	0.217900	0.080350	0.208610
C561	C56	0.317800	0.177480	0.247120
C571	C57	0.304700	0.277630	0.232370
C581	C58	0.407000	0.378690	0.268710
C591	C59	0.391000	0.474230	0.257170
C601	C60	0.270600	0.475940	0.209940
C611	C61	0.171000	0.378790	0.170210
C621	C62	0.184400	0.277740	0.179840
C631	C63	0.082800	0.175660	0.138140
C641	C64	0.098800	0.080110	0.151690
C651	C65	0.233300	0.973900	0.221600
C661	C66	0.254700	0.583550	0.205110
C671	C67	0.866600	0.732220	0.099580
C681	C68	0.740500	0.696200	0.066200
C691	C69	0.673400	0.585080	0.042120
C701	C70	0.738300	0.514330	0.050270
C711	C71	0.866400	0.557050	0.084150
C721	C72	0.537600	0.548800	0.008600
N11	N1	0.431100	0.110070	0.665110
N21	N2	0.068900	0.334890	0.889930
N31	N3	0.568900	0.889930	0.334890
N41	N4	0.931100	0.665110	0.110070
O11	O1	0.637030	0.181600	0.888240
O21	O2	0.840700	0.269570	0.976070
O31	O3	0.646350	0.163440	0.581600
O41	O4	0.850900	0.243500	0.669560
O51	O5	0.862970	0.111760	0.818400
O61	O6	0.659300	0.023930	0.730430
O71	O7	0.853650	0.418400	0.836560
O81	O8	0.649100	0.330440	0.756500
O91	O9	0.362970	0.818400	0.111760
O101	O10	0.159300	0.730430	0.023930
O111	O11	0.353650	0.836560	0.418400
O121	O12	0.149100	0.756500	0.330440
O131	O13	0.137030	0.888240	0.181600
O141	O14	0.340700	0.976070	0.269570
O151	O15	0.146350	0.581600	0.163440
O161	O16	0.350900	0.669560	0.243500
