data_DALSER_freeONLY_PM
_symmetry_space_group_name_H-M	'P1'
_cell_length_a	14.914000
_cell_length_b	23.507000
_cell_length_c	9.261000
_cell_angle_alpha	90.000000
_cell_angle_beta	90.000000
_cell_angle_gamma	90.000000
_symmetry_Int_Tables_number 1

loop_
_symmetry_equiv_pos_as_xyz
'x,y,z'

loop_
_atom_site_label
_atom_site_type_symbol
_atom_site_fract_x
_atom_site_fract_y
_atom_site_fract_z
Fe11	Fe1	0.076940	0.443850	0.550710
Cl11	Cl1	0.181370	0.504200	0.644600
O11	O1	0.983100	0.379760	0.495600
O21	O2	0.017000	0.430180	0.745900
O31	O3	0.912600	0.375960	0.852900
O41	O4	0.883200	0.322800	0.603300
C11	C1	0.939900	0.362180	0.602800
C21	C2	0.957300	0.392250	0.747100
Fe21	Fe2	0.076940	0.943850	0.050710
Cl21	Cl2	0.181370	0.004200	0.144600
O51	O5	0.983100	0.879760	0.995600
O61	O6	0.017000	0.930180	0.245900
O71	O7	0.912600	0.875960	0.352900
O81	O8	0.883200	0.822800	0.103300
C31	C3	0.939900	0.862180	0.102800
C41	C4	0.957300	0.892250	0.247100
Fe31	Fe3	0.576940	0.443850	0.050710
Cl31	Cl3	0.681370	0.504200	0.144600
O91	O9	0.483100	0.379760	0.995600
O101	O10	0.517000	0.430180	0.245900
O111	O11	0.412600	0.375960	0.352900
O121	O12	0.383200	0.322800	0.103300
C51	C5	0.439900	0.362180	0.102800
C61	C6	0.457300	0.392250	0.247100
Fe41	Fe4	0.576940	0.943850	0.550710
Cl41	Cl4	0.681370	0.004200	0.644600
O131	O13	0.483100	0.879760	0.495600
O141	O14	0.517000	0.930180	0.745900
O151	O15	0.412600	0.875960	0.852900
O161	O16	0.383200	0.822800	0.603300
C71	C7	0.439900	0.862180	0.602800
C81	C8	0.457300	0.892250	0.747100
Fe51	Fe5	0.923060	0.556150	0.550710
Cl51	Cl5	0.818630	0.495800	0.644600
O171	O17	0.016900	0.620240	0.495600
O181	O18	0.983000	0.569820	0.745900
O191	O19	0.087400	0.624040	0.852900
O201	O20	0.116800	0.677200	0.603300
C91	C9	0.060100	0.637820	0.602800
C101	C10	0.042700	0.607750	0.747100
Fe61	Fe6	0.923060	0.056150	0.050710
Cl61	Cl6	0.818630	0.995800	0.144600
O211	O21	0.016900	0.120240	0.995600
O221	O22	0.983000	0.069820	0.245900
O231	O23	0.087400	0.124040	0.352900
O241	O24	0.116800	0.177200	0.103300
C111	C11	0.060100	0.137820	0.102800
C121	C12	0.042700	0.107750	0.247100
Fe71	Fe7	0.423060	0.556150	0.050710
Cl71	Cl7	0.318630	0.495800	0.144600
O251	O25	0.516900	0.620240	0.995600
O261	O26	0.483000	0.569820	0.245900
O271	O27	0.587400	0.624040	0.352900
O281	O28	0.616800	0.677200	0.103300
C131	C13	0.560100	0.637820	0.102800
C141	C14	0.542700	0.607750	0.247100
Fe81	Fe8	0.423060	0.056150	0.550710
Cl81	Cl8	0.318630	0.995800	0.644600
O291	O29	0.516900	0.120240	0.495600
O301	O30	0.483000	0.069820	0.745900
O311	O31	0.587400	0.124040	0.852900
O321	O32	0.616800	0.177200	0.603300
C151	C15	0.560100	0.137820	0.602800
C161	C16	0.542700	0.107750	0.747100
Fe91	Fe9	0.326940	0.806150	0.800710
Cl91	Cl9	0.431370	0.745800	0.894600
O331	O33	0.233100	0.870240	0.745600
O341	O34	0.267000	0.819820	0.995900
O351	O35	0.162600	0.874040	0.102900
O361	O36	0.133200	0.927200	0.853300
C171	C17	0.189900	0.887820	0.852800
C181	C18	0.207300	0.857750	0.997100
Fe101	Fe10	0.326940	0.306150	0.300710
Cl101	Cl10	0.431370	0.245800	0.394600
O371	O37	0.233100	0.370240	0.245600
O381	O38	0.267000	0.319820	0.495900
O391	O39	0.162600	0.374040	0.602900
O401	O40	0.133200	0.427200	0.353300
C191	C19	0.189900	0.387820	0.352800
C201	C20	0.207300	0.357750	0.497100
Fe111	Fe11	0.826940	0.806150	0.300710
Cl111	Cl11	0.931370	0.745800	0.394600
O411	O41	0.733100	0.870240	0.245600
O421	O42	0.767000	0.819820	0.495900
O431	O43	0.662600	0.874040	0.602900
O441	O44	0.633200	0.927200	0.353300
C211	C21	0.689900	0.887820	0.352800
C221	C22	0.707300	0.857750	0.497100
Fe121	Fe12	0.826940	0.306150	0.800710
Cl121	Cl12	0.931370	0.245800	0.894600
O451	O45	0.733100	0.370240	0.745600
O461	O46	0.767000	0.319820	0.995900
O471	O47	0.662600	0.374040	0.102900
O481	O48	0.633200	0.427200	0.853300
C231	C23	0.689900	0.387820	0.852800
C241	C24	0.707300	0.357750	0.997100
Fe131	Fe13	0.173060	0.693850	0.800710
Cl131	Cl13	0.068630	0.754200	0.894600
O491	O49	0.266900	0.629760	0.745600
O501	O50	0.233000	0.680180	0.995900
O511	O51	0.337400	0.625960	0.102900
O521	O52	0.366800	0.572800	0.853300
C251	C25	0.310100	0.612180	0.852800
C261	C26	0.292700	0.642250	0.997100
Fe141	Fe14	0.173060	0.193850	0.300710
Cl141	Cl14	0.068630	0.254200	0.394600
O531	O53	0.266900	0.129760	0.245600
O541	O54	0.233000	0.180180	0.495900
O551	O55	0.337400	0.125960	0.602900
O561	O56	0.366800	0.072800	0.353300
C271	C27	0.310100	0.112180	0.352800
C281	C28	0.292700	0.142250	0.497100
Fe151	Fe15	0.673060	0.693850	0.300710
Cl151	Cl15	0.568630	0.754200	0.394600
O571	O57	0.766900	0.629760	0.245600
O581	O58	0.733000	0.680180	0.495900
O591	O59	0.837400	0.625960	0.602900
O601	O60	0.866800	0.572800	0.353300
C291	C29	0.810100	0.612180	0.352800
C301	C30	0.792700	0.642250	0.497100
Fe161	Fe16	0.673060	0.193850	0.800710
Cl161	Cl16	0.568630	0.254200	0.894600
O611	O61	0.766900	0.129760	0.745600
O621	O62	0.733000	0.180180	0.995900
O631	O63	0.837400	0.125960	0.102900
O641	O64	0.866800	0.072800	0.853300
C311	C31	0.810100	0.112180	0.852800
C321	C32	0.792700	0.142250	0.997100
O651	O65	0.000000	0.500000	0.470300
O661	O66	0.000000	0.000000	0.970300
O671	O67	0.500000	0.500000	0.970300
O681	O68	0.500000	0.000000	0.470300
O691	O69	0.250000	0.750000	0.720300
O701	O70	0.250000	0.250000	0.220300
O711	O71	0.750000	0.750000	0.220300
O721	O72	0.750000	0.250000	0.720300
