data_DALSAN_freeONLY_PM
_symmetry_space_group_name_H-M	'P1'
_cell_length_a	8.945000
_cell_length_b	14.936000
_cell_length_c	12.408000
_cell_angle_alpha	90.000000
_cell_angle_beta	108.531000
_cell_angle_gamma	90.000000
_symmetry_Int_Tables_number 1

loop_
_symmetry_equiv_pos_as_xyz
'x,y,z'

loop_
_atom_site_label
_atom_site_type_symbol
_atom_site_fract_x
_atom_site_fract_y
_atom_site_fract_z
Fe11	Fe1	0.121320	0.049530	0.679240
Fe21	Fe2	0.235000	0.205540	0.904270
Cl11	Cl1	0.085200	0.949450	0.804240
Cl21	Cl2	0.080900	0.312500	0.790430
O11	O1	0.248200	0.284900	0.048700
O21	O2	0.258800	0.133900	0.781100
O31	O3	0.305600	0.992300	0.641500
O41	O4	0.613900	0.360900	0.045200
O51	O5	0.357900	0.889700	0.524900
O61	O6	0.051500	0.858200	0.432500
O71	O7	0.996900	0.964200	0.543300
O81	O8	0.450700	0.262600	0.930700
O91	O9	0.409100	0.388200	0.157700
C11	C1	0.489000	0.317100	0.012900
C21	C2	0.266300	0.934800	0.562400
C31	C3	0.087600	0.918600	0.507900
C41	C4	0.370200	0.330300	0.078500
H11	H1	0.314300	0.163700	0.749400
Fe31	Fe3	0.621320	0.549530	0.679240
Fe41	Fe4	0.735000	0.705540	0.904270
Cl31	Cl3	0.585200	0.449450	0.804240
Cl41	Cl4	0.580900	0.812500	0.790430
O101	O10	0.748200	0.784900	0.048700
O111	O11	0.758800	0.633900	0.781100
O121	O12	0.805600	0.492300	0.641500
O131	O13	0.113900	0.860900	0.045200
O141	O14	0.857900	0.389700	0.524900
O151	O15	0.551500	0.358200	0.432500
O161	O16	0.496900	0.464200	0.543300
O171	O17	0.950700	0.762600	0.930700
O181	O18	0.909100	0.888200	0.157700
C51	C5	0.989000	0.817100	0.012900
C61	C6	0.766300	0.434800	0.562400
C71	C7	0.587600	0.418600	0.507900
C81	C8	0.870200	0.830300	0.078500
H21	H2	0.814300	0.663700	0.749400
Fe51	Fe5	0.121320	0.950470	0.179240
Fe61	Fe6	0.235000	0.794460	0.404270
Cl51	Cl5	0.085200	0.050550	0.304240
Cl61	Cl6	0.080900	0.687500	0.290430
O191	O19	0.248200	0.715100	0.548700
O201	O20	0.258800	0.866100	0.281100
O211	O21	0.305600	0.007700	0.141500
O221	O22	0.613900	0.639100	0.545200
O231	O23	0.357900	0.110300	0.024900
O241	O24	0.051500	0.141800	0.932500
O251	O25	0.996900	0.035800	0.043300
O261	O26	0.450700	0.737400	0.430700
O271	O27	0.409100	0.611800	0.657700
C91	C9	0.489000	0.682900	0.512900
C101	C10	0.266300	0.065200	0.062400
C111	C11	0.087600	0.081400	0.007900
C121	C12	0.370200	0.669700	0.578500
H31	H3	0.314300	0.836300	0.249400
Fe71	Fe7	0.621320	0.450470	0.179240
Fe81	Fe8	0.735000	0.294460	0.404270
Cl71	Cl7	0.585200	0.550550	0.304240
Cl81	Cl8	0.580900	0.187500	0.290430
O281	O28	0.748200	0.215100	0.548700
O291	O29	0.758800	0.366100	0.281100
O301	O30	0.805600	0.507700	0.141500
O311	O31	0.113900	0.139100	0.545200
O321	O32	0.857900	0.610300	0.024900
O331	O33	0.551500	0.641800	0.932500
O341	O34	0.496900	0.535800	0.043300
O351	O35	0.950700	0.237400	0.430700
O361	O36	0.909100	0.111800	0.657700
C131	C13	0.989000	0.182900	0.512900
C141	C14	0.766300	0.565200	0.062400
C151	C15	0.587600	0.581400	0.007900
C161	C16	0.870200	0.169700	0.578500
H41	H4	0.814300	0.336300	0.249400
