data_DALVIY_freeONLY_PM
_symmetry_space_group_name_H-M	'P1'
_cell_length_a	34.967000
_cell_length_b	21.612500
_cell_length_c	41.296000
_cell_angle_alpha	90.000000
_cell_angle_beta	90.000000
_cell_angle_gamma	90.000000
_symmetry_Int_Tables_number 1

loop_
_symmetry_equiv_pos_as_xyz
'x,y,z'

loop_
_atom_site_label
_atom_site_type_symbol
_atom_site_fract_x
_atom_site_fract_y
_atom_site_fract_z
Gd11	Gd1	0.276600	0.062480	0.043410
Gd21	Gd2	0.522330	0.275730	0.894070
Gd31	Gd3	0.448910	0.145420	0.839860
Gd41	Gd4	0.593040	0.353010	0.146230
Gd51	Gd5	0.353670	0.780270	0.929940
Gd61	Gd6	0.345700	0.940070	0.983240
C11	C1	0.274200	0.256800	0.061700
C21	C2	0.273000	0.188100	0.057000
O11	O1	0.249400	0.167100	0.037400
O21	O2	0.292700	0.155300	0.075000
C31	C3	0.249500	0.294900	0.045100
H11	H1	0.231200	0.277500	0.031500
C41	C4	0.251200	0.359300	0.048300
C51	C5	0.223400	0.399800	0.030400
O31	O3	0.225400	0.457900	0.036100
O41	O4	0.199800	0.374800	0.010600
C61	C6	0.279000	0.386100	0.066400
H21	H2	0.281200	0.429000	0.067500
C71	C7	0.304600	0.347300	0.083600
C81	C8	0.331600	0.373900	0.102900
N11	N1	0.357500	0.393300	0.119400
C91	C9	0.386000	0.330800	0.818400
H31	H3	0.382100	0.288400	0.816200
C101	C10	0.301200	0.284300	0.080900
H41	H4	0.317900	0.259300	0.092600
C111	C11	0.377100	0.149600	0.986100
C121	C12	0.348800	0.100000	0.997200
O51	O5	0.322100	0.115200	0.014600
O61	O6	0.355700	0.045900	0.987700
C131	C13	0.397900	0.142900	0.958700
H51	H5	0.396200	0.106800	0.946500
C141	C14	0.422400	0.191300	0.948900
C151	C15	0.441900	0.190400	0.917300
O71	O7	0.469600	0.228900	0.913500
O81	O8	0.431000	0.154000	0.896000
C161	C16	0.426500	0.241300	0.969500
H61	H6	0.442100	0.274000	0.963200
C171	C17	0.408000	0.244600	0.999200
C181	C18	0.409300	0.300200	0.018600
N21	N2	0.413100	0.343200	0.034500
C191	C19	0.381900	0.198500	0.008200
H71	H7	0.368600	0.200100	0.027600
C201	C20	0.554900	0.066400	0.889400
C211	C21	0.530300	0.123800	0.886800
O91	O9	0.540900	0.170300	0.901700
O101	O10	0.503500	0.118500	0.867400
C221	C22	0.584200	0.063200	0.912400
H81	H8	0.588300	0.097200	0.925700
C231	C23	0.608000	0.010600	0.916200
C241	C24	0.639300	0.009600	0.939800
O111	O11	0.637100	0.049300	0.962900
O121	O12	0.664000	0.969300	0.936700
C251	C25	0.602000	0.960600	0.898700
H91	H9	0.616900	0.925500	0.901800
C261	C26	0.571900	0.960700	0.874400
C271	C27	0.562000	0.902000	0.866200
N31	N3	0.558000	0.871000	0.843800
C281	C28	0.548600	0.016700	0.870200
H101	H10	0.529500	0.017900	0.854500
C291	C29	0.522000	0.352800	0.990000
C301	C30	0.522000	0.328300	0.957100
O131	O13	0.499000	0.350800	0.935600
O141	O14	0.543500	0.283900	0.949600
C311	C31	0.547000	0.332000	0.013200
H111	H11	0.563300	0.299600	0.008000
C321	C32	0.548900	0.356500	0.043700
C331	C33	0.577200	0.332700	0.065800
O151	O15	0.584900	0.366700	0.090400
O161	O16	0.592800	0.280600	0.061600
C341	C34	0.523300	0.402000	0.052200
H121	H12	0.524200	0.418700	0.073000
C351	C35	0.495800	0.423500	0.030200
C361	C36	0.468500	0.472300	0.040200
N41	N4	0.447800	0.508700	0.048000
C371	C37	0.495400	0.400100	0.999400
H131	H13	0.477800	0.415100	0.984400
C381	C38	0.557800	0.232600	0.792900
C391	C39	0.526000	0.215300	0.813700
O171	O17	0.526300	0.243500	0.841900
O181	O18	0.501100	0.179500	0.805200
C401	C40	0.560800	0.204300	0.761900
H141	H14	0.542400	0.176300	0.754800
C411	C41	0.591800	0.219700	0.742600
C421	C42	0.594400	0.190900	0.709200
O191	O19	0.564600	0.163200	0.698700
O201	O20	0.624500	0.198400	0.692700
C431	C43	0.619600	0.258400	0.752200
H151	H15	0.641500	0.266500	0.740100
C441	C44	0.612600	0.285000	0.782000
C451	C45	0.641800	0.321000	0.792000
N51	N5	0.662700	0.359000	0.800200
C461	C46	0.585200	0.272600	0.803200
H161	H16	0.584700	0.290100	0.823800
C471	C47	0.451900	0.947400	0.829000
C481	C48	0.449500	0.015400	0.831500
O211	O21	0.466400	0.049400	0.811500
O221	O22	0.430400	0.037900	0.854400
C491	C49	0.435100	0.911100	0.850700
H171	H17	0.421600	0.929000	0.867700
C501	C50	0.437200	0.844900	0.848500
C511	C51	0.415300	0.806600	0.872600
O231	O23	0.401100	0.829600	0.897700
O241	O24	0.413900	0.750000	0.866000
C521	C52	0.455300	0.821500	0.823000
H181	H18	0.455400	0.778800	0.820200
C531	C53	0.474000	0.858700	0.800200
C541	C54	0.495000	0.832300	0.773700
N61	N6	0.512500	0.813900	0.751700
C551	C55	0.471200	0.920600	0.803400
H191	H19	0.482500	0.946000	0.787900
C561	C56	0.241800	0.029400	0.934000
C571	C57	0.264300	0.021400	0.964800
O251	O25	0.256600	0.054900	0.988500
O261	O26	0.288400	0.974500	0.965800
C581	C58	0.218800	0.078600	0.931300
H201	H20	0.215400	0.105200	0.948800
C591	C59	0.200400	0.089600	0.903000
C601	C60	0.173600	0.145300	0.898300
O271	O27	0.172700	0.181800	0.921100
O281	O28	0.154300	0.151600	0.872600
C611	C61	0.204800	0.050400	0.875200
H211	H21	0.192800	0.059400	0.855700
C621	C62	0.227800	0.999000	0.878600
C631	C63	0.234700	0.959400	0.851400
N71	N7	0.239500	0.927800	0.830900
C641	C64	0.247600	0.992500	0.907200
H221	H22	0.266000	0.961500	0.908600
C651	C65	0.417300	0.350700	0.835100
C661	C66	0.446400	0.307100	0.851100
O291	O29	0.471800	0.328000	0.868200
O301	O30	0.440400	0.250500	0.842900
C671	C67	0.419800	0.414000	0.841300
H231	H23	0.439700	0.428400	0.854200
C681	C68	0.394700	0.454900	0.829300
C691	C69	0.399200	0.522000	0.836000
O311	O31	0.425100	0.540000	0.854300
O321	O32	0.375400	0.561400	0.823700
C701	C70	0.365200	0.434800	0.810300
H241	H24	0.348600	0.463500	0.801000
C711	C71	0.359500	0.371300	0.804500
C721	C72	0.327200	0.347000	0.784000
N81	N8	0.303800	0.329300	0.767400
O331	O33	0.289700	0.794700	0.946300
C731	C73	0.262200	0.766100	0.960100
H251	H25	0.266000	0.726400	0.968100
N91	N9	0.229900	0.791100	0.962800
C741	C74	0.219800	0.855500	0.956300
H261	H26	0.201400	0.869300	0.971900
H271	H27	0.209200	0.858800	0.935000
H281	H28	0.242400	0.880800	0.957800
C751	C75	0.198400	0.752600	0.978000
H291	H29	0.209500	0.722500	0.992300
H301	H30	0.184300	0.731900	0.961300
H311	H31	0.181500	0.779000	0.990000
O341	O34	0.410300	0.945100	0.973300
C761	C76	0.434200	0.985000	0.974100
H321	H32	0.435100	0.003600	0.994300
N101	N10	0.458800	0.008900	0.954900
C771	C77	0.487000	0.057200	0.960800
H331	H33	0.488000	0.084600	0.942600
H341	H34	0.511700	0.038600	0.964000
H351	H35	0.480100	0.080100	0.979900
C781	C78	0.461200	0.981700	0.923100
H361	H36	0.441200	0.951600	0.920600
H371	H37	0.485600	0.962000	0.920600
H381	H38	0.458300	0.013400	0.907000
O351	O35	0.209500	0.045700	0.043500
C791	C79	0.186100	0.071200	0.025200
H391	H39	0.188000	0.113900	0.023100
N111	N11	0.157600	0.042600	0.007600
C801	C80	0.129000	0.078800	0.988700
H401	H40	0.106400	0.084600	0.001500
H411	H41	0.122700	0.056700	0.969200
H421	H42	0.139700	0.118300	0.983100
C811	C81	0.147800	0.972100	0.011600
H431	H43	0.170900	0.948200	0.010400
H441	H44	0.130700	0.959500	0.994600
H451	H45	0.135800	0.965500	0.032200
O361	O36	0.549500	0.370000	0.877000
C821	C82	0.533000	0.420200	0.875200
H461	H46	0.508100	0.423300	0.882900
N121	N12	0.549400	0.469400	0.862900
C831	C83	0.528700	0.527600	0.863700
H471	H47	0.513700	0.531600	0.844300
H481	H48	0.546500	0.561200	0.865000
H491	H49	0.512100	0.528300	0.882200
C841	C84	0.589000	0.464000	0.852100
H501	H50	0.589700	0.463500	0.828900
H511	H51	0.599900	0.426800	0.860500
H521	H52	0.603300	0.499100	0.859900
O371	O37	0.422600	0.159800	0.786300
C851	C85	0.419900	0.201800	0.767300
H531	H53	0.442100	0.225500	0.766900
N131	N13	0.395100	0.222900	0.747400
C861	C86	0.394300	0.281700	0.730300
H541	H54	0.414900	0.307300	0.737800
H551	H55	0.370400	0.302200	0.734400
H561	H56	0.397100	0.274600	0.707500
C871	C87	0.360300	0.186000	0.745200
H571	H57	0.338700	0.213100	0.742900
H581	H58	0.357500	0.161800	0.764500
H591	H59	0.361900	0.159300	0.726700
O381	O38	0.381300	0.150100	0.842700
C881	C88	0.362000	0.123200	0.863600
H601	H60	0.366300	0.081200	0.866900
N141	N14	0.335600	0.151100	0.881500
C891	C89	0.311300	0.129200	0.905100
H611	H61	0.289200	0.111100	0.895100
H621	H62	0.303500	0.162800	0.918800
H631	H63	0.324300	0.098600	0.917800
C901	C90	0.339800	0.217000	0.875200
H641	H64	0.365800	0.229000	0.879100
H651	H65	0.323100	0.239700	0.889300
H661	H66	0.333200	0.225400	0.853100
O391	O39	0.526700	0.343600	0.136100
C911	C91	0.499100	0.333100	0.152100
H671	H67	0.502600	0.337700	0.174300
N151	N15	0.465800	0.316700	0.143700
C921	C92	0.457400	0.309000	0.109700
H681	H68	0.435200	0.283600	0.107200
H691	H69	0.478800	0.290400	0.099000
H701	H70	0.452500	0.349200	0.100200
C931	C93	0.434400	0.311000	0.166600
H711	H71	0.438200	0.339800	0.184100
H721	H72	0.433500	0.269900	0.174900
H731	H73	0.410700	0.320500	0.155800
O401	O40	0.592100	0.267200	0.890500
C941	C94	0.626000	0.261000	0.894100
H741	H74	0.637800	0.223700	0.889200
N161	N16	0.646200	0.308000	0.905000
C951	C95	0.688500	0.307000	0.909000
H751	H75	0.700500	0.314400	0.888500
H761	H76	0.696100	0.266700	0.916900
H771	H77	0.696100	0.337900	0.924200
C961	C96	0.629000	0.369000	0.914000
H781	H78	0.623500	0.368600	0.937100
H791	H79	0.606300	0.375800	0.902200
H801	H80	0.647300	0.401300	0.909800
O411	O41	0.323100	0.794500	0.880700
C971	C97	0.316500	0.785300	0.852500
H811	H81	0.337800	0.784400	0.839000
N171	N17	0.284700	0.776700	0.838600
C981	C98	0.283300	0.779000	0.803600
H821	H82	0.307900	0.790700	0.795400
H831	H83	0.264500	0.808300	0.796900
H841	H84	0.276700	0.738600	0.795400
C991	C99	0.250600	0.778000	0.858700
H851	H85	0.237600	0.739300	0.857500
H861	H86	0.233800	0.810500	0.851200
H871	H87	0.257700	0.786500	0.880800
O421	O42	0.261000	0.034600	0.098700
O431	O43	0.341700	0.890000	0.930100
C1001	C100	0.349900	0.939000	0.911700
H881	H88	0.351200	0.935200	0.889300
O441	O44	0.355400	0.986100	0.923800
O451	O45	0.367900	0.833500	0.981400
C1011	C101	0.358400	0.785400	0.999500
H891	H89	0.359400	0.789200	0.021900
O461	O46	0.348300	0.736000	0.987700
Gd71	Gd7	0.223400	0.937520	0.543410
Gd81	Gd8	0.977670	0.724270	0.394070
Gd91	Gd9	0.051090	0.854580	0.339860
Gd101	Gd10	0.906960	0.646990	0.646230
Gd111	Gd11	0.146330	0.219730	0.429940
Gd121	Gd12	0.154300	0.059930	0.483240
C1021	C102	0.225800	0.743200	0.561700
C1031	C103	0.227000	0.811900	0.557000
O471	O47	0.250600	0.832900	0.537400
O481	O48	0.207300	0.844700	0.575000
C1041	C104	0.250500	0.705100	0.545100
H901	H90	0.268800	0.722500	0.531500
C1051	C105	0.248800	0.640700	0.548300
C1061	C106	0.276600	0.600200	0.530400
O491	O49	0.274600	0.542100	0.536100
O501	O50	0.300200	0.625200	0.510600
C1071	C107	0.221000	0.613900	0.566400
H911	H91	0.218800	0.571000	0.567500
C1081	C108	0.195400	0.652700	0.583600
C1091	C109	0.168400	0.626100	0.602900
N181	N18	0.142500	0.606700	0.619400
C1101	C110	0.114000	0.669200	0.318400
H921	H92	0.117900	0.711600	0.316200
C1111	C111	0.198800	0.715700	0.580900
H931	H93	0.182100	0.740700	0.592600
C1121	C112	0.122900	0.850400	0.486100
C1131	C113	0.151200	0.900000	0.497200
O511	O51	0.177900	0.884800	0.514600
O521	O52	0.144300	0.954100	0.487700
C1141	C114	0.102100	0.857100	0.458700
H941	H94	0.103800	0.893200	0.446500
C1151	C115	0.077600	0.808700	0.448900
C1161	C116	0.058100	0.809600	0.417300
O531	O53	0.030400	0.771100	0.413500
O541	O54	0.069000	0.846000	0.396000
C1171	C117	0.073500	0.758700	0.469500
H951	H95	0.057900	0.726000	0.463200
C1181	C118	0.092000	0.755400	0.499200
C1191	C119	0.090700	0.699800	0.518600
N191	N19	0.086900	0.656800	0.534500
C1201	C120	0.118100	0.801500	0.508200
H961	H96	0.131400	0.799900	0.527600
C1211	C121	0.945100	0.933600	0.389400
C1221	C122	0.969700	0.876200	0.386800
O551	O55	0.959100	0.829700	0.401700
O561	O56	0.996500	0.881500	0.367400
C1231	C123	0.915800	0.936800	0.412400
H971	H97	0.911700	0.902800	0.425700
C1241	C124	0.892000	0.989400	0.416200
C1251	C125	0.860700	0.990400	0.439800
O571	O57	0.862900	0.950700	0.462900
O581	O58	0.836000	0.030700	0.436700
C1261	C126	0.898000	0.039400	0.398700
H981	H98	0.883100	0.074500	0.401800
C1271	C127	0.928100	0.039300	0.374400
C1281	C128	0.938000	0.098000	0.366200
N201	N20	0.942000	0.129000	0.343800
C1291	C129	0.951400	0.983300	0.370200
H991	H99	0.970500	0.982100	0.354500
C1301	C130	0.978000	0.647200	0.490000
C1311	C131	0.978000	0.671700	0.457100
O591	O59	0.001000	0.649200	0.435600
O601	O60	0.956500	0.716100	0.449600
C1321	C132	0.953000	0.668000	0.513200
H1001	H100	0.936700	0.700400	0.508000
C1331	C133	0.951100	0.643500	0.543700
C1341	C134	0.922800	0.667300	0.565800
O611	O61	0.915100	0.633300	0.590400
O621	O62	0.907200	0.719400	0.561600
C1351	C135	0.976700	0.598000	0.552200
H1011	H101	0.975800	0.581300	0.573000
C1361	C136	0.004200	0.576500	0.530200
C1371	C137	0.031500	0.527700	0.540200
N211	N21	0.052200	0.491300	0.548000
C1381	C138	0.004600	0.599900	0.499400
H1021	H102	0.022200	0.584900	0.484400
C1391	C139	0.942200	0.767400	0.292900
C1401	C140	0.974000	0.784700	0.313700
O631	O63	0.973700	0.756500	0.341900
O641	O64	0.998900	0.820500	0.305200
C1411	C141	0.939200	0.795700	0.261900
H1031	H103	0.957600	0.823700	0.254800
C1421	C142	0.908200	0.780300	0.242600
C1431	C143	0.905600	0.809100	0.209200
O651	O65	0.935400	0.836800	0.198700
O661	O66	0.875500	0.801600	0.192700
C1441	C144	0.880400	0.741600	0.252200
H1041	H104	0.858500	0.733500	0.240100
C1451	C145	0.887400	0.715000	0.282000
C1461	C146	0.858200	0.679000	0.292000
N221	N22	0.837300	0.641000	0.300200
C1471	C147	0.914800	0.727400	0.303200
H1051	H105	0.915300	0.709900	0.323800
C1481	C148	0.048100	0.052600	0.329000
C1491	C149	0.050500	0.984600	0.331500
O671	O67	0.033600	0.950600	0.311500
O681	O68	0.069600	0.962100	0.354400
C1501	C150	0.064900	0.088900	0.350700
H1061	H106	0.078400	0.071000	0.367700
C1511	C151	0.062800	0.155100	0.348500
C1521	C152	0.084700	0.193400	0.372600
O691	O69	0.098900	0.170400	0.397700
O701	O70	0.086100	0.250000	0.366000
C1531	C153	0.044700	0.178500	0.323000
H1071	H107	0.044600	0.221200	0.320200
C1541	C154	0.026000	0.141300	0.300200
C1551	C155	0.005000	0.167700	0.273700
N231	N23	0.987500	0.186100	0.251700
C1561	C156	0.028800	0.079400	0.303400
H1081	H108	0.017500	0.054000	0.287900
C1571	C157	0.258200	0.970600	0.434000
C1581	C158	0.235700	0.978600	0.464800
O711	O71	0.243400	0.945100	0.488500
O721	O72	0.211600	0.025500	0.465800
C1591	C159	0.281200	0.921400	0.431300
H1091	H109	0.284600	0.894800	0.448800
C1601	C160	0.299600	0.910400	0.403000
C1611	C161	0.326400	0.854700	0.398300
O731	O73	0.327300	0.818200	0.421100
O741	O74	0.345700	0.848400	0.372600
C1621	C162	0.295200	0.949600	0.375200
H1101	H110	0.307200	0.940600	0.355700
C1631	C163	0.272200	0.001000	0.378600
C1641	C164	0.265300	0.040600	0.351400
N241	N24	0.260500	0.072200	0.330900
C1651	C165	0.252400	0.007500	0.407200
H1111	H111	0.234000	0.038500	0.408600
C1661	C166	0.082700	0.649300	0.335100
C1671	C167	0.053600	0.692900	0.351100
O751	O75	0.028200	0.672000	0.368200
O761	O76	0.059600	0.749500	0.342900
C1681	C168	0.080200	0.586000	0.341300
H1121	H112	0.060300	0.571600	0.354200
C1691	C169	0.105300	0.545100	0.329300
C1701	C170	0.100800	0.478000	0.336000
O771	O77	0.074900	0.460000	0.354300
O781	O78	0.124600	0.438600	0.323700
C1711	C171	0.134800	0.565200	0.310300
H1131	H113	0.151400	0.536500	0.301000
C1721	C172	0.140500	0.628700	0.304500
C1731	C173	0.172800	0.653000	0.284000
N251	N25	0.196200	0.670700	0.267400
O791	O79	0.210300	0.205300	0.446300
C1741	C174	0.237800	0.233900	0.460100
H1141	H114	0.234000	0.273600	0.468100
N261	N26	0.270100	0.208900	0.462800
C1751	C175	0.280200	0.144500	0.456300
H1151	H115	0.298600	0.130700	0.471900
H1161	H116	0.290800	0.141200	0.435000
H1171	H117	0.257600	0.119200	0.457800
C1761	C176	0.301600	0.247400	0.478000
H1181	H118	0.290500	0.277500	0.492300
H1191	H119	0.315700	0.268100	0.461300
H1201	H120	0.318500	0.221000	0.490000
O801	O80	0.089700	0.054900	0.473300
C1771	C177	0.065800	0.015000	0.474100
H1211	H121	0.064900	0.996400	0.494300
N271	N27	0.041200	0.991100	0.454900
C1781	C178	0.013000	0.942800	0.460800
H1221	H122	0.012000	0.915400	0.442600
H1231	H123	0.988300	0.961400	0.464000
H1241	H124	0.019900	0.919900	0.479900
C1791	C179	0.038800	0.018300	0.423100
H1251	H125	0.058800	0.048400	0.420600
H1261	H126	0.014400	0.038000	0.420600
H1271	H127	0.041700	0.986600	0.407000
O811	O81	0.290500	0.954300	0.543500
C1801	C180	0.313900	0.928800	0.525200
H1281	H128	0.312000	0.886100	0.523100
N281	N28	0.342400	0.957400	0.507600
C1811	C181	0.371000	0.921200	0.488700
H1291	H129	0.393600	0.915400	0.501500
H1301	H130	0.377300	0.943300	0.469200
H1311	H131	0.360300	0.881700	0.483100
C1821	C182	0.352200	0.027900	0.511600
H1321	H132	0.329100	0.051800	0.510400
H1331	H133	0.369300	0.040500	0.494600
H1341	H134	0.364200	0.034500	0.532200
O821	O82	0.950500	0.630000	0.377000
C1831	C183	0.967000	0.579800	0.375200
H1351	H135	0.991900	0.576700	0.382900
N291	N29	0.950600	0.530600	0.362900
C1841	C184	0.971300	0.472400	0.363700
H1361	H136	0.986300	0.468400	0.344300
H1371	H137	0.953500	0.438800	0.365000
H1381	H138	0.987900	0.471700	0.382200
C1851	C185	0.911000	0.536000	0.352100
H1391	H139	0.910300	0.536500	0.328900
H1401	H140	0.900100	0.573200	0.360500
H1411	H141	0.896700	0.500900	0.359900
O831	O83	0.077400	0.840200	0.286300
C1861	C186	0.080100	0.798200	0.267300
H1421	H142	0.057900	0.774500	0.266900
N301	N30	0.104900	0.777100	0.247400
C1871	C187	0.105700	0.718300	0.230300
H1431	H143	0.085100	0.692700	0.237800
H1441	H144	0.129600	0.697800	0.234400
H1451	H145	0.102900	0.725400	0.207500
C1881	C188	0.139700	0.814000	0.245200
H1461	H146	0.161300	0.786900	0.242900
H1471	H147	0.142500	0.838200	0.264500
H1481	H148	0.138100	0.840700	0.226700
O841	O84	0.118700	0.849900	0.342700
C1891	C189	0.138000	0.876800	0.363600
H1491	H149	0.133700	0.918800	0.366900
N311	N31	0.164400	0.848900	0.381500
C1901	C190	0.188700	0.870800	0.405100
H1501	H150	0.210800	0.888900	0.395100
H1511	H151	0.196500	0.837200	0.418800
H1521	H152	0.175700	0.901400	0.417800
C1911	C191	0.160200	0.783000	0.375200
H1531	H153	0.134200	0.771000	0.379100
H1541	H154	0.176900	0.760300	0.389300
H1551	H155	0.166800	0.774600	0.353100
O851	O85	0.973300	0.656400	0.636100
C1921	C192	0.000900	0.666900	0.652100
H1561	H156	0.997400	0.662300	0.674300
N321	N32	0.034200	0.683300	0.643700
C1931	C193	0.042600	0.691000	0.609700
H1571	H157	0.064800	0.716400	0.607200
H1581	H158	0.021200	0.709600	0.599000
H1591	H159	0.047500	0.650800	0.600200
C1941	C194	0.065600	0.689000	0.666600
H1601	H160	0.061800	0.660200	0.684100
H1611	H161	0.066500	0.730100	0.674900
H1621	H162	0.089300	0.679500	0.655800
O861	O86	0.907900	0.732800	0.390500
C1951	C195	0.874000	0.739000	0.394100
H1631	H163	0.862200	0.776300	0.389200
N331	N33	0.853800	0.692000	0.405000
C1961	C196	0.811500	0.693000	0.409000
H1641	H164	0.799500	0.685600	0.388500
H1651	H165	0.803900	0.733300	0.416900
H1661	H166	0.803900	0.662100	0.424200
C1971	C197	0.871000	0.631000	0.414000
H1671	H167	0.876500	0.631400	0.437100
H1681	H168	0.893700	0.624200	0.402200
H1691	H169	0.852700	0.598700	0.409800
O871	O87	0.176900	0.205500	0.380700
C1981	C198	0.183500	0.214700	0.352500
H1701	H170	0.162200	0.215600	0.339000
N341	N34	0.215300	0.223300	0.338600
C1991	C199	0.216700	0.221000	0.303600
H1711	H171	0.192100	0.209300	0.295400
H1721	H172	0.235500	0.191700	0.296900
H1731	H173	0.223300	0.261400	0.295400
C2001	C200	0.249400	0.222000	0.358700
H1741	H174	0.262400	0.260700	0.357500
H1751	H175	0.266200	0.189500	0.351200
H1761	H176	0.242300	0.213500	0.380800
O881	O88	0.239000	0.965400	0.598700
O891	O89	0.158300	0.110000	0.430100
C2011	C201	0.150100	0.061000	0.411700
H1771	H177	0.148800	0.064800	0.389300
O901	O90	0.144600	0.013900	0.423800
O911	O91	0.132100	0.166500	0.481400
C2021	C202	0.141600	0.214600	0.499500
H1781	H178	0.140600	0.210800	0.521900
O921	O92	0.151700	0.264000	0.487700
Gd131	Gd13	0.723400	0.562480	0.456590
Gd141	Gd14	0.477670	0.775730	0.605930
Gd151	Gd15	0.551090	0.645420	0.660140
Gd161	Gd16	0.406960	0.853010	0.353770
Gd171	Gd17	0.646330	0.280270	0.570060
Gd181	Gd18	0.654300	0.440070	0.516760
C2031	C203	0.725800	0.756800	0.438300
C2041	C204	0.727000	0.688100	0.443000
O931	O93	0.750600	0.667100	0.462600
O941	O94	0.707300	0.655300	0.425000
C2051	C205	0.750500	0.794900	0.454900
H1791	H179	0.768800	0.777500	0.468500
C2061	C206	0.748800	0.859300	0.451700
C2071	C207	0.776600	0.899800	0.469600
O951	O95	0.774600	0.957900	0.463900
O961	O96	0.800200	0.874800	0.489400
C2081	C208	0.721000	0.886100	0.433600
H1801	H180	0.718800	0.929000	0.432500
C2091	C209	0.695400	0.847300	0.416400
C2101	C210	0.668400	0.873900	0.397100
N351	N35	0.642500	0.893300	0.380600
C2111	C211	0.614000	0.830800	0.681600
H1811	H181	0.617900	0.788400	0.683800
C2121	C212	0.698800	0.784300	0.419100
H1821	H182	0.682100	0.759300	0.407400
C2131	C213	0.622900	0.649600	0.513900
C2141	C214	0.651200	0.600000	0.502800
O971	O97	0.677900	0.615200	0.485400
O981	O98	0.644300	0.545900	0.512300
C2151	C215	0.602100	0.642900	0.541300
H1831	H183	0.603800	0.606800	0.553500
C2161	C216	0.577600	0.691300	0.551100
C2171	C217	0.558100	0.690400	0.582700
O991	O99	0.530400	0.728900	0.586500
O1001	O100	0.569000	0.654000	0.604000
C2181	C218	0.573500	0.741300	0.530500
H1841	H184	0.557900	0.774000	0.536800
C2191	C219	0.592000	0.744600	0.500800
C2201	C220	0.590700	0.800200	0.481400
N361	N36	0.586900	0.843200	0.465500
C2211	C221	0.618100	0.698500	0.491800
H1851	H185	0.631400	0.700100	0.472400
C2221	C222	0.445100	0.566400	0.610600
C2231	C223	0.469700	0.623800	0.613200
O1011	O101	0.459100	0.670300	0.598300
O1021	O102	0.496500	0.618500	0.632600
C2241	C224	0.415800	0.563200	0.587600
H1861	H186	0.411700	0.597200	0.574300
C2251	C225	0.392000	0.510600	0.583800
C2261	C226	0.360700	0.509600	0.560200
O1031	O103	0.362900	0.549300	0.537100
O1041	O104	0.336000	0.469300	0.563300
C2271	C227	0.398000	0.460600	0.601300
H1871	H187	0.383100	0.425500	0.598200
C2281	C228	0.428100	0.460700	0.625600
C2291	C229	0.438000	0.402000	0.633800
N371	N37	0.442000	0.371000	0.656200
C2301	C230	0.451400	0.516700	0.629800
H1881	H188	0.470500	0.517900	0.645500
C2311	C231	0.478000	0.852800	0.510000
C2321	C232	0.478000	0.828300	0.542900
O1051	O105	0.501000	0.850800	0.564400
O1061	O106	0.456500	0.783900	0.550400
C2331	C233	0.453000	0.832000	0.486800
H1891	H189	0.436700	0.799600	0.492000
C2341	C234	0.451100	0.856500	0.456300
C2351	C235	0.422800	0.832700	0.434200
O1071	O107	0.415100	0.866700	0.409600
O1081	O108	0.407200	0.780600	0.438400
C2361	C236	0.476700	0.902000	0.447800
H1901	H190	0.475800	0.918700	0.427000
C2371	C237	0.504200	0.923500	0.469800
C2381	C238	0.531500	0.972300	0.459800
N381	N38	0.552200	0.008700	0.452000
C2391	C239	0.504600	0.900100	0.500600
H1911	H191	0.522200	0.915100	0.515600
C2401	C240	0.442200	0.732600	0.707100
C2411	C241	0.474000	0.715300	0.686300
O1091	O109	0.473700	0.743500	0.658100
O1101	O110	0.498900	0.679500	0.694800
C2421	C242	0.439200	0.704300	0.738100
H1921	H192	0.457600	0.676300	0.745200
C2431	C243	0.408200	0.719700	0.757400
C2441	C244	0.405600	0.690900	0.790800
O1111	O111	0.435400	0.663200	0.801300
O1121	O112	0.375500	0.698400	0.807300
C2451	C245	0.380400	0.758400	0.747800
H1931	H193	0.358500	0.766500	0.759900
C2461	C246	0.387400	0.785000	0.718000
C2471	C247	0.358200	0.821000	0.708000
N391	N39	0.337300	0.859000	0.699800
C2481	C248	0.414800	0.772600	0.696800
H1941	H194	0.415300	0.790100	0.676200
C2491	C249	0.548100	0.447400	0.671000
C2501	C250	0.550500	0.515400	0.668500
O1131	O113	0.533600	0.549400	0.688500
O1141	O114	0.569600	0.537900	0.645600
C2511	C251	0.564900	0.411100	0.649300
H1951	H195	0.578400	0.429000	0.632300
C2521	C252	0.562800	0.344900	0.651500
C2531	C253	0.584700	0.306600	0.627400
O1151	O115	0.598900	0.329600	0.602300
O1161	O116	0.586100	0.250000	0.634000
C2541	C254	0.544700	0.321500	0.677000
H1961	H196	0.544600	0.278800	0.679800
C2551	C255	0.526000	0.358700	0.699800
C2561	C256	0.505000	0.332300	0.726300
N401	N40	0.487500	0.313900	0.748300
C2571	C257	0.528800	0.420600	0.696600
H1971	H197	0.517500	0.446000	0.712100
C2581	C258	0.758200	0.529400	0.566000
C2591	C259	0.735700	0.521400	0.535200
O1171	O117	0.743400	0.554900	0.511500
O1181	O118	0.711600	0.474500	0.534200
C2601	C260	0.781200	0.578600	0.568700
H1981	H198	0.784600	0.605200	0.551200
C2611	C261	0.799600	0.589600	0.597000
C2621	C262	0.826400	0.645300	0.601700
O1191	O119	0.827300	0.681800	0.578900
O1201	O120	0.845700	0.651600	0.627400
C2631	C263	0.795200	0.550400	0.624800
H1991	H199	0.807200	0.559400	0.644300
C2641	C264	0.772200	0.499000	0.621400
C2651	C265	0.765300	0.459400	0.648600
N411	N41	0.760500	0.427800	0.669100
C2661	C266	0.752400	0.492500	0.592800
H2001	H200	0.734000	0.461500	0.591400
C2671	C267	0.582700	0.850700	0.664900
C2681	C268	0.553600	0.807100	0.648900
O1211	O121	0.528200	0.828000	0.631800
O1221	O122	0.559600	0.750500	0.657100
C2691	C269	0.580200	0.914000	0.658700
H2011	H201	0.560300	0.928400	0.645800
C2701	C270	0.605300	0.954900	0.670700
C2711	C271	0.600800	0.022000	0.664000
O1231	O123	0.574900	0.040000	0.645700
O1241	O124	0.624600	0.061400	0.676300
C2721	C272	0.634800	0.934800	0.689700
H2021	H202	0.651400	0.963500	0.699000
C2731	C273	0.640500	0.871300	0.695500
C2741	C274	0.672800	0.847000	0.716000
N421	N42	0.696200	0.829300	0.732600
O1251	O125	0.710300	0.294700	0.553700
C2751	C275	0.737800	0.266100	0.539900
H2031	H203	0.734000	0.226400	0.531900
N431	N43	0.770100	0.291100	0.537200
C2761	C276	0.780200	0.355500	0.543700
H2041	H204	0.798600	0.369300	0.528100
H2051	H205	0.790800	0.358800	0.565000
H2061	H206	0.757600	0.380800	0.542200
C2771	C277	0.801600	0.252600	0.522000
H2071	H207	0.790500	0.222500	0.507700
H2081	H208	0.815700	0.231900	0.538700
H2091	H209	0.818500	0.279000	0.510000
O1261	O126	0.589700	0.445100	0.526700
C2781	C278	0.565800	0.485000	0.525900
H2101	H210	0.564900	0.503600	0.505700
N441	N44	0.541200	0.508900	0.545100
C2791	C279	0.513000	0.557200	0.539200
H2111	H211	0.512000	0.584600	0.557400
H2121	H212	0.488300	0.538600	0.536000
H2131	H213	0.519900	0.580100	0.520100
C2801	C280	0.538800	0.481700	0.576900
H2141	H214	0.558800	0.451600	0.579400
H2151	H215	0.514400	0.462000	0.579400
H2161	H216	0.541700	0.513400	0.593000
O1271	O127	0.790500	0.545700	0.456500
C2811	C281	0.813900	0.571200	0.474800
H2171	H217	0.812000	0.613900	0.476900
N451	N45	0.842400	0.542600	0.492400
C2821	C282	0.871000	0.578800	0.511300
H2181	H218	0.893600	0.584600	0.498500
H2191	H219	0.877300	0.556700	0.530800
H2201	H220	0.860300	0.618300	0.516900
C2831	C283	0.852200	0.472100	0.488400
H2211	H221	0.829100	0.448200	0.489600
H2221	H222	0.869300	0.459500	0.505400
H2231	H223	0.864200	0.465500	0.467800
O1281	O128	0.450500	0.870000	0.623000
C2841	C284	0.467000	0.920200	0.624800
H2241	H224	0.491900	0.923300	0.617100
N461	N46	0.450600	0.969400	0.637100
C2851	C285	0.471300	0.027600	0.636300
H2251	H225	0.486300	0.031600	0.655700
H2261	H226	0.453500	0.061200	0.635000
H2271	H227	0.487900	0.028300	0.617800
C2861	C286	0.411000	0.964000	0.647900
H2281	H228	0.410300	0.963500	0.671100
H2291	H229	0.400100	0.926800	0.639500
H2301	H230	0.396700	0.999100	0.640100
O1291	O129	0.577400	0.659800	0.713700
C2871	C287	0.580100	0.701800	0.732700
H2311	H231	0.557900	0.725500	0.733100
N471	N47	0.604900	0.722900	0.752600
C2881	C288	0.605700	0.781700	0.769700
H2321	H232	0.585100	0.807300	0.762200
H2331	H233	0.629600	0.802200	0.765600
H2341	H234	0.602900	0.774600	0.792500
C2891	C289	0.639700	0.686000	0.754800
H2351	H235	0.661300	0.713100	0.757100
H2361	H236	0.642500	0.661800	0.735500
H2371	H237	0.638100	0.659300	0.773300
O1301	O130	0.618700	0.650100	0.657300
C2901	C290	0.638000	0.623200	0.636400
H2381	H238	0.633700	0.581200	0.633100
N481	N48	0.664400	0.651100	0.618500
C2911	C291	0.688700	0.629200	0.594900
H2391	H239	0.710800	0.611100	0.604900
H2401	H240	0.696500	0.662800	0.581200
H2411	H241	0.675700	0.598600	0.582200
C2921	C292	0.660200	0.717000	0.624800
H2421	H242	0.634200	0.729000	0.620900
H2431	H243	0.676900	0.739700	0.610700
H2441	H244	0.666800	0.725400	0.646900
O1311	O131	0.473300	0.843600	0.363900
C2931	C293	0.500900	0.833100	0.347900
H2451	H245	0.497400	0.837700	0.325700
N491	N49	0.534200	0.816700	0.356300
C2941	C294	0.542600	0.809000	0.390300
H2461	H246	0.564800	0.783600	0.392800
H2471	H247	0.521200	0.790400	0.401000
H2481	H248	0.547500	0.849200	0.399800
C2951	C295	0.565600	0.811000	0.333400
H2491	H249	0.561800	0.839800	0.315900
H2501	H250	0.566500	0.769900	0.325100
H2511	H251	0.589300	0.820500	0.344200
O1321	O132	0.407900	0.767200	0.609500
C2961	C296	0.374000	0.761000	0.605900
H2521	H252	0.362200	0.723700	0.610800
N501	N50	0.353800	0.808000	0.595000
C2971	C297	0.311500	0.807000	0.591000
H2531	H253	0.299500	0.814400	0.611500
H2541	H254	0.303900	0.766700	0.583100
H2551	H255	0.303900	0.837900	0.575800
C2981	C298	0.371000	0.869000	0.586000
H2561	H256	0.376500	0.868600	0.562900
H2571	H257	0.393700	0.875800	0.597800
H2581	H258	0.352700	0.901300	0.590200
O1331	O133	0.676900	0.294500	0.619300
C2991	C299	0.683500	0.285300	0.647500
H2591	H259	0.662200	0.284400	0.661000
N511	N51	0.715300	0.276700	0.661400
C3001	C300	0.716700	0.279000	0.696400
H2601	H260	0.692100	0.290700	0.704600
H2611	H261	0.735500	0.308300	0.703100
H2621	H262	0.723300	0.238600	0.704600
C3011	C301	0.749400	0.278000	0.641300
H2631	H263	0.762400	0.239300	0.642500
H2641	H264	0.766200	0.310500	0.648800
H2651	H265	0.742300	0.286500	0.619200
O1341	O134	0.739000	0.534600	0.401300
O1351	O135	0.658300	0.390000	0.569900
C3021	C302	0.650100	0.439000	0.588300
H2661	H266	0.648800	0.435200	0.610700
O1361	O136	0.644600	0.486100	0.576200
O1371	O137	0.632100	0.333500	0.518600
C3031	C303	0.641600	0.285400	0.500500
H2671	H267	0.640600	0.289200	0.478100
O1381	O138	0.651700	0.236000	0.512300
Gd191	Gd19	0.776600	0.437520	0.956590
Gd201	Gd20	0.022330	0.224270	0.105930
Gd211	Gd21	0.948910	0.354580	0.160140
Gd221	Gd22	0.093040	0.146990	0.853770
Gd231	Gd23	0.853670	0.719730	0.070060
Gd241	Gd24	0.845700	0.559930	0.016760
C3041	C304	0.774200	0.243200	0.938300
C3051	C305	0.773000	0.311900	0.943000
O1391	O139	0.749400	0.332900	0.962600
O1401	O140	0.792700	0.344700	0.925000
C3061	C306	0.749500	0.205100	0.954900
H2681	H268	0.731200	0.222500	0.968500
C3071	C307	0.751200	0.140700	0.951700
C3081	C308	0.723400	0.100200	0.969600
O1411	O141	0.725400	0.042100	0.963900
O1421	O142	0.699800	0.125200	0.989400
C3091	C309	0.779000	0.113900	0.933600
H2691	H269	0.781200	0.071000	0.932500
C3101	C310	0.804600	0.152700	0.916400
C3111	C311	0.831600	0.126100	0.897100
N521	N52	0.857500	0.106700	0.880600
C3121	C312	0.886000	0.169200	0.181600
H2701	H270	0.882100	0.211600	0.183800
C3131	C313	0.801200	0.215700	0.919100
H2711	H271	0.817900	0.240700	0.907400
C3141	C314	0.877100	0.350400	0.013900
C3151	C315	0.848800	0.400000	0.002800
O1431	O143	0.822100	0.384800	0.985400
O1441	O144	0.855700	0.454100	0.012300
C3161	C316	0.897900	0.357100	0.041300
H2721	H272	0.896200	0.393200	0.053500
C3171	C317	0.922400	0.308700	0.051100
C3181	C318	0.941900	0.309600	0.082700
O1451	O145	0.969600	0.271100	0.086500
O1461	O146	0.931000	0.346000	0.104000
C3191	C319	0.926500	0.258700	0.030500
H2731	H273	0.942100	0.226000	0.036800
C3201	C320	0.908000	0.255400	0.000800
C3211	C321	0.909300	0.199800	0.981400
N531	N53	0.913100	0.156800	0.965500
C3221	C322	0.881900	0.301500	0.991800
H2741	H274	0.868600	0.299900	0.972400
C3231	C323	0.054900	0.433600	0.110600
C3241	C324	0.030300	0.376200	0.113200
O1471	O147	0.040900	0.329700	0.098300
O1481	O148	0.003500	0.381500	0.132600
C3251	C325	0.084200	0.436800	0.087600
H2751	H275	0.088300	0.402800	0.074300
C3261	C326	0.108000	0.489400	0.083800
C3271	C327	0.139300	0.490400	0.060200
O1491	O149	0.137100	0.450700	0.037100
O1501	O150	0.164000	0.530700	0.063300
C3281	C328	0.102000	0.539400	0.101300
H2761	H276	0.116900	0.574500	0.098200
C3291	C329	0.071900	0.539300	0.125600
C3301	C330	0.062000	0.598000	0.133800
N541	N54	0.058000	0.629000	0.156200
C3311	C331	0.048600	0.483300	0.129800
H2771	H277	0.029500	0.482100	0.145500
C3321	C332	0.022000	0.147200	0.010000
C3331	C333	0.022000	0.171700	0.042900
O1511	O151	0.999000	0.149200	0.064400
O1521	O152	0.043500	0.216100	0.050400
C3341	C334	0.047000	0.168000	0.986800
H2781	H278	0.063300	0.200400	0.992000
C3351	C335	0.048900	0.143500	0.956300
C3361	C336	0.077200	0.167300	0.934200
O1531	O153	0.084900	0.133300	0.909600
O1541	O154	0.092800	0.219400	0.938400
C3371	C337	0.023300	0.098000	0.947800
H2791	H279	0.024200	0.081300	0.927000
C3381	C338	0.995800	0.076500	0.969800
C3391	C339	0.968500	0.027700	0.959800
N551	N55	0.947800	0.991300	0.952000
C3401	C340	0.995400	0.099900	0.000600
H2801	H280	0.977800	0.084900	0.015600
C3411	C341	0.057800	0.267400	0.207100
C3421	C342	0.026000	0.284700	0.186300
O1551	O155	0.026300	0.256500	0.158100
O1561	O156	0.001100	0.320500	0.194800
C3431	C343	0.060800	0.295700	0.238100
H2811	H281	0.042400	0.323700	0.245200
C3441	C344	0.091800	0.280300	0.257400
C3451	C345	0.094400	0.309100	0.290800
O1571	O157	0.064600	0.336800	0.301300
O1581	O158	0.124500	0.301600	0.307300
C3461	C346	0.119600	0.241600	0.247800
H2821	H282	0.141500	0.233500	0.259900
C3471	C347	0.112600	0.215000	0.218000
C3481	C348	0.141800	0.179000	0.208000
N561	N56	0.162700	0.141000	0.199800
C3491	C349	0.085200	0.227400	0.196800
H2831	H283	0.084700	0.209900	0.176200
C3501	C350	0.951900	0.552600	0.171000
C3511	C351	0.949500	0.484600	0.168500
O1591	O159	0.966400	0.450600	0.188500
O1601	O160	0.930400	0.462100	0.145600
C3521	C352	0.935100	0.588900	0.149300
H2841	H284	0.921600	0.571000	0.132300
C3531	C353	0.937200	0.655100	0.151500
C3541	C354	0.915300	0.693400	0.127400
O1611	O161	0.901100	0.670400	0.102300
O1621	O162	0.913900	0.750000	0.134000
C3551	C355	0.955300	0.678500	0.177000
H2851	H285	0.955400	0.721200	0.179800
C3561	C356	0.974000	0.641300	0.199800
C3571	C357	0.995000	0.667700	0.226300
N571	N57	0.012500	0.686100	0.248300
C3581	C358	0.971200	0.579400	0.196600
H2861	H286	0.982500	0.554000	0.212100
C3591	C359	0.741800	0.470600	0.066000
C3601	C360	0.764300	0.478600	0.035200
O1631	O163	0.756600	0.445100	0.011500
O1641	O164	0.788400	0.525500	0.034200
C3611	C361	0.718800	0.421400	0.068700
H2871	H287	0.715400	0.394800	0.051200
C3621	C362	0.700400	0.410400	0.097000
C3631	C363	0.673600	0.354700	0.101700
O1651	O165	0.672700	0.318200	0.078900
O1661	O166	0.654300	0.348400	0.127400
C3641	C364	0.704800	0.449600	0.124800
H2881	H288	0.692800	0.440600	0.144300
C3651	C365	0.727800	0.501000	0.121400
C3661	C366	0.734700	0.540600	0.148600
N581	N58	0.739500	0.572200	0.169100
C3671	C367	0.747600	0.507500	0.092800
H2891	H289	0.766000	0.538500	0.091400
C3681	C368	0.917300	0.149300	0.164900
C3691	C369	0.946400	0.192900	0.148900
O1671	O167	0.971800	0.172000	0.131800
O1681	O168	0.940400	0.249500	0.157100
C3701	C370	0.919800	0.086000	0.158700
H2901	H290	0.939700	0.071600	0.145800
C3711	C371	0.894700	0.045100	0.170700
C3721	C372	0.899200	0.978000	0.164000
O1691	O169	0.925100	0.960000	0.145700
O1701	O170	0.875400	0.938600	0.176300
C3731	C373	0.865200	0.065200	0.189700
H2911	H291	0.848600	0.036500	0.199000
C3741	C374	0.859500	0.128700	0.195500
C3751	C375	0.827200	0.153000	0.216000
N591	N59	0.803800	0.170700	0.232600
O1711	O171	0.789700	0.705300	0.053700
C3761	C376	0.762200	0.733900	0.039900
H2921	H292	0.766000	0.773600	0.031900
N601	N60	0.729900	0.708900	0.037200
C3771	C377	0.719800	0.644500	0.043700
H2931	H293	0.701400	0.630700	0.028100
H2941	H294	0.709200	0.641200	0.065000
H2951	H295	0.742400	0.619200	0.042200
C3781	C378	0.698400	0.747400	0.022000
H2961	H296	0.709500	0.777500	0.007700
H2971	H297	0.684300	0.768100	0.038700
H2981	H298	0.681500	0.721000	0.010000
O1721	O172	0.910300	0.554900	0.026700
C3791	C379	0.934200	0.515000	0.025900
H2991	H299	0.935100	0.496400	0.005700
N611	N61	0.958800	0.491100	0.045100
C3801	C380	0.987000	0.442800	0.039200
H3001	H300	0.988000	0.415400	0.057400
H3011	H301	0.011700	0.461400	0.036000
H3021	H302	0.980100	0.419900	0.020100
C3811	C381	0.961200	0.518300	0.076900
H3031	H303	0.941200	0.548400	0.079400
H3041	H304	0.985600	0.538000	0.079400
H3051	H305	0.958300	0.486600	0.093000
O1731	O173	0.709500	0.454300	0.956500
C3821	C382	0.686100	0.428800	0.974800
H3061	H306	0.688000	0.386100	0.976900
N621	N62	0.657600	0.457400	0.992400
C3831	C383	0.629000	0.421200	0.011300
H3071	H307	0.606400	0.415400	0.998500
H3081	H308	0.622700	0.443300	0.030800
H3091	H309	0.639700	0.381700	0.016900
C3841	C384	0.647800	0.527900	0.988400
H3101	H310	0.670900	0.551800	0.989600
H3111	H311	0.630700	0.540500	0.005400
H3121	H312	0.635800	0.534500	0.967800
O1741	O174	0.049500	0.130000	0.123000
C3851	C385	0.033000	0.079800	0.124800
H3131	H313	0.008100	0.076700	0.117100
N631	N63	0.049400	0.030600	0.137100
C3861	C386	0.028700	0.972400	0.136300
H3141	H314	0.013700	0.968400	0.155700
H3151	H315	0.046500	0.938800	0.135000
H3161	H316	0.012100	0.971700	0.117800
C3871	C387	0.089000	0.036000	0.147900
H3171	H317	0.089700	0.036500	0.171100
H3181	H318	0.099900	0.073200	0.139500
H3191	H319	0.103300	0.000900	0.140100
O1751	O175	0.922600	0.340200	0.213700
C3881	C388	0.919900	0.298200	0.232700
H3201	H320	0.942100	0.274500	0.233100
N641	N64	0.895100	0.277100	0.252600
C3891	C389	0.894300	0.218300	0.269700
H3211	H321	0.914900	0.192700	0.262200
H3221	H322	0.870400	0.197800	0.265600
H3231	H323	0.897100	0.225400	0.292500
C3901	C390	0.860300	0.314000	0.254800
H3241	H324	0.838700	0.286900	0.257100
H3251	H325	0.857500	0.338200	0.235500
H3261	H326	0.861900	0.340700	0.273300
O1761	O176	0.881300	0.349900	0.157300
C3911	C391	0.862000	0.376800	0.136400
H3271	H327	0.866300	0.418800	0.133100
N651	N65	0.835600	0.348900	0.118500
C3921	C392	0.811300	0.370800	0.094900
H3281	H328	0.789200	0.388900	0.104900
H3291	H329	0.803500	0.337200	0.081200
H3301	H330	0.824300	0.401400	0.082200
C3931	C393	0.839800	0.283000	0.124800
H3311	H331	0.865800	0.271000	0.120900
H3321	H332	0.823100	0.260300	0.110700
H3331	H333	0.833200	0.274600	0.146900
O1771	O177	0.026700	0.156400	0.863900
C3941	C394	0.999100	0.166900	0.847900
H3341	H334	0.002600	0.162300	0.825700
N661	N66	0.965800	0.183300	0.856300
C3951	C395	0.957400	0.191000	0.890300
H3351	H335	0.935200	0.216400	0.892800
H3361	H336	0.978800	0.209600	0.901000
H3371	H337	0.952500	0.150800	0.899800
C3961	C396	0.934400	0.189000	0.833400
H3381	H338	0.938200	0.160200	0.815900
H3391	H339	0.933500	0.230100	0.825100
H3401	H340	0.910700	0.179500	0.844200
O1781	O178	0.092100	0.232800	0.109500
C3971	C397	0.126000	0.239000	0.105900
H3411	H341	0.137800	0.276300	0.110800
N671	N67	0.146200	0.192000	0.095000
C3981	C398	0.188500	0.193000	0.091000
H3421	H342	0.200500	0.185600	0.111500
H3431	H343	0.196100	0.233300	0.083100
H3441	H344	0.196100	0.162100	0.075800
C3991	C399	0.129000	0.131000	0.086000
H3451	H345	0.123500	0.131400	0.062900
H3461	H346	0.106300	0.124200	0.097800
H3471	H347	0.147300	0.098700	0.090200
O1791	O179	0.823100	0.705500	0.119300
C4001	C400	0.816500	0.714700	0.147500
H3481	H348	0.837800	0.715600	0.161000
N681	N68	0.784700	0.723300	0.161400
C4011	C401	0.783300	0.721000	0.196400
H3491	H349	0.807900	0.709300	0.204600
H3501	H350	0.764500	0.691700	0.203100
H3511	H351	0.776700	0.761400	0.204600
C4021	C402	0.750600	0.722000	0.141300
H3521	H352	0.737600	0.760700	0.142500
H3531	H353	0.733800	0.689500	0.148800
H3541	H354	0.757700	0.713500	0.119200
O1801	O180	0.761000	0.465400	0.901300
O1811	O181	0.841700	0.610000	0.069900
C4031	C403	0.849900	0.561000	0.088300
H3551	H355	0.851200	0.564800	0.110700
O1821	O182	0.855400	0.513900	0.076200
O1831	O183	0.867900	0.666500	0.018600
C4041	C404	0.858400	0.714600	0.000500
H3561	H356	0.859400	0.710800	0.978100
O1841	O184	0.848300	0.764000	0.012300
Gd251	Gd25	0.723400	0.937520	0.956590
Gd261	Gd26	0.477670	0.724270	0.105930
Gd271	Gd27	0.551090	0.854580	0.160140
Gd281	Gd28	0.406960	0.646990	0.853770
Gd291	Gd29	0.646330	0.219730	0.070060
Gd301	Gd30	0.654300	0.059930	0.016760
C4051	C405	0.725800	0.743200	0.938300
C4061	C406	0.727000	0.811900	0.943000
O1851	O185	0.750600	0.832900	0.962600
O1861	O186	0.707300	0.844700	0.925000
C4071	C407	0.750500	0.705100	0.954900
H3571	H357	0.768800	0.722500	0.968500
C4081	C408	0.748800	0.640700	0.951700
C4091	C409	0.776600	0.600200	0.969600
O1871	O187	0.774600	0.542100	0.963900
O1881	O188	0.800200	0.625200	0.989400
C4101	C410	0.721000	0.613900	0.933600
H3581	H358	0.718800	0.571000	0.932500
C4111	C411	0.695400	0.652700	0.916400
C4121	C412	0.668400	0.626100	0.897100
N691	N69	0.642500	0.606700	0.880600
C4131	C413	0.614000	0.669200	0.181600
H3591	H359	0.617900	0.711600	0.183800
C4141	C414	0.698800	0.715700	0.919100
H3601	H360	0.682100	0.740700	0.907400
C4151	C415	0.622900	0.850400	0.013900
C4161	C416	0.651200	0.900000	0.002800
O1891	O189	0.677900	0.884800	0.985400
O1901	O190	0.644300	0.954100	0.012300
C4171	C417	0.602100	0.857100	0.041300
H3611	H361	0.603800	0.893200	0.053500
C4181	C418	0.577600	0.808700	0.051100
C4191	C419	0.558100	0.809600	0.082700
O1911	O191	0.530400	0.771100	0.086500
O1921	O192	0.569000	0.846000	0.104000
C4201	C420	0.573500	0.758700	0.030500
H3621	H362	0.557900	0.726000	0.036800
C4211	C421	0.592000	0.755400	0.000800
C4221	C422	0.590700	0.699800	0.981400
N701	N70	0.586900	0.656800	0.965500
C4231	C423	0.618100	0.801500	0.991800
H3631	H363	0.631400	0.799900	0.972400
C4241	C424	0.445100	0.933600	0.110600
C4251	C425	0.469700	0.876200	0.113200
O1931	O193	0.459100	0.829700	0.098300
O1941	O194	0.496500	0.881500	0.132600
C4261	C426	0.415800	0.936800	0.087600
H3641	H364	0.411700	0.902800	0.074300
C4271	C427	0.392000	0.989400	0.083800
C4281	C428	0.360700	0.990400	0.060200
O1951	O195	0.362900	0.950700	0.037100
O1961	O196	0.336000	0.030700	0.063300
C4291	C429	0.398000	0.039400	0.101300
H3651	H365	0.383100	0.074500	0.098200
C4301	C430	0.428100	0.039300	0.125600
C4311	C431	0.438000	0.098000	0.133800
N711	N71	0.442000	0.129000	0.156200
C4321	C432	0.451400	0.983300	0.129800
H3661	H366	0.470500	0.982100	0.145500
C4331	C433	0.478000	0.647200	0.010000
C4341	C434	0.478000	0.671700	0.042900
O1971	O197	0.501000	0.649200	0.064400
O1981	O198	0.456500	0.716100	0.050400
C4351	C435	0.453000	0.668000	0.986800
H3671	H367	0.436700	0.700400	0.992000
C4361	C436	0.451100	0.643500	0.956300
C4371	C437	0.422800	0.667300	0.934200
O1991	O199	0.415100	0.633300	0.909600
O2001	O200	0.407200	0.719400	0.938400
C4381	C438	0.476700	0.598000	0.947800
H3681	H368	0.475800	0.581300	0.927000
C4391	C439	0.504200	0.576500	0.969800
C4401	C440	0.531500	0.527700	0.959800
N721	N72	0.552200	0.491300	0.952000
C4411	C441	0.504600	0.599900	0.000600
H3691	H369	0.522200	0.584900	0.015600
C4421	C442	0.442200	0.767400	0.207100
C4431	C443	0.474000	0.784700	0.186300
O2011	O201	0.473700	0.756500	0.158100
O2021	O202	0.498900	0.820500	0.194800
C4441	C444	0.439200	0.795700	0.238100
H3701	H370	0.457600	0.823700	0.245200
C4451	C445	0.408200	0.780300	0.257400
C4461	C446	0.405600	0.809100	0.290800
O2031	O203	0.435400	0.836800	0.301300
O2041	O204	0.375500	0.801600	0.307300
C4471	C447	0.380400	0.741600	0.247800
H3711	H371	0.358500	0.733500	0.259900
C4481	C448	0.387400	0.715000	0.218000
C4491	C449	0.358200	0.679000	0.208000
N731	N73	0.337300	0.641000	0.199800
C4501	C450	0.414800	0.727400	0.196800
H3721	H372	0.415300	0.709900	0.176200
C4511	C451	0.548100	0.052600	0.171000
C4521	C452	0.550500	0.984600	0.168500
O2051	O205	0.533600	0.950600	0.188500
O2061	O206	0.569600	0.962100	0.145600
C4531	C453	0.564900	0.088900	0.149300
H3731	H373	0.578400	0.071000	0.132300
C4541	C454	0.562800	0.155100	0.151500
C4551	C455	0.584700	0.193400	0.127400
O2071	O207	0.598900	0.170400	0.102300
O2081	O208	0.586100	0.250000	0.134000
C4561	C456	0.544700	0.178500	0.177000
H3741	H374	0.544600	0.221200	0.179800
C4571	C457	0.526000	0.141300	0.199800
C4581	C458	0.505000	0.167700	0.226300
N741	N74	0.487500	0.186100	0.248300
C4591	C459	0.528800	0.079400	0.196600
H3751	H375	0.517500	0.054000	0.212100
C4601	C460	0.758200	0.970600	0.066000
C4611	C461	0.735700	0.978600	0.035200
O2091	O209	0.743400	0.945100	0.011500
O2101	O210	0.711600	0.025500	0.034200
C4621	C462	0.781200	0.921400	0.068700
H3761	H376	0.784600	0.894800	0.051200
C4631	C463	0.799600	0.910400	0.097000
C4641	C464	0.826400	0.854700	0.101700
O2111	O211	0.827300	0.818200	0.078900
O2121	O212	0.845700	0.848400	0.127400
C4651	C465	0.795200	0.949600	0.124800
H3771	H377	0.807200	0.940600	0.144300
C4661	C466	0.772200	0.001000	0.121400
C4671	C467	0.765300	0.040600	0.148600
N751	N75	0.760500	0.072200	0.169100
C4681	C468	0.752400	0.007500	0.092800
H3781	H378	0.734000	0.038500	0.091400
C4691	C469	0.582700	0.649300	0.164900
C4701	C470	0.553600	0.692900	0.148900
O2131	O213	0.528200	0.672000	0.131800
O2141	O214	0.559600	0.749500	0.157100
C4711	C471	0.580200	0.586000	0.158700
H3791	H379	0.560300	0.571600	0.145800
C4721	C472	0.605300	0.545100	0.170700
C4731	C473	0.600800	0.478000	0.164000
O2151	O215	0.574900	0.460000	0.145700
O2161	O216	0.624600	0.438600	0.176300
C4741	C474	0.634800	0.565200	0.189700
H3801	H380	0.651400	0.536500	0.199000
C4751	C475	0.640500	0.628700	0.195500
C4761	C476	0.672800	0.653000	0.216000
N761	N76	0.696200	0.670700	0.232600
O2171	O217	0.710300	0.205300	0.053700
C4771	C477	0.737800	0.233900	0.039900
H3811	H381	0.734000	0.273600	0.031900
N771	N77	0.770100	0.208900	0.037200
C4781	C478	0.780200	0.144500	0.043700
H3821	H382	0.798600	0.130700	0.028100
H3831	H383	0.790800	0.141200	0.065000
H3841	H384	0.757600	0.119200	0.042200
C4791	C479	0.801600	0.247400	0.022000
H3851	H385	0.790500	0.277500	0.007700
H3861	H386	0.815700	0.268100	0.038700
H3871	H387	0.818500	0.221000	0.010000
O2181	O218	0.589700	0.054900	0.026700
C4801	C480	0.565800	0.015000	0.025900
H3881	H388	0.564900	0.996400	0.005700
N781	N78	0.541200	0.991100	0.045100
C4811	C481	0.513000	0.942800	0.039200
H3891	H389	0.512000	0.915400	0.057400
H3901	H390	0.488300	0.961400	0.036000
H3911	H391	0.519900	0.919900	0.020100
C4821	C482	0.538800	0.018300	0.076900
H3921	H392	0.558800	0.048400	0.079400
H3931	H393	0.514400	0.038000	0.079400
H3941	H394	0.541700	0.986600	0.093000
O2191	O219	0.790500	0.954300	0.956500
C4831	C483	0.813900	0.928800	0.974800
H3951	H395	0.812000	0.886100	0.976900
N791	N79	0.842400	0.957400	0.992400
C4841	C484	0.871000	0.921200	0.011300
H3961	H396	0.893600	0.915400	0.998500
H3971	H397	0.877300	0.943300	0.030800
H3981	H398	0.860300	0.881700	0.016900
C4851	C485	0.852200	0.027900	0.988400
H3991	H399	0.829100	0.051800	0.989600
H4001	H400	0.869300	0.040500	0.005400
H4011	H401	0.864200	0.034500	0.967800
O2201	O220	0.450500	0.630000	0.123000
C4861	C486	0.467000	0.579800	0.124800
H4021	H402	0.491900	0.576700	0.117100
N801	N80	0.450600	0.530600	0.137100
C4871	C487	0.471300	0.472400	0.136300
H4031	H403	0.486300	0.468400	0.155700
H4041	H404	0.453500	0.438800	0.135000
H4051	H405	0.487900	0.471700	0.117800
C4881	C488	0.411000	0.536000	0.147900
H4061	H406	0.410300	0.536500	0.171100
H4071	H407	0.400100	0.573200	0.139500
H4081	H408	0.396700	0.500900	0.140100
O2211	O221	0.577400	0.840200	0.213700
C4891	C489	0.580100	0.798200	0.232700
H4091	H409	0.557900	0.774500	0.233100
N811	N81	0.604900	0.777100	0.252600
C4901	C490	0.605700	0.718300	0.269700
H4101	H410	0.585100	0.692700	0.262200
H4111	H411	0.629600	0.697800	0.265600
H4121	H412	0.602900	0.725400	0.292500
C4911	C491	0.639700	0.814000	0.254800
H4131	H413	0.661300	0.786900	0.257100
H4141	H414	0.642500	0.838200	0.235500
H4151	H415	0.638100	0.840700	0.273300
O2221	O222	0.618700	0.849900	0.157300
C4921	C492	0.638000	0.876800	0.136400
H4161	H416	0.633700	0.918800	0.133100
N821	N82	0.664400	0.848900	0.118500
C4931	C493	0.688700	0.870800	0.094900
H4171	H417	0.710800	0.888900	0.104900
H4181	H418	0.696500	0.837200	0.081200
H4191	H419	0.675700	0.901400	0.082200
C4941	C494	0.660200	0.783000	0.124800
H4201	H420	0.634200	0.771000	0.120900
H4211	H421	0.676900	0.760300	0.110700
H4221	H422	0.666800	0.774600	0.146900
O2231	O223	0.473300	0.656400	0.863900
C4951	C495	0.500900	0.666900	0.847900
H4231	H423	0.497400	0.662300	0.825700
N831	N83	0.534200	0.683300	0.856300
C4961	C496	0.542600	0.691000	0.890300
H4241	H424	0.564800	0.716400	0.892800
H4251	H425	0.521200	0.709600	0.901000
H4261	H426	0.547500	0.650800	0.899800
C4971	C497	0.565600	0.689000	0.833400
H4271	H427	0.561800	0.660200	0.815900
H4281	H428	0.566500	0.730100	0.825100
H4291	H429	0.589300	0.679500	0.844200
O2241	O224	0.407900	0.732800	0.109500
C4981	C498	0.374000	0.739000	0.105900
H4301	H430	0.362200	0.776300	0.110800
N841	N84	0.353800	0.692000	0.095000
C4991	C499	0.311500	0.693000	0.091000
H4311	H431	0.299500	0.685600	0.111500
H4321	H432	0.303900	0.733300	0.083100
H4331	H433	0.303900	0.662100	0.075800
C5001	C500	0.371000	0.631000	0.086000
H4341	H434	0.376500	0.631400	0.062900
H4351	H435	0.393700	0.624200	0.097800
H4361	H436	0.352700	0.598700	0.090200
O2251	O225	0.676900	0.205500	0.119300
C5011	C501	0.683500	0.214700	0.147500
H4371	H437	0.662200	0.215600	0.161000
N851	N85	0.715300	0.223300	0.161400
C5021	C502	0.716700	0.221000	0.196400
H4381	H438	0.692100	0.209300	0.204600
H4391	H439	0.735500	0.191700	0.203100
H4401	H440	0.723300	0.261400	0.204600
C5031	C503	0.749400	0.222000	0.141300
H4411	H441	0.762400	0.260700	0.142500
H4421	H442	0.766200	0.189500	0.148800
H4431	H443	0.742300	0.213500	0.119200
O2261	O226	0.739000	0.965400	0.901300
O2271	O227	0.658300	0.110000	0.069900
C5041	C504	0.650100	0.061000	0.088300
H4441	H444	0.648800	0.064800	0.110700
O2281	O228	0.644600	0.013900	0.076200
O2291	O229	0.632100	0.166500	0.018600
C5051	C505	0.641600	0.214600	0.000500
H4451	H445	0.640600	0.210800	0.978100
O2301	O230	0.651700	0.264000	0.012300
Gd311	Gd31	0.776600	0.062480	0.456590
Gd321	Gd32	0.022330	0.275730	0.605930
Gd331	Gd33	0.948910	0.145420	0.660140
Gd341	Gd34	0.093040	0.353010	0.353770
Gd351	Gd35	0.853670	0.780270	0.570060
Gd361	Gd36	0.845700	0.940070	0.516760
C5061	C506	0.774200	0.256800	0.438300
C5071	C507	0.773000	0.188100	0.443000
O2311	O231	0.749400	0.167100	0.462600
O2321	O232	0.792700	0.155300	0.425000
C5081	C508	0.749500	0.294900	0.454900
H4461	H446	0.731200	0.277500	0.468500
C5091	C509	0.751200	0.359300	0.451700
C5101	C510	0.723400	0.399800	0.469600
O2331	O233	0.725400	0.457900	0.463900
O2341	O234	0.699800	0.374800	0.489400
C5111	C511	0.779000	0.386100	0.433600
H4471	H447	0.781200	0.429000	0.432500
C5121	C512	0.804600	0.347300	0.416400
C5131	C513	0.831600	0.373900	0.397100
N861	N86	0.857500	0.393300	0.380600
C5141	C514	0.886000	0.330800	0.681600
H4481	H448	0.882100	0.288400	0.683800
C5151	C515	0.801200	0.284300	0.419100
H4491	H449	0.817900	0.259300	0.407400
C5161	C516	0.877100	0.149600	0.513900
C5171	C517	0.848800	0.100000	0.502800
O2351	O235	0.822100	0.115200	0.485400
O2361	O236	0.855700	0.045900	0.512300
C5181	C518	0.897900	0.142900	0.541300
H4501	H450	0.896200	0.106800	0.553500
C5191	C519	0.922400	0.191300	0.551100
C5201	C520	0.941900	0.190400	0.582700
O2371	O237	0.969600	0.228900	0.586500
O2381	O238	0.931000	0.154000	0.604000
C5211	C521	0.926500	0.241300	0.530500
H4511	H451	0.942100	0.274000	0.536800
C5221	C522	0.908000	0.244600	0.500800
C5231	C523	0.909300	0.300200	0.481400
N871	N87	0.913100	0.343200	0.465500
C5241	C524	0.881900	0.198500	0.491800
H4521	H452	0.868600	0.200100	0.472400
C5251	C525	0.054900	0.066400	0.610600
C5261	C526	0.030300	0.123800	0.613200
O2391	O239	0.040900	0.170300	0.598300
O2401	O240	0.003500	0.118500	0.632600
C5271	C527	0.084200	0.063200	0.587600
H4531	H453	0.088300	0.097200	0.574300
C5281	C528	0.108000	0.010600	0.583800
C5291	C529	0.139300	0.009600	0.560200
O2411	O241	0.137100	0.049300	0.537100
O2421	O242	0.164000	0.969300	0.563300
C5301	C530	0.102000	0.960600	0.601300
H4541	H454	0.116900	0.925500	0.598200
C5311	C531	0.071900	0.960700	0.625600
C5321	C532	0.062000	0.902000	0.633800
N881	N88	0.058000	0.871000	0.656200
C5331	C533	0.048600	0.016700	0.629800
H4551	H455	0.029500	0.017900	0.645500
C5341	C534	0.022000	0.352800	0.510000
C5351	C535	0.022000	0.328300	0.542900
O2431	O243	0.999000	0.350800	0.564400
O2441	O244	0.043500	0.283900	0.550400
C5361	C536	0.047000	0.332000	0.486800
H4561	H456	0.063300	0.299600	0.492000
C5371	C537	0.048900	0.356500	0.456300
C5381	C538	0.077200	0.332700	0.434200
O2451	O245	0.084900	0.366700	0.409600
O2461	O246	0.092800	0.280600	0.438400
C5391	C539	0.023300	0.402000	0.447800
H4571	H457	0.024200	0.418700	0.427000
C5401	C540	0.995800	0.423500	0.469800
C5411	C541	0.968500	0.472300	0.459800
N891	N89	0.947800	0.508700	0.452000
C5421	C542	0.995400	0.400100	0.500600
H4581	H458	0.977800	0.415100	0.515600
C5431	C543	0.057800	0.232600	0.707100
C5441	C544	0.026000	0.215300	0.686300
O2471	O247	0.026300	0.243500	0.658100
O2481	O248	0.001100	0.179500	0.694800
C5451	C545	0.060800	0.204300	0.738100
H4591	H459	0.042400	0.176300	0.745200
C5461	C546	0.091800	0.219700	0.757400
C5471	C547	0.094400	0.190900	0.790800
O2491	O249	0.064600	0.163200	0.801300
O2501	O250	0.124500	0.198400	0.807300
C5481	C548	0.119600	0.258400	0.747800
H4601	H460	0.141500	0.266500	0.759900
C5491	C549	0.112600	0.285000	0.718000
C5501	C550	0.141800	0.321000	0.708000
N901	N90	0.162700	0.359000	0.699800
C5511	C551	0.085200	0.272600	0.696800
H4611	H461	0.084700	0.290100	0.676200
C5521	C552	0.951900	0.947400	0.671000
C5531	C553	0.949500	0.015400	0.668500
O2511	O251	0.966400	0.049400	0.688500
O2521	O252	0.930400	0.037900	0.645600
C5541	C554	0.935100	0.911100	0.649300
H4621	H462	0.921600	0.929000	0.632300
C5551	C555	0.937200	0.844900	0.651500
C5561	C556	0.915300	0.806600	0.627400
O2531	O253	0.901100	0.829600	0.602300
O2541	O254	0.913900	0.750000	0.634000
C5571	C557	0.955300	0.821500	0.677000
H4631	H463	0.955400	0.778800	0.679800
C5581	C558	0.974000	0.858700	0.699800
C5591	C559	0.995000	0.832300	0.726300
N911	N91	0.012500	0.813900	0.748300
C5601	C560	0.971200	0.920600	0.696600
H4641	H464	0.982500	0.946000	0.712100
C5611	C561	0.741800	0.029400	0.566000
C5621	C562	0.764300	0.021400	0.535200
O2551	O255	0.756600	0.054900	0.511500
O2561	O256	0.788400	0.974500	0.534200
C5631	C563	0.718800	0.078600	0.568700
H4651	H465	0.715400	0.105200	0.551200
C5641	C564	0.700400	0.089600	0.597000
C5651	C565	0.673600	0.145300	0.601700
O2571	O257	0.672700	0.181800	0.578900
O2581	O258	0.654300	0.151600	0.627400
C5661	C566	0.704800	0.050400	0.624800
H4661	H466	0.692800	0.059400	0.644300
C5671	C567	0.727800	0.999000	0.621400
C5681	C568	0.734700	0.959400	0.648600
N921	N92	0.739500	0.927800	0.669100
C5691	C569	0.747600	0.992500	0.592800
H4671	H467	0.766000	0.961500	0.591400
C5701	C570	0.917300	0.350700	0.664900
C5711	C571	0.946400	0.307100	0.648900
O2591	O259	0.971800	0.328000	0.631800
O2601	O260	0.940400	0.250500	0.657100
C5721	C572	0.919800	0.414000	0.658700
H4681	H468	0.939700	0.428400	0.645800
C5731	C573	0.894700	0.454900	0.670700
C5741	C574	0.899200	0.522000	0.664000
O2611	O261	0.925100	0.540000	0.645700
O2621	O262	0.875400	0.561400	0.676300
C5751	C575	0.865200	0.434800	0.689700
H4691	H469	0.848600	0.463500	0.699000
C5761	C576	0.859500	0.371300	0.695500
C5771	C577	0.827200	0.347000	0.716000
N931	N93	0.803800	0.329300	0.732600
O2631	O263	0.789700	0.794700	0.553700
C5781	C578	0.762200	0.766100	0.539900
H4701	H470	0.766000	0.726400	0.531900
N941	N94	0.729900	0.791100	0.537200
C5791	C579	0.719800	0.855500	0.543700
H4711	H471	0.701400	0.869300	0.528100
H4721	H472	0.709200	0.858800	0.565000
H4731	H473	0.742400	0.880800	0.542200
C5801	C580	0.698400	0.752600	0.522000
H4741	H474	0.709500	0.722500	0.507700
H4751	H475	0.684300	0.731900	0.538700
H4761	H476	0.681500	0.779000	0.510000
O2641	O264	0.910300	0.945100	0.526700
C5811	C581	0.934200	0.985000	0.525900
H4771	H477	0.935100	0.003600	0.505700
N951	N95	0.958800	0.008900	0.545100
C5821	C582	0.987000	0.057200	0.539200
H4781	H478	0.988000	0.084600	0.557400
H4791	H479	0.011700	0.038600	0.536000
H4801	H480	0.980100	0.080100	0.520100
C5831	C583	0.961200	0.981700	0.576900
H4811	H481	0.941200	0.951600	0.579400
H4821	H482	0.985600	0.962000	0.579400
H4831	H483	0.958300	0.013400	0.593000
O2651	O265	0.709500	0.045700	0.456500
C5841	C584	0.686100	0.071200	0.474800
H4841	H484	0.688000	0.113900	0.476900
N961	N96	0.657600	0.042600	0.492400
C5851	C585	0.629000	0.078800	0.511300
H4851	H485	0.606400	0.084600	0.498500
H4861	H486	0.622700	0.056700	0.530800
H4871	H487	0.639700	0.118300	0.516900
C5861	C586	0.647800	0.972100	0.488400
H4881	H488	0.670900	0.948200	0.489600
H4891	H489	0.630700	0.959500	0.505400
H4901	H490	0.635800	0.965500	0.467800
O2661	O266	0.049500	0.370000	0.623000
C5871	C587	0.033000	0.420200	0.624800
H4911	H491	0.008100	0.423300	0.617100
N971	N97	0.049400	0.469400	0.637100
C5881	C588	0.028700	0.527600	0.636300
H4921	H492	0.013700	0.531600	0.655700
H4931	H493	0.046500	0.561200	0.635000
H4941	H494	0.012100	0.528300	0.617800
C5891	C589	0.089000	0.464000	0.647900
H4951	H495	0.089700	0.463500	0.671100
H4961	H496	0.099900	0.426800	0.639500
H4971	H497	0.103300	0.499100	0.640100
O2671	O267	0.922600	0.159800	0.713700
C5901	C590	0.919900	0.201800	0.732700
H4981	H498	0.942100	0.225500	0.733100
N981	N98	0.895100	0.222900	0.752600
C5911	C591	0.894300	0.281700	0.769700
H4991	H499	0.914900	0.307300	0.762200
H5001	H500	0.870400	0.302200	0.765600
H5011	H501	0.897100	0.274600	0.792500
C5921	C592	0.860300	0.186000	0.754800
H5021	H502	0.838700	0.213100	0.757100
H5031	H503	0.857500	0.161800	0.735500
H5041	H504	0.861900	0.159300	0.773300
O2681	O268	0.881300	0.150100	0.657300
C5931	C593	0.862000	0.123200	0.636400
H5051	H505	0.866300	0.081200	0.633100
N991	N99	0.835600	0.151100	0.618500
C5941	C594	0.811300	0.129200	0.594900
H5061	H506	0.789200	0.111100	0.604900
H5071	H507	0.803500	0.162800	0.581200
H5081	H508	0.824300	0.098600	0.582200
C5951	C595	0.839800	0.217000	0.624800
H5091	H509	0.865800	0.229000	0.620900
H5101	H510	0.823100	0.239700	0.610700
H5111	H511	0.833200	0.225400	0.646900
O2691	O269	0.026700	0.343600	0.363900
C5961	C596	0.999100	0.333100	0.347900
H5121	H512	0.002600	0.337700	0.325700
N1001	N100	0.965800	0.316700	0.356300
C5971	C597	0.957400	0.309000	0.390300
H5131	H513	0.935200	0.283600	0.392800
H5141	H514	0.978800	0.290400	0.401000
H5151	H515	0.952500	0.349200	0.399800
C5981	C598	0.934400	0.311000	0.333400
H5161	H516	0.938200	0.339800	0.315900
H5171	H517	0.933500	0.269900	0.325100
H5181	H518	0.910700	0.320500	0.344200
O2701	O270	0.092100	0.267200	0.609500
C5991	C599	0.126000	0.261000	0.605900
H5191	H519	0.137800	0.223700	0.610800
N1011	N101	0.146200	0.308000	0.595000
C6001	C600	0.188500	0.307000	0.591000
H5201	H520	0.200500	0.314400	0.611500
H5211	H521	0.196100	0.266700	0.583100
H5221	H522	0.196100	0.337900	0.575800
C6011	C601	0.129000	0.369000	0.586000
H5231	H523	0.123500	0.368600	0.562900
H5241	H524	0.106300	0.375800	0.597800
H5251	H525	0.147300	0.401300	0.590200
O2711	O271	0.823100	0.794500	0.619300
C6021	C602	0.816500	0.785300	0.647500
H5261	H526	0.837800	0.784400	0.661000
N1021	N102	0.784700	0.776700	0.661400
C6031	C603	0.783300	0.779000	0.696400
H5271	H527	0.807900	0.790700	0.704600
H5281	H528	0.764500	0.808300	0.703100
H5291	H529	0.776700	0.738600	0.704600
C6041	C604	0.750600	0.778000	0.641300
H5301	H530	0.737600	0.739300	0.642500
H5311	H531	0.733800	0.810500	0.648800
H5321	H532	0.757700	0.786500	0.619200
O2721	O272	0.761000	0.034600	0.401300
O2731	O273	0.841700	0.890000	0.569900
C6051	C605	0.849900	0.939000	0.588300
H5331	H533	0.851200	0.935200	0.610700
O2741	O274	0.855400	0.986100	0.576200
O2751	O275	0.867900	0.833500	0.518600
C6061	C606	0.858400	0.785400	0.500500
H5341	H534	0.859400	0.789200	0.478100
O2761	O276	0.848300	0.736000	0.512300
Gd371	Gd37	0.276600	0.437520	0.543410
Gd381	Gd38	0.522330	0.224270	0.394070
Gd391	Gd39	0.448910	0.354580	0.339860
Gd401	Gd40	0.593040	0.146990	0.646230
Gd411	Gd41	0.353670	0.719730	0.429940
Gd421	Gd42	0.345700	0.559930	0.483240
C6071	C607	0.274200	0.243200	0.561700
C6081	C608	0.273000	0.311900	0.557000
O2771	O277	0.249400	0.332900	0.537400
O2781	O278	0.292700	0.344700	0.575000
C6091	C609	0.249500	0.205100	0.545100
H5351	H535	0.231200	0.222500	0.531500
C6101	C610	0.251200	0.140700	0.548300
C6111	C611	0.223400	0.100200	0.530400
O2791	O279	0.225400	0.042100	0.536100
O2801	O280	0.199800	0.125200	0.510600
C6121	C612	0.279000	0.113900	0.566400
H5361	H536	0.281200	0.071000	0.567500
C6131	C613	0.304600	0.152700	0.583600
C6141	C614	0.331600	0.126100	0.602900
N1031	N103	0.357500	0.106700	0.619400
C6151	C615	0.386000	0.169200	0.318400
H5371	H537	0.382100	0.211600	0.316200
C6161	C616	0.301200	0.215700	0.580900
H5381	H538	0.317900	0.240700	0.592600
C6171	C617	0.377100	0.350400	0.486100
C6181	C618	0.348800	0.400000	0.497200
O2811	O281	0.322100	0.384800	0.514600
O2821	O282	0.355700	0.454100	0.487700
C6191	C619	0.397900	0.357100	0.458700
H5391	H539	0.396200	0.393200	0.446500
C6201	C620	0.422400	0.308700	0.448900
C6211	C621	0.441900	0.309600	0.417300
O2831	O283	0.469600	0.271100	0.413500
O2841	O284	0.431000	0.346000	0.396000
C6221	C622	0.426500	0.258700	0.469500
H5401	H540	0.442100	0.226000	0.463200
C6231	C623	0.408000	0.255400	0.499200
C6241	C624	0.409300	0.199800	0.518600
N1041	N104	0.413100	0.156800	0.534500
C6251	C625	0.381900	0.301500	0.508200
H5411	H541	0.368600	0.299900	0.527600
C6261	C626	0.554900	0.433600	0.389400
C6271	C627	0.530300	0.376200	0.386800
O2851	O285	0.540900	0.329700	0.401700
O2861	O286	0.503500	0.381500	0.367400
C6281	C628	0.584200	0.436800	0.412400
H5421	H542	0.588300	0.402800	0.425700
C6291	C629	0.608000	0.489400	0.416200
C6301	C630	0.639300	0.490400	0.439800
O2871	O287	0.637100	0.450700	0.462900
O2881	O288	0.664000	0.530700	0.436700
C6311	C631	0.602000	0.539400	0.398700
H5431	H543	0.616900	0.574500	0.401800
C6321	C632	0.571900	0.539300	0.374400
C6331	C633	0.562000	0.598000	0.366200
N1051	N105	0.558000	0.629000	0.343800
C6341	C634	0.548600	0.483300	0.370200
H5441	H544	0.529500	0.482100	0.354500
C6351	C635	0.522000	0.147200	0.490000
C6361	C636	0.522000	0.171700	0.457100
O2891	O289	0.499000	0.149200	0.435600
O2901	O290	0.543500	0.216100	0.449600
C6371	C637	0.547000	0.168000	0.513200
H5451	H545	0.563300	0.200400	0.508000
C6381	C638	0.548900	0.143500	0.543700
C6391	C639	0.577200	0.167300	0.565800
O2911	O291	0.584900	0.133300	0.590400
O2921	O292	0.592800	0.219400	0.561600
C6401	C640	0.523300	0.098000	0.552200
H5461	H546	0.524200	0.081300	0.573000
C6411	C641	0.495800	0.076500	0.530200
C6421	C642	0.468500	0.027700	0.540200
N1061	N106	0.447800	0.991300	0.548000
C6431	C643	0.495400	0.099900	0.499400
H5471	H547	0.477800	0.084900	0.484400
C6441	C644	0.557800	0.267400	0.292900
C6451	C645	0.526000	0.284700	0.313700
O2931	O293	0.526300	0.256500	0.341900
O2941	O294	0.501100	0.320500	0.305200
C6461	C646	0.560800	0.295700	0.261900
H5481	H548	0.542400	0.323700	0.254800
C6471	C647	0.591800	0.280300	0.242600
C6481	C648	0.594400	0.309100	0.209200
O2951	O295	0.564600	0.336800	0.198700
O2961	O296	0.624500	0.301600	0.192700
C6491	C649	0.619600	0.241600	0.252200
H5491	H549	0.641500	0.233500	0.240100
C6501	C650	0.612600	0.215000	0.282000
C6511	C651	0.641800	0.179000	0.292000
N1071	N107	0.662700	0.141000	0.300200
C6521	C652	0.585200	0.227400	0.303200
H5501	H550	0.584700	0.209900	0.323800
C6531	C653	0.451900	0.552600	0.329000
C6541	C654	0.449500	0.484600	0.331500
O2971	O297	0.466400	0.450600	0.311500
O2981	O298	0.430400	0.462100	0.354400
C6551	C655	0.435100	0.588900	0.350700
H5511	H551	0.421600	0.571000	0.367700
C6561	C656	0.437200	0.655100	0.348500
C6571	C657	0.415300	0.693400	0.372600
O2991	O299	0.401100	0.670400	0.397700
O3001	O300	0.413900	0.750000	0.366000
C6581	C658	0.455300	0.678500	0.323000
H5521	H552	0.455400	0.721200	0.320200
C6591	C659	0.474000	0.641300	0.300200
C6601	C660	0.495000	0.667700	0.273700
N1081	N108	0.512500	0.686100	0.251700
C6611	C661	0.471200	0.579400	0.303400
H5531	H553	0.482500	0.554000	0.287900
C6621	C662	0.241800	0.470600	0.434000
C6631	C663	0.264300	0.478600	0.464800
O3011	O301	0.256600	0.445100	0.488500
O3021	O302	0.288400	0.525500	0.465800
C6641	C664	0.218800	0.421400	0.431300
H5541	H554	0.215400	0.394800	0.448800
C6651	C665	0.200400	0.410400	0.403000
C6661	C666	0.173600	0.354700	0.398300
O3031	O303	0.172700	0.318200	0.421100
O3041	O304	0.154300	0.348400	0.372600
C6671	C667	0.204800	0.449600	0.375200
H5551	H555	0.192800	0.440600	0.355700
C6681	C668	0.227800	0.501000	0.378600
C6691	C669	0.234700	0.540600	0.351400
N1091	N109	0.239500	0.572200	0.330900
C6701	C670	0.247600	0.507500	0.407200
H5561	H556	0.266000	0.538500	0.408600
C6711	C671	0.417300	0.149300	0.335100
C6721	C672	0.446400	0.192900	0.351100
O3051	O305	0.471800	0.172000	0.368200
O3061	O306	0.440400	0.249500	0.342900
C6731	C673	0.419800	0.086000	0.341300
H5571	H557	0.439700	0.071600	0.354200
C6741	C674	0.394700	0.045100	0.329300
C6751	C675	0.399200	0.978000	0.336000
O3071	O307	0.425100	0.960000	0.354300
O3081	O308	0.375400	0.938600	0.323700
C6761	C676	0.365200	0.065200	0.310300
H5581	H558	0.348600	0.036500	0.301000
C6771	C677	0.359500	0.128700	0.304500
C6781	C678	0.327200	0.153000	0.284000
N1101	N110	0.303800	0.170700	0.267400
O3091	O309	0.289700	0.705300	0.446300
C6791	C679	0.262200	0.733900	0.460100
H5591	H559	0.266000	0.773600	0.468100
N1111	N111	0.229900	0.708900	0.462800
C6801	C680	0.219800	0.644500	0.456300
H5601	H560	0.201400	0.630700	0.471900
H5611	H561	0.209200	0.641200	0.435000
H5621	H562	0.242400	0.619200	0.457800
C6811	C681	0.198400	0.747400	0.478000
H5631	H563	0.209500	0.777500	0.492300
H5641	H564	0.184300	0.768100	0.461300
H5651	H565	0.181500	0.721000	0.490000
O3101	O310	0.410300	0.554900	0.473300
C6821	C682	0.434200	0.515000	0.474100
H5661	H566	0.435100	0.496400	0.494300
N1121	N112	0.458800	0.491100	0.454900
C6831	C683	0.487000	0.442800	0.460800
H5671	H567	0.488000	0.415400	0.442600
H5681	H568	0.511700	0.461400	0.464000
H5691	H569	0.480100	0.419900	0.479900
C6841	C684	0.461200	0.518300	0.423100
H5701	H570	0.441200	0.548400	0.420600
H5711	H571	0.485600	0.538000	0.420600
H5721	H572	0.458300	0.486600	0.407000
O3111	O311	0.209500	0.454300	0.543500
C6851	C685	0.186100	0.428800	0.525200
H5731	H573	0.188000	0.386100	0.523100
N1131	N113	0.157600	0.457400	0.507600
C6861	C686	0.129000	0.421200	0.488700
H5741	H574	0.106400	0.415400	0.501500
H5751	H575	0.122700	0.443300	0.469200
H5761	H576	0.139700	0.381700	0.483100
C6871	C687	0.147800	0.527900	0.511600
H5771	H577	0.170900	0.551800	0.510400
H5781	H578	0.130700	0.540500	0.494600
H5791	H579	0.135800	0.534500	0.532200
O3121	O312	0.549500	0.130000	0.377000
C6881	C688	0.533000	0.079800	0.375200
H5801	H580	0.508100	0.076700	0.382900
N1141	N114	0.549400	0.030600	0.362900
C6891	C689	0.528700	0.972400	0.363700
H5811	H581	0.513700	0.968400	0.344300
H5821	H582	0.546500	0.938800	0.365000
H5831	H583	0.512100	0.971700	0.382200
C6901	C690	0.589000	0.036000	0.352100
H5841	H584	0.589700	0.036500	0.328900
H5851	H585	0.599900	0.073200	0.360500
H5861	H586	0.603300	0.000900	0.359900
O3131	O313	0.422600	0.340200	0.286300
C6911	C691	0.419900	0.298200	0.267300
H5871	H587	0.442100	0.274500	0.266900
N1151	N115	0.395100	0.277100	0.247400
C6921	C692	0.394300	0.218300	0.230300
H5881	H588	0.414900	0.192700	0.237800
H5891	H589	0.370400	0.197800	0.234400
H5901	H590	0.397100	0.225400	0.207500
C6931	C693	0.360300	0.314000	0.245200
H5911	H591	0.338700	0.286900	0.242900
H5921	H592	0.357500	0.338200	0.264500
H5931	H593	0.361900	0.340700	0.226700
O3141	O314	0.381300	0.349900	0.342700
C6941	C694	0.362000	0.376800	0.363600
H5941	H594	0.366300	0.418800	0.366900
N1161	N116	0.335600	0.348900	0.381500
C6951	C695	0.311300	0.370800	0.405100
H5951	H595	0.289200	0.388900	0.395100
H5961	H596	0.303500	0.337200	0.418800
H5971	H597	0.324300	0.401400	0.417800
C6961	C696	0.339800	0.283000	0.375200
H5981	H598	0.365800	0.271000	0.379100
H5991	H599	0.323100	0.260300	0.389300
H6001	H600	0.333200	0.274600	0.353100
O3151	O315	0.526700	0.156400	0.636100
C6971	C697	0.499100	0.166900	0.652100
H6011	H601	0.502600	0.162300	0.674300
N1171	N117	0.465800	0.183300	0.643700
C6981	C698	0.457400	0.191000	0.609700
H6021	H602	0.435200	0.216400	0.607200
H6031	H603	0.478800	0.209600	0.599000
H6041	H604	0.452500	0.150800	0.600200
C6991	C699	0.434400	0.189000	0.666600
H6051	H605	0.438200	0.160200	0.684100
H6061	H606	0.433500	0.230100	0.674900
H6071	H607	0.410700	0.179500	0.655800
O3161	O316	0.592100	0.232800	0.390500
C7001	C700	0.626000	0.239000	0.394100
H6081	H608	0.637800	0.276300	0.389200
N1181	N118	0.646200	0.192000	0.405000
C7011	C701	0.688500	0.193000	0.409000
H6091	H609	0.700500	0.185600	0.388500
H6101	H610	0.696100	0.233300	0.416900
H6111	H611	0.696100	0.162100	0.424200
C7021	C702	0.629000	0.131000	0.414000
H6121	H612	0.623500	0.131400	0.437100
H6131	H613	0.606300	0.124200	0.402200
H6141	H614	0.647300	0.098700	0.409800
O3171	O317	0.323100	0.705500	0.380700
C7031	C703	0.316500	0.714700	0.352500
H6151	H615	0.337800	0.715600	0.339000
N1191	N119	0.284700	0.723300	0.338600
C7041	C704	0.283300	0.721000	0.303600
H6161	H616	0.307900	0.709300	0.295400
H6171	H617	0.264500	0.691700	0.296900
H6181	H618	0.276700	0.761400	0.295400
C7051	C705	0.250600	0.722000	0.358700
H6191	H619	0.237600	0.760700	0.357500
H6201	H620	0.233800	0.689500	0.351200
H6211	H621	0.257700	0.713500	0.380800
O3181	O318	0.261000	0.465400	0.598700
O3191	O319	0.341700	0.610000	0.430100
C7061	C706	0.349900	0.561000	0.411700
H6221	H622	0.351200	0.564800	0.389300
O3201	O320	0.355400	0.513900	0.423800
O3211	O321	0.367900	0.666500	0.481400
C7071	C707	0.358400	0.714600	0.499500
H6231	H623	0.359400	0.710800	0.521900
O3221	O322	0.348300	0.764000	0.487700
Gd431	Gd43	0.223400	0.562480	0.043410
Gd441	Gd44	0.977670	0.775730	0.894070
Gd451	Gd45	0.051090	0.645420	0.839860
Gd461	Gd46	0.906960	0.853010	0.146230
Gd471	Gd47	0.146330	0.280270	0.929940
Gd481	Gd48	0.154300	0.440070	0.983240
C7081	C708	0.225800	0.756800	0.061700
C7091	C709	0.227000	0.688100	0.057000
O3231	O323	0.250600	0.667100	0.037400
O3241	O324	0.207300	0.655300	0.075000
C7101	C710	0.250500	0.794900	0.045100
H6241	H624	0.268800	0.777500	0.031500
C7111	C711	0.248800	0.859300	0.048300
C7121	C712	0.276600	0.899800	0.030400
O3251	O325	0.274600	0.957900	0.036100
O3261	O326	0.300200	0.874800	0.010600
C7131	C713	0.221000	0.886100	0.066400
H6251	H625	0.218800	0.929000	0.067500
C7141	C714	0.195400	0.847300	0.083600
C7151	C715	0.168400	0.873900	0.102900
N1201	N120	0.142500	0.893300	0.119400
C7161	C716	0.114000	0.830800	0.818400
H6261	H626	0.117900	0.788400	0.816200
C7171	C717	0.198800	0.784300	0.080900
H6271	H627	0.182100	0.759300	0.092600
C7181	C718	0.122900	0.649600	0.986100
C7191	C719	0.151200	0.600000	0.997200
O3271	O327	0.177900	0.615200	0.014600
O3281	O328	0.144300	0.545900	0.987700
C7201	C720	0.102100	0.642900	0.958700
H6281	H628	0.103800	0.606800	0.946500
C7211	C721	0.077600	0.691300	0.948900
C7221	C722	0.058100	0.690400	0.917300
O3291	O329	0.030400	0.728900	0.913500
O3301	O330	0.069000	0.654000	0.896000
C7231	C723	0.073500	0.741300	0.969500
H6291	H629	0.057900	0.774000	0.963200
C7241	C724	0.092000	0.744600	0.999200
C7251	C725	0.090700	0.800200	0.018600
N1211	N121	0.086900	0.843200	0.034500
C7261	C726	0.118100	0.698500	0.008200
H6301	H630	0.131400	0.700100	0.027600
C7271	C727	0.945100	0.566400	0.889400
C7281	C728	0.969700	0.623800	0.886800
O3311	O331	0.959100	0.670300	0.901700
O3321	O332	0.996500	0.618500	0.867400
C7291	C729	0.915800	0.563200	0.912400
H6311	H631	0.911700	0.597200	0.925700
C7301	C730	0.892000	0.510600	0.916200
C7311	C731	0.860700	0.509600	0.939800
O3331	O333	0.862900	0.549300	0.962900
O3341	O334	0.836000	0.469300	0.936700
C7321	C732	0.898000	0.460600	0.898700
H6321	H632	0.883100	0.425500	0.901800
C7331	C733	0.928100	0.460700	0.874400
C7341	C734	0.938000	0.402000	0.866200
N1221	N122	0.942000	0.371000	0.843800
C7351	C735	0.951400	0.516700	0.870200
H6331	H633	0.970500	0.517900	0.854500
C7361	C736	0.978000	0.852800	0.990000
C7371	C737	0.978000	0.828300	0.957100
O3351	O335	0.001000	0.850800	0.935600
O3361	O336	0.956500	0.783900	0.949600
C7381	C738	0.953000	0.832000	0.013200
H6341	H634	0.936700	0.799600	0.008000
C7391	C739	0.951100	0.856500	0.043700
C7401	C740	0.922800	0.832700	0.065800
O3371	O337	0.915100	0.866700	0.090400
O3381	O338	0.907200	0.780600	0.061600
C7411	C741	0.976700	0.902000	0.052200
H6351	H635	0.975800	0.918700	0.073000
C7421	C742	0.004200	0.923500	0.030200
C7431	C743	0.031500	0.972300	0.040200
N1231	N123	0.052200	0.008700	0.048000
C7441	C744	0.004600	0.900100	0.999400
H6361	H636	0.022200	0.915100	0.984400
C7451	C745	0.942200	0.732600	0.792900
C7461	C746	0.974000	0.715300	0.813700
O3391	O339	0.973700	0.743500	0.841900
O3401	O340	0.998900	0.679500	0.805200
C7471	C747	0.939200	0.704300	0.761900
H6371	H637	0.957600	0.676300	0.754800
C7481	C748	0.908200	0.719700	0.742600
C7491	C749	0.905600	0.690900	0.709200
O3411	O341	0.935400	0.663200	0.698700
O3421	O342	0.875500	0.698400	0.692700
C7501	C750	0.880400	0.758400	0.752200
H6381	H638	0.858500	0.766500	0.740100
C7511	C751	0.887400	0.785000	0.782000
C7521	C752	0.858200	0.821000	0.792000
N1241	N124	0.837300	0.859000	0.800200
C7531	C753	0.914800	0.772600	0.803200
H6391	H639	0.915300	0.790100	0.823800
C7541	C754	0.048100	0.447400	0.829000
C7551	C755	0.050500	0.515400	0.831500
O3431	O343	0.033600	0.549400	0.811500
O3441	O344	0.069600	0.537900	0.854400
C7561	C756	0.064900	0.411100	0.850700
H6401	H640	0.078400	0.429000	0.867700
C7571	C757	0.062800	0.344900	0.848500
C7581	C758	0.084700	0.306600	0.872600
O3451	O345	0.098900	0.329600	0.897700
O3461	O346	0.086100	0.250000	0.866000
C7591	C759	0.044700	0.321500	0.823000
H6411	H641	0.044600	0.278800	0.820200
C7601	C760	0.026000	0.358700	0.800200
C7611	C761	0.005000	0.332300	0.773700
N1251	N125	0.987500	0.313900	0.751700
C7621	C762	0.028800	0.420600	0.803400
H6421	H642	0.017500	0.446000	0.787900
C7631	C763	0.258200	0.529400	0.934000
C7641	C764	0.235700	0.521400	0.964800
O3471	O347	0.243400	0.554900	0.988500
O3481	O348	0.211600	0.474500	0.965800
C7651	C765	0.281200	0.578600	0.931300
H6431	H643	0.284600	0.605200	0.948800
C7661	C766	0.299600	0.589600	0.903000
C7671	C767	0.326400	0.645300	0.898300
O3491	O349	0.327300	0.681800	0.921100
O3501	O350	0.345700	0.651600	0.872600
C7681	C768	0.295200	0.550400	0.875200
H6441	H644	0.307200	0.559400	0.855700
C7691	C769	0.272200	0.499000	0.878600
C7701	C770	0.265300	0.459400	0.851400
N1261	N126	0.260500	0.427800	0.830900
C7711	C771	0.252400	0.492500	0.907200
H6451	H645	0.234000	0.461500	0.908600
C7721	C772	0.082700	0.850700	0.835100
C7731	C773	0.053600	0.807100	0.851100
O3511	O351	0.028200	0.828000	0.868200
O3521	O352	0.059600	0.750500	0.842900
C7741	C774	0.080200	0.914000	0.841300
H6461	H646	0.060300	0.928400	0.854200
C7751	C775	0.105300	0.954900	0.829300
C7761	C776	0.100800	0.022000	0.836000
O3531	O353	0.074900	0.040000	0.854300
O3541	O354	0.124600	0.061400	0.823700
C7771	C777	0.134800	0.934800	0.810300
H6471	H647	0.151400	0.963500	0.801000
C7781	C778	0.140500	0.871300	0.804500
C7791	C779	0.172800	0.847000	0.784000
N1271	N127	0.196200	0.829300	0.767400
O3551	O355	0.210300	0.294700	0.946300
C7801	C780	0.237800	0.266100	0.960100
H6481	H648	0.234000	0.226400	0.968100
N1281	N128	0.270100	0.291100	0.962800
C7811	C781	0.280200	0.355500	0.956300
H6491	H649	0.298600	0.369300	0.971900
H6501	H650	0.290800	0.358800	0.935000
H6511	H651	0.257600	0.380800	0.957800
C7821	C782	0.301600	0.252600	0.978000
H6521	H652	0.290500	0.222500	0.992300
H6531	H653	0.315700	0.231900	0.961300
H6541	H654	0.318500	0.279000	0.990000
O3561	O356	0.089700	0.445100	0.973300
C7831	C783	0.065800	0.485000	0.974100
H6551	H655	0.064900	0.503600	0.994300
N1291	N129	0.041200	0.508900	0.954900
C7841	C784	0.013000	0.557200	0.960800
H6561	H656	0.012000	0.584600	0.942600
H6571	H657	0.988300	0.538600	0.964000
H6581	H658	0.019900	0.580100	0.979900
C7851	C785	0.038800	0.481700	0.923100
H6591	H659	0.058800	0.451600	0.920600
H6601	H660	0.014400	0.462000	0.920600
H6611	H661	0.041700	0.513400	0.907000
O3571	O357	0.290500	0.545700	0.043500
C7861	C786	0.313900	0.571200	0.025200
H6621	H662	0.312000	0.613900	0.023100
N1301	N130	0.342400	0.542600	0.007600
C7871	C787	0.371000	0.578800	0.988700
H6631	H663	0.393600	0.584600	0.001500
H6641	H664	0.377300	0.556700	0.969200
H6651	H665	0.360300	0.618300	0.983100
C7881	C788	0.352200	0.472100	0.011600
H6661	H666	0.329100	0.448200	0.010400
H6671	H667	0.369300	0.459500	0.994600
H6681	H668	0.364200	0.465500	0.032200
O3581	O358	0.950500	0.870000	0.877000
C7891	C789	0.967000	0.920200	0.875200
H6691	H669	0.991900	0.923300	0.882900
N1311	N131	0.950600	0.969400	0.862900
C7901	C790	0.971300	0.027600	0.863700
H6701	H670	0.986300	0.031600	0.844300
H6711	H671	0.953500	0.061200	0.865000
H6721	H672	0.987900	0.028300	0.882200
C7911	C791	0.911000	0.964000	0.852100
H6731	H673	0.910300	0.963500	0.828900
H6741	H674	0.900100	0.926800	0.860500
H6751	H675	0.896700	0.999100	0.859900
O3591	O359	0.077400	0.659800	0.786300
C7921	C792	0.080100	0.701800	0.767300
H6761	H676	0.057900	0.725500	0.766900
N1321	N132	0.104900	0.722900	0.747400
C7931	C793	0.105700	0.781700	0.730300
H6771	H677	0.085100	0.807300	0.737800
H6781	H678	0.129600	0.802200	0.734400
H6791	H679	0.102900	0.774600	0.707500
C7941	C794	0.139700	0.686000	0.745200
H6801	H680	0.161300	0.713100	0.742900
H6811	H681	0.142500	0.661800	0.764500
H6821	H682	0.138100	0.659300	0.726700
O3601	O360	0.118700	0.650100	0.842700
C7951	C795	0.138000	0.623200	0.863600
H6831	H683	0.133700	0.581200	0.866900
N1331	N133	0.164400	0.651100	0.881500
C7961	C796	0.188700	0.629200	0.905100
H6841	H684	0.210800	0.611100	0.895100
H6851	H685	0.196500	0.662800	0.918800
H6861	H686	0.175700	0.598600	0.917800
C7971	C797	0.160200	0.717000	0.875200
H6871	H687	0.134200	0.729000	0.879100
H6881	H688	0.176900	0.739700	0.889300
H6891	H689	0.166800	0.725400	0.853100
O3611	O361	0.973300	0.843600	0.136100
C7981	C798	0.000900	0.833100	0.152100
H6901	H690	0.997400	0.837700	0.174300
N1341	N134	0.034200	0.816700	0.143700
C7991	C799	0.042600	0.809000	0.109700
H6911	H691	0.064800	0.783600	0.107200
H6921	H692	0.021200	0.790400	0.099000
H6931	H693	0.047500	0.849200	0.100200
C8001	C800	0.065600	0.811000	0.166600
H6941	H694	0.061800	0.839800	0.184100
H6951	H695	0.066500	0.769900	0.174900
H6961	H696	0.089300	0.820500	0.155800
O3621	O362	0.907900	0.767200	0.890500
C8011	C801	0.874000	0.761000	0.894100
H6971	H697	0.862200	0.723700	0.889200
N1351	N135	0.853800	0.808000	0.905000
C8021	C802	0.811500	0.807000	0.909000
H6981	H698	0.799500	0.814400	0.888500
H6991	H699	0.803900	0.766700	0.916900
H7001	H700	0.803900	0.837900	0.924200
C8031	C803	0.871000	0.869000	0.914000
H7011	H701	0.876500	0.868600	0.937100
H7021	H702	0.893700	0.875800	0.902200
H7031	H703	0.852700	0.901300	0.909800
O3631	O363	0.176900	0.294500	0.880700
C8041	C804	0.183500	0.285300	0.852500
H7041	H704	0.162200	0.284400	0.839000
N1361	N136	0.215300	0.276700	0.838600
C8051	C805	0.216700	0.279000	0.803600
H7051	H705	0.192100	0.290700	0.795400
H7061	H706	0.235500	0.308300	0.796900
H7071	H707	0.223300	0.238600	0.795400
C8061	C806	0.249400	0.278000	0.858700
H7081	H708	0.262400	0.239300	0.857500
H7091	H709	0.266200	0.310500	0.851200
H7101	H710	0.242300	0.286500	0.880800
O3641	O364	0.239000	0.534600	0.098700
O3651	O365	0.158300	0.390000	0.930100
C8071	C807	0.150100	0.439000	0.911700
H7111	H711	0.148800	0.435200	0.889300
O3661	O366	0.144600	0.486100	0.923800
O3671	O367	0.132100	0.333500	0.981400
C8081	C808	0.141600	0.285400	0.999500
H7121	H712	0.140600	0.289200	0.021900
O3681	O368	0.151700	0.236000	0.987700
