data_DAMDUT_freeONLY_PM
_symmetry_space_group_name_H-M	'P1'
_cell_length_a	28.072400
_cell_length_b	14.000700
_cell_length_c	44.715900
_cell_angle_alpha	90.000000
_cell_angle_beta	90.000000
_cell_angle_gamma	90.000000
_symmetry_Int_Tables_number 1

loop_
_symmetry_equiv_pos_as_xyz
'x,y,z'

loop_
_atom_site_label
_atom_site_type_symbol
_atom_site_fract_x
_atom_site_fract_y
_atom_site_fract_z
I11	I1	0.198480	0.664100	0.815590
I21	I2	0.325960	0.827820	0.834570
I31	I3	0.425670	0.306430	0.374820
I41	I4	0.495510	0.304480	0.463620
I51	I5	0.441960	0.319180	0.583430
I61	I6	0.514620	0.055360	0.616410
Zn11	Zn1	0.238150	0.826450	0.820810
Zn21	Zn2	0.477240	0.385290	0.413720
Zn31	Zn3	0.450020	0.138200	0.586890
N11	N1	0.229100	0.899700	0.781600
N21	N2	0.385900	0.094900	0.605400
N31	N3	0.041400	0.084900	0.607110
N41	N4	0.257430	0.024300	0.679330
N51	N5	0.174000	0.019600	0.680890
N61	N6	0.213550	0.062400	0.636080
N71	N7	0.445810	0.080500	0.544580
N81	N8	0.449000	0.518000	0.422610
N91	N9	0.300400	0.093900	0.350820
N101	N10	0.421800	0.847200	0.461030
N111	N11	0.378300	0.846800	0.415420
N121	N12	0.386700	0.990400	0.442790
C11	C1	0.187100	0.897800	0.767210
H11	H1	0.160600	0.869300	0.776900
C21	C2	0.181000	0.935400	0.739030
H21	H2	0.150600	0.934400	0.729700
C31	C3	0.220100	0.974800	0.724580
C41	C4	0.262400	0.977800	0.739050
H31	H3	0.289400	0.005200	0.729600
C51	C5	0.266200	0.940700	0.767850
H41	H4	0.295900	0.944400	0.778000
C61	C6	0.215800	0.009700	0.692930
C71	C7	0.174300	0.046500	0.652060
C81	C8	0.254300	0.049100	0.650550
C91	C9	0.128100	0.058500	0.636770
C101	C10	0.085500	0.048300	0.651410
H51	H5	0.084800	0.031900	0.672000
C111	C11	0.043500	0.062200	0.635920
H61	H6	0.014400	0.055100	0.646500
C121	C12	0.083200	0.092800	0.592780
H71	H7	0.082700	0.107500	0.572000
C131	C13	0.126300	0.081100	0.606280
H81	H8	0.154900	0.088100	0.595100
C141	C14	0.299700	0.064000	0.634450
C151	C15	0.300600	0.094300	0.605000
H91	H9	0.271900	0.105100	0.594300
C161	C16	0.344800	0.108800	0.591340
H101	H10	0.345400	0.129600	0.571100
C171	C17	0.384300	0.064100	0.633880
H111	H11	0.413500	0.053000	0.644100
C181	C18	0.343000	0.048300	0.648740
H121	H12	0.343600	0.026600	0.668900
C191	C19	0.428100	0.129100	0.521590
H131	H13	0.422600	0.195600	0.523900
C201	C20	0.417600	0.087200	0.494590
H141	H14	0.405400	0.124200	0.478500
C211	C21	0.425000	0.990200	0.491240
C221	C22	0.444800	0.940700	0.514680
H151	H15	0.451900	0.874700	0.512700
C231	C23	0.454500	0.987600	0.541220
H161	H16	0.467700	0.952700	0.557500
C241	C24	0.410400	0.939600	0.463390
C251	C25	0.371800	0.939200	0.419720
C261	C26	0.405200	0.804300	0.436860
C271	C27	0.454000	0.560200	0.449130
H171	H17	0.468600	0.525000	0.464800
C281	C28	0.439200	0.651700	0.455080
H181	H18	0.442900	0.678300	0.474500
C291	C29	0.418800	0.704300	0.432220
C301	C30	0.411800	0.659100	0.405100
H191	H19	0.396300	0.691900	0.389200
C311	C31	0.426900	0.567600	0.401150
H201	H20	0.421600	0.537800	0.382400
C321	C32	0.346700	0.993300	0.395260
C331	C33	0.346200	0.090000	0.395580
H211	H21	0.361500	0.124200	0.411200
C341	C34	0.323100	0.138500	0.372700
H221	H22	0.323500	0.206400	0.372800
C351	C35	0.301600	0.000900	0.350500
H231	H23	0.285500	0.968300	0.334800
C361	C36	0.325200	0.947200	0.371940
H241	H24	0.326500	0.879500	0.370400
I71	I7	0.301520	0.335900	0.315590
I81	I8	0.174040	0.172180	0.334570
I91	I9	0.074330	0.693570	0.874820
I101	I10	0.004490	0.695520	0.963620
I111	I11	0.058040	0.680820	0.083430
I121	I12	0.985380	0.944640	0.116410
Zn41	Zn4	0.261850	0.173550	0.320810
Zn51	Zn5	0.022760	0.614710	0.913720
Zn61	Zn6	0.049980	0.861800	0.086890
N131	N13	0.270900	0.100300	0.281600
N141	N14	0.114100	0.905100	0.105400
N151	N15	0.458600	0.915100	0.107110
N161	N16	0.242570	0.975700	0.179330
N171	N17	0.326000	0.980400	0.180890
N181	N18	0.286450	0.937600	0.136080
N191	N19	0.054190	0.919500	0.044580
N201	N20	0.051000	0.482000	0.922610
N211	N21	0.199600	0.906100	0.850820
N221	N22	0.078200	0.152800	0.961030
N231	N23	0.121700	0.153200	0.915420
N241	N24	0.113300	0.009600	0.942790
C371	C37	0.312900	0.102200	0.267210
H251	H25	0.339400	0.130700	0.276900
C381	C38	0.319000	0.064600	0.239030
H261	H26	0.349400	0.065600	0.229700
C391	C39	0.279900	0.025200	0.224580
C401	C40	0.237600	0.022200	0.239050
H271	H27	0.210600	0.994800	0.229600
C411	C41	0.233800	0.059300	0.267850
H281	H28	0.204100	0.055600	0.278000
C421	C42	0.284200	0.990300	0.192930
C431	C43	0.325700	0.953500	0.152060
C441	C44	0.245700	0.950900	0.150550
C451	C45	0.371900	0.941500	0.136770
C461	C46	0.414500	0.951700	0.151410
H291	H29	0.415200	0.968100	0.172000
C471	C47	0.456500	0.937800	0.135920
H301	H30	0.485600	0.944900	0.146500
C481	C48	0.416800	0.907200	0.092780
H311	H31	0.417300	0.892500	0.072000
C491	C49	0.373700	0.918900	0.106280
H321	H32	0.345100	0.911900	0.095100
C501	C50	0.200300	0.936000	0.134450
C511	C51	0.199400	0.905700	0.105000
H331	H33	0.228100	0.894900	0.094300
C521	C52	0.155200	0.891200	0.091340
H341	H34	0.154600	0.870400	0.071100
C531	C53	0.115700	0.935900	0.133880
H351	H35	0.086500	0.947000	0.144100
C541	C54	0.157000	0.951700	0.148740
H361	H36	0.156400	0.973400	0.168900
C551	C55	0.071900	0.870900	0.021590
H371	H37	0.077400	0.804400	0.023900
C561	C56	0.082400	0.912800	0.994590
H381	H38	0.094600	0.875800	0.978500
C571	C57	0.075000	0.009800	0.991240
C581	C58	0.055200	0.059300	0.014680
H391	H39	0.048100	0.125300	0.012700
C591	C59	0.045500	0.012400	0.041220
H401	H40	0.032300	0.047300	0.057500
C601	C60	0.089600	0.060400	0.963390
C611	C61	0.128200	0.060800	0.919720
C621	C62	0.094800	0.195700	0.936860
C631	C63	0.046000	0.439800	0.949130
H411	H41	0.031400	0.475000	0.964800
C641	C64	0.060800	0.348300	0.955080
H421	H42	0.057100	0.321700	0.974500
C651	C65	0.081200	0.295700	0.932220
C661	C66	0.088200	0.340900	0.905100
H431	H43	0.103700	0.308100	0.889200
C671	C67	0.073100	0.432400	0.901150
H441	H44	0.078400	0.462200	0.882400
C681	C68	0.153300	0.006700	0.895260
C691	C69	0.153800	0.910000	0.895580
H451	H45	0.138500	0.875800	0.911200
C701	C70	0.176900	0.861500	0.872700
H461	H46	0.176500	0.793600	0.872800
C711	C71	0.198400	0.999100	0.850500
H471	H47	0.214500	0.031700	0.834800
C721	C72	0.174800	0.052800	0.871940
H481	H48	0.173500	0.120500	0.870400
I131	I13	0.801520	0.164100	0.684410
I141	I14	0.674040	0.327820	0.665430
I151	I15	0.574330	0.806430	0.125180
I161	I16	0.504490	0.804480	0.036380
I171	I17	0.558040	0.819180	0.916570
I181	I18	0.485380	0.555360	0.883590
Zn71	Zn7	0.761850	0.326450	0.679190
Zn81	Zn8	0.522760	0.885290	0.086280
Zn91	Zn9	0.549980	0.638200	0.913110
N251	N25	0.770900	0.399700	0.718400
N261	N26	0.614100	0.594900	0.894600
N271	N27	0.958600	0.584900	0.892890
N281	N28	0.742570	0.524300	0.820670
N291	N29	0.826000	0.519600	0.819110
N301	N30	0.786450	0.562400	0.863920
N311	N31	0.554190	0.580500	0.955420
N321	N32	0.551000	0.018000	0.077390
N331	N33	0.699600	0.593900	0.149180
N341	N34	0.578200	0.347200	0.038970
N351	N35	0.621700	0.346800	0.084580
N361	N36	0.613300	0.490400	0.057210
C731	C73	0.812900	0.397800	0.732790
H491	H49	0.839400	0.369300	0.723100
C741	C74	0.819000	0.435400	0.760970
H501	H50	0.849400	0.434400	0.770300
C751	C75	0.779900	0.474800	0.775420
C761	C76	0.737600	0.477800	0.760950
H511	H51	0.710600	0.505200	0.770400
C771	C77	0.733800	0.440700	0.732150
H521	H52	0.704100	0.444400	0.722000
C781	C78	0.784200	0.509700	0.807070
C791	C79	0.825700	0.546500	0.847940
C801	C80	0.745700	0.549100	0.849450
C811	C81	0.871900	0.558500	0.863230
C821	C82	0.914500	0.548300	0.848590
H531	H53	0.915200	0.531900	0.828000
C831	C83	0.956500	0.562200	0.864080
H541	H54	0.985600	0.555100	0.853500
C841	C84	0.916800	0.592800	0.907220
H551	H55	0.917300	0.607500	0.928000
C851	C85	0.873700	0.581100	0.893720
H561	H56	0.845100	0.588100	0.904900
C861	C86	0.700300	0.564000	0.865550
C871	C87	0.699400	0.594300	0.895000
H571	H57	0.728100	0.605100	0.905700
C881	C88	0.655200	0.608800	0.908660
H581	H58	0.654600	0.629600	0.928900
C891	C89	0.615700	0.564100	0.866120
H591	H59	0.586500	0.553000	0.855900
C901	C90	0.657000	0.548300	0.851260
H601	H60	0.656400	0.526600	0.831100
C911	C91	0.571900	0.629100	0.978410
H611	H61	0.577400	0.695600	0.976100
C921	C92	0.582400	0.587200	0.005410
H621	H62	0.594600	0.624200	0.021500
C931	C93	0.575000	0.490200	0.008760
C941	C94	0.555200	0.440700	0.985320
H631	H63	0.548100	0.374700	0.987300
C951	C95	0.545500	0.487600	0.958780
H641	H64	0.532300	0.452700	0.942500
C961	C96	0.589600	0.439600	0.036610
C971	C97	0.628200	0.439200	0.080280
C981	C98	0.594800	0.304300	0.063140
C991	C99	0.546000	0.060200	0.050870
H651	H65	0.531400	0.025000	0.035200
C1001	C100	0.560800	0.151700	0.044920
H661	H66	0.557100	0.178300	0.025500
C1011	C101	0.581200	0.204300	0.067780
C1021	C102	0.588200	0.159100	0.094900
H671	H67	0.603700	0.191900	0.110800
C1031	C103	0.573100	0.067600	0.098850
H681	H68	0.578400	0.037800	0.117600
C1041	C104	0.653300	0.493300	0.104740
C1051	C105	0.653800	0.590000	0.104420
H691	H69	0.638500	0.624200	0.088800
C1061	C106	0.676900	0.638500	0.127300
H701	H70	0.676500	0.706400	0.127200
C1071	C107	0.698400	0.500900	0.149500
H711	H71	0.714500	0.468300	0.165200
C1081	C108	0.674800	0.447200	0.128060
H721	H72	0.673500	0.379500	0.129600
I191	I19	0.698480	0.835900	0.184410
I201	I20	0.825960	0.672180	0.165430
I211	I21	0.925670	0.193570	0.625180
I221	I22	0.995510	0.195520	0.536380
I231	I23	0.941960	0.180820	0.416570
I241	I24	0.014620	0.444640	0.383590
Zn101	Zn10	0.738150	0.673550	0.179190
Zn111	Zn11	0.977240	0.114710	0.586280
Zn121	Zn12	0.950020	0.361800	0.413110
N371	N37	0.729100	0.600300	0.218400
N381	N38	0.885900	0.405100	0.394600
N391	N39	0.541400	0.415100	0.392890
N401	N40	0.757430	0.475700	0.320670
N411	N41	0.674000	0.480400	0.319110
N421	N42	0.713550	0.437600	0.363920
N431	N43	0.945810	0.419500	0.455420
N441	N44	0.949000	0.982000	0.577390
N451	N45	0.800400	0.406100	0.649180
N461	N46	0.921800	0.652800	0.538970
N471	N47	0.878300	0.653200	0.584580
N481	N48	0.886700	0.509600	0.557210
C1091	C109	0.687100	0.602200	0.232790
H731	H73	0.660600	0.630700	0.223100
C1101	C110	0.681000	0.564600	0.260970
H741	H74	0.650600	0.565600	0.270300
C1111	C111	0.720100	0.525200	0.275420
C1121	C112	0.762400	0.522200	0.260950
H751	H75	0.789400	0.494800	0.270400
C1131	C113	0.766200	0.559300	0.232150
H761	H76	0.795900	0.555600	0.222000
C1141	C114	0.715800	0.490300	0.307070
C1151	C115	0.674300	0.453500	0.347940
C1161	C116	0.754300	0.450900	0.349450
C1171	C117	0.628100	0.441500	0.363230
C1181	C118	0.585500	0.451700	0.348590
H771	H77	0.584800	0.468100	0.328000
C1191	C119	0.543500	0.437800	0.364080
H781	H78	0.514400	0.444900	0.353500
C1201	C120	0.583200	0.407200	0.407220
H791	H79	0.582700	0.392500	0.428000
C1211	C121	0.626300	0.418900	0.393720
H801	H80	0.654900	0.411900	0.404900
C1221	C122	0.799700	0.436000	0.365550
C1231	C123	0.800600	0.405700	0.395000
H811	H81	0.771900	0.394900	0.405700
C1241	C124	0.844800	0.391200	0.408660
H821	H82	0.845400	0.370400	0.428900
C1251	C125	0.884300	0.435900	0.366120
H831	H83	0.913500	0.447000	0.355900
C1261	C126	0.843000	0.451700	0.351260
H841	H84	0.843600	0.473400	0.331100
C1271	C127	0.928100	0.370900	0.478410
H851	H85	0.922600	0.304400	0.476100
C1281	C128	0.917600	0.412800	0.505410
H861	H86	0.905400	0.375800	0.521500
C1291	C129	0.925000	0.509800	0.508760
C1301	C130	0.944800	0.559300	0.485320
H871	H87	0.951900	0.625300	0.487300
C1311	C131	0.954500	0.512400	0.458780
H881	H88	0.967700	0.547300	0.442500
C1321	C132	0.910400	0.560400	0.536610
C1331	C133	0.871800	0.560800	0.580280
C1341	C134	0.905200	0.695700	0.563140
C1351	C135	0.954000	0.939800	0.550870
H891	H89	0.968600	0.975000	0.535200
C1361	C136	0.939200	0.848300	0.544920
H901	H90	0.942900	0.821700	0.525500
C1371	C137	0.918800	0.795700	0.567780
C1381	C138	0.911800	0.840900	0.594900
H911	H91	0.896300	0.808100	0.610800
C1391	C139	0.926900	0.932400	0.598850
H921	H92	0.921600	0.962200	0.617600
C1401	C140	0.846700	0.506700	0.604740
C1411	C141	0.846200	0.410000	0.604420
H931	H93	0.861500	0.375800	0.588800
C1421	C142	0.823100	0.361500	0.627300
H941	H94	0.823500	0.293600	0.627200
C1431	C143	0.801600	0.499100	0.649500
H951	H95	0.785500	0.531700	0.665200
C1441	C144	0.825200	0.552800	0.628060
H961	H96	0.826500	0.620500	0.629600
I251	I25	0.801520	0.335900	0.184410
I261	I26	0.674040	0.172180	0.165430
I271	I27	0.574330	0.693570	0.625180
I281	I28	0.504490	0.695520	0.536380
I291	I29	0.558040	0.680820	0.416570
I301	I30	0.485380	0.944640	0.383590
Zn131	Zn13	0.761850	0.173550	0.179190
Zn141	Zn14	0.522760	0.614710	0.586280
Zn151	Zn15	0.549980	0.861800	0.413110
N491	N49	0.770900	0.100300	0.218400
N501	N50	0.614100	0.905100	0.394600
N511	N51	0.958600	0.915100	0.392890
N521	N52	0.742570	0.975700	0.320670
N531	N53	0.826000	0.980400	0.319110
N541	N54	0.786450	0.937600	0.363920
N551	N55	0.554190	0.919500	0.455420
N561	N56	0.551000	0.482000	0.577390
N571	N57	0.699600	0.906100	0.649180
N581	N58	0.578200	0.152800	0.538970
N591	N59	0.621700	0.153200	0.584580
N601	N60	0.613300	0.009600	0.557210
C1451	C145	0.812900	0.102200	0.232790
H971	H97	0.839400	0.130700	0.223100
C1461	C146	0.819000	0.064600	0.260970
H981	H98	0.849400	0.065600	0.270300
C1471	C147	0.779900	0.025200	0.275420
C1481	C148	0.737600	0.022200	0.260950
H991	H99	0.710600	0.994800	0.270400
C1491	C149	0.733800	0.059300	0.232150
H1001	H100	0.704100	0.055600	0.222000
C1501	C150	0.784200	0.990300	0.307070
C1511	C151	0.825700	0.953500	0.347940
C1521	C152	0.745700	0.950900	0.349450
C1531	C153	0.871900	0.941500	0.363230
C1541	C154	0.914500	0.951700	0.348590
H1011	H101	0.915200	0.968100	0.328000
C1551	C155	0.956500	0.937800	0.364080
H1021	H102	0.985600	0.944900	0.353500
C1561	C156	0.916800	0.907200	0.407220
H1031	H103	0.917300	0.892500	0.428000
C1571	C157	0.873700	0.918900	0.393720
H1041	H104	0.845100	0.911900	0.404900
C1581	C158	0.700300	0.936000	0.365550
C1591	C159	0.699400	0.905700	0.395000
H1051	H105	0.728100	0.894900	0.405700
C1601	C160	0.655200	0.891200	0.408660
H1061	H106	0.654600	0.870400	0.428900
C1611	C161	0.615700	0.935900	0.366120
H1071	H107	0.586500	0.947000	0.355900
C1621	C162	0.657000	0.951700	0.351260
H1081	H108	0.656400	0.973400	0.331100
C1631	C163	0.571900	0.870900	0.478410
H1091	H109	0.577400	0.804400	0.476100
C1641	C164	0.582400	0.912800	0.505410
H1101	H110	0.594600	0.875800	0.521500
C1651	C165	0.575000	0.009800	0.508760
C1661	C166	0.555200	0.059300	0.485320
H1111	H111	0.548100	0.125300	0.487300
C1671	C167	0.545500	0.012400	0.458780
H1121	H112	0.532300	0.047300	0.442500
C1681	C168	0.589600	0.060400	0.536610
C1691	C169	0.628200	0.060800	0.580280
C1701	C170	0.594800	0.195700	0.563140
C1711	C171	0.546000	0.439800	0.550870
H1131	H113	0.531400	0.475000	0.535200
C1721	C172	0.560800	0.348300	0.544920
H1141	H114	0.557100	0.321700	0.525500
C1731	C173	0.581200	0.295700	0.567780
C1741	C174	0.588200	0.340900	0.594900
H1151	H115	0.603700	0.308100	0.610800
C1751	C175	0.573100	0.432400	0.598850
H1161	H116	0.578400	0.462200	0.617600
C1761	C176	0.653300	0.006700	0.604740
C1771	C177	0.653800	0.910000	0.604420
H1171	H117	0.638500	0.875800	0.588800
C1781	C178	0.676900	0.861500	0.627300
H1181	H118	0.676500	0.793600	0.627200
C1791	C179	0.698400	0.999100	0.649500
H1191	H119	0.714500	0.031700	0.665200
C1801	C180	0.674800	0.052800	0.628060
H1201	H120	0.673500	0.120500	0.629600
I311	I31	0.698480	0.664100	0.684410
I321	I32	0.825960	0.827820	0.665430
I331	I33	0.925670	0.306430	0.125180
I341	I34	0.995510	0.304480	0.036380
I351	I35	0.941960	0.319180	0.916570
I361	I36	0.014620	0.055360	0.883590
Zn161	Zn16	0.738150	0.826450	0.679190
Zn171	Zn17	0.977240	0.385290	0.086280
Zn181	Zn18	0.950020	0.138200	0.913110
N611	N61	0.729100	0.899700	0.718400
N621	N62	0.885900	0.094900	0.894600
N631	N63	0.541400	0.084900	0.892890
N641	N64	0.757430	0.024300	0.820670
N651	N65	0.674000	0.019600	0.819110
N661	N66	0.713550	0.062400	0.863920
N671	N67	0.945810	0.080500	0.955420
N681	N68	0.949000	0.518000	0.077390
N691	N69	0.800400	0.093900	0.149180
N701	N70	0.921800	0.847200	0.038970
N711	N71	0.878300	0.846800	0.084580
N721	N72	0.886700	0.990400	0.057210
C1811	C181	0.687100	0.897800	0.732790
H1211	H121	0.660600	0.869300	0.723100
C1821	C182	0.681000	0.935400	0.760970
H1221	H122	0.650600	0.934400	0.770300
C1831	C183	0.720100	0.974800	0.775420
C1841	C184	0.762400	0.977800	0.760950
H1231	H123	0.789400	0.005200	0.770400
C1851	C185	0.766200	0.940700	0.732150
H1241	H124	0.795900	0.944400	0.722000
C1861	C186	0.715800	0.009700	0.807070
C1871	C187	0.674300	0.046500	0.847940
C1881	C188	0.754300	0.049100	0.849450
C1891	C189	0.628100	0.058500	0.863230
C1901	C190	0.585500	0.048300	0.848590
H1251	H125	0.584800	0.031900	0.828000
C1911	C191	0.543500	0.062200	0.864080
H1261	H126	0.514400	0.055100	0.853500
C1921	C192	0.583200	0.092800	0.907220
H1271	H127	0.582700	0.107500	0.928000
C1931	C193	0.626300	0.081100	0.893720
H1281	H128	0.654900	0.088100	0.904900
C1941	C194	0.799700	0.064000	0.865550
C1951	C195	0.800600	0.094300	0.895000
H1291	H129	0.771900	0.105100	0.905700
C1961	C196	0.844800	0.108800	0.908660
H1301	H130	0.845400	0.129600	0.928900
C1971	C197	0.884300	0.064100	0.866120
H1311	H131	0.913500	0.053000	0.855900
C1981	C198	0.843000	0.048300	0.851260
H1321	H132	0.843600	0.026600	0.831100
C1991	C199	0.928100	0.129100	0.978410
H1331	H133	0.922600	0.195600	0.976100
C2001	C200	0.917600	0.087200	0.005410
H1341	H134	0.905400	0.124200	0.021500
C2011	C201	0.925000	0.990200	0.008760
C2021	C202	0.944800	0.940700	0.985320
H1351	H135	0.951900	0.874700	0.987300
C2031	C203	0.954500	0.987600	0.958780
H1361	H136	0.967700	0.952700	0.942500
C2041	C204	0.910400	0.939600	0.036610
C2051	C205	0.871800	0.939200	0.080280
C2061	C206	0.905200	0.804300	0.063140
C2071	C207	0.954000	0.560200	0.050870
H1371	H137	0.968600	0.525000	0.035200
C2081	C208	0.939200	0.651700	0.044920
H1381	H138	0.942900	0.678300	0.025500
C2091	C209	0.918800	0.704300	0.067780
C2101	C210	0.911800	0.659100	0.094900
H1391	H139	0.896300	0.691900	0.110800
C2111	C211	0.926900	0.567600	0.098850
H1401	H140	0.921600	0.537800	0.117600
C2121	C212	0.846700	0.993300	0.104740
C2131	C213	0.846200	0.090000	0.104420
H1411	H141	0.861500	0.124200	0.088800
C2141	C214	0.823100	0.138500	0.127300
H1421	H142	0.823500	0.206400	0.127200
C2151	C215	0.801600	0.000900	0.149500
H1431	H143	0.785500	0.968300	0.165200
C2161	C216	0.825200	0.947200	0.128060
H1441	H144	0.826500	0.879500	0.129600
I371	I37	0.198480	0.835900	0.315590
I381	I38	0.325960	0.672180	0.334570
I391	I39	0.425670	0.193570	0.874820
I401	I40	0.495510	0.195520	0.963620
I411	I41	0.441960	0.180820	0.083430
I421	I42	0.514620	0.444640	0.116410
Zn191	Zn19	0.238150	0.673550	0.320810
Zn201	Zn20	0.477240	0.114710	0.913720
Zn211	Zn21	0.450020	0.361800	0.086890
N731	N73	0.229100	0.600300	0.281600
N741	N74	0.385900	0.405100	0.105400
N751	N75	0.041400	0.415100	0.107110
N761	N76	0.257430	0.475700	0.179330
N771	N77	0.174000	0.480400	0.180890
N781	N78	0.213550	0.437600	0.136080
N791	N79	0.445810	0.419500	0.044580
N801	N80	0.449000	0.982000	0.922610
N811	N81	0.300400	0.406100	0.850820
N821	N82	0.421800	0.652800	0.961030
N831	N83	0.378300	0.653200	0.915420
N841	N84	0.386700	0.509600	0.942790
C2171	C217	0.187100	0.602200	0.267210
H1451	H145	0.160600	0.630700	0.276900
C2181	C218	0.181000	0.564600	0.239030
H1461	H146	0.150600	0.565600	0.229700
C2191	C219	0.220100	0.525200	0.224580
C2201	C220	0.262400	0.522200	0.239050
H1471	H147	0.289400	0.494800	0.229600
C2211	C221	0.266200	0.559300	0.267850
H1481	H148	0.295900	0.555600	0.278000
C2221	C222	0.215800	0.490300	0.192930
C2231	C223	0.174300	0.453500	0.152060
C2241	C224	0.254300	0.450900	0.150550
C2251	C225	0.128100	0.441500	0.136770
C2261	C226	0.085500	0.451700	0.151410
H1491	H149	0.084800	0.468100	0.172000
C2271	C227	0.043500	0.437800	0.135920
H1501	H150	0.014400	0.444900	0.146500
C2281	C228	0.083200	0.407200	0.092780
H1511	H151	0.082700	0.392500	0.072000
C2291	C229	0.126300	0.418900	0.106280
H1521	H152	0.154900	0.411900	0.095100
C2301	C230	0.299700	0.436000	0.134450
C2311	C231	0.300600	0.405700	0.105000
H1531	H153	0.271900	0.394900	0.094300
C2321	C232	0.344800	0.391200	0.091340
H1541	H154	0.345400	0.370400	0.071100
C2331	C233	0.384300	0.435900	0.133880
H1551	H155	0.413500	0.447000	0.144100
C2341	C234	0.343000	0.451700	0.148740
H1561	H156	0.343600	0.473400	0.168900
C2351	C235	0.428100	0.370900	0.021590
H1571	H157	0.422600	0.304400	0.023900
C2361	C236	0.417600	0.412800	0.994590
H1581	H158	0.405400	0.375800	0.978500
C2371	C237	0.425000	0.509800	0.991240
C2381	C238	0.444800	0.559300	0.014680
H1591	H159	0.451900	0.625300	0.012700
C2391	C239	0.454500	0.512400	0.041220
H1601	H160	0.467700	0.547300	0.057500
C2401	C240	0.410400	0.560400	0.963390
C2411	C241	0.371800	0.560800	0.919720
C2421	C242	0.405200	0.695700	0.936860
C2431	C243	0.454000	0.939800	0.949130
H1611	H161	0.468600	0.975000	0.964800
C2441	C244	0.439200	0.848300	0.955080
H1621	H162	0.442900	0.821700	0.974500
C2451	C245	0.418800	0.795700	0.932220
C2461	C246	0.411800	0.840900	0.905100
H1631	H163	0.396300	0.808100	0.889200
C2471	C247	0.426900	0.932400	0.901150
H1641	H164	0.421600	0.962200	0.882400
C2481	C248	0.346700	0.506700	0.895260
C2491	C249	0.346200	0.410000	0.895580
H1651	H165	0.361500	0.375800	0.911200
C2501	C250	0.323100	0.361500	0.872700
H1661	H166	0.323500	0.293600	0.872800
C2511	C251	0.301600	0.499100	0.850500
H1671	H167	0.285500	0.531700	0.834800
C2521	C252	0.325200	0.552800	0.871940
H1681	H168	0.326500	0.620500	0.870400
I431	I43	0.301520	0.164100	0.815590
I441	I44	0.174040	0.327820	0.834570
I451	I45	0.074330	0.806430	0.374820
I461	I46	0.004490	0.804480	0.463620
I471	I47	0.058040	0.819180	0.583430
I481	I48	0.985380	0.555360	0.616410
Zn221	Zn22	0.261850	0.326450	0.820810
Zn231	Zn23	0.022760	0.885290	0.413720
Zn241	Zn24	0.049980	0.638200	0.586890
N851	N85	0.270900	0.399700	0.781600
N861	N86	0.114100	0.594900	0.605400
N871	N87	0.458600	0.584900	0.607110
N881	N88	0.242570	0.524300	0.679330
N891	N89	0.326000	0.519600	0.680890
N901	N90	0.286450	0.562400	0.636080
N911	N91	0.054190	0.580500	0.544580
N921	N92	0.051000	0.018000	0.422610
N931	N93	0.199600	0.593900	0.350820
N941	N94	0.078200	0.347200	0.461030
N951	N95	0.121700	0.346800	0.415420
N961	N96	0.113300	0.490400	0.442790
C2531	C253	0.312900	0.397800	0.767210
H1691	H169	0.339400	0.369300	0.776900
C2541	C254	0.319000	0.435400	0.739030
H1701	H170	0.349400	0.434400	0.729700
C2551	C255	0.279900	0.474800	0.724580
C2561	C256	0.237600	0.477800	0.739050
H1711	H171	0.210600	0.505200	0.729600
C2571	C257	0.233800	0.440700	0.767850
H1721	H172	0.204100	0.444400	0.778000
C2581	C258	0.284200	0.509700	0.692930
C2591	C259	0.325700	0.546500	0.652060
C2601	C260	0.245700	0.549100	0.650550
C2611	C261	0.371900	0.558500	0.636770
C2621	C262	0.414500	0.548300	0.651410
H1731	H173	0.415200	0.531900	0.672000
C2631	C263	0.456500	0.562200	0.635920
H1741	H174	0.485600	0.555100	0.646500
C2641	C264	0.416800	0.592800	0.592780
H1751	H175	0.417300	0.607500	0.572000
C2651	C265	0.373700	0.581100	0.606280
H1761	H176	0.345100	0.588100	0.595100
C2661	C266	0.200300	0.564000	0.634450
C2671	C267	0.199400	0.594300	0.605000
H1771	H177	0.228100	0.605100	0.594300
C2681	C268	0.155200	0.608800	0.591340
H1781	H178	0.154600	0.629600	0.571100
C2691	C269	0.115700	0.564100	0.633880
H1791	H179	0.086500	0.553000	0.644100
C2701	C270	0.157000	0.548300	0.648740
H1801	H180	0.156400	0.526600	0.668900
C2711	C271	0.071900	0.629100	0.521590
H1811	H181	0.077400	0.695600	0.523900
C2721	C272	0.082400	0.587200	0.494590
H1821	H182	0.094600	0.624200	0.478500
C2731	C273	0.075000	0.490200	0.491240
C2741	C274	0.055200	0.440700	0.514680
H1831	H183	0.048100	0.374700	0.512700
C2751	C275	0.045500	0.487600	0.541220
H1841	H184	0.032300	0.452700	0.557500
C2761	C276	0.089600	0.439600	0.463390
C2771	C277	0.128200	0.439200	0.419720
C2781	C278	0.094800	0.304300	0.436860
C2791	C279	0.046000	0.060200	0.449130
H1851	H185	0.031400	0.025000	0.464800
C2801	C280	0.060800	0.151700	0.455080
H1861	H186	0.057100	0.178300	0.474500
C2811	C281	0.081200	0.204300	0.432220
C2821	C282	0.088200	0.159100	0.405100
H1871	H187	0.103700	0.191900	0.389200
C2831	C283	0.073100	0.067600	0.401150
H1881	H188	0.078400	0.037800	0.382400
C2841	C284	0.153300	0.493300	0.395260
C2851	C285	0.153800	0.590000	0.395580
H1891	H189	0.138500	0.624200	0.411200
C2861	C286	0.176900	0.638500	0.372700
H1901	H190	0.176500	0.706400	0.372800
C2871	C287	0.198400	0.500900	0.350500
H1911	H191	0.214500	0.468300	0.334800
C2881	C288	0.174800	0.447200	0.371940
H1921	H192	0.173500	0.379500	0.370400
