data_DANROC_freeONLY_PM
_symmetry_space_group_name_H-M	'P1'
_cell_length_a	22.535000
_cell_length_b	22.535000
_cell_length_c	29.635000
_cell_angle_alpha	90.000000
_cell_angle_beta	90.000000
_cell_angle_gamma	120.000000
_symmetry_Int_Tables_number 1

loop_
_symmetry_equiv_pos_as_xyz
'x,y,z'

loop_
_atom_site_label
_atom_site_type_symbol
_atom_site_fract_x
_atom_site_fract_y
_atom_site_fract_z
Cu11	Cu1	0.259030	0.452350	0.722590
Cu21	Cu2	0.210700	0.440870	0.873530
Cu31	Cu3	0.220020	0.061550	0.649520
C11	C1	0.345100	0.415000	0.680000
C21	C2	0.404900	0.402500	0.673800
H11	H1	0.441100	0.440800	0.657500
H21	H2	0.422700	0.400600	0.703300
C31	C3	0.385300	0.336900	0.648500
H31	H3	0.365500	0.338500	0.619500
C41	C4	0.331800	0.273800	0.674400
H41	H4	0.353100	0.268400	0.701300
H51	H5	0.295400	0.282000	0.684000
C51	C5	0.300400	0.207400	0.647800
C61	C6	0.448000	0.327700	0.639300
H61	H6	0.470600	0.329800	0.667600
H71	H7	0.432500	0.283000	0.626000
C71	C7	0.498500	0.382400	0.607800
C81	C8	0.292200	0.540500	0.650780
C91	C9	0.340700	0.605600	0.625090
H81	H8	0.330500	0.598600	0.593100
H91	H9	0.387500	0.615900	0.629400
C101	C10	0.290700	0.537600	0.818260
C111	C11	0.339600	0.605800	0.797410
H101	H10	0.332600	0.602200	0.765000
H111	H11	0.386000	0.615400	0.803000
C121	C12	0.129200	0.065700	0.707300
C131	C13	0.064000	0.064700	0.721300
H121	H12	0.064300	0.104900	0.709400
H131	H13	0.062300	0.066400	0.754000
C141	C14	0.205200	0.305900	0.750500
H141	H14	0.250100	0.315100	0.747900
C151	C15	0.154500	0.240300	0.761700
H151	H15	0.165400	0.206100	0.766600
C161	C16	0.088800	0.226400	0.765400
H161	H16	0.054200	0.182400	0.772800
C171	C17	0.073300	0.278100	0.758300
H171	H17	0.028300	0.269200	0.760100
C181	C18	0.126800	0.343700	0.748300
C191	C19	0.117600	0.404000	0.743000
C201	C20	0.058000	0.402400	0.751900
H181	H18	0.019700	0.362400	0.761900
C211	C21	0.055900	0.463500	0.745700
H191	H19	0.015400	0.463900	0.750900
C221	C22	0.113200	0.521700	0.732100
H201	H20	0.112900	0.562600	0.728800
C231	C23	0.171500	0.518400	0.723400
H211	H21	0.210500	0.557600	0.713400
C241	C24	0.169400	0.293300	0.880300
H221	H22	0.216000	0.308900	0.882600
C251	C25	0.122900	0.222200	0.882600
H231	H23	0.137800	0.190600	0.885400
C261	C26	0.054700	0.202300	0.880600
H241	H24	0.022200	0.156300	0.884300
C271	C27	0.034000	0.247000	0.873400
H251	H25	0.987500	0.232200	0.870500
C281	C28	0.082400	0.316300	0.870400
C291	C29	0.067100	0.371400	0.866100
C301	C30	0.997300	0.361300	0.863100
H261	H26	0.959700	0.317200	0.862800
C311	C31	0.988300	0.411500	0.861100
H271	H27	0.943800	0.403800	0.859000
C321	C32	0.048500	0.486100	0.861900
H281	H28	0.042900	0.524300	0.861600
C331	C33	0.112600	0.489800	0.863000
H291	H29	0.151500	0.533000	0.861800
C341	C34	0.361300	0.078200	0.651000
H301	H30	0.377800	0.124800	0.654800
C351	C35	0.408100	0.054400	0.649000
H311	H31	0.454800	0.084400	0.652500
C361	C36	0.383500	0.986400	0.641800
H321	H32	0.414100	0.970200	0.639000
C371	C37	0.314300	0.941200	0.638800
H331	H33	0.297300	0.894500	0.634900
C381	C38	0.270900	0.968300	0.641700
C391	C39	0.196500	0.926000	0.635900
C401	C40	0.161500	0.856000	0.629300
H341	H34	0.184800	0.831600	0.630300
C411	C41	0.090800	0.821800	0.621000
H351	H35	0.066600	0.774600	0.616300
C421	C42	0.058000	0.859400	0.620000
H361	H36	0.011200	0.838400	0.614300
C431	C43	0.096800	0.930200	0.627700
H371	H37	0.074600	0.955600	0.627300
N11	N1	0.191800	0.356700	0.743130
N21	N2	0.174200	0.461100	0.728790
N31	N3	0.148800	0.338900	0.875100
N41	N4	0.121300	0.436700	0.865700
N51	N5	0.293600	0.035700	0.647600
N61	N6	0.163700	0.962400	0.635300
O11	O1	0.335600	0.433800	0.719050
O21	O2	0.308400	0.407500	0.647800
O31	O3	0.282600	0.154300	0.668900
O41	O4	0.291800	0.208100	0.606300
O51	O5	0.553100	0.431000	0.622600
O61	O6	0.482900	0.377200	0.565700
O71	O7	0.312100	0.538860	0.691440
O81	O8	0.238000	0.495200	0.634000
O91	O9	0.276500	0.482900	0.798240
O101	O10	0.265300	0.537300	0.856770
O111	O11	0.139900	0.068600	0.664880
O121	O12	0.167600	0.062000	0.735850
O131	O13	0.207000	0.083500	0.573800
Cu41	Cu4	0.925700	0.785680	0.055920
Cu51	Cu5	0.877370	0.774200	0.206860
Cu61	Cu6	0.886690	0.394880	0.982850
C441	C44	0.011770	0.748330	0.013330
C451	C45	0.071570	0.735830	0.007130
H381	H38	0.107770	0.774130	0.990830
H391	H39	0.089370	0.733930	0.036630
C461	C46	0.051970	0.670230	0.981830
H401	H40	0.032170	0.671830	0.952830
C471	C47	0.998470	0.607130	0.007730
H411	H41	0.019770	0.601730	0.034630
H421	H42	0.962070	0.615330	0.017330
C481	C48	0.967070	0.540730	0.981130
C491	C49	0.114670	0.661030	0.972630
H431	H43	0.137270	0.663130	0.000930
H441	H44	0.099170	0.616330	0.959330
C501	C50	0.165170	0.715730	0.941130
C511	C51	0.958870	0.873830	0.984110
C521	C52	0.007370	0.938930	0.958420
H451	H45	0.997170	0.931930	0.926430
H461	H46	0.054170	0.949230	0.962730
C531	C53	0.957370	0.870930	0.151590
C541	C54	0.006270	0.939130	0.130740
H471	H47	0.999270	0.935530	0.098330
H481	H48	0.052670	0.948730	0.136330
C551	C55	0.795870	0.399030	0.040630
C561	C56	0.730670	0.398030	0.054630
H491	H49	0.730970	0.438230	0.042730
H501	H50	0.728970	0.399730	0.087330
C571	C57	0.871870	0.639230	0.083830
H511	H51	0.916770	0.648430	0.081230
C581	C58	0.821170	0.573630	0.095030
H521	H52	0.832070	0.539430	0.099930
C591	C59	0.755470	0.559730	0.098730
H531	H53	0.720870	0.515730	0.106130
C601	C60	0.739970	0.611430	0.091630
H541	H54	0.694970	0.602530	0.093430
C611	C61	0.793470	0.677030	0.081630
C621	C62	0.784270	0.737330	0.076330
C631	C63	0.724670	0.735730	0.085230
H551	H55	0.686370	0.695730	0.095230
C641	C64	0.722570	0.796830	0.079030
H561	H56	0.682070	0.797230	0.084230
C651	C65	0.779870	0.855030	0.065430
H571	H57	0.779570	0.895930	0.062130
C661	C66	0.838170	0.851730	0.056730
H581	H58	0.877170	0.890930	0.046730
C671	C67	0.836070	0.626630	0.213630
H591	H59	0.882670	0.642230	0.215930
C681	C68	0.789570	0.555530	0.215930
H601	H60	0.804470	0.523930	0.218730
C691	C69	0.721370	0.535630	0.213930
H611	H61	0.688870	0.489630	0.217630
C701	C70	0.700670	0.580330	0.206730
H621	H62	0.654170	0.565530	0.203830
C711	C71	0.749070	0.649630	0.203730
C721	C72	0.733770	0.704730	0.199430
C731	C73	0.663970	0.694630	0.196430
H631	H63	0.626370	0.650530	0.196130
C741	C74	0.654970	0.744830	0.194430
H641	H64	0.610470	0.737130	0.192330
C751	C75	0.715170	0.819430	0.195230
H651	H65	0.709570	0.857630	0.194930
C761	C76	0.779270	0.823130	0.196330
H661	H66	0.818170	0.866330	0.195130
C771	C77	0.027970	0.411530	0.984330
H671	H67	0.044470	0.458130	0.988130
C781	C78	0.074770	0.387730	0.982330
H681	H68	0.121470	0.417730	0.985830
C791	C79	0.050170	0.319730	0.975130
H691	H69	0.080770	0.303530	0.972330
C801	C80	0.980970	0.274530	0.972130
H701	H70	0.963970	0.227830	0.968230
C811	C81	0.937570	0.301630	0.975030
C821	C82	0.863170	0.259330	0.969230
C831	C83	0.828170	0.189330	0.962630
H711	H71	0.851470	0.164930	0.963630
C841	C84	0.757470	0.155130	0.954330
H721	H72	0.733270	0.107930	0.949630
C851	C85	0.724670	0.192730	0.953330
H731	H73	0.677870	0.171730	0.947630
C861	C86	0.763470	0.263530	0.961030
H741	H74	0.741270	0.288930	0.960630
N71	N7	0.858470	0.690030	0.076460
N81	N8	0.840870	0.794430	0.062120
N91	N9	0.815470	0.672230	0.208430
N101	N10	0.787970	0.770030	0.199030
N111	N11	0.960270	0.369030	0.980930
N121	N12	0.830370	0.295730	0.968630
O141	O14	0.002270	0.767130	0.052380
O151	O15	0.975070	0.740830	0.981130
O161	O16	0.949270	0.487630	0.002230
O171	O17	0.958470	0.541430	0.939630
O181	O18	0.219770	0.764330	0.955930
O191	O19	0.149570	0.710530	0.899030
O201	O20	0.978770	0.872190	0.024770
O211	O21	0.904670	0.828530	0.967330
O221	O22	0.943170	0.816230	0.131570
O231	O23	0.931970	0.870630	0.190100
O241	O24	0.806570	0.401930	0.998210
O251	O25	0.834270	0.395330	0.069180
O261	O26	0.873670	0.416830	0.907130
Cu71	Cu7	0.592360	0.119020	0.389260
Cu81	Cu8	0.544030	0.107540	0.540200
Cu91	Cu9	0.553350	0.728220	0.316190
C871	C87	0.678430	0.081670	0.346670
C881	C88	0.738230	0.069170	0.340470
H751	H75	0.774430	0.107470	0.324170
H761	H76	0.756030	0.067270	0.369970
C891	C89	0.718630	0.003570	0.315170
H771	H77	0.698830	0.005170	0.286170
C901	C90	0.665130	0.940470	0.341070
H781	H78	0.686430	0.935070	0.367970
H791	H79	0.628730	0.948670	0.350670
C911	C91	0.633730	0.874070	0.314470
C921	C92	0.781330	0.994370	0.305970
H801	H80	0.803930	0.996470	0.334270
H811	H81	0.765830	0.949670	0.292670
C931	C93	0.831830	0.049070	0.274470
C941	C94	0.625530	0.207170	0.317450
C951	C95	0.674030	0.272270	0.291760
H821	H82	0.663830	0.265270	0.259770
H831	H83	0.720830	0.282570	0.296070
C961	C96	0.624030	0.204270	0.484930
C971	C97	0.672930	0.272470	0.464080
H841	H84	0.665930	0.268870	0.431670
H851	H85	0.719330	0.282070	0.469670
C981	C98	0.462530	0.732370	0.373970
C991	C99	0.397330	0.731370	0.387970
H861	H86	0.397630	0.771570	0.376070
H871	H87	0.395630	0.733070	0.420670
C1001	C100	0.538530	0.972570	0.417170
H881	H88	0.583430	0.981770	0.414570
C1011	C101	0.487830	0.906970	0.428370
H891	H89	0.498730	0.872770	0.433270
C1021	C102	0.422130	0.893070	0.432070
H901	H90	0.387530	0.849070	0.439470
C1031	C103	0.406630	0.944770	0.424970
H911	H91	0.361630	0.935870	0.426770
C1041	C104	0.460130	0.010370	0.414970
C1051	C105	0.450930	0.070670	0.409670
C1061	C106	0.391330	0.069070	0.418570
H921	H92	0.353030	0.029070	0.428570
C1071	C107	0.389230	0.130170	0.412370
H931	H93	0.348730	0.130570	0.417570
C1081	C108	0.446530	0.188370	0.398770
H941	H94	0.446230	0.229270	0.395470
C1091	C109	0.504830	0.185070	0.390070
H951	H95	0.543830	0.224270	0.380070
C1101	C110	0.502730	0.959970	0.546970
H961	H96	0.549330	0.975570	0.549270
C1111	C111	0.456230	0.888870	0.549270
H971	H97	0.471130	0.857270	0.552070
C1121	C112	0.388030	0.868970	0.547270
H981	H98	0.355530	0.822970	0.550970
C1131	C113	0.367330	0.913670	0.540070
H991	H99	0.320830	0.898870	0.537170
C1141	C114	0.415730	0.982970	0.537070
C1151	C115	0.400430	0.038070	0.532770
C1161	C116	0.330630	0.027970	0.529770
H1001	H100	0.293030	0.983870	0.529470
C1171	C117	0.321630	0.078170	0.527770
H1011	H101	0.277130	0.070470	0.525670
C1181	C118	0.381830	0.152770	0.528570
H1021	H102	0.376230	0.190970	0.528270
C1191	C119	0.445930	0.156470	0.529670
H1031	H103	0.484830	0.199670	0.528470
C1201	C120	0.694630	0.744870	0.317670
H1041	H104	0.711130	0.791470	0.321470
C1211	C121	0.741430	0.721070	0.315670
H1051	H105	0.788130	0.751070	0.319170
C1221	C122	0.716830	0.653070	0.308470
H1061	H106	0.747430	0.636870	0.305670
C1231	C123	0.647630	0.607870	0.305470
H1071	H107	0.630630	0.561170	0.301570
C1241	C124	0.604230	0.634970	0.308370
C1251	C125	0.529830	0.592670	0.302570
C1261	C126	0.494830	0.522670	0.295970
H1081	H108	0.518130	0.498270	0.296970
C1271	C127	0.424130	0.488470	0.287670
H1091	H109	0.399930	0.441270	0.282970
C1281	C128	0.391330	0.526070	0.286670
H1101	H110	0.344530	0.505070	0.280970
C1291	C129	0.430130	0.596870	0.294370
H1111	H111	0.407930	0.622270	0.293970
N131	N13	0.525130	0.023370	0.409800
N141	N14	0.507530	0.127770	0.395460
N151	N15	0.482130	0.005570	0.541770
N161	N16	0.454630	0.103370	0.532370
N171	N17	0.626930	0.702370	0.314270
N181	N18	0.497030	0.629070	0.301970
O271	O27	0.668930	0.100470	0.385720
O281	O28	0.641730	0.074170	0.314470
O291	O29	0.615930	0.820970	0.335570
O301	O30	0.625130	0.874770	0.272970
O311	O31	0.886430	0.097670	0.289270
O321	O32	0.816230	0.043870	0.232370
O331	O33	0.645430	0.205530	0.358110
O341	O34	0.571330	0.161870	0.300670
O351	O35	0.609830	0.149570	0.464910
O361	O36	0.598630	0.203970	0.523440
O371	O37	0.473230	0.735270	0.331550
O381	O38	0.500930	0.728670	0.402520
O391	O39	0.540330	0.750170	0.240470
Cu101	Cu10	0.547650	0.806680	0.722590
Cu111	Cu11	0.559130	0.769830	0.873530
Cu121	Cu12	0.938450	0.158470	0.649520
C1301	C130	0.585000	0.930100	0.680000
C1311	C131	0.597500	0.002400	0.673800
H1121	H112	0.559200	0.000300	0.657500
H1131	H113	0.599400	0.022100	0.703300
C1321	C132	0.663100	0.048400	0.648500
H1141	H114	0.661500	0.027000	0.619500
C1331	C133	0.726200	0.058000	0.674400
H1151	H115	0.731600	0.084700	0.701300
H1161	H116	0.718000	0.013400	0.684000
C1341	C134	0.792600	0.093000	0.647800
C1351	C135	0.672300	0.120300	0.639300
H1171	H117	0.670200	0.140800	0.667600
H1181	H118	0.717000	0.149500	0.626000
C1361	C136	0.617600	0.116100	0.607800
C1371	C137	0.459500	0.751700	0.650780
C1381	C138	0.394400	0.735100	0.625090
H1191	H119	0.401400	0.731900	0.593100
H1201	H120	0.384100	0.771600	0.629400
C1391	C139	0.462400	0.753100	0.818260
C1401	C140	0.394200	0.733800	0.797410
H1211	H121	0.397800	0.730400	0.765000
H1221	H122	0.384600	0.770600	0.803000
C1411	C141	0.934300	0.063500	0.707300
C1421	C142	0.935300	0.999300	0.721300
H1231	H123	0.895100	0.959400	0.709400
H1241	H124	0.933600	0.995900	0.754000
C1431	C143	0.694100	0.899300	0.750500
H1251	H125	0.684900	0.935000	0.747900
C1441	C144	0.759700	0.914200	0.761700
H1261	H126	0.793900	0.959300	0.766600
C1451	C145	0.773600	0.862400	0.765400
H1271	H127	0.817600	0.871800	0.772800
C1461	C146	0.721900	0.795200	0.758300
H1281	H128	0.730800	0.759100	0.760100
C1471	C147	0.656300	0.783100	0.748300
C1481	C148	0.596000	0.713600	0.743000
C1491	C149	0.597600	0.655600	0.751900
H1291	H129	0.637600	0.657300	0.761900
C1501	C150	0.536500	0.592400	0.745700
H1301	H130	0.536100	0.551500	0.750900
C1511	C151	0.478300	0.591500	0.732100
H1311	H131	0.437400	0.550300	0.728800
C1521	C152	0.481600	0.653100	0.723400
H1321	H132	0.442400	0.652900	0.713400
C1531	C153	0.706700	0.876100	0.880300
H1331	H133	0.691100	0.907100	0.882600
C1541	C154	0.777800	0.900700	0.882600
H1341	H134	0.809400	0.947200	0.885400
C1551	C155	0.797700	0.852400	0.880600
H1351	H135	0.843700	0.865900	0.884300
C1561	C156	0.753000	0.787000	0.873400
H1361	H136	0.767800	0.755300	0.870500
C1571	C157	0.683700	0.766100	0.870400
C1581	C158	0.628600	0.695700	0.866100
C1591	C159	0.638700	0.636000	0.863100
H1371	H137	0.682800	0.642500	0.862800
C1601	C160	0.588500	0.576800	0.861100
H1381	H138	0.596200	0.540000	0.859000
C1611	C161	0.513900	0.562400	0.861900
H1391	H139	0.475700	0.518600	0.861600
C1621	C162	0.510200	0.622800	0.863000
H1401	H140	0.467000	0.618500	0.861800
C1631	C163	0.921800	0.283100	0.651000
H1411	H141	0.875200	0.253000	0.654800
C1641	C164	0.945600	0.353700	0.649000
H1421	H142	0.915600	0.370400	0.652500
C1651	C165	0.013600	0.397100	0.641800
H1431	H143	0.029800	0.443900	0.639000
C1661	C166	0.058800	0.373100	0.638800
H1441	H144	0.105500	0.402800	0.634900
C1671	C167	0.031700	0.302600	0.641700
C1681	C168	0.074000	0.270500	0.635900
C1691	C169	0.144000	0.305500	0.629300
H1451	H145	0.168400	0.353200	0.630300
C1701	C170	0.178200	0.269000	0.621000
H1461	H146	0.225400	0.292000	0.616300
C1711	C171	0.140600	0.198600	0.620000
H1471	H147	0.161600	0.172800	0.614300
C1721	C172	0.069800	0.166600	0.627700
H1481	H148	0.044400	0.119000	0.627300
N191	N19	0.643300	0.835100	0.743130
N201	N20	0.538900	0.713100	0.728790
N211	N21	0.661100	0.809900	0.875100
N221	N22	0.563300	0.684600	0.865700
N231	N23	0.964300	0.257900	0.647600
N241	N24	0.037600	0.201300	0.635300
O401	O40	0.566200	0.901800	0.719050
O411	O41	0.592500	0.900900	0.647800
O421	O42	0.845700	0.128300	0.668900
O431	O43	0.791900	0.083700	0.606300
O441	O44	0.569000	0.122100	0.622600
O451	O45	0.622800	0.105700	0.565700
O461	O46	0.461140	0.773240	0.691440
O471	O47	0.504800	0.742800	0.634000
O481	O48	0.517100	0.793600	0.798240
O491	O49	0.462700	0.728000	0.856770
O501	O50	0.931400	0.071300	0.664880
O511	O51	0.938000	0.105600	0.735850
O521	O52	0.916500	0.123500	0.573800
Cu131	Cu13	0.214320	0.140010	0.055920
Cu141	Cu14	0.225800	0.103160	0.206860
Cu151	Cu15	0.605120	0.491800	0.982850
C1731	C173	0.251670	0.263430	0.013330
C1741	C174	0.264170	0.335730	0.007130
H1491	H149	0.225870	0.333630	0.990830
H1501	H150	0.266070	0.355430	0.036630
C1751	C175	0.329770	0.381730	0.981830
H1511	H151	0.328170	0.360330	0.952830
C1761	C176	0.392870	0.391330	0.007730
H1521	H152	0.398270	0.418030	0.034630
H1531	H153	0.384670	0.346730	0.017330
C1771	C177	0.459270	0.426330	0.981130
C1781	C178	0.338970	0.453630	0.972630
H1541	H154	0.336870	0.474130	0.000930
H1551	H155	0.383670	0.482830	0.959330
C1791	C179	0.284270	0.449430	0.941130
C1801	C180	0.126170	0.085030	0.984110
C1811	C181	0.061070	0.068430	0.958420
H1561	H156	0.068070	0.065230	0.926430
H1571	H157	0.050770	0.104930	0.962730
C1821	C182	0.129070	0.086430	0.151590
C1831	C183	0.060870	0.067130	0.130740
H1581	H158	0.064470	0.063730	0.098330
H1591	H159	0.051270	0.103930	0.136330
C1841	C184	0.600970	0.396830	0.040630
C1851	C185	0.601970	0.332630	0.054630
H1601	H160	0.561770	0.292730	0.042730
H1611	H161	0.600270	0.329230	0.087330
C1861	C186	0.360770	0.232630	0.083830
H1621	H162	0.351570	0.268330	0.081230
C1871	C187	0.426370	0.247530	0.095030
H1631	H163	0.460570	0.292630	0.099930
C1881	C188	0.440270	0.195730	0.098730
H1641	H164	0.484270	0.205130	0.106130
C1891	C189	0.388570	0.128530	0.091630
H1651	H165	0.397470	0.092430	0.093430
C1901	C190	0.322970	0.116430	0.081630
C1911	C191	0.262670	0.046930	0.076330
C1921	C192	0.264270	0.988930	0.085230
H1661	H166	0.304270	0.990630	0.095230
C1931	C193	0.203170	0.925730	0.079030
H1671	H167	0.202770	0.884830	0.084230
C1941	C194	0.144970	0.924830	0.065430
H1681	H168	0.104070	0.883630	0.062130
C1951	C195	0.148270	0.986430	0.056730
H1691	H169	0.109070	0.986230	0.046730
C1961	C196	0.373370	0.209430	0.213630
H1701	H170	0.357770	0.240430	0.215930
C1971	C197	0.444470	0.234030	0.215930
H1711	H171	0.476070	0.280530	0.218730
C1981	C198	0.464370	0.185730	0.213930
H1721	H172	0.510370	0.199230	0.217630
C1991	C199	0.419670	0.120330	0.206730
H1731	H173	0.434470	0.088630	0.203830
C2001	C200	0.350370	0.099430	0.203730
C2011	C201	0.295270	0.029030	0.199430
C2021	C202	0.305370	0.969330	0.196430
H1741	H174	0.349470	0.975830	0.196130
C2031	C203	0.255170	0.910130	0.194430
H1751	H175	0.262870	0.873330	0.192330
C2041	C204	0.180570	0.895730	0.195230
H1761	H176	0.142370	0.851930	0.194930
C2051	C205	0.176870	0.956130	0.196330
H1771	H177	0.133670	0.951830	0.195130
C2061	C206	0.588470	0.616430	0.984330
H1781	H178	0.541870	0.586330	0.988130
C2071	C207	0.612270	0.687030	0.982330
H1791	H179	0.582270	0.703730	0.985830
C2081	C208	0.680270	0.730430	0.975130
H1801	H180	0.696470	0.777230	0.972330
C2091	C209	0.725470	0.706430	0.972130
H1811	H181	0.772170	0.736130	0.968230
C2101	C210	0.698370	0.635930	0.975030
C2111	C211	0.740670	0.603830	0.969230
C2121	C212	0.810670	0.638830	0.962630
H1821	H182	0.835070	0.686530	0.963630
C2131	C213	0.844870	0.602330	0.954330
H1831	H183	0.892070	0.625330	0.949630
C2141	C214	0.807270	0.531930	0.953330
H1841	H184	0.828270	0.506130	0.947630
C2151	C215	0.736470	0.499930	0.961030
H1851	H185	0.711070	0.452330	0.960630
N251	N25	0.309970	0.168430	0.076460
N261	N26	0.205570	0.046430	0.062120
N271	N27	0.327770	0.143230	0.208430
N281	N28	0.229970	0.017930	0.199030
N291	N29	0.630970	0.591230	0.980930
N301	N30	0.704270	0.534630	0.968630
O531	O53	0.232870	0.235130	0.052380
O541	O54	0.259170	0.234230	0.981130
O551	O55	0.512370	0.461630	0.002230
O561	O56	0.458570	0.417030	0.939630
O571	O57	0.235670	0.455430	0.955930
O581	O58	0.289470	0.439030	0.899030
O591	O59	0.127810	0.106570	0.024770
O601	O60	0.171470	0.076130	0.967330
O611	O61	0.183770	0.126930	0.131570
O621	O62	0.129370	0.061330	0.190100
O631	O63	0.598070	0.404630	0.998210
O641	O64	0.604670	0.438930	0.069180
O651	O65	0.583170	0.456830	0.907130
Cu161	Cu16	0.880980	0.473350	0.389260
Cu171	Cu17	0.892460	0.436500	0.540200
Cu181	Cu18	0.271780	0.825140	0.316190
C2161	C216	0.918330	0.596770	0.346670
C2171	C217	0.930830	0.669070	0.340470
H1861	H186	0.892530	0.666970	0.324170
H1871	H187	0.932730	0.688770	0.369970
C2181	C218	0.996430	0.715070	0.315170
H1881	H188	0.994830	0.693670	0.286170
C2191	C219	0.059530	0.724670	0.341070
H1891	H189	0.064930	0.751370	0.367970
H1901	H190	0.051330	0.680070	0.350670
C2201	C220	0.125930	0.759670	0.314470
C2211	C221	0.005630	0.786970	0.305970
H1911	H191	0.003530	0.807470	0.334270
H1921	H192	0.050330	0.816170	0.292670
C2221	C222	0.950930	0.782770	0.274470
C2231	C223	0.792830	0.418370	0.317450
C2241	C224	0.727730	0.401770	0.291760
H1931	H193	0.734730	0.398570	0.259770
H1941	H194	0.717430	0.438270	0.296070
C2251	C225	0.795730	0.419770	0.484930
C2261	C226	0.727530	0.400470	0.464080
H1951	H195	0.731130	0.397070	0.431670
H1961	H196	0.717930	0.437270	0.469670
C2271	C227	0.267630	0.730170	0.373970
C2281	C228	0.268630	0.665970	0.387970
H1971	H197	0.228430	0.626070	0.376070
H1981	H198	0.266930	0.662570	0.420670
C2291	C229	0.027430	0.565970	0.417170
H1991	H199	0.018230	0.601670	0.414570
C2301	C230	0.093030	0.580870	0.428370
H2001	H200	0.127230	0.625970	0.433270
C2311	C231	0.106930	0.529070	0.432070
H2011	H201	0.150930	0.538470	0.439470
C2321	C232	0.055230	0.461870	0.424970
H2021	H202	0.064130	0.425770	0.426770
C2331	C233	0.989630	0.449770	0.414970
C2341	C234	0.929330	0.380270	0.409670
C2351	C235	0.930930	0.322270	0.418570
H2031	H203	0.970930	0.323970	0.428570
C2361	C236	0.869830	0.259070	0.412370
H2041	H204	0.869430	0.218170	0.417570
C2371	C237	0.811630	0.258170	0.398770
H2051	H205	0.770730	0.216970	0.395470
C2381	C238	0.814930	0.319770	0.390070
H2061	H206	0.775730	0.319570	0.380070
C2391	C239	0.040030	0.542770	0.546970
H2071	H207	0.024430	0.573770	0.549270
C2401	C240	0.111130	0.567370	0.549270
H2081	H208	0.142730	0.613870	0.552070
C2411	C241	0.131030	0.519070	0.547270
H2091	H209	0.177030	0.532570	0.550970
C2421	C242	0.086330	0.453670	0.540070
H2101	H210	0.101130	0.421970	0.537170
C2431	C243	0.017030	0.432770	0.537070
C2441	C244	0.961930	0.362370	0.532770
C2451	C245	0.972030	0.302670	0.529770
H2111	H211	0.016130	0.309170	0.529470
C2461	C246	0.921830	0.243470	0.527770
H2121	H212	0.929530	0.206670	0.525670
C2471	C247	0.847230	0.229070	0.528570
H2131	H213	0.809030	0.185270	0.528270
C2481	C248	0.843530	0.289470	0.529670
H2141	H214	0.800330	0.285170	0.528470
C2491	C249	0.255130	0.949770	0.317670
H2151	H215	0.208530	0.919670	0.321470
C2501	C250	0.278930	0.020370	0.315670
H2161	H216	0.248930	0.037070	0.319170
C2511	C251	0.346930	0.063770	0.308470
H2171	H217	0.363130	0.110570	0.305670
C2521	C252	0.392130	0.039770	0.305470
H2181	H218	0.438830	0.069470	0.301570
C2531	C253	0.365030	0.969270	0.308370
C2541	C254	0.407330	0.937170	0.302570
C2551	C255	0.477330	0.972170	0.295970
H2191	H219	0.501730	0.019870	0.296970
C2561	C256	0.511530	0.935670	0.287670
H2201	H220	0.558730	0.958670	0.282970
C2571	C257	0.473930	0.865270	0.286670
H2211	H221	0.494930	0.839470	0.280970
C2581	C258	0.403130	0.833270	0.294370
H2221	H222	0.377730	0.785670	0.293970
N311	N31	0.976630	0.501770	0.409800
N321	N32	0.872230	0.379770	0.395460
N331	N33	0.994430	0.476570	0.541770
N341	N34	0.896630	0.351270	0.532370
N351	N35	0.297630	0.924570	0.314270
N361	N36	0.370930	0.867970	0.301970
O661	O66	0.899530	0.568470	0.385720
O671	O67	0.925830	0.567570	0.314470
O681	O68	0.179030	0.794970	0.335570
O691	O69	0.125230	0.750370	0.272970
O701	O70	0.902330	0.788770	0.289270
O711	O71	0.956130	0.772370	0.232370
O721	O72	0.794470	0.439910	0.358110
O731	O73	0.838130	0.409470	0.300670
O741	O74	0.850430	0.460270	0.464910
O751	O75	0.796030	0.394670	0.523440
O761	O76	0.264730	0.737970	0.331550
O771	O77	0.271330	0.772270	0.402520
O781	O78	0.249830	0.790170	0.240470
Cu191	Cu19	0.193320	0.740970	0.722590
Cu201	Cu20	0.230170	0.789300	0.873530
Cu211	Cu21	0.841530	0.779980	0.649520
C2591	C259	0.069900	0.654900	0.680000
C2601	C260	0.997600	0.595100	0.673800
H2231	H223	0.999700	0.558900	0.657500
H2241	H224	0.977900	0.577300	0.703300
C2611	C261	0.951600	0.614700	0.648500
H2251	H225	0.973000	0.634500	0.619500
C2621	C262	0.942000	0.668200	0.674400
H2261	H226	0.915300	0.646900	0.701300
H2271	H227	0.986600	0.704600	0.684000
C2631	C263	0.907000	0.699600	0.647800
C2641	C264	0.879700	0.552000	0.639300
H2281	H228	0.859200	0.529400	0.667600
H2291	H229	0.850500	0.567500	0.626000
C2651	C265	0.883900	0.501500	0.607800
C2661	C266	0.248300	0.707800	0.650780
C2671	C267	0.264900	0.659300	0.625090
H2301	H230	0.268100	0.669500	0.593100
H2311	H231	0.228400	0.612500	0.629400
C2681	C268	0.246900	0.709300	0.818260
C2691	C269	0.266200	0.660400	0.797410
H2321	H232	0.269600	0.667400	0.765000
H2331	H233	0.229400	0.614000	0.803000
C2701	C270	0.936500	0.870800	0.707300
C2711	C271	0.000700	0.936000	0.721300
H2341	H234	0.040600	0.935700	0.709400
H2351	H235	0.004100	0.937700	0.754000
C2721	C272	0.100700	0.794800	0.750500
H2361	H236	0.065000	0.749900	0.747900
C2731	C273	0.085800	0.845500	0.761700
H2371	H237	0.040700	0.834600	0.766600
C2741	C274	0.137600	0.911200	0.765400
H2381	H238	0.128200	0.945800	0.772800
C2751	C275	0.204800	0.926700	0.758300
H2391	H239	0.240900	0.971700	0.760100
C2761	C276	0.216900	0.873200	0.748300
C2771	C277	0.286400	0.882400	0.743000
C2781	C278	0.344400	0.942000	0.751900
H2401	H240	0.342700	0.980300	0.761900
C2791	C279	0.407600	0.944100	0.745700
H2411	H241	0.448500	0.984600	0.750900
C2801	C280	0.408500	0.886800	0.732100
H2421	H242	0.449700	0.887100	0.728800
C2811	C281	0.346900	0.828500	0.723400
H2431	H243	0.347100	0.789500	0.713400
C2821	C282	0.123900	0.830600	0.880300
H2441	H244	0.092900	0.784000	0.882600
C2831	C283	0.099300	0.877100	0.882600
H2451	H245	0.052800	0.862200	0.885400
C2841	C284	0.147600	0.945300	0.880600
H2461	H246	0.134100	0.977800	0.884300
C2851	C285	0.213000	0.966000	0.873400
H2471	H247	0.244700	0.012500	0.870500
C2861	C286	0.233900	0.917600	0.870400
C2871	C287	0.304300	0.932900	0.866100
C2881	C288	0.364000	0.002700	0.863100
H2481	H248	0.357500	0.040300	0.862800
C2891	C289	0.423200	0.011700	0.861100
H2491	H249	0.460000	0.056200	0.859000
C2901	C290	0.437600	0.951500	0.861900
H2501	H250	0.481400	0.957100	0.861600
C2911	C291	0.377200	0.887400	0.863000
H2511	H251	0.381500	0.848500	0.861800
C2921	C292	0.716900	0.638700	0.651000
H2521	H252	0.747000	0.622200	0.654800
C2931	C293	0.646300	0.591900	0.649000
H2531	H253	0.629600	0.545200	0.652500
C2941	C294	0.602900	0.616500	0.641800
H2541	H254	0.556100	0.585900	0.639000
C2951	C295	0.626900	0.685700	0.638800
H2551	H255	0.597200	0.702700	0.634900
C2961	C296	0.697400	0.729100	0.641700
C2971	C297	0.729500	0.803500	0.635900
C2981	C298	0.694500	0.838500	0.629300
H2561	H256	0.646800	0.815200	0.630300
C2991	C299	0.731000	0.909200	0.621000
H2571	H257	0.708000	0.933400	0.616300
C3001	C300	0.801400	0.942000	0.620000
H2581	H258	0.827200	0.988800	0.614300
C3011	C301	0.833400	0.903200	0.627700
H2591	H259	0.881000	0.925400	0.627300
N371	N37	0.164900	0.808200	0.743130
N381	N38	0.286900	0.825800	0.728790
N391	N39	0.190100	0.851200	0.875100
N401	N40	0.315400	0.878700	0.865700
N411	N41	0.742100	0.706400	0.647600
N421	N42	0.798700	0.836300	0.635300
O791	O79	0.098200	0.664400	0.719050
O801	O80	0.099100	0.691600	0.647800
O811	O81	0.871700	0.717400	0.668900
O821	O82	0.916300	0.708200	0.606300
O831	O83	0.877900	0.446900	0.622600
O841	O84	0.894300	0.517100	0.565700
O851	O85	0.226760	0.687900	0.691440
O861	O86	0.257200	0.762000	0.634000
O871	O87	0.206400	0.723500	0.798240
O881	O88	0.272000	0.734700	0.856770
O891	O89	0.928700	0.860100	0.664880
O901	O90	0.894400	0.832400	0.735850
O911	O91	0.876500	0.793000	0.573800
Cu221	Cu22	0.859990	0.074300	0.055920
Cu231	Cu23	0.896840	0.122630	0.206860
Cu241	Cu24	0.508200	0.113310	0.982850
C3021	C302	0.736570	0.988230	0.013330
C3031	C303	0.664270	0.928430	0.007130
H2601	H260	0.666370	0.892230	0.990830
H2611	H261	0.644570	0.910630	0.036630
C3041	C304	0.618270	0.948030	0.981830
H2621	H262	0.639670	0.967830	0.952830
C3051	C305	0.608670	0.001530	0.007730
H2631	H263	0.581970	0.980230	0.034630
H2641	H264	0.653270	0.037930	0.017330
C3061	C306	0.573670	0.032930	0.981130
C3071	C307	0.546370	0.885330	0.972630
H2651	H265	0.525870	0.862730	0.000930
H2661	H266	0.517170	0.900830	0.959330
C3081	C308	0.550570	0.834830	0.941130
C3091	C309	0.914970	0.041130	0.984110
C3101	C310	0.931570	0.992630	0.958420
H2671	H267	0.934770	0.002830	0.926430
H2681	H268	0.895070	0.945830	0.962730
C3111	C311	0.913570	0.042630	0.151590
C3121	C312	0.932870	0.993730	0.130740
H2691	H269	0.936270	0.000730	0.098330
H2701	H270	0.896070	0.947330	0.136330
C3131	C313	0.603170	0.204130	0.040630
C3141	C314	0.667370	0.269330	0.054630
H2711	H271	0.707270	0.269030	0.042730
H2721	H272	0.670770	0.271030	0.087330
C3151	C315	0.767370	0.128130	0.083830
H2731	H273	0.731670	0.083230	0.081230
C3161	C316	0.752470	0.178830	0.095030
H2741	H274	0.707370	0.167930	0.099930
C3171	C317	0.804270	0.244530	0.098730
H2751	H275	0.794870	0.279130	0.106130
C3181	C318	0.871470	0.260030	0.091630
H2761	H276	0.907570	0.305030	0.093430
C3191	C319	0.883570	0.206530	0.081630
C3201	C320	0.953070	0.215730	0.076330
C3211	C321	0.011070	0.275330	0.085230
H2771	H277	0.009370	0.313630	0.095230
C3221	C322	0.074270	0.277430	0.079030
H2781	H278	0.115170	0.317930	0.084230
C3231	C323	0.075170	0.220130	0.065430
H2791	H279	0.116370	0.220430	0.062130
C3241	C324	0.013570	0.161830	0.056730
H2801	H280	0.013770	0.122830	0.046730
C3251	C325	0.790570	0.163930	0.213630
H2811	H281	0.759570	0.117330	0.215930
C3261	C326	0.765970	0.210430	0.215930
H2821	H282	0.719470	0.195530	0.218730
C3271	C327	0.814270	0.278630	0.213930
H2831	H283	0.800770	0.311130	0.217630
C3281	C328	0.879670	0.299330	0.206730
H2841	H284	0.911370	0.345830	0.203830
C3291	C329	0.900570	0.250930	0.203730
C3301	C330	0.970970	0.266230	0.199430
C3311	C331	0.030670	0.336030	0.196430
H2851	H285	0.024170	0.373630	0.196130
C3321	C332	0.089870	0.345030	0.194430
H2861	H286	0.126670	0.389530	0.192330
C3331	C333	0.104270	0.284830	0.195230
H2871	H287	0.148070	0.290430	0.194930
C3341	C334	0.043870	0.220730	0.196330
H2881	H288	0.048170	0.181830	0.195130
C3351	C335	0.383570	0.972030	0.984330
H2891	H289	0.413670	0.955530	0.988130
C3361	C336	0.312970	0.925230	0.982330
H2901	H290	0.296270	0.878530	0.985830
C3371	C337	0.269570	0.949830	0.975130
H2911	H291	0.222770	0.919230	0.972330
C3381	C338	0.293570	0.019030	0.972130
H2921	H292	0.263870	0.036030	0.968230
C3391	C339	0.364070	0.062430	0.975030
C3401	C340	0.396170	0.136830	0.969230
C3411	C341	0.361170	0.171830	0.962630
H2931	H293	0.313470	0.148530	0.963630
C3421	C342	0.397670	0.242530	0.954330
H2941	H294	0.374670	0.266730	0.949630
C3431	C343	0.468070	0.275330	0.953330
H2951	H295	0.493870	0.322130	0.947630
C3441	C344	0.500070	0.236530	0.961030
H2961	H296	0.547670	0.258730	0.960630
N431	N43	0.831570	0.141530	0.076460
N441	N44	0.953570	0.159130	0.062120
N451	N45	0.856770	0.184530	0.208430
N461	N46	0.982070	0.212030	0.199030
N471	N47	0.408770	0.039730	0.980930
N481	N48	0.465370	0.169630	0.968630
O921	O92	0.764870	0.997730	0.052380
O931	O93	0.765770	0.024930	0.981130
O941	O94	0.538370	0.050730	0.002230
O951	O95	0.582970	0.041530	0.939630
O961	O96	0.544570	0.780230	0.955930
O971	O97	0.560970	0.850430	0.899030
O981	O98	0.893430	0.021230	0.024770
O991	O99	0.923870	0.095330	0.967330
O1001	O100	0.873070	0.056830	0.131570
O1011	O101	0.938670	0.068030	0.190100
O1021	O102	0.595370	0.193430	0.998210
O1031	O103	0.561070	0.165730	0.069180
O1041	O104	0.543170	0.126330	0.907130
Cu251	Cu25	0.526650	0.407640	0.389260
Cu261	Cu26	0.563500	0.455970	0.540200
Cu271	Cu27	0.174860	0.446650	0.316190
C3451	C345	0.403230	0.321570	0.346670
C3461	C346	0.330930	0.261770	0.340470
H2971	H297	0.333030	0.225570	0.324170
H2981	H298	0.311230	0.243970	0.369970
C3471	C347	0.284930	0.281370	0.315170
H2991	H299	0.306330	0.301170	0.286170
C3481	C348	0.275330	0.334870	0.341070
H3001	H300	0.248630	0.313570	0.367970
H3011	H301	0.319930	0.371270	0.350670
C3491	C349	0.240330	0.366270	0.314470
C3501	C350	0.213030	0.218670	0.305970
H3021	H302	0.192530	0.196070	0.334270
H3031	H303	0.183830	0.234170	0.292670
C3511	C351	0.217230	0.168170	0.274470
C3521	C352	0.581630	0.374470	0.317450
C3531	C353	0.598230	0.325970	0.291760
H3041	H304	0.601430	0.336170	0.259770
H3051	H305	0.561730	0.279170	0.296070
C3541	C354	0.580230	0.375970	0.484930
C3551	C355	0.599530	0.327070	0.464080
H3061	H306	0.602930	0.334070	0.431670
H3071	H307	0.562730	0.280670	0.469670
C3561	C356	0.269830	0.537470	0.373970
C3571	C357	0.334030	0.602670	0.387970
H3081	H308	0.373930	0.602370	0.376070
H3091	H309	0.337430	0.604370	0.420670
C3581	C358	0.434030	0.461470	0.417170
H3101	H310	0.398330	0.416570	0.414570
C3591	C359	0.419130	0.512170	0.428370
H3111	H311	0.374030	0.501270	0.433270
C3601	C360	0.470930	0.577870	0.432070
H3121	H312	0.461530	0.612470	0.439470
C3611	C361	0.538130	0.593370	0.424970
H3131	H313	0.574230	0.638370	0.426770
C3621	C362	0.550230	0.539870	0.414970
C3631	C363	0.619730	0.549070	0.409670
C3641	C364	0.677730	0.608670	0.418570
H3141	H314	0.676030	0.646970	0.428570
C3651	C365	0.740930	0.610770	0.412370
H3151	H315	0.781830	0.651270	0.417570
C3661	C366	0.741830	0.553470	0.398770
H3161	H316	0.783030	0.553770	0.395470
C3671	C367	0.680230	0.495170	0.390070
H3171	H317	0.680430	0.456170	0.380070
C3681	C368	0.457230	0.497270	0.546970
H3181	H318	0.426230	0.450670	0.549270
C3691	C369	0.432630	0.543770	0.549270
H3191	H319	0.386130	0.528870	0.552070
C3701	C370	0.480930	0.611970	0.547270
H3201	H320	0.467430	0.644470	0.550970
C3711	C371	0.546330	0.632670	0.540070
H3211	H321	0.578030	0.679170	0.537170
C3721	C372	0.567230	0.584270	0.537070
C3731	C373	0.637630	0.599570	0.532770
C3741	C374	0.697330	0.669370	0.529770
H3221	H322	0.690830	0.706970	0.529470
C3751	C375	0.756530	0.678370	0.527770
H3231	H323	0.793330	0.722870	0.525670
C3761	C376	0.770930	0.618170	0.528570
H3241	H324	0.814730	0.623770	0.528270
C3771	C377	0.710530	0.554070	0.529670
H3251	H325	0.714830	0.515170	0.528470
C3781	C378	0.050230	0.305370	0.317670
H3261	H326	0.080330	0.288870	0.321470
C3791	C379	0.979630	0.258570	0.315670
H3271	H327	0.962930	0.211870	0.319170
C3801	C380	0.936230	0.283170	0.308470
H3281	H328	0.889430	0.252570	0.305670
C3811	C381	0.960230	0.352370	0.305470
H3291	H329	0.930530	0.369370	0.301570
C3821	C382	0.030730	0.395770	0.308370
C3831	C383	0.062830	0.470170	0.302570
C3841	C384	0.027830	0.505170	0.295970
H3301	H330	0.980130	0.481870	0.296970
C3851	C385	0.064330	0.575870	0.287670
H3311	H331	0.041330	0.600070	0.282970
C3861	C386	0.134730	0.608670	0.286670
H3321	H332	0.160530	0.655470	0.280970
C3871	C387	0.166730	0.569870	0.294370
H3331	H333	0.214330	0.592070	0.293970
N491	N49	0.498230	0.474870	0.409800
N501	N50	0.620230	0.492470	0.395460
N511	N51	0.523430	0.517870	0.541770
N521	N52	0.648730	0.545370	0.532370
N531	N53	0.075430	0.373070	0.314270
N541	N54	0.132030	0.502970	0.301970
O1051	O105	0.431530	0.331070	0.385720
O1061	O106	0.432430	0.358270	0.314470
O1071	O107	0.205030	0.384070	0.335570
O1081	O108	0.249630	0.374870	0.272970
O1091	O109	0.211230	0.113570	0.289270
O1101	O110	0.227630	0.183770	0.232370
O1111	O111	0.560090	0.354570	0.358110
O1121	O112	0.590530	0.428670	0.300670
O1131	O113	0.539730	0.390170	0.464910
O1141	O114	0.605330	0.401370	0.523440
O1151	O115	0.262030	0.526770	0.331550
O1161	O116	0.227730	0.499070	0.402520
O1171	O117	0.209830	0.459670	0.240470
C3881	C388	0.333330	0.666670	0.641700
H3341	H334	0.333330	0.666670	0.674800
C3891	C389	0.333330	0.666670	0.814300
H3351	H335	0.333330	0.666670	0.847400
C3901	C390	0.000000	0.000000	0.975030
H3361	H336	0.000000	0.000000	0.008130
C3911	C391	0.000000	0.000000	0.147630
H3371	H337	0.000000	0.000000	0.180730
C3921	C392	0.666670	0.333330	0.308370
H3381	H338	0.666670	0.333330	0.341470
C3931	C393	0.666670	0.333330	0.480970
H3391	H339	0.666670	0.333330	0.514070
C3941	C394	0.000000	0.000000	0.704200
H3401	H340	0.000000	0.000000	0.671100
C3951	C395	0.666670	0.333330	0.037530
H3411	H341	0.666670	0.333330	0.004430
C3961	C396	0.333330	0.666670	0.370870
H3421	H342	0.333330	0.666670	0.337770
