data_DANZEZ_charged_PM
_symmetry_space_group_name_H-M	'P1'
_cell_length_a	10.371800
_cell_length_b	28.505000
_cell_length_c	28.505000
_cell_angle_alpha	90.000000
_cell_angle_beta	90.000000
_cell_angle_gamma	90.000000
_symmetry_Int_Tables_number 1

loop_
_symmetry_equiv_pos_as_xyz
'x,y,z'

loop_
_atom_site_label
_atom_site_type_symbol
_atom_site_fract_x
_atom_site_fract_y
_atom_site_fract_z
Mn11	Mn1	0.767240	0.490620	0.401710
Mn21	Mn2	0.767240	0.009380	0.098290
Mn31	Mn3	0.767240	0.098290	0.490620
Mn41	Mn4	0.767240	0.401710	0.009380
Mn51	Mn5	0.232760	0.509380	0.598290
Mn61	Mn6	0.232760	0.990620	0.901710
Mn71	Mn7	0.232760	0.901710	0.509380
Mn81	Mn8	0.232760	0.598290	0.990620
Mn91	Mn9	0.000000	0.500000	0.500000
Mn101	Mn10	0.000000	0.000000	0.000000
Mn111	Mn11	0.000000	0.000000	0.500000
Mn121	Mn12	0.000000	0.500000	0.000000
H11	H1	0.929300	0.491200	0.701300
H21	H2	0.959700	0.504800	0.855100
H31	H3	0.618500	0.429100	0.780300
H41	H4	0.545400	0.479100	0.721300
H51	H5	0.687000	0.500800	0.590500
H61	H6	0.659800	0.413800	0.858600
H71	H7	0.917500	0.519700	0.776400
H81	H8	0.797000	0.415700	0.306100
H91	H9	0.714800	0.372500	0.325800
H101	H10	0.647300	0.422400	0.318000
H111	H11	0.929300	0.008800	0.798700
H121	H12	0.959700	0.995200	0.644900
H131	H13	0.618500	0.070900	0.719700
H141	H14	0.545400	0.020900	0.778700
H151	H15	0.687000	0.999200	0.909500
H161	H16	0.659800	0.086200	0.641400
H171	H17	0.917500	0.980300	0.723600
H181	H18	0.797000	0.084300	0.193900
H191	H19	0.714800	0.127500	0.174200
H201	H20	0.647300	0.077600	0.182000
H211	H21	0.929300	0.798700	0.491200
H221	H22	0.959700	0.644900	0.504800
H231	H23	0.618500	0.719700	0.429100
H241	H24	0.545400	0.778700	0.479100
H251	H25	0.687000	0.909500	0.500800
H261	H26	0.659800	0.641400	0.413800
H271	H27	0.917500	0.723600	0.519700
H281	H28	0.797000	0.193900	0.415700
H291	H29	0.714800	0.174200	0.372500
H301	H30	0.647300	0.182000	0.422400
H311	H31	0.929300	0.701300	0.008800
H321	H32	0.959700	0.855100	0.995200
H331	H33	0.618500	0.780300	0.070900
H341	H34	0.545400	0.721300	0.020900
H351	H35	0.687000	0.590500	0.999200
H361	H36	0.659800	0.858600	0.086200
H371	H37	0.917500	0.776400	0.980300
H381	H38	0.797000	0.306100	0.084300
H391	H39	0.714800	0.325800	0.127500
H401	H40	0.647300	0.318000	0.077600
H411	H41	0.070700	0.508800	0.298700
H421	H42	0.040300	0.495200	0.144900
H431	H43	0.381500	0.570900	0.219700
H441	H44	0.454600	0.520900	0.278700
H451	H45	0.313000	0.499200	0.409500
H461	H46	0.340200	0.586200	0.141400
H471	H47	0.082500	0.480300	0.223600
H481	H48	0.203000	0.584300	0.693900
H491	H49	0.285200	0.627500	0.674200
H501	H50	0.352700	0.577600	0.682000
H511	H51	0.070700	0.991200	0.201300
H521	H52	0.040300	0.004800	0.355100
H531	H53	0.381500	0.929100	0.280300
H541	H54	0.454600	0.979100	0.221300
H551	H55	0.313000	0.000800	0.090500
H561	H56	0.340200	0.913800	0.358600
H571	H57	0.082500	0.019700	0.276400
H581	H58	0.203000	0.915700	0.806100
H591	H59	0.285200	0.872500	0.825800
H601	H60	0.352700	0.922400	0.818000
H611	H61	0.070700	0.201300	0.508800
H621	H62	0.040300	0.355100	0.495200
H631	H63	0.381500	0.280300	0.570900
H641	H64	0.454600	0.221300	0.520900
H651	H65	0.313000	0.090500	0.499200
H661	H66	0.340200	0.358600	0.586200
H671	H67	0.082500	0.276400	0.480300
H681	H68	0.203000	0.806100	0.584300
H691	H69	0.285200	0.825800	0.627500
H701	H70	0.352700	0.818000	0.577600
H711	H71	0.070700	0.298700	0.991200
H721	H72	0.040300	0.144900	0.004800
H731	H73	0.381500	0.219700	0.929100
H741	H74	0.454600	0.278700	0.979100
H751	H75	0.313000	0.409500	0.000800
H761	H76	0.340200	0.141400	0.913800
H771	H77	0.082500	0.223600	0.019700
H781	H78	0.203000	0.693900	0.915700
H791	H79	0.285200	0.674200	0.872500
H801	H80	0.352700	0.682000	0.922400
C11	C1	0.939900	0.506550	0.609760
C21	C2	0.825300	0.498280	0.641320
C31	C3	0.844100	0.491120	0.689060
C41	C4	0.740500	0.483860	0.719450
C51	C5	0.764500	0.475530	0.770020
C61	C6	0.890400	0.489200	0.839880
C71	C7	0.688500	0.444360	0.795410
C81	C8	0.617000	0.484080	0.701190
C91	C9	0.596800	0.491580	0.653230
C101	C10	0.700700	0.497430	0.623250
C111	C11	0.461900	0.495490	0.633440
C121	C12	0.838800	0.449720	0.916190
C131	C13	0.815100	0.457750	0.864760
C141	C14	0.712600	0.435270	0.841950
C151	C15	0.865200	0.498000	0.793060
C161	C16	0.727000	0.406600	0.327300
C171	C17	0.939900	0.993450	0.890240
C181	C18	0.825300	0.001720	0.858680
C191	C19	0.844100	0.008880	0.810940
C201	C20	0.740500	0.016140	0.780550
C211	C21	0.764500	0.024470	0.729980
C221	C22	0.890400	0.010800	0.660120
C231	C23	0.688500	0.055640	0.704590
C241	C24	0.617000	0.015920	0.798810
C251	C25	0.596800	0.008420	0.846770
C261	C26	0.700700	0.002570	0.876750
C271	C27	0.461900	0.004510	0.866560
C281	C28	0.838800	0.050280	0.583810
C291	C29	0.815100	0.042250	0.635240
C301	C30	0.712600	0.064730	0.658050
C311	C31	0.865200	0.002000	0.706940
C321	C32	0.727000	0.093400	0.172700
C331	C33	0.939900	0.890240	0.506550
C341	C34	0.825300	0.858680	0.498280
C351	C35	0.844100	0.810940	0.491120
C361	C36	0.740500	0.780550	0.483860
C371	C37	0.764500	0.729980	0.475530
C381	C38	0.890400	0.660120	0.489200
C391	C39	0.688500	0.704590	0.444360
C401	C40	0.617000	0.798810	0.484080
C411	C41	0.596800	0.846770	0.491580
C421	C42	0.700700	0.876750	0.497430
C431	C43	0.461900	0.866560	0.495490
C441	C44	0.838800	0.583810	0.449720
C451	C45	0.815100	0.635240	0.457750
C461	C46	0.712600	0.658050	0.435270
C471	C47	0.865200	0.706940	0.498000
C481	C48	0.727000	0.172700	0.406600
C491	C49	0.939900	0.609760	0.993450
C501	C50	0.825300	0.641320	0.001720
C511	C51	0.844100	0.689060	0.008880
C521	C52	0.740500	0.719450	0.016140
C531	C53	0.764500	0.770020	0.024470
C541	C54	0.890400	0.839880	0.010800
C551	C55	0.688500	0.795410	0.055640
C561	C56	0.617000	0.701190	0.015920
C571	C57	0.596800	0.653230	0.008420
C581	C58	0.700700	0.623250	0.002570
C591	C59	0.461900	0.633440	0.004510
C601	C60	0.838800	0.916190	0.050280
C611	C61	0.815100	0.864760	0.042250
C621	C62	0.712600	0.841950	0.064730
C631	C63	0.865200	0.793060	0.002000
C641	C64	0.727000	0.327300	0.093400
C651	C65	0.060100	0.493450	0.390240
C661	C66	0.174700	0.501720	0.358680
C671	C67	0.155900	0.508880	0.310940
C681	C68	0.259500	0.516140	0.280550
C691	C69	0.235500	0.524470	0.229980
C701	C70	0.109600	0.510800	0.160120
C711	C71	0.311500	0.555640	0.204590
C721	C72	0.383000	0.515920	0.298810
C731	C73	0.403200	0.508420	0.346770
C741	C74	0.299300	0.502570	0.376750
C751	C75	0.538100	0.504510	0.366560
C761	C76	0.161200	0.550280	0.083810
C771	C77	0.184900	0.542250	0.135240
C781	C78	0.287400	0.564730	0.158050
C791	C79	0.134800	0.502000	0.206940
C801	C80	0.273000	0.593400	0.672700
C811	C81	0.060100	0.006550	0.109760
C821	C82	0.174700	0.998280	0.141320
C831	C83	0.155900	0.991120	0.189060
C841	C84	0.259500	0.983860	0.219450
C851	C85	0.235500	0.975530	0.270020
C861	C86	0.109600	0.989200	0.339880
C871	C87	0.311500	0.944360	0.295410
C881	C88	0.383000	0.984080	0.201190
C891	C89	0.403200	0.991580	0.153230
C901	C90	0.299300	0.997430	0.123250
C911	C91	0.538100	0.995490	0.133440
C921	C92	0.161200	0.949720	0.416190
C931	C93	0.184900	0.957750	0.364760
C941	C94	0.287400	0.935270	0.341950
C951	C95	0.134800	0.998000	0.293060
C961	C96	0.273000	0.906600	0.827300
C971	C97	0.060100	0.109760	0.493450
C981	C98	0.174700	0.141320	0.501720
C991	C99	0.155900	0.189060	0.508880
C1001	C100	0.259500	0.219450	0.516140
C1011	C101	0.235500	0.270020	0.524470
C1021	C102	0.109600	0.339880	0.510800
C1031	C103	0.311500	0.295410	0.555640
C1041	C104	0.383000	0.201190	0.515920
C1051	C105	0.403200	0.153230	0.508420
C1061	C106	0.299300	0.123250	0.502570
C1071	C107	0.538100	0.133440	0.504510
C1081	C108	0.161200	0.416190	0.550280
C1091	C109	0.184900	0.364760	0.542250
C1101	C110	0.287400	0.341950	0.564730
C1111	C111	0.134800	0.293060	0.502000
C1121	C112	0.273000	0.827300	0.593400
C1131	C113	0.060100	0.390240	0.006550
C1141	C114	0.174700	0.358680	0.998280
C1151	C115	0.155900	0.310940	0.991120
C1161	C116	0.259500	0.280550	0.983860
C1171	C117	0.235500	0.229980	0.975530
C1181	C118	0.109600	0.160120	0.989200
C1191	C119	0.311500	0.204590	0.944360
C1201	C120	0.383000	0.298810	0.984080
C1211	C121	0.403200	0.346770	0.991580
C1221	C122	0.299300	0.376750	0.997430
C1231	C123	0.538100	0.366560	0.995490
C1241	C124	0.161200	0.083810	0.949720
C1251	C125	0.184900	0.135240	0.957750
C1261	C126	0.287400	0.158050	0.935270
C1271	C127	0.134800	0.206940	0.998000
C1281	C128	0.273000	0.672700	0.906600
Cl11	Cl1	0.791070	0.456300	0.480560
Cl21	Cl2	0.791070	0.043700	0.019440
Cl31	Cl3	0.791070	0.019440	0.456300
Cl41	Cl4	0.791070	0.480560	0.043700
Cl51	Cl5	0.208930	0.543700	0.519440
Cl61	Cl6	0.208930	0.956300	0.980560
Cl71	Cl7	0.208930	0.980560	0.543700
Cl81	Cl8	0.208930	0.519440	0.956300
O11	O1	0.916700	0.515680	0.567490
O21	O2	0.922300	0.475140	0.935310
O31	O3	0.775300	0.418550	0.935900
O41	O4	0.366800	0.487930	0.660030
O51	O5	0.448200	0.508110	0.592050
O61	O6	0.048200	0.503800	0.628250
O71	O7	0.758200	0.419140	0.372100
O81	O8	0.916700	0.984320	0.932510
O91	O9	0.922300	0.024860	0.564690
O101	O10	0.775300	0.081450	0.564100
O111	O11	0.366800	0.012070	0.839970
O121	O12	0.448200	0.991890	0.907950
O131	O13	0.048200	0.996200	0.871750
O141	O14	0.758200	0.080860	0.127900
O151	O15	0.916700	0.932510	0.515680
O161	O16	0.922300	0.564690	0.475140
O171	O17	0.775300	0.564100	0.418550
O181	O18	0.366800	0.839970	0.487930
O191	O19	0.448200	0.907950	0.508110
O201	O20	0.048200	0.871750	0.503800
O211	O21	0.758200	0.127900	0.419140
O221	O22	0.916700	0.567490	0.984320
O231	O23	0.922300	0.935310	0.024860
O241	O24	0.775300	0.935900	0.081450
O251	O25	0.366800	0.660030	0.012070
O261	O26	0.448200	0.592050	0.991890
O271	O27	0.048200	0.628250	0.996200
O281	O28	0.758200	0.372100	0.080860
O291	O29	0.083300	0.484320	0.432510
O301	O30	0.077700	0.524860	0.064690
O311	O31	0.224700	0.581450	0.064100
O321	O32	0.633200	0.512070	0.339970
O331	O33	0.551800	0.491890	0.407950
O341	O34	0.951800	0.496200	0.371750
O351	O35	0.241800	0.580860	0.627900
O361	O36	0.083300	0.015680	0.067490
O371	O37	0.077700	0.975140	0.435310
O381	O38	0.224700	0.918550	0.435900
O391	O39	0.633200	0.987930	0.160030
O401	O40	0.551800	0.008110	0.092050
O411	O41	0.951800	0.003800	0.128250
O421	O42	0.241800	0.919140	0.872100
O431	O43	0.083300	0.067490	0.484320
O441	O44	0.077700	0.435310	0.524860
O451	O45	0.224700	0.435900	0.581450
O461	O46	0.633200	0.160030	0.512070
O471	O47	0.551800	0.092050	0.491890
O481	O48	0.951800	0.128250	0.496200
O491	O49	0.241800	0.872100	0.580860
O501	O50	0.083300	0.432510	0.015680
O511	O51	0.077700	0.064690	0.975140
O521	O52	0.224700	0.064100	0.918550
O531	O53	0.633200	0.339970	0.987930
O541	O54	0.551800	0.407950	0.008110
O551	O55	0.951800	0.371750	0.003800
O561	O56	0.241800	0.627900	0.919140
Mn131	Mn13	0.636370	0.750000	0.750000
H811	H81	0.627300	0.571200	0.764800
H821	H82	0.626800	0.585300	0.679500
H831	H83	0.425300	0.596900	0.831300
H841	H84	0.394500	0.534000	0.881500
H851	H85	0.756400	0.544500	0.926600
H861	H86	0.791800	0.608600	0.879400
H871	H87	0.616600	0.495200	0.964900
H881	H88	0.465300	0.498400	0.954500
H891	H89	0.555500	0.466200	0.922400
H901	H90	0.627300	0.928800	0.735200
H911	H91	0.626800	0.914700	0.820500
H921	H92	0.425300	0.903100	0.668700
H931	H93	0.394500	0.966000	0.618500
H941	H94	0.756400	0.955500	0.573400
H951	H95	0.791800	0.891400	0.620600
H961	H96	0.616600	0.004800	0.535100
H971	H97	0.465300	0.001600	0.545500
H981	H98	0.555500	0.033800	0.577600
H991	H99	0.627300	0.735200	0.571200
H1001	H100	0.626800	0.820500	0.585300
H1011	H101	0.425300	0.668700	0.596900
H1021	H102	0.394500	0.618500	0.534000
H1031	H103	0.756400	0.573400	0.544500
H1041	H104	0.791800	0.620600	0.608600
H1051	H105	0.616600	0.535100	0.495200
H1061	H106	0.465300	0.545500	0.498400
H1071	H107	0.555500	0.577600	0.466200
H1081	H108	0.627300	0.764800	0.928800
H1091	H109	0.626800	0.679500	0.914700
H1101	H110	0.425300	0.831300	0.903100
H1111	H111	0.394500	0.881500	0.966000
H1121	H112	0.756400	0.926600	0.955500
H1131	H113	0.791800	0.879400	0.891400
H1141	H114	0.616600	0.964900	0.004800
H1151	H115	0.465300	0.954500	0.001600
H1161	H116	0.555500	0.922400	0.033800
C1291	C129	0.630200	0.645640	0.771870
C1301	C130	0.629700	0.652570	0.820090
C1311	C131	0.632900	0.657990	0.696100
C1321	C132	0.628500	0.600920	0.749700
C1331	C133	0.628800	0.608650	0.703340
C1341	C134	0.612400	0.610390	0.850580
C1351	C135	0.493200	0.586900	0.851300
C1361	C136	0.475200	0.549700	0.880600
C1371	C137	0.688400	0.556090	0.907500
C1381	C138	0.709900	0.593670	0.879400
C1391	C139	0.550900	0.495490	0.940240
C1401	C140	0.630200	0.854360	0.728130
C1411	C141	0.629700	0.847430	0.679910
C1421	C142	0.632900	0.842010	0.803900
C1431	C143	0.628500	0.899080	0.750300
C1441	C144	0.628800	0.891350	0.796660
C1451	C145	0.612400	0.889610	0.649420
C1461	C146	0.493200	0.913100	0.648700
C1471	C147	0.475200	0.950300	0.619400
C1481	C148	0.688400	0.943910	0.592500
C1491	C149	0.709900	0.906330	0.620600
C1501	C150	0.550900	0.004510	0.559760
C1511	C151	0.630200	0.728130	0.645640
C1521	C152	0.629700	0.679910	0.652570
C1531	C153	0.632900	0.803900	0.657990
C1541	C154	0.628500	0.750300	0.600920
C1551	C155	0.628800	0.796660	0.608650
C1561	C156	0.612400	0.649420	0.610390
C1571	C157	0.493200	0.648700	0.586900
C1581	C158	0.475200	0.619400	0.549700
C1591	C159	0.688400	0.592500	0.556090
C1601	C160	0.709900	0.620600	0.593670
C1611	C161	0.550900	0.559760	0.495490
C1621	C162	0.630200	0.771870	0.854360
C1631	C163	0.629700	0.820090	0.847430
C1641	C164	0.632900	0.696100	0.842010
C1651	C165	0.628500	0.749700	0.899080
C1661	C166	0.628800	0.703340	0.891350
C1671	C167	0.612400	0.850580	0.889610
C1681	C168	0.493200	0.851300	0.913100
C1691	C169	0.475200	0.880600	0.950300
C1701	C170	0.688400	0.907500	0.943910
C1711	C171	0.709900	0.879400	0.906330
C1721	C172	0.550900	0.940240	0.004510
N11	N1	0.634400	0.680240	0.738700
N21	N2	0.573600	0.535270	0.908770
N31	N3	0.634400	0.819760	0.761300
N41	N4	0.573600	0.964730	0.591230
N51	N5	0.634400	0.761300	0.680240
N61	N6	0.573600	0.591230	0.535270
N71	N7	0.634400	0.738700	0.819760
N81	N8	0.573600	0.908770	0.964730
O571	O57	0.850900	0.750000	0.750000
O581	O58	0.421900	0.750000	0.750000
Mn141	Mn14	0.363630	0.250000	0.250000
H1171	H117	0.372700	0.428800	0.235200
H1181	H118	0.373200	0.414700	0.320500
H1191	H119	0.574700	0.403100	0.168700
H1201	H120	0.605500	0.466000	0.118500
H1211	H121	0.243600	0.455500	0.073400
H1221	H122	0.208200	0.391400	0.120600
H1231	H123	0.383400	0.504800	0.035100
H1241	H124	0.534700	0.501600	0.045500
H1251	H125	0.444500	0.533800	0.077600
H1261	H126	0.372700	0.071200	0.264800
H1271	H127	0.373200	0.085300	0.179500
H1281	H128	0.574700	0.096900	0.331300
H1291	H129	0.605500	0.034000	0.381500
H1301	H130	0.243600	0.044500	0.426600
H1311	H131	0.208200	0.108600	0.379400
H1321	H132	0.383400	0.995200	0.464900
H1331	H133	0.534700	0.998400	0.454500
H1341	H134	0.444500	0.966200	0.422400
H1351	H135	0.372700	0.264800	0.428800
H1361	H136	0.373200	0.179500	0.414700
H1371	H137	0.574700	0.331300	0.403100
H1381	H138	0.605500	0.381500	0.466000
H1391	H139	0.243600	0.426600	0.455500
H1401	H140	0.208200	0.379400	0.391400
H1411	H141	0.383400	0.464900	0.504800
H1421	H142	0.534700	0.454500	0.501600
H1431	H143	0.444500	0.422400	0.533800
H1441	H144	0.372700	0.235200	0.071200
H1451	H145	0.373200	0.320500	0.085300
H1461	H146	0.574700	0.168700	0.096900
H1471	H147	0.605500	0.118500	0.034000
H1481	H148	0.243600	0.073400	0.044500
H1491	H149	0.208200	0.120600	0.108600
H1501	H150	0.383400	0.035100	0.995200
H1511	H151	0.534700	0.045500	0.998400
H1521	H152	0.444500	0.077600	0.966200
C1731	C173	0.369800	0.354360	0.228130
C1741	C174	0.370300	0.347430	0.179910
C1751	C175	0.367100	0.342010	0.303900
C1761	C176	0.371500	0.399080	0.250300
C1771	C177	0.371200	0.391350	0.296660
C1781	C178	0.387600	0.389610	0.149420
C1791	C179	0.506800	0.413100	0.148700
C1801	C180	0.524800	0.450300	0.119400
C1811	C181	0.311600	0.443910	0.092500
C1821	C182	0.290100	0.406330	0.120600
C1831	C183	0.449100	0.504510	0.059760
C1841	C184	0.369800	0.145640	0.271870
C1851	C185	0.370300	0.152570	0.320090
C1861	C186	0.367100	0.157990	0.196100
C1871	C187	0.371500	0.100920	0.249700
C1881	C188	0.371200	0.108650	0.203340
C1891	C189	0.387600	0.110390	0.350580
C1901	C190	0.506800	0.086900	0.351300
C1911	C191	0.524800	0.049700	0.380600
C1921	C192	0.311600	0.056090	0.407500
C1931	C193	0.290100	0.093670	0.379400
C1941	C194	0.449100	0.995490	0.440240
C1951	C195	0.369800	0.271870	0.354360
C1961	C196	0.370300	0.320090	0.347430
C1971	C197	0.367100	0.196100	0.342010
C1981	C198	0.371500	0.249700	0.399080
C1991	C199	0.371200	0.203340	0.391350
C2001	C200	0.387600	0.350580	0.389610
C2011	C201	0.506800	0.351300	0.413100
C2021	C202	0.524800	0.380600	0.450300
C2031	C203	0.311600	0.407500	0.443910
C2041	C204	0.290100	0.379400	0.406330
C2051	C205	0.449100	0.440240	0.504510
C2061	C206	0.369800	0.228130	0.145640
C2071	C207	0.370300	0.179910	0.152570
C2081	C208	0.367100	0.303900	0.157990
C2091	C209	0.371500	0.250300	0.100920
C2101	C210	0.371200	0.296660	0.108650
C2111	C211	0.387600	0.149420	0.110390
C2121	C212	0.506800	0.148700	0.086900
C2131	C213	0.524800	0.119400	0.049700
C2141	C214	0.311600	0.092500	0.056090
C2151	C215	0.290100	0.120600	0.093670
C2161	C216	0.449100	0.059760	0.995490
N91	N9	0.365600	0.319760	0.261300
N101	N10	0.426400	0.464730	0.091230
N111	N11	0.365600	0.180240	0.238700
N121	N12	0.426400	0.035270	0.408770
N131	N13	0.365600	0.238700	0.319760
N141	N14	0.426400	0.408770	0.464730
N151	N15	0.365600	0.261300	0.180240
N161	N16	0.426400	0.091230	0.035270
O591	O59	0.149100	0.250000	0.250000
O601	O60	0.578100	0.250000	0.250000
