data_DAPVUM_freeONLY_PM
_symmetry_space_group_name_H-M	'P1'
_cell_length_a	27.514000
_cell_length_b	14.252000
_cell_length_c	24.004000
_cell_angle_alpha	90.000000
_cell_angle_beta	113.521000
_cell_angle_gamma	90.000000
_symmetry_Int_Tables_number 1

loop_
_symmetry_equiv_pos_as_xyz
'x,y,z'

loop_
_atom_site_label
_atom_site_type_symbol
_atom_site_fract_x
_atom_site_fract_y
_atom_site_fract_z
Ag11	Ag1	0.250690	0.781350	0.219210
P11	P1	0.251910	0.628580	0.173240
P21	P2	0.246660	0.939490	0.178010
N11	N1	0.338640	0.791600	0.296900
N21	N2	0.421390	0.836900	0.341900
N31	N3	0.164260	0.800800	0.341300
N41	N4	0.195110	0.769800	0.271810
C11	C1	0.273900	0.536000	0.231200
H11	H1	0.272500	0.475600	0.211900
H21	H2	0.310300	0.547500	0.259100
C21	C2	0.262000	0.035000	0.234200
H31	H3	0.298500	0.028700	0.263000
H41	H4	0.258700	0.094500	0.213400
C31	C3	0.189900	0.586200	0.117800
C41	C4	0.149900	0.648800	0.089500
H51	H5	0.155700	0.712200	0.099200
C51	C5	0.101300	0.620500	0.046900
H61	H6	0.074500	0.663800	0.027800
C61	C6	0.093300	0.524000	0.033000
H71	H7	0.060700	0.502900	0.005100
C71	C7	0.131600	0.464300	0.059400
H81	H8	0.126500	0.401000	0.049200
C81	C8	0.178700	0.494000	0.101700
H91	H9	0.204700	0.449400	0.120700
C91	C9	0.297500	0.618000	0.135900
C101	C10	0.281200	0.608500	0.074500
H101	H10	0.245200	0.602800	0.050200
C111	C11	0.317400	0.607300	0.047900
H111	H11	0.305600	0.601000	0.006000
C121	C12	0.370200	0.615100	0.082600
H121	H12	0.394400	0.613600	0.064500
C131	C13	0.387400	0.625100	0.143500
H131	H13	0.423300	0.630100	0.167800
C141	C14	0.350100	0.627700	0.168700
H141	H14	0.361900	0.636500	0.210500
C151	C15	0.185700	0.977000	0.117700
C161	C16	0.139500	0.930100	0.108900
H151	H15	0.140400	0.880400	0.134400
C171	C17	0.091100	0.955600	0.062400
H161	H16	0.060400	0.922000	0.056200
C181	C18	0.089800	0.030200	0.026600
H171	H17	0.057600	0.048800	0.996600
C191	C19	0.134600	0.078100	0.034000
H181	H18	0.132900	0.129200	0.009100
C201	C20	0.183300	0.050700	0.078800
H191	H19	0.214100	0.082000	0.082600
C211	C21	0.296300	0.954100	0.147000
C221	C22	0.333100	0.027900	0.162100
H201	H20	0.330800	0.075900	0.187100
C231	C23	0.372500	0.030400	0.140600
H211	H21	0.397100	0.079100	0.152300
C241	C24	0.376200	0.962800	0.102400
H221	H22	0.402700	0.965500	0.087600
C251	C25	0.339200	0.888400	0.085600
H231	H23	0.341100	0.841900	0.059400
C261	C26	0.300300	0.884700	0.108100
H241	H24	0.276300	0.835100	0.097100
C271	C27	0.375800	0.846500	0.294200
H251	H25	0.370800	0.887600	0.262300
C281	C28	0.362900	0.746900	0.350600
H261	H26	0.346700	0.703200	0.366400
C291	C29	0.413500	0.774100	0.378000
H271	H27	0.438200	0.752900	0.415100
C301	C30	0.469600	0.888700	0.353900
H281	H28	0.498100	0.861200	0.388600
H291	H29	0.464900	0.952900	0.364200
C311	C31	0.485300	0.888800	0.299500
C321	C32	0.492600	0.807400	0.273000
H301	H30	0.486900	0.750200	0.288100
C331	C33	0.491700	0.970400	0.274100
H311	H31	0.485100	0.027100	0.288900
C341	C34	0.205000	0.698300	0.470100
H321	H32	0.174600	0.663100	0.450000
C351	C35	0.253000	0.840800	0.482700
H331	H33	0.255200	0.902400	0.471200
C361	C36	0.207700	0.789800	0.452300
C371	C37	0.162500	0.833200	0.399300
H341	H34	0.129000	0.815400	0.400600
H351	H35	0.165300	0.901100	0.401800
C381	C38	0.207600	0.793600	0.329000
H361	H36	0.242000	0.804200	0.357100
C391	C39	0.121900	0.778500	0.288600
H371	H37	0.086500	0.776500	0.283100
C401	C40	0.141000	0.760500	0.246800
H381	H38	0.120700	0.744100	0.206700
Ag21	Ag2	0.750690	0.281350	0.219210
P31	P3	0.751910	0.128580	0.173240
P41	P4	0.746660	0.439490	0.178010
N51	N5	0.838640	0.291600	0.296900
N61	N6	0.921390	0.336900	0.341900
N71	N7	0.664260	0.300800	0.341300
N81	N8	0.695110	0.269800	0.271810
C411	C41	0.773900	0.036000	0.231200
H391	H39	0.772500	0.975600	0.211900
H401	H40	0.810300	0.047500	0.259100
C421	C42	0.762000	0.535000	0.234200
H411	H41	0.798500	0.528700	0.263000
H421	H42	0.758700	0.594500	0.213400
C431	C43	0.689900	0.086200	0.117800
C441	C44	0.649900	0.148800	0.089500
H431	H43	0.655700	0.212200	0.099200
C451	C45	0.601300	0.120500	0.046900
H441	H44	0.574500	0.163800	0.027800
C461	C46	0.593300	0.024000	0.033000
H451	H45	0.560700	0.002900	0.005100
C471	C47	0.631600	0.964300	0.059400
H461	H46	0.626500	0.901000	0.049200
C481	C48	0.678700	0.994000	0.101700
H471	H47	0.704700	0.949400	0.120700
C491	C49	0.797500	0.118000	0.135900
C501	C50	0.781200	0.108500	0.074500
H481	H48	0.745200	0.102800	0.050200
C511	C51	0.817400	0.107300	0.047900
H491	H49	0.805600	0.101000	0.006000
C521	C52	0.870200	0.115100	0.082600
H501	H50	0.894400	0.113600	0.064500
C531	C53	0.887400	0.125100	0.143500
H511	H51	0.923300	0.130100	0.167800
C541	C54	0.850100	0.127700	0.168700
H521	H52	0.861900	0.136500	0.210500
C551	C55	0.685700	0.477000	0.117700
C561	C56	0.639500	0.430100	0.108900
H531	H53	0.640400	0.380400	0.134400
C571	C57	0.591100	0.455600	0.062400
H541	H54	0.560400	0.422000	0.056200
C581	C58	0.589800	0.530200	0.026600
H551	H55	0.557600	0.548800	0.996600
C591	C59	0.634600	0.578100	0.034000
H561	H56	0.632900	0.629200	0.009100
C601	C60	0.683300	0.550700	0.078800
H571	H57	0.714100	0.582000	0.082600
C611	C61	0.796300	0.454100	0.147000
C621	C62	0.833100	0.527900	0.162100
H581	H58	0.830800	0.575900	0.187100
C631	C63	0.872500	0.530400	0.140600
H591	H59	0.897100	0.579100	0.152300
C641	C64	0.876200	0.462800	0.102400
H601	H60	0.902700	0.465500	0.087600
C651	C65	0.839200	0.388400	0.085600
H611	H61	0.841100	0.341900	0.059400
C661	C66	0.800300	0.384700	0.108100
H621	H62	0.776300	0.335100	0.097100
C671	C67	0.875800	0.346500	0.294200
H631	H63	0.870800	0.387600	0.262300
C681	C68	0.862900	0.246900	0.350600
H641	H64	0.846700	0.203200	0.366400
C691	C69	0.913500	0.274100	0.378000
H651	H65	0.938200	0.252900	0.415100
C701	C70	0.969600	0.388700	0.353900
H661	H66	0.998100	0.361200	0.388600
H671	H67	0.964900	0.452900	0.364200
C711	C71	0.985300	0.388800	0.299500
C721	C72	0.992600	0.307400	0.273000
H681	H68	0.986900	0.250200	0.288100
C731	C73	0.991700	0.470400	0.274100
H691	H69	0.985100	0.527100	0.288900
C741	C74	0.705000	0.198300	0.470100
H701	H70	0.674600	0.163100	0.450000
C751	C75	0.753000	0.340800	0.482700
H711	H71	0.755200	0.402400	0.471200
C761	C76	0.707700	0.289800	0.452300
C771	C77	0.662500	0.333200	0.399300
H721	H72	0.629000	0.315400	0.400600
H731	H73	0.665300	0.401100	0.401800
C781	C78	0.707600	0.293600	0.329000
H741	H74	0.742000	0.304200	0.357100
C791	C79	0.621900	0.278500	0.288600
H751	H75	0.586500	0.276500	0.283100
C801	C80	0.641000	0.260500	0.246800
H761	H76	0.620700	0.244100	0.206700
Ag31	Ag3	0.749300	0.781350	0.280790
P51	P5	0.748090	0.628580	0.326760
P61	P6	0.753340	0.939490	0.321990
N91	N9	0.661360	0.791600	0.203100
N101	N10	0.578610	0.836900	0.158100
N111	N11	0.835740	0.800800	0.158700
N121	N12	0.804890	0.769800	0.228190
C811	C81	0.726100	0.536000	0.268800
H771	H77	0.727500	0.475600	0.288100
H781	H78	0.689700	0.547500	0.240900
C821	C82	0.738000	0.035000	0.265800
H791	H79	0.701500	0.028700	0.237000
H801	H80	0.741300	0.094500	0.286600
C831	C83	0.810100	0.586200	0.382200
C841	C84	0.850100	0.648800	0.410500
H811	H81	0.844300	0.712200	0.400800
C851	C85	0.898700	0.620500	0.453100
H821	H82	0.925500	0.663800	0.472200
C861	C86	0.906700	0.524000	0.467000
H831	H83	0.939300	0.502900	0.494900
C871	C87	0.868400	0.464300	0.440600
H841	H84	0.873500	0.401000	0.450800
C881	C88	0.821300	0.494000	0.398300
H851	H85	0.795300	0.449400	0.379300
C891	C89	0.702500	0.618000	0.364100
C901	C90	0.718800	0.608500	0.425500
H861	H86	0.754800	0.602800	0.449800
C911	C91	0.682600	0.607300	0.452100
H871	H87	0.694400	0.601000	0.494000
C921	C92	0.629800	0.615100	0.417400
H881	H88	0.605600	0.613600	0.435500
C931	C93	0.612600	0.625100	0.356500
H891	H89	0.576700	0.630100	0.332200
C941	C94	0.649900	0.627700	0.331300
H901	H90	0.638100	0.636500	0.289500
C951	C95	0.814300	0.977000	0.382300
C961	C96	0.860500	0.930100	0.391100
H911	H91	0.859600	0.880400	0.365600
C971	C97	0.908900	0.955600	0.437600
H921	H92	0.939600	0.922000	0.443800
C981	C98	0.910200	0.030200	0.473400
H931	H93	0.942400	0.048800	0.503400
C991	C99	0.865400	0.078100	0.466000
H941	H94	0.867100	0.129200	0.490900
C1001	C100	0.816700	0.050700	0.421200
H951	H95	0.785900	0.082000	0.417400
C1011	C101	0.703700	0.954100	0.353000
C1021	C102	0.666900	0.027900	0.337900
H961	H96	0.669200	0.075900	0.312900
C1031	C103	0.627500	0.030400	0.359400
H971	H97	0.602900	0.079100	0.347700
C1041	C104	0.623800	0.962800	0.397600
H981	H98	0.597300	0.965500	0.412400
C1051	C105	0.660800	0.888400	0.414400
H991	H99	0.658900	0.841900	0.440600
C1061	C106	0.699700	0.884700	0.391900
H1001	H100	0.723700	0.835100	0.402900
C1071	C107	0.624200	0.846500	0.205800
H1011	H101	0.629200	0.887600	0.237700
C1081	C108	0.637100	0.746900	0.149400
H1021	H102	0.653300	0.703200	0.133600
C1091	C109	0.586500	0.774100	0.122000
H1031	H103	0.561800	0.752900	0.084900
C1101	C110	0.530400	0.888700	0.146100
H1041	H104	0.501900	0.861200	0.111400
H1051	H105	0.535100	0.952900	0.135800
C1111	C111	0.514700	0.888800	0.200500
C1121	C112	0.507400	0.807400	0.227000
H1061	H106	0.513100	0.750200	0.211900
C1131	C113	0.508300	0.970400	0.225900
H1071	H107	0.514900	0.027100	0.211100
C1141	C114	0.795000	0.698300	0.029900
H1081	H108	0.825400	0.663100	0.050000
C1151	C115	0.747000	0.840800	0.017300
H1091	H109	0.744800	0.902400	0.028800
C1161	C116	0.792300	0.789800	0.047700
C1171	C117	0.837500	0.833200	0.100700
H1101	H110	0.871000	0.815400	0.099400
H1111	H111	0.834700	0.901100	0.098200
C1181	C118	0.792400	0.793600	0.171000
H1121	H112	0.758000	0.804200	0.142900
C1191	C119	0.878100	0.778500	0.211400
H1131	H113	0.913500	0.776500	0.216900
C1201	C120	0.859000	0.760500	0.253200
H1141	H114	0.879300	0.744100	0.293300
Ag41	Ag4	0.249300	0.281350	0.280790
P71	P7	0.248090	0.128580	0.326760
P81	P8	0.253340	0.439490	0.321990
N131	N13	0.161360	0.291600	0.203100
N141	N14	0.078610	0.336900	0.158100
N151	N15	0.335740	0.300800	0.158700
N161	N16	0.304890	0.269800	0.228190
C1211	C121	0.226100	0.036000	0.268800
H1151	H115	0.227500	0.975600	0.288100
H1161	H116	0.189700	0.047500	0.240900
C1221	C122	0.238000	0.535000	0.265800
H1171	H117	0.201500	0.528700	0.237000
H1181	H118	0.241300	0.594500	0.286600
C1231	C123	0.310100	0.086200	0.382200
C1241	C124	0.350100	0.148800	0.410500
H1191	H119	0.344300	0.212200	0.400800
C1251	C125	0.398700	0.120500	0.453100
H1201	H120	0.425500	0.163800	0.472200
C1261	C126	0.406700	0.024000	0.467000
H1211	H121	0.439300	0.002900	0.494900
C1271	C127	0.368400	0.964300	0.440600
H1221	H122	0.373500	0.901000	0.450800
C1281	C128	0.321300	0.994000	0.398300
H1231	H123	0.295300	0.949400	0.379300
C1291	C129	0.202500	0.118000	0.364100
C1301	C130	0.218800	0.108500	0.425500
H1241	H124	0.254800	0.102800	0.449800
C1311	C131	0.182600	0.107300	0.452100
H1251	H125	0.194400	0.101000	0.494000
C1321	C132	0.129800	0.115100	0.417400
H1261	H126	0.105600	0.113600	0.435500
C1331	C133	0.112600	0.125100	0.356500
H1271	H127	0.076700	0.130100	0.332200
C1341	C134	0.149900	0.127700	0.331300
H1281	H128	0.138100	0.136500	0.289500
C1351	C135	0.314300	0.477000	0.382300
C1361	C136	0.360500	0.430100	0.391100
H1291	H129	0.359600	0.380400	0.365600
C1371	C137	0.408900	0.455600	0.437600
H1301	H130	0.439600	0.422000	0.443800
C1381	C138	0.410200	0.530200	0.473400
H1311	H131	0.442400	0.548800	0.503400
C1391	C139	0.365400	0.578100	0.466000
H1321	H132	0.367100	0.629200	0.490900
C1401	C140	0.316700	0.550700	0.421200
H1331	H133	0.285900	0.582000	0.417400
C1411	C141	0.203700	0.454100	0.353000
C1421	C142	0.166900	0.527900	0.337900
H1341	H134	0.169200	0.575900	0.312900
C1431	C143	0.127500	0.530400	0.359400
H1351	H135	0.102900	0.579100	0.347700
C1441	C144	0.123800	0.462800	0.397600
H1361	H136	0.097300	0.465500	0.412400
C1451	C145	0.160800	0.388400	0.414400
H1371	H137	0.158900	0.341900	0.440600
C1461	C146	0.199700	0.384700	0.391900
H1381	H138	0.223700	0.335100	0.402900
C1471	C147	0.124200	0.346500	0.205800
H1391	H139	0.129200	0.387600	0.237700
C1481	C148	0.137100	0.246900	0.149400
H1401	H140	0.153300	0.203200	0.133600
C1491	C149	0.086500	0.274100	0.122000
H1411	H141	0.061800	0.252900	0.084900
C1501	C150	0.030400	0.388700	0.146100
H1421	H142	0.001900	0.361200	0.111400
H1431	H143	0.035100	0.452900	0.135800
C1511	C151	0.014700	0.388800	0.200500
C1521	C152	0.007400	0.307400	0.227000
H1441	H144	0.013100	0.250200	0.211900
C1531	C153	0.008300	0.470400	0.225900
H1451	H145	0.014900	0.527100	0.211100
C1541	C154	0.295000	0.198300	0.029900
H1461	H146	0.325400	0.163100	0.050000
C1551	C155	0.247000	0.340800	0.017300
H1471	H147	0.244800	0.402400	0.028800
C1561	C156	0.292300	0.289800	0.047700
C1571	C157	0.337500	0.333200	0.100700
H1481	H148	0.371000	0.315400	0.099400
H1491	H149	0.334700	0.401100	0.098200
C1581	C158	0.292400	0.293600	0.171000
H1501	H150	0.258000	0.304200	0.142900
C1591	C159	0.378100	0.278500	0.211400
H1511	H151	0.413500	0.276500	0.216900
C1601	C160	0.359000	0.260500	0.253200
H1521	H152	0.379300	0.244100	0.293300
Ag51	Ag5	0.749300	0.218650	0.780790
P91	P9	0.748090	0.371420	0.826760
P101	P10	0.753340	0.060510	0.821990
N171	N17	0.661360	0.208400	0.703100
N181	N18	0.578610	0.163100	0.658100
N191	N19	0.835740	0.199200	0.658700
N201	N20	0.804890	0.230200	0.728190
C1611	C161	0.726100	0.464000	0.768800
H1531	H153	0.727500	0.524400	0.788100
H1541	H154	0.689700	0.452500	0.740900
C1621	C162	0.738000	0.965000	0.765800
H1551	H155	0.701500	0.971300	0.737000
H1561	H156	0.741300	0.905500	0.786600
C1631	C163	0.810100	0.413800	0.882200
C1641	C164	0.850100	0.351200	0.910500
H1571	H157	0.844300	0.287800	0.900800
C1651	C165	0.898700	0.379500	0.953100
H1581	H158	0.925500	0.336200	0.972200
C1661	C166	0.906700	0.476000	0.967000
H1591	H159	0.939300	0.497100	0.994900
C1671	C167	0.868400	0.535700	0.940600
H1601	H160	0.873500	0.599000	0.950800
C1681	C168	0.821300	0.506000	0.898300
H1611	H161	0.795300	0.550600	0.879300
C1691	C169	0.702500	0.382000	0.864100
C1701	C170	0.718800	0.391500	0.925500
H1621	H162	0.754800	0.397200	0.949800
C1711	C171	0.682600	0.392700	0.952100
H1631	H163	0.694400	0.399000	0.994000
C1721	C172	0.629800	0.384900	0.917400
H1641	H164	0.605600	0.386400	0.935500
C1731	C173	0.612600	0.374900	0.856500
H1651	H165	0.576700	0.369900	0.832200
C1741	C174	0.649900	0.372300	0.831300
H1661	H166	0.638100	0.363500	0.789500
C1751	C175	0.814300	0.023000	0.882300
C1761	C176	0.860500	0.069900	0.891100
H1671	H167	0.859600	0.119600	0.865600
C1771	C177	0.908900	0.044400	0.937600
H1681	H168	0.939600	0.078000	0.943800
C1781	C178	0.910200	0.969800	0.973400
H1691	H169	0.942400	0.951200	0.003400
C1791	C179	0.865400	0.921900	0.966000
H1701	H170	0.867100	0.870800	0.990900
C1801	C180	0.816700	0.949300	0.921200
H1711	H171	0.785900	0.918000	0.917400
C1811	C181	0.703700	0.045900	0.853000
C1821	C182	0.666900	0.972100	0.837900
H1721	H172	0.669200	0.924100	0.812900
C1831	C183	0.627500	0.969600	0.859400
H1731	H173	0.602900	0.920900	0.847700
C1841	C184	0.623800	0.037200	0.897600
H1741	H174	0.597300	0.034500	0.912400
C1851	C185	0.660800	0.111600	0.914400
H1751	H175	0.658900	0.158100	0.940600
C1861	C186	0.699700	0.115300	0.891900
H1761	H176	0.723700	0.164900	0.902900
C1871	C187	0.624200	0.153500	0.705800
H1771	H177	0.629200	0.112400	0.737700
C1881	C188	0.637100	0.253100	0.649400
H1781	H178	0.653300	0.296800	0.633600
C1891	C189	0.586500	0.225900	0.622000
H1791	H179	0.561800	0.247100	0.584900
C1901	C190	0.530400	0.111300	0.646100
H1801	H180	0.501900	0.138800	0.611400
H1811	H181	0.535100	0.047100	0.635800
C1911	C191	0.514700	0.111200	0.700500
C1921	C192	0.507400	0.192600	0.727000
H1821	H182	0.513100	0.249800	0.711900
C1931	C193	0.508300	0.029600	0.725900
H1831	H183	0.514900	0.972900	0.711100
C1941	C194	0.795000	0.301700	0.529900
H1841	H184	0.825400	0.336900	0.550000
C1951	C195	0.747000	0.159200	0.517300
H1851	H185	0.744800	0.097600	0.528800
C1961	C196	0.792300	0.210200	0.547700
C1971	C197	0.837500	0.166800	0.600700
H1861	H186	0.871000	0.184600	0.599400
H1871	H187	0.834700	0.098900	0.598200
C1981	C198	0.792400	0.206400	0.671000
H1881	H188	0.758000	0.195800	0.642900
C1991	C199	0.878100	0.221500	0.711400
H1891	H189	0.913500	0.223500	0.716900
C2001	C200	0.859000	0.239500	0.753200
H1901	H190	0.879300	0.255900	0.793300
Ag61	Ag6	0.249300	0.718650	0.780790
P111	P11	0.248090	0.871420	0.826760
P121	P12	0.253340	0.560510	0.821990
N211	N21	0.161360	0.708400	0.703100
N221	N22	0.078610	0.663100	0.658100
N231	N23	0.335740	0.699200	0.658700
N241	N24	0.304890	0.730200	0.728190
C2011	C201	0.226100	0.964000	0.768800
H1911	H191	0.227500	0.024400	0.788100
H1921	H192	0.189700	0.952500	0.740900
C2021	C202	0.238000	0.465000	0.765800
H1931	H193	0.201500	0.471300	0.737000
H1941	H194	0.241300	0.405500	0.786600
C2031	C203	0.310100	0.913800	0.882200
C2041	C204	0.350100	0.851200	0.910500
H1951	H195	0.344300	0.787800	0.900800
C2051	C205	0.398700	0.879500	0.953100
H1961	H196	0.425500	0.836200	0.972200
C2061	C206	0.406700	0.976000	0.967000
H1971	H197	0.439300	0.997100	0.994900
C2071	C207	0.368400	0.035700	0.940600
H1981	H198	0.373500	0.099000	0.950800
C2081	C208	0.321300	0.006000	0.898300
H1991	H199	0.295300	0.050600	0.879300
C2091	C209	0.202500	0.882000	0.864100
C2101	C210	0.218800	0.891500	0.925500
H2001	H200	0.254800	0.897200	0.949800
C2111	C211	0.182600	0.892700	0.952100
H2011	H201	0.194400	0.899000	0.994000
C2121	C212	0.129800	0.884900	0.917400
H2021	H202	0.105600	0.886400	0.935500
C2131	C213	0.112600	0.874900	0.856500
H2031	H203	0.076700	0.869900	0.832200
C2141	C214	0.149900	0.872300	0.831300
H2041	H204	0.138100	0.863500	0.789500
C2151	C215	0.314300	0.523000	0.882300
C2161	C216	0.360500	0.569900	0.891100
H2051	H205	0.359600	0.619600	0.865600
C2171	C217	0.408900	0.544400	0.937600
H2061	H206	0.439600	0.578000	0.943800
C2181	C218	0.410200	0.469800	0.973400
H2071	H207	0.442400	0.451200	0.003400
C2191	C219	0.365400	0.421900	0.966000
H2081	H208	0.367100	0.370800	0.990900
C2201	C220	0.316700	0.449300	0.921200
H2091	H209	0.285900	0.418000	0.917400
C2211	C221	0.203700	0.545900	0.853000
C2221	C222	0.166900	0.472100	0.837900
H2101	H210	0.169200	0.424100	0.812900
C2231	C223	0.127500	0.469600	0.859400
H2111	H211	0.102900	0.420900	0.847700
C2241	C224	0.123800	0.537200	0.897600
H2121	H212	0.097300	0.534500	0.912400
C2251	C225	0.160800	0.611600	0.914400
H2131	H213	0.158900	0.658100	0.940600
C2261	C226	0.199700	0.615300	0.891900
H2141	H214	0.223700	0.664900	0.902900
C2271	C227	0.124200	0.653500	0.705800
H2151	H215	0.129200	0.612400	0.737700
C2281	C228	0.137100	0.753100	0.649400
H2161	H216	0.153300	0.796800	0.633600
C2291	C229	0.086500	0.725900	0.622000
H2171	H217	0.061800	0.747100	0.584900
C2301	C230	0.030400	0.611300	0.646100
H2181	H218	0.001900	0.638800	0.611400
H2191	H219	0.035100	0.547100	0.635800
C2311	C231	0.014700	0.611200	0.700500
C2321	C232	0.007400	0.692600	0.727000
H2201	H220	0.013100	0.749800	0.711900
C2331	C233	0.008300	0.529600	0.725900
H2211	H221	0.014900	0.472900	0.711100
C2341	C234	0.295000	0.801700	0.529900
H2221	H222	0.325400	0.836900	0.550000
C2351	C235	0.247000	0.659200	0.517300
H2231	H223	0.244800	0.597600	0.528800
C2361	C236	0.292300	0.710200	0.547700
C2371	C237	0.337500	0.666800	0.600700
H2241	H224	0.371000	0.684600	0.599400
H2251	H225	0.334700	0.598900	0.598200
C2381	C238	0.292400	0.706400	0.671000
H2261	H226	0.258000	0.695800	0.642900
C2391	C239	0.378100	0.721500	0.711400
H2271	H227	0.413500	0.723500	0.716900
C2401	C240	0.359000	0.739500	0.753200
H2281	H228	0.379300	0.755900	0.793300
Ag71	Ag7	0.250690	0.218650	0.719210
P131	P13	0.251910	0.371420	0.673240
P141	P14	0.246660	0.060510	0.678010
N251	N25	0.338640	0.208400	0.796900
N261	N26	0.421390	0.163100	0.841900
N271	N27	0.164260	0.199200	0.841300
N281	N28	0.195110	0.230200	0.771810
C2411	C241	0.273900	0.464000	0.731200
H2291	H229	0.272500	0.524400	0.711900
H2301	H230	0.310300	0.452500	0.759100
C2421	C242	0.262000	0.965000	0.734200
H2311	H231	0.298500	0.971300	0.763000
H2321	H232	0.258700	0.905500	0.713400
C2431	C243	0.189900	0.413800	0.617800
C2441	C244	0.149900	0.351200	0.589500
H2331	H233	0.155700	0.287800	0.599200
C2451	C245	0.101300	0.379500	0.546900
H2341	H234	0.074500	0.336200	0.527800
C2461	C246	0.093300	0.476000	0.533000
H2351	H235	0.060700	0.497100	0.505100
C2471	C247	0.131600	0.535700	0.559400
H2361	H236	0.126500	0.599000	0.549200
C2481	C248	0.178700	0.506000	0.601700
H2371	H237	0.204700	0.550600	0.620700
C2491	C249	0.297500	0.382000	0.635900
C2501	C250	0.281200	0.391500	0.574500
H2381	H238	0.245200	0.397200	0.550200
C2511	C251	0.317400	0.392700	0.547900
H2391	H239	0.305600	0.399000	0.506000
C2521	C252	0.370200	0.384900	0.582600
H2401	H240	0.394400	0.386400	0.564500
C2531	C253	0.387400	0.374900	0.643500
H2411	H241	0.423300	0.369900	0.667800
C2541	C254	0.350100	0.372300	0.668700
H2421	H242	0.361900	0.363500	0.710500
C2551	C255	0.185700	0.023000	0.617700
C2561	C256	0.139500	0.069900	0.608900
H2431	H243	0.140400	0.119600	0.634400
C2571	C257	0.091100	0.044400	0.562400
H2441	H244	0.060400	0.078000	0.556200
C2581	C258	0.089800	0.969800	0.526600
H2451	H245	0.057600	0.951200	0.496600
C2591	C259	0.134600	0.921900	0.534000
H2461	H246	0.132900	0.870800	0.509100
C2601	C260	0.183300	0.949300	0.578800
H2471	H247	0.214100	0.918000	0.582600
C2611	C261	0.296300	0.045900	0.647000
C2621	C262	0.333100	0.972100	0.662100
H2481	H248	0.330800	0.924100	0.687100
C2631	C263	0.372500	0.969600	0.640600
H2491	H249	0.397100	0.920900	0.652300
C2641	C264	0.376200	0.037200	0.602400
H2501	H250	0.402700	0.034500	0.587600
C2651	C265	0.339200	0.111600	0.585600
H2511	H251	0.341100	0.158100	0.559400
C2661	C266	0.300300	0.115300	0.608100
H2521	H252	0.276300	0.164900	0.597100
C2671	C267	0.375800	0.153500	0.794200
H2531	H253	0.370800	0.112400	0.762300
C2681	C268	0.362900	0.253100	0.850600
H2541	H254	0.346700	0.296800	0.866400
C2691	C269	0.413500	0.225900	0.878000
H2551	H255	0.438200	0.247100	0.915100
C2701	C270	0.469600	0.111300	0.853900
H2561	H256	0.498100	0.138800	0.888600
H2571	H257	0.464900	0.047100	0.864200
C2711	C271	0.485300	0.111200	0.799500
C2721	C272	0.492600	0.192600	0.773000
H2581	H258	0.486900	0.249800	0.788100
C2731	C273	0.491700	0.029600	0.774100
H2591	H259	0.485100	0.972900	0.788900
C2741	C274	0.205000	0.301700	0.970100
H2601	H260	0.174600	0.336900	0.950000
C2751	C275	0.253000	0.159200	0.982700
H2611	H261	0.255200	0.097600	0.971200
C2761	C276	0.207700	0.210200	0.952300
C2771	C277	0.162500	0.166800	0.899300
H2621	H262	0.129000	0.184600	0.900600
H2631	H263	0.165300	0.098900	0.901800
C2781	C278	0.207600	0.206400	0.829000
H2641	H264	0.242000	0.195800	0.857100
C2791	C279	0.121900	0.221500	0.788600
H2651	H265	0.086500	0.223500	0.783100
C2801	C280	0.141000	0.239500	0.746800
H2661	H266	0.120700	0.255900	0.706700
Ag81	Ag8	0.750690	0.718650	0.719210
P151	P15	0.751910	0.871420	0.673240
P161	P16	0.746660	0.560510	0.678010
N291	N29	0.838640	0.708400	0.796900
N301	N30	0.921390	0.663100	0.841900
N311	N31	0.664260	0.699200	0.841300
N321	N32	0.695110	0.730200	0.771810
C2811	C281	0.773900	0.964000	0.731200
H2671	H267	0.772500	0.024400	0.711900
H2681	H268	0.810300	0.952500	0.759100
C2821	C282	0.762000	0.465000	0.734200
H2691	H269	0.798500	0.471300	0.763000
H2701	H270	0.758700	0.405500	0.713400
C2831	C283	0.689900	0.913800	0.617800
C2841	C284	0.649900	0.851200	0.589500
H2711	H271	0.655700	0.787800	0.599200
C2851	C285	0.601300	0.879500	0.546900
H2721	H272	0.574500	0.836200	0.527800
C2861	C286	0.593300	0.976000	0.533000
H2731	H273	0.560700	0.997100	0.505100
C2871	C287	0.631600	0.035700	0.559400
H2741	H274	0.626500	0.099000	0.549200
C2881	C288	0.678700	0.006000	0.601700
H2751	H275	0.704700	0.050600	0.620700
C2891	C289	0.797500	0.882000	0.635900
C2901	C290	0.781200	0.891500	0.574500
H2761	H276	0.745200	0.897200	0.550200
C2911	C291	0.817400	0.892700	0.547900
H2771	H277	0.805600	0.899000	0.506000
C2921	C292	0.870200	0.884900	0.582600
H2781	H278	0.894400	0.886400	0.564500
C2931	C293	0.887400	0.874900	0.643500
H2791	H279	0.923300	0.869900	0.667800
C2941	C294	0.850100	0.872300	0.668700
H2801	H280	0.861900	0.863500	0.710500
C2951	C295	0.685700	0.523000	0.617700
C2961	C296	0.639500	0.569900	0.608900
H2811	H281	0.640400	0.619600	0.634400
C2971	C297	0.591100	0.544400	0.562400
H2821	H282	0.560400	0.578000	0.556200
C2981	C298	0.589800	0.469800	0.526600
H2831	H283	0.557600	0.451200	0.496600
C2991	C299	0.634600	0.421900	0.534000
H2841	H284	0.632900	0.370800	0.509100
C3001	C300	0.683300	0.449300	0.578800
H2851	H285	0.714100	0.418000	0.582600
C3011	C301	0.796300	0.545900	0.647000
C3021	C302	0.833100	0.472100	0.662100
H2861	H286	0.830800	0.424100	0.687100
C3031	C303	0.872500	0.469600	0.640600
H2871	H287	0.897100	0.420900	0.652300
C3041	C304	0.876200	0.537200	0.602400
H2881	H288	0.902700	0.534500	0.587600
C3051	C305	0.839200	0.611600	0.585600
H2891	H289	0.841100	0.658100	0.559400
C3061	C306	0.800300	0.615300	0.608100
H2901	H290	0.776300	0.664900	0.597100
C3071	C307	0.875800	0.653500	0.794200
H2911	H291	0.870800	0.612400	0.762300
C3081	C308	0.862900	0.753100	0.850600
H2921	H292	0.846700	0.796800	0.866400
C3091	C309	0.913500	0.725900	0.878000
H2931	H293	0.938200	0.747100	0.915100
C3101	C310	0.969600	0.611300	0.853900
H2941	H294	0.998100	0.638800	0.888600
H2951	H295	0.964900	0.547100	0.864200
C3111	C311	0.985300	0.611200	0.799500
C3121	C312	0.992600	0.692600	0.773000
H2961	H296	0.986900	0.749800	0.788100
C3131	C313	0.991700	0.529600	0.774100
H2971	H297	0.985100	0.472900	0.788900
C3141	C314	0.705000	0.801700	0.970100
H2981	H298	0.674600	0.836900	0.950000
C3151	C315	0.753000	0.659200	0.982700
H2991	H299	0.755200	0.597600	0.971200
C3161	C316	0.707700	0.710200	0.952300
C3171	C317	0.662500	0.666800	0.899300
H3001	H300	0.629000	0.684600	0.900600
H3011	H301	0.665300	0.598900	0.901800
C3181	C318	0.707600	0.706400	0.829000
H3021	H302	0.742000	0.695800	0.857100
C3191	C319	0.621900	0.721500	0.788600
H3031	H303	0.586500	0.723500	0.783100
C3201	C320	0.641000	0.739500	0.746800
H3041	H304	0.620700	0.755900	0.706700
