data_DAPXID_ion_b_PM
_symmetry_space_group_name_H-M	'P1'
_cell_length_a	36.351000
_cell_length_b	36.351000
_cell_length_c	14.943000
_cell_angle_alpha	90.000000
_cell_angle_beta	90.000000
_cell_angle_gamma	90.000000
_symmetry_Int_Tables_number 1

loop_
_symmetry_equiv_pos_as_xyz
'x,y,z'

loop_
_atom_site_label
_atom_site_type_symbol
_atom_site_fract_x
_atom_site_fract_y
_atom_site_fract_z
C11	C1	0.337250	0.038480	0.289400
C21	C2	0.315880	0.039920	0.200600
C31	C3	0.290720	0.007750	0.080000
C41	C4	0.252900	0.008620	0.081500
H51	H5	0.240100	0.008900	0.135400
C61	C6	0.268960	0.170370	0.212600
C71	C7	0.258020	0.152980	0.302300
C81	C8	0.216070	0.150850	0.419800
C91	C9	0.192360	0.121500	0.419500
H101	H10	0.183800	0.111900	0.365800
C111	C11	0.402660	0.134300	0.214900
C121	C12	0.394080	0.154510	0.302800
C131	C13	0.417310	0.191270	0.418700
C141	C14	0.413440	0.228910	0.418300
H151	H15	0.411700	0.241900	0.364800
Cu161	Cu16	0.335380	0.967790	0.233220
Mn171	Mn17	0.326140	0.116880	0.253930
Na181	Na18	0.467200	0.124800	0.937700
N191	N19	0.310290	0.008070	0.163800
N201	N20	0.228110	0.166660	0.336970
N211	N21	0.422120	0.172290	0.336600
O221	O22	0.342540	0.068140	0.328940
O231	O23	0.306500	0.071500	0.170420
O241	O24	0.348750	0.007810	0.316600
O251	O25	0.296890	0.158330	0.174590
O261	O26	0.278350	0.127610	0.332320
O271	O27	0.249110	0.195800	0.183370
O281	O28	0.377180	0.117420	0.178400
O291	O29	0.361520	0.152470	0.333290
O301	O30	0.434970	0.136610	0.185400
C341	C34	0.662750	0.961520	0.289400
C351	C35	0.684120	0.960080	0.200600
C361	C36	0.709280	0.992250	0.080000
C371	C37	0.747100	0.991380	0.081500
H381	H38	0.759900	0.991100	0.135400
C391	C39	0.731040	0.829630	0.212600
C401	C40	0.741980	0.847020	0.302300
C411	C41	0.783930	0.849150	0.419800
C421	C42	0.807640	0.878500	0.419500
H431	H43	0.816200	0.888100	0.365800
C441	C44	0.597340	0.865700	0.214900
C451	C45	0.605920	0.845490	0.302800
C461	C46	0.582690	0.808730	0.418700
C471	C47	0.586560	0.771090	0.418300
H481	H48	0.588300	0.758100	0.364800
Cu491	Cu49	0.664620	0.032210	0.233220
Mn501	Mn50	0.673860	0.883120	0.253930
Na511	Na51	0.532800	0.875200	0.937700
N521	N52	0.689710	0.991930	0.163800
N531	N53	0.771890	0.833340	0.336970
N541	N54	0.577880	0.827710	0.336600
O551	O55	0.657460	0.931860	0.328940
O561	O56	0.693500	0.928500	0.170420
O571	O57	0.651250	0.992190	0.316600
O581	O58	0.703110	0.841670	0.174590
O591	O59	0.721650	0.872390	0.332320
O601	O60	0.750890	0.804200	0.183370
O611	O61	0.622820	0.882580	0.178400
O621	O62	0.638480	0.847530	0.333290
O631	O63	0.565030	0.863390	0.185400
C671	C67	0.461520	0.837250	0.789400
C681	C68	0.460080	0.815880	0.700600
C691	C69	0.492250	0.790720	0.580000
C701	C70	0.491380	0.752900	0.581500
H711	H71	0.491100	0.740100	0.635400
C721	C72	0.329630	0.768960	0.712600
C731	C73	0.347020	0.758020	0.802300
C741	C74	0.349150	0.716070	0.919800
C751	C75	0.378500	0.692360	0.919500
H761	H76	0.388100	0.683800	0.865800
C771	C77	0.365700	0.902660	0.714900
C781	C78	0.345490	0.894080	0.802800
C791	C79	0.308730	0.917310	0.918700
C801	C80	0.271090	0.913440	0.918300
H811	H81	0.258100	0.911700	0.864800
Cu821	Cu82	0.532210	0.835380	0.733220
Mn831	Mn83	0.383120	0.826140	0.753930
Na841	Na84	0.375200	0.967200	0.437700
N851	N85	0.491930	0.810290	0.663800
N861	N86	0.333340	0.728110	0.836970
N871	N87	0.327710	0.922120	0.836600
O881	O88	0.431860	0.842540	0.828940
O891	O89	0.428500	0.806500	0.670420
O901	O90	0.492190	0.848750	0.816600
O911	O91	0.341670	0.796890	0.674590
O921	O92	0.372390	0.778350	0.832320
O931	O93	0.304200	0.749110	0.683370
O941	O94	0.382580	0.877180	0.678400
O951	O95	0.347530	0.861520	0.833290
O961	O96	0.363390	0.934970	0.685400
C1001	C100	0.538480	0.162750	0.789400
C1011	C101	0.539920	0.184120	0.700600
C1021	C102	0.507750	0.209280	0.580000
C1031	C103	0.508620	0.247100	0.581500
H1041	H104	0.508900	0.259900	0.635400
C1051	C105	0.670370	0.231040	0.712600
C1061	C106	0.652980	0.241980	0.802300
C1071	C107	0.650850	0.283930	0.919800
C1081	C108	0.621500	0.307640	0.919500
H1091	H109	0.611900	0.316200	0.865800
C1101	C110	0.634300	0.097340	0.714900
C1111	C111	0.654510	0.105920	0.802800
C1121	C112	0.691270	0.082690	0.918700
C1131	C113	0.728910	0.086560	0.918300
H1141	H114	0.741900	0.088300	0.864800
Cu1151	Cu115	0.467790	0.164620	0.733220
Mn1161	Mn116	0.616880	0.173860	0.753930
Na1171	Na117	0.624800	0.032800	0.437700
N1181	N118	0.508070	0.189710	0.663800
N1191	N119	0.666660	0.271890	0.836970
N1201	N120	0.672290	0.077880	0.836600
O1211	O121	0.568140	0.157460	0.828940
O1221	O122	0.571500	0.193500	0.670420
O1231	O123	0.507810	0.151250	0.816600
O1241	O124	0.658330	0.203110	0.674590
O1251	O125	0.627610	0.221650	0.832320
O1261	O126	0.695800	0.250890	0.683370
O1271	O127	0.617420	0.122820	0.678400
O1281	O128	0.652470	0.138480	0.833290
O1291	O129	0.636610	0.065030	0.685400
C1331	C133	0.162750	0.538480	0.210600
C1341	C134	0.184120	0.539920	0.299400
C1351	C135	0.209280	0.507750	0.420000
C1361	C136	0.247100	0.508620	0.418500
H1371	H137	0.259900	0.508900	0.364600
C1381	C138	0.231040	0.670370	0.287400
C1391	C139	0.241980	0.652980	0.197700
C1401	C140	0.283930	0.650850	0.080200
C1411	C141	0.307640	0.621500	0.080500
H1421	H142	0.316200	0.611900	0.134200
C1431	C143	0.097340	0.634300	0.285100
C1441	C144	0.105920	0.654510	0.197200
C1451	C145	0.082690	0.691270	0.081300
C1461	C146	0.086560	0.728910	0.081700
H1471	H147	0.088300	0.741900	0.135200
Cu1481	Cu148	0.164620	0.467790	0.266780
Mn1491	Mn149	0.173860	0.616880	0.246070
Na1501	Na150	0.032800	0.624800	0.562300
N1511	N151	0.189710	0.508070	0.336200
N1521	N152	0.271890	0.666660	0.163030
N1531	N153	0.077880	0.672290	0.163400
O1541	O154	0.157460	0.568140	0.171060
O1551	O155	0.193500	0.571500	0.329580
O1561	O156	0.151250	0.507810	0.183400
O1571	O157	0.203110	0.658330	0.325410
O1581	O158	0.221650	0.627610	0.167680
O1591	O159	0.250890	0.695800	0.316630
O1601	O160	0.122820	0.617420	0.321600
O1611	O161	0.138480	0.652470	0.166710
O1621	O162	0.065030	0.636610	0.314600
C1661	C166	0.837250	0.461520	0.210600
C1671	C167	0.815880	0.460080	0.299400
C1681	C168	0.790720	0.492250	0.420000
C1691	C169	0.752900	0.491380	0.418500
H1701	H170	0.740100	0.491100	0.364600
C1711	C171	0.768960	0.329630	0.287400
C1721	C172	0.758020	0.347020	0.197700
C1731	C173	0.716070	0.349150	0.080200
C1741	C174	0.692360	0.378500	0.080500
H1751	H175	0.683800	0.388100	0.134200
C1761	C176	0.902660	0.365700	0.285100
C1771	C177	0.894080	0.345490	0.197200
C1781	C178	0.917310	0.308730	0.081300
C1791	C179	0.913440	0.271090	0.081700
H1801	H180	0.911700	0.258100	0.135200
Cu1811	Cu181	0.835380	0.532210	0.266780
Mn1821	Mn182	0.826140	0.383120	0.246070
Na1831	Na183	0.967200	0.375200	0.562300
N1841	N184	0.810290	0.491930	0.336200
N1851	N185	0.728110	0.333340	0.163030
N1861	N186	0.922120	0.327710	0.163400
O1871	O187	0.842540	0.431860	0.171060
O1881	O188	0.806500	0.428500	0.329580
O1891	O189	0.848750	0.492190	0.183400
O1901	O190	0.796890	0.341670	0.325410
O1911	O191	0.778350	0.372390	0.167680
O1921	O192	0.749110	0.304200	0.316630
O1931	O193	0.877180	0.382580	0.321600
O1941	O194	0.861520	0.347530	0.166710
O1951	O195	0.934970	0.363390	0.314600
C1991	C199	0.038480	0.337250	0.710600
C2001	C200	0.039920	0.315880	0.799400
C2011	C201	0.007750	0.290720	0.920000
C2021	C202	0.008620	0.252900	0.918500
H2031	H203	0.008900	0.240100	0.864600
C2041	C204	0.170370	0.268960	0.787400
C2051	C205	0.152980	0.258020	0.697700
C2061	C206	0.150850	0.216070	0.580200
C2071	C207	0.121500	0.192360	0.580500
H2081	H208	0.111900	0.183800	0.634200
C2091	C209	0.134300	0.402660	0.785100
C2101	C210	0.154510	0.394080	0.697200
C2111	C211	0.191270	0.417310	0.581300
C2121	C212	0.228910	0.413440	0.581700
H2131	H213	0.241900	0.411700	0.635200
Cu2141	Cu214	0.967790	0.335380	0.766780
Mn2151	Mn215	0.116880	0.326140	0.746070
Na2161	Na216	0.124800	0.467200	0.062300
N2171	N217	0.008070	0.310290	0.836200
N2181	N218	0.166660	0.228110	0.663030
N2191	N219	0.172290	0.422120	0.663400
O2201	O220	0.068140	0.342540	0.671060
O2211	O221	0.071500	0.306500	0.829580
O2221	O222	0.007810	0.348750	0.683400
O2231	O223	0.158330	0.296890	0.825410
O2241	O224	0.127610	0.278350	0.667680
O2251	O225	0.195800	0.249110	0.816630
O2261	O226	0.117420	0.377180	0.821600
O2271	O227	0.152470	0.361520	0.666710
O2281	O228	0.136610	0.434970	0.814600
C2321	C232	0.961520	0.662750	0.710600
C2331	C233	0.960080	0.684120	0.799400
C2341	C234	0.992250	0.709280	0.920000
C2351	C235	0.991380	0.747100	0.918500
H2361	H236	0.991100	0.759900	0.864600
C2371	C237	0.829630	0.731040	0.787400
C2381	C238	0.847020	0.741980	0.697700
C2391	C239	0.849150	0.783930	0.580200
C2401	C240	0.878500	0.807640	0.580500
H2411	H241	0.888100	0.816200	0.634200
C2421	C242	0.865700	0.597340	0.785100
C2431	C243	0.845490	0.605920	0.697200
C2441	C244	0.808730	0.582690	0.581300
C2451	C245	0.771090	0.586560	0.581700
H2461	H246	0.758100	0.588300	0.635200
Cu2471	Cu247	0.032210	0.664620	0.766780
Mn2481	Mn248	0.883120	0.673860	0.746070
Na2491	Na249	0.875200	0.532800	0.062300
N2501	N250	0.991930	0.689710	0.836200
N2511	N251	0.833340	0.771890	0.663030
N2521	N252	0.827710	0.577880	0.663400
O2531	O253	0.931860	0.657460	0.671060
O2541	O254	0.928500	0.693500	0.829580
O2551	O255	0.992190	0.651250	0.683400
O2561	O256	0.841670	0.703110	0.825410
O2571	O257	0.872390	0.721650	0.667680
O2581	O258	0.804200	0.750890	0.816630
O2591	O259	0.882580	0.622820	0.821600
O2601	O260	0.847530	0.638480	0.666710
O2611	O261	0.863390	0.565030	0.814600
C2651	C265	0.662750	0.961520	0.710600
C2661	C266	0.684120	0.960080	0.799400
C2671	C267	0.709280	0.992250	0.920000
C2681	C268	0.747100	0.991380	0.918500
H2691	H269	0.759900	0.991100	0.864600
C2701	C270	0.731040	0.829630	0.787400
C2711	C271	0.741980	0.847020	0.697700
C2721	C272	0.783930	0.849150	0.580200
C2731	C273	0.807640	0.878500	0.580500
H2741	H274	0.816200	0.888100	0.634200
C2751	C275	0.597340	0.865700	0.785100
C2761	C276	0.605920	0.845490	0.697200
C2771	C277	0.582690	0.808730	0.581300
C2781	C278	0.586560	0.771090	0.581700
H2791	H279	0.588300	0.758100	0.635200
Cu2801	Cu280	0.664620	0.032210	0.766780
Mn2811	Mn281	0.673860	0.883120	0.746070
Na2821	Na282	0.532800	0.875200	0.062300
N2831	N283	0.689710	0.991930	0.836200
N2841	N284	0.771890	0.833340	0.663030
N2851	N285	0.577880	0.827710	0.663400
O2861	O286	0.657460	0.931860	0.671060
O2871	O287	0.693500	0.928500	0.829580
O2881	O288	0.651250	0.992190	0.683400
O2891	O289	0.703110	0.841670	0.825410
O2901	O290	0.721650	0.872390	0.667680
O2911	O291	0.750890	0.804200	0.816630
O2921	O292	0.622820	0.882580	0.821600
O2931	O293	0.638480	0.847530	0.666710
O2941	O294	0.565030	0.863390	0.814600
C2981	C298	0.337250	0.038480	0.710600
C2991	C299	0.315880	0.039920	0.799400
C3001	C300	0.290720	0.007750	0.920000
C3011	C301	0.252900	0.008620	0.918500
H3021	H302	0.240100	0.008900	0.864600
C3031	C303	0.268960	0.170370	0.787400
C3041	C304	0.258020	0.152980	0.697700
C3051	C305	0.216070	0.150850	0.580200
C3061	C306	0.192360	0.121500	0.580500
H3071	H307	0.183800	0.111900	0.634200
C3081	C308	0.402660	0.134300	0.785100
C3091	C309	0.394080	0.154510	0.697200
C3101	C310	0.417310	0.191270	0.581300
C3111	C311	0.413440	0.228910	0.581700
H3121	H312	0.411700	0.241900	0.635200
Cu3131	Cu313	0.335380	0.967790	0.766780
Mn3141	Mn314	0.326140	0.116880	0.746070
Na3151	Na315	0.467200	0.124800	0.062300
N3161	N316	0.310290	0.008070	0.836200
N3171	N317	0.228110	0.166660	0.663030
N3181	N318	0.422120	0.172290	0.663400
O3191	O319	0.342540	0.068140	0.671060
O3201	O320	0.306500	0.071500	0.829580
O3211	O321	0.348750	0.007810	0.683400
O3221	O322	0.296890	0.158330	0.825410
O3231	O323	0.278350	0.127610	0.667680
O3241	O324	0.249110	0.195800	0.816630
O3251	O325	0.377180	0.117420	0.821600
O3261	O326	0.361520	0.152470	0.666710
O3271	O327	0.434970	0.136610	0.814600
C3311	C331	0.538480	0.162750	0.210600
C3321	C332	0.539920	0.184120	0.299400
C3331	C333	0.507750	0.209280	0.420000
C3341	C334	0.508620	0.247100	0.418500
H3351	H335	0.508900	0.259900	0.364600
C3361	C336	0.670370	0.231040	0.287400
C3371	C337	0.652980	0.241980	0.197700
C3381	C338	0.650850	0.283930	0.080200
C3391	C339	0.621500	0.307640	0.080500
H3401	H340	0.611900	0.316200	0.134200
C3411	C341	0.634300	0.097340	0.285100
C3421	C342	0.654510	0.105920	0.197200
C3431	C343	0.691270	0.082690	0.081300
C3441	C344	0.728910	0.086560	0.081700
H3451	H345	0.741900	0.088300	0.135200
Cu3461	Cu346	0.467790	0.164620	0.266780
Mn3471	Mn347	0.616880	0.173860	0.246070
Na3481	Na348	0.624800	0.032800	0.562300
N3491	N349	0.508070	0.189710	0.336200
N3501	N350	0.666660	0.271890	0.163030
N3511	N351	0.672290	0.077880	0.163400
O3521	O352	0.568140	0.157460	0.171060
O3531	O353	0.571500	0.193500	0.329580
O3541	O354	0.507810	0.151250	0.183400
O3551	O355	0.658330	0.203110	0.325410
O3561	O356	0.627610	0.221650	0.167680
O3571	O357	0.695800	0.250890	0.316630
O3581	O358	0.617420	0.122820	0.321600
O3591	O359	0.652470	0.138480	0.166710
O3601	O360	0.636610	0.065030	0.314600
C3641	C364	0.461520	0.837250	0.210600
C3651	C365	0.460080	0.815880	0.299400
C3661	C366	0.492250	0.790720	0.420000
C3671	C367	0.491380	0.752900	0.418500
H3681	H368	0.491100	0.740100	0.364600
C3691	C369	0.329630	0.768960	0.287400
C3701	C370	0.347020	0.758020	0.197700
C3711	C371	0.349150	0.716070	0.080200
C3721	C372	0.378500	0.692360	0.080500
H3731	H373	0.388100	0.683800	0.134200
C3741	C374	0.365700	0.902660	0.285100
C3751	C375	0.345490	0.894080	0.197200
C3761	C376	0.308730	0.917310	0.081300
C3771	C377	0.271090	0.913440	0.081700
H3781	H378	0.258100	0.911700	0.135200
Cu3791	Cu379	0.532210	0.835380	0.266780
Mn3801	Mn380	0.383120	0.826140	0.246070
Na3811	Na381	0.375200	0.967200	0.562300
N3821	N382	0.491930	0.810290	0.336200
N3831	N383	0.333340	0.728110	0.163030
N3841	N384	0.327710	0.922120	0.163400
O3851	O385	0.431860	0.842540	0.171060
O3861	O386	0.428500	0.806500	0.329580
O3871	O387	0.492190	0.848750	0.183400
O3881	O388	0.341670	0.796890	0.325410
O3891	O389	0.372390	0.778350	0.167680
O3901	O390	0.304200	0.749110	0.316630
O3911	O391	0.382580	0.877180	0.321600
O3921	O392	0.347530	0.861520	0.166710
O3931	O393	0.363390	0.934970	0.314600
C3971	C397	0.837250	0.461520	0.789400
C3981	C398	0.815880	0.460080	0.700600
C3991	C399	0.790720	0.492250	0.580000
C4001	C400	0.752900	0.491380	0.581500
H4011	H401	0.740100	0.491100	0.635400
C4021	C402	0.768960	0.329630	0.712600
C4031	C403	0.758020	0.347020	0.802300
C4041	C404	0.716070	0.349150	0.919800
C4051	C405	0.692360	0.378500	0.919500
H4061	H406	0.683800	0.388100	0.865800
C4071	C407	0.902660	0.365700	0.714900
C4081	C408	0.894080	0.345490	0.802800
C4091	C409	0.917310	0.308730	0.918700
C4101	C410	0.913440	0.271090	0.918300
H4111	H411	0.911700	0.258100	0.864800
Cu4121	Cu412	0.835380	0.532210	0.733220
Mn4131	Mn413	0.826140	0.383120	0.753930
Na4141	Na414	0.967200	0.375200	0.437700
N4151	N415	0.810290	0.491930	0.663800
N4161	N416	0.728110	0.333340	0.836970
N4171	N417	0.922120	0.327710	0.836600
O4181	O418	0.842540	0.431860	0.828940
O4191	O419	0.806500	0.428500	0.670420
O4201	O420	0.848750	0.492190	0.816600
O4211	O421	0.796890	0.341670	0.674590
O4221	O422	0.778350	0.372390	0.832320
O4231	O423	0.749110	0.304200	0.683370
O4241	O424	0.877180	0.382580	0.678400
O4251	O425	0.861520	0.347530	0.833290
O4261	O426	0.934970	0.363390	0.685400
C4301	C430	0.162750	0.538480	0.789400
C4311	C431	0.184120	0.539920	0.700600
C4321	C432	0.209280	0.507750	0.580000
C4331	C433	0.247100	0.508620	0.581500
H4341	H434	0.259900	0.508900	0.635400
C4351	C435	0.231040	0.670370	0.712600
C4361	C436	0.241980	0.652980	0.802300
C4371	C437	0.283930	0.650850	0.919800
C4381	C438	0.307640	0.621500	0.919500
H4391	H439	0.316200	0.611900	0.865800
C4401	C440	0.097340	0.634300	0.714900
C4411	C441	0.105920	0.654510	0.802800
C4421	C442	0.082690	0.691270	0.918700
C4431	C443	0.086560	0.728910	0.918300
H4441	H444	0.088300	0.741900	0.864800
Cu4451	Cu445	0.164620	0.467790	0.733220
Mn4461	Mn446	0.173860	0.616880	0.753930
Na4471	Na447	0.032800	0.624800	0.437700
N4481	N448	0.189710	0.508070	0.663800
N4491	N449	0.271890	0.666660	0.836970
N4501	N450	0.077880	0.672290	0.836600
O4511	O451	0.157460	0.568140	0.828940
O4521	O452	0.193500	0.571500	0.670420
O4531	O453	0.151250	0.507810	0.816600
O4541	O454	0.203110	0.658330	0.674590
O4551	O455	0.221650	0.627610	0.832320
O4561	O456	0.250890	0.695800	0.683370
O4571	O457	0.122820	0.617420	0.678400
O4581	O458	0.138480	0.652470	0.833290
O4591	O459	0.065030	0.636610	0.685400
C4631	C463	0.961520	0.662750	0.289400
C4641	C464	0.960080	0.684120	0.200600
C4651	C465	0.992250	0.709280	0.080000
C4661	C466	0.991380	0.747100	0.081500
H4671	H467	0.991100	0.759900	0.135400
C4681	C468	0.829630	0.731040	0.212600
C4691	C469	0.847020	0.741980	0.302300
C4701	C470	0.849150	0.783930	0.419800
C4711	C471	0.878500	0.807640	0.419500
H4721	H472	0.888100	0.816200	0.365800
C4731	C473	0.865700	0.597340	0.214900
C4741	C474	0.845490	0.605920	0.302800
C4751	C475	0.808730	0.582690	0.418700
C4761	C476	0.771090	0.586560	0.418300
H4771	H477	0.758100	0.588300	0.364800
Cu4781	Cu478	0.032210	0.664620	0.233220
Mn4791	Mn479	0.883120	0.673860	0.253930
Na4801	Na480	0.875200	0.532800	0.937700
N4811	N481	0.991930	0.689710	0.163800
N4821	N482	0.833340	0.771890	0.336970
N4831	N483	0.827710	0.577880	0.336600
O4841	O484	0.931860	0.657460	0.328940
O4851	O485	0.928500	0.693500	0.170420
O4861	O486	0.992190	0.651250	0.316600
O4871	O487	0.841670	0.703110	0.174590
O4881	O488	0.872390	0.721650	0.332320
O4891	O489	0.804200	0.750890	0.183370
O4901	O490	0.882580	0.622820	0.178400
O4911	O491	0.847530	0.638480	0.333290
O4921	O492	0.863390	0.565030	0.185400
C4961	C496	0.038480	0.337250	0.289400
C4971	C497	0.039920	0.315880	0.200600
C4981	C498	0.007750	0.290720	0.080000
C4991	C499	0.008620	0.252900	0.081500
H5001	H500	0.008900	0.240100	0.135400
C5011	C501	0.170370	0.268960	0.212600
C5021	C502	0.152980	0.258020	0.302300
C5031	C503	0.150850	0.216070	0.419800
C5041	C504	0.121500	0.192360	0.419500
H5051	H505	0.111900	0.183800	0.365800
C5061	C506	0.134300	0.402660	0.214900
C5071	C507	0.154510	0.394080	0.302800
C5081	C508	0.191270	0.417310	0.418700
C5091	C509	0.228910	0.413440	0.418300
H5101	H510	0.241900	0.411700	0.364800
Cu5111	Cu511	0.967790	0.335380	0.233220
Mn5121	Mn512	0.116880	0.326140	0.253930
Na5131	Na513	0.124800	0.467200	0.937700
N5141	N514	0.008070	0.310290	0.163800
N5151	N515	0.166660	0.228110	0.336970
N5161	N516	0.172290	0.422120	0.336600
O5171	O517	0.068140	0.342540	0.328940
O5181	O518	0.071500	0.306500	0.170420
O5191	O519	0.007810	0.348750	0.316600
O5201	O520	0.158330	0.296890	0.174590
O5211	O521	0.127610	0.278350	0.332320
O5221	O522	0.195800	0.249110	0.183370
O5231	O523	0.117420	0.377180	0.178400
O5241	O524	0.152470	0.361520	0.333290
O5251	O525	0.136610	0.434970	0.185400
C5291	C529	0.234290	0.009100	0.000000
H5301	H530	0.208700	0.009800	0.000000
C5311	C531	0.309950	0.007360	0.000000
H5321	H532	0.335500	0.006900	0.000000
Na5331	Na533	0.299730	0.163480	0.000000
C5351	C535	0.765710	0.990900	0.000000
H5361	H536	0.791300	0.990200	0.000000
C5371	C537	0.690050	0.992640	0.000000
H5381	H538	0.664500	0.993100	0.000000
Na5391	Na539	0.700270	0.836520	0.000000
C5411	C541	0.490900	0.734290	0.500000
H5421	H542	0.490200	0.708700	0.500000
C5431	C543	0.492640	0.809950	0.500000
H5441	H544	0.493100	0.835500	0.500000
Na5451	Na545	0.336520	0.799730	0.500000
C5471	C547	0.509100	0.265710	0.500000
H5481	H548	0.509800	0.291300	0.500000
C5491	C549	0.507360	0.190050	0.500000
H5501	H550	0.506900	0.164500	0.500000
Na5511	Na551	0.663480	0.200270	0.500000
C5531	C553	0.265710	0.509100	0.500000
H5541	H554	0.291300	0.509800	0.500000
C5551	C555	0.190050	0.507360	0.500000
H5561	H556	0.164500	0.506900	0.500000
Na5571	Na557	0.200270	0.663480	0.500000
C5591	C559	0.734290	0.490900	0.500000
H5601	H560	0.708700	0.490200	0.500000
C5611	C561	0.809950	0.492640	0.500000
H5621	H562	0.835500	0.493100	0.500000
Na5631	Na563	0.799730	0.336520	0.500000
C5651	C565	0.009100	0.234290	0.000000
H5661	H566	0.009800	0.208700	0.000000
C5671	C567	0.007360	0.309950	0.000000
H5681	H568	0.006900	0.335500	0.000000
Na5691	Na569	0.163480	0.299730	0.000000
C5711	C571	0.990900	0.765710	0.000000
H5721	H572	0.990200	0.791300	0.000000
C5731	C573	0.992640	0.690050	0.000000
H5741	H574	0.993100	0.664500	0.000000
Na5751	Na575	0.836520	0.700270	0.000000
C5771	C577	0.181400	0.106500	0.500000
H5781	H578	0.166300	0.085800	0.500000
C5791	C579	0.228540	0.165790	0.500000
H5801	H580	0.244900	0.185400	0.500000
C5811	C581	0.412200	0.246900	0.500000
H5821	H582	0.410500	0.272400	0.500000
C5831	C583	0.419120	0.172560	0.500000
H5841	H584	0.421600	0.147100	0.500000
C5881	C588	0.818600	0.893500	0.500000
H5891	H589	0.833700	0.914200	0.500000
C5901	C590	0.771460	0.834210	0.500000
H5911	H591	0.755100	0.814600	0.500000
C5921	C592	0.587800	0.753100	0.500000
H5931	H593	0.589500	0.727600	0.500000
C5941	C594	0.580880	0.827440	0.500000
H5951	H595	0.578400	0.852900	0.500000
C5991	C599	0.393500	0.681400	0.000000
H6001	H600	0.414200	0.666300	0.000000
C6011	C601	0.334210	0.728540	0.000000
H6021	H602	0.314600	0.744900	0.000000
C6031	C603	0.253100	0.912200	0.000000
H6041	H604	0.227600	0.910500	0.000000
C6051	C605	0.327440	0.919120	0.000000
H6061	H606	0.352900	0.921600	0.000000
C6101	C610	0.606500	0.318600	0.000000
H6111	H611	0.585800	0.333700	0.000000
C6121	C612	0.665790	0.271460	0.000000
H6131	H613	0.685400	0.255100	0.000000
C6141	C614	0.746900	0.087800	0.000000
H6151	H615	0.772400	0.089500	0.000000
C6161	C616	0.672560	0.080880	0.000000
H6171	H617	0.647100	0.078400	0.000000
C6211	C621	0.318600	0.606500	0.000000
H6221	H622	0.333700	0.585800	0.000000
C6231	C623	0.271460	0.665790	0.000000
H6241	H624	0.255100	0.685400	0.000000
C6251	C625	0.087800	0.746900	0.000000
H6261	H626	0.089500	0.772400	0.000000
C6271	C627	0.080880	0.672560	0.000000
H6281	H628	0.078400	0.647100	0.000000
C6321	C632	0.681400	0.393500	0.000000
H6331	H633	0.666300	0.414200	0.000000
C6341	C634	0.728540	0.334210	0.000000
H6351	H635	0.744900	0.314600	0.000000
C6361	C636	0.912200	0.253100	0.000000
H6371	H637	0.910500	0.227600	0.000000
C6381	C638	0.919120	0.327440	0.000000
H6391	H639	0.921600	0.352900	0.000000
C6431	C643	0.106500	0.181400	0.500000
H6441	H644	0.085800	0.166300	0.500000
C6451	C645	0.165790	0.228540	0.500000
H6461	H646	0.185400	0.244900	0.500000
C6471	C647	0.246900	0.412200	0.500000
H6481	H648	0.272400	0.410500	0.500000
C6491	C649	0.172560	0.419120	0.500000
H6501	H650	0.147100	0.421600	0.500000
C6541	C654	0.893500	0.818600	0.500000
H6551	H655	0.914200	0.833700	0.500000
C6561	C656	0.834210	0.771460	0.500000
H6571	H657	0.814600	0.755100	0.500000
C6581	C658	0.753100	0.587800	0.500000
H6591	H659	0.727600	0.589500	0.500000
C6601	C660	0.827440	0.580880	0.500000
H6611	H661	0.852900	0.578400	0.500000
Cu6651	Cu665	0.208030	0.208030	0.266710
Na6661	Na666	0.241740	0.241740	0.071400
Cu6681	Cu668	0.791970	0.791970	0.266710
Na6691	Na669	0.758260	0.758260	0.071400
Cu6711	Cu671	0.291970	0.708030	0.766710
Na6721	Na672	0.258260	0.741740	0.571400
Cu6741	Cu674	0.708030	0.291970	0.766710
Na6751	Na675	0.741740	0.258260	0.571400
Cu6771	Cu677	0.291970	0.708030	0.233290
Na6781	Na678	0.258260	0.741740	0.428600
Cu6801	Cu680	0.708030	0.291970	0.233290
Na6811	Na681	0.741740	0.258260	0.428600
Cu6831	Cu683	0.208030	0.208030	0.733290
Na6841	Na684	0.241740	0.241740	0.928600
Cu6861	Cu686	0.791970	0.791970	0.733290
Na6871	Na687	0.758260	0.758260	0.928600
