data_DARJOX_freeONLY_PM
_symmetry_space_group_name_H-M	'P1'
_cell_length_a	8.902400
_cell_length_b	14.279600
_cell_length_c	15.063700
_cell_angle_alpha	90.000000
_cell_angle_beta	95.068000
_cell_angle_gamma	90.000000
_symmetry_Int_Tables_number 1

loop_
_symmetry_equiv_pos_as_xyz
'x,y,z'

loop_
_atom_site_label
_atom_site_type_symbol
_atom_site_fract_x
_atom_site_fract_y
_atom_site_fract_z
Al11	Al1	0.822570	0.058860	0.243230
Al21	Al2	0.619170	0.939800	0.909320
Co11	Co1	0.639580	0.070440	0.614680
Co21	Co2	0.425980	0.213850	0.335840
P11	P1	0.600910	0.218340	0.162170
P21	P2	0.640940	0.055390	0.412930
P31	P3	0.649510	0.919490	0.111250
P41	P4	0.187940	0.066280	0.254150
O11	O1	0.700600	0.945300	0.020010
O21	O2	0.699700	0.038700	0.509590
O31	O3	0.496900	0.962800	0.121600
O41	O4	0.230600	0.063800	0.159480
O51	O5	0.765700	0.952300	0.183600
O61	O6	0.235200	0.975400	0.301160
O71	O7	0.775300	0.064800	0.359300
O81	O8	0.546400	0.144900	0.408800
O91	O9	0.635800	0.813520	0.114900
O101	O10	0.544900	0.973500	0.377300
O111	O11	0.645100	0.307740	0.117500
O121	O12	0.530400	0.244300	0.246600
O131	O13	0.742000	0.161700	0.182200
O141	O14	0.489300	0.165200	0.100400
O151	O15	0.021600	0.079800	0.252000
O161	O16	0.266400	0.147700	0.302900
Al31	Al3	0.177430	0.558860	0.256770
Al41	Al4	0.380830	0.439800	0.590680
Co31	Co3	0.360420	0.570440	0.885320
Co41	Co4	0.574020	0.713850	0.164160
P51	P5	0.399090	0.718340	0.337830
P61	P6	0.359060	0.555390	0.087070
P71	P7	0.350490	0.419490	0.388750
P81	P8	0.812060	0.566280	0.245850
O171	O17	0.299400	0.445300	0.479990
O181	O18	0.300300	0.538700	0.990410
O191	O19	0.503100	0.462800	0.378400
O201	O20	0.769400	0.563800	0.340520
O211	O21	0.234300	0.452300	0.316400
O221	O22	0.764800	0.475400	0.198840
O231	O23	0.224700	0.564800	0.140700
O241	O24	0.453600	0.644900	0.091200
O251	O25	0.364200	0.313520	0.385100
O261	O26	0.455100	0.473500	0.122700
O271	O27	0.354900	0.807740	0.382500
O281	O28	0.469600	0.744300	0.253400
O291	O29	0.258000	0.661700	0.317800
O301	O30	0.510700	0.665200	0.399600
O311	O31	0.978400	0.579800	0.248000
O321	O32	0.733600	0.647700	0.197100
Al51	Al5	0.177430	0.941140	0.756770
Al61	Al6	0.380830	0.060200	0.090680
Co51	Co5	0.360420	0.929560	0.385320
Co61	Co6	0.574020	0.786150	0.664160
P91	P9	0.399090	0.781660	0.837830
P101	P10	0.359060	0.944610	0.587070
P111	P11	0.350490	0.080510	0.888750
P121	P12	0.812060	0.933720	0.745850
O331	O33	0.299400	0.054700	0.979990
O341	O34	0.300300	0.961300	0.490410
O351	O35	0.503100	0.037200	0.878400
O361	O36	0.769400	0.936200	0.840520
O371	O37	0.234300	0.047700	0.816400
O381	O38	0.764800	0.024600	0.698840
O391	O39	0.224700	0.935200	0.640700
O401	O40	0.453600	0.855100	0.591200
O411	O41	0.364200	0.186480	0.885100
O421	O42	0.455100	0.026500	0.622700
O431	O43	0.354900	0.692260	0.882500
O441	O44	0.469600	0.755700	0.753400
O451	O45	0.258000	0.838300	0.817800
O461	O46	0.510700	0.834800	0.899600
O471	O47	0.978400	0.920200	0.748000
O481	O48	0.733600	0.852300	0.697100
Al71	Al7	0.822570	0.441140	0.743230
Al81	Al8	0.619170	0.560200	0.409320
Co71	Co7	0.639580	0.429560	0.114680
Co81	Co8	0.425980	0.286150	0.835840
P131	P13	0.600910	0.281660	0.662170
P141	P14	0.640940	0.444610	0.912930
P151	P15	0.649510	0.580510	0.611250
P161	P16	0.187940	0.433720	0.754150
O491	O49	0.700600	0.554700	0.520010
O501	O50	0.699700	0.461300	0.009590
O511	O51	0.496900	0.537200	0.621600
O521	O52	0.230600	0.436200	0.659480
O531	O53	0.765700	0.547700	0.683600
O541	O54	0.235200	0.524600	0.801160
O551	O55	0.775300	0.435200	0.859300
O561	O56	0.546400	0.355100	0.908800
O571	O57	0.635800	0.686480	0.614900
O581	O58	0.544900	0.526500	0.877300
O591	O59	0.645100	0.192260	0.617500
O601	O60	0.530400	0.255700	0.746600
O611	O61	0.742000	0.338300	0.682200
O621	O62	0.489300	0.334800	0.600400
O631	O63	0.021600	0.420200	0.752000
O641	O64	0.266400	0.352300	0.802900
