data_DAWBOU_freeONLY_PM
_symmetry_space_group_name_H-M	'P1'
_cell_length_a	6.640000
_cell_length_b	26.179200
_cell_length_c	7.670200
_cell_angle_alpha	90.000000
_cell_angle_beta	90.000000
_cell_angle_gamma	90.000000
_symmetry_Int_Tables_number 1

loop_
_symmetry_equiv_pos_as_xyz
'x,y,z'

loop_
_atom_site_label
_atom_site_type_symbol
_atom_site_fract_x
_atom_site_fract_y
_atom_site_fract_z
Ni11	Ni1	0.001940	0.716770	0.753600
Ni21	Ni2	0.998060	0.283230	0.753600
Ni31	Ni3	0.501940	0.783230	0.246400
Ni41	Ni4	0.498060	0.216770	0.246400
H11	H1	0.380800	0.611100	0.688800
H21	H2	0.010800	0.851300	0.908700
H31	H3	0.907000	0.863200	0.630900
H41	H4	0.713300	0.856500	0.744200
H51	H5	0.583800	0.681800	0.677800
H61	H6	0.037100	0.605600	0.865700
H71	H7	0.843900	0.531600	0.878100
H81	H8	0.619200	0.388900	0.688800
H91	H9	0.989200	0.148700	0.908700
H101	H10	0.093000	0.136800	0.630900
H111	H11	0.286700	0.143500	0.744200
H121	H12	0.416200	0.318200	0.677800
H131	H13	0.962900	0.394400	0.865700
H141	H14	0.156100	0.468400	0.878100
H151	H15	0.880800	0.888900	0.311200
H161	H16	0.510800	0.648700	0.091300
H171	H17	0.407000	0.636800	0.369100
H181	H18	0.213300	0.643500	0.255800
H191	H19	0.083800	0.818200	0.322200
H201	H20	0.537100	0.894400	0.134300
H211	H21	0.343900	0.968400	0.121900
H221	H22	0.119200	0.111100	0.311200
H231	H23	0.489200	0.351300	0.091300
H241	H24	0.593000	0.363200	0.369100
H251	H25	0.786700	0.356500	0.255800
H261	H26	0.916200	0.181800	0.322200
H271	H27	0.462900	0.105600	0.134300
H281	H28	0.656100	0.031600	0.121900
C11	C1	0.514700	0.608900	0.723400
C21	C2	0.957000	0.821100	0.849000
C31	C3	0.829500	0.838600	0.697600
C41	C4	0.830100	0.790500	0.978200
C51	C5	0.754000	0.797800	0.572600
C61	C6	0.637700	0.651100	0.717400
C71	C7	0.591000	0.564200	0.780000
C81	C8	0.904300	0.606500	0.827200
C91	C9	0.789200	0.561900	0.836000
C101	C10	0.485300	0.391100	0.723400
C111	C11	0.043000	0.178900	0.849000
C121	C12	0.170500	0.161400	0.697600
C131	C13	0.169900	0.209500	0.978200
C141	C14	0.246000	0.202200	0.572600
C151	C15	0.362300	0.348900	0.717400
C161	C16	0.409000	0.435800	0.780000
C171	C17	0.095700	0.393500	0.827200
C181	C18	0.210800	0.438100	0.836000
C191	C19	0.014700	0.891100	0.276600
C201	C20	0.457000	0.678900	0.151000
C211	C21	0.329500	0.661400	0.302400
C221	C22	0.330100	0.709500	0.021800
C231	C23	0.254000	0.702200	0.427400
C241	C24	0.137700	0.848900	0.282600
C251	C25	0.091000	0.935800	0.220000
C261	C26	0.404300	0.893500	0.172800
C271	C27	0.289200	0.938100	0.164000
C281	C28	0.985300	0.108900	0.276600
C291	C29	0.543000	0.321100	0.151000
C301	C30	0.670500	0.338600	0.302400
C311	C31	0.669900	0.290500	0.021800
C321	C32	0.746000	0.297800	0.427400
C331	C33	0.862300	0.151100	0.282600
C341	C34	0.909000	0.064200	0.220000
C351	C35	0.595700	0.106500	0.172800
C361	C36	0.710800	0.061900	0.164000
N11	N1	0.830200	0.650170	0.765500
N21	N2	0.456300	0.521000	0.781200
N31	N3	0.169800	0.349830	0.765500
N41	N4	0.543700	0.479000	0.781200
N51	N5	0.330200	0.849830	0.234500
N61	N6	0.956300	0.979000	0.218800
N71	N7	0.669800	0.150170	0.234500
N81	N8	0.043700	0.021000	0.218800
O11	O1	0.716900	0.814170	0.078000
O21	O2	0.793400	0.751330	0.595300
O31	O3	0.654000	0.814960	0.445700
O41	O4	0.850000	0.742240	0.972300
O51	O5	0.120600	0.792190	0.781600
O61	O6	0.283100	0.185830	0.078000
O71	O7	0.206600	0.248670	0.595300
O81	O8	0.346000	0.185040	0.445700
O91	O9	0.150000	0.257760	0.972300
O101	O10	0.879400	0.207810	0.781600
O111	O11	0.216900	0.685830	0.922000
O121	O12	0.293400	0.748670	0.404700
O131	O13	0.154000	0.685040	0.554300
O141	O14	0.350000	0.757760	0.027700
O151	O15	0.620600	0.707810	0.218400
O161	O16	0.783100	0.314170	0.922000
O171	O17	0.706600	0.251330	0.404700
O181	O18	0.846000	0.314960	0.554300
O191	O19	0.650000	0.242240	0.027700
O201	O20	0.379400	0.292190	0.218400
