data_DAWCAH_freeONLY_PM
_symmetry_space_group_name_H-M	'P1'
_cell_length_a	6.685600
_cell_length_b	26.996700
_cell_length_c	7.637700
_cell_angle_alpha	90.000000
_cell_angle_beta	90.000000
_cell_angle_gamma	90.000000
_symmetry_Int_Tables_number 1

loop_
_symmetry_equiv_pos_as_xyz
'x,y,z'

loop_
_atom_site_label
_atom_site_type_symbol
_atom_site_fract_x
_atom_site_fract_y
_atom_site_fract_z
Ni11	Ni1	0.499650	0.282420	0.746040
Ni21	Ni2	0.500350	0.717580	0.746040
Ni31	Ni3	0.999650	0.217580	0.253960
Ni41	Ni4	0.000350	0.782420	0.253960
H11	H1	0.353900	0.461300	0.619000
H21	H2	0.507600	0.151400	0.595100
H31	H3	0.888400	0.386500	0.803700
H41	H4	0.532300	0.390200	0.626100
H51	H5	0.082700	0.317900	0.825200
H61	H6	0.830500	0.471700	0.711900
H71	H7	0.404200	0.141100	0.871100
H81	H8	0.213200	0.147600	0.755800
H91	H9	0.646100	0.538700	0.619000
H101	H10	0.492400	0.848600	0.595100
H111	H11	0.111600	0.613500	0.803700
H121	H12	0.467700	0.609800	0.626100
H131	H13	0.917300	0.682100	0.825200
H141	H14	0.169500	0.528300	0.711900
H151	H15	0.595800	0.858900	0.871100
H161	H16	0.786800	0.852400	0.755800
H171	H17	0.853900	0.038700	0.381000
H181	H18	0.007600	0.348600	0.404900
H191	H19	0.388400	0.113500	0.196300
H201	H20	0.032300	0.109800	0.373900
H211	H21	0.582700	0.182100	0.174800
H221	H22	0.330500	0.028300	0.288100
H231	H23	0.904200	0.358900	0.128900
H241	H24	0.713200	0.352400	0.244200
H251	H25	0.146100	0.961300	0.381000
H261	H26	0.992400	0.651400	0.404900
H271	H27	0.611600	0.886500	0.196300
H281	H28	0.967700	0.890200	0.373900
H291	H29	0.417300	0.817900	0.174800
H301	H30	0.669500	0.971700	0.288100
H311	H31	0.095800	0.641100	0.128900
H321	H32	0.286800	0.647600	0.244200
C11	C1	0.095700	0.432200	0.714800
C21	C2	0.295100	0.432300	0.660000
C31	C3	0.454700	0.180900	0.654100
C41	C4	0.022200	0.388500	0.771200
C51	C5	0.401700	0.389800	0.667900
C61	C6	0.139200	0.346900	0.781900
C71	C7	0.252600	0.203900	0.926700
C81	C8	0.968100	0.476700	0.713100
C91	C9	0.328300	0.164900	0.803200
C101	C10	0.326800	0.211200	0.520800
C111	C11	0.904300	0.567800	0.714800
C121	C12	0.704900	0.567700	0.660000
C131	C13	0.545300	0.819100	0.654100
C141	C14	0.977800	0.611500	0.771200
C151	C15	0.598300	0.610200	0.667900
C161	C16	0.860800	0.653100	0.781900
C171	C17	0.747400	0.796100	0.926700
C181	C18	0.031900	0.523300	0.713100
C191	C19	0.671700	0.835100	0.803200
C201	C20	0.673200	0.788800	0.520800
C211	C21	0.595700	0.067800	0.285200
C221	C22	0.795100	0.067700	0.340000
C231	C23	0.954700	0.319100	0.345900
C241	C24	0.522200	0.111500	0.228800
C251	C25	0.901700	0.110200	0.332100
C261	C26	0.639200	0.153100	0.218100
C271	C27	0.752600	0.296100	0.073300
C281	C28	0.468100	0.023300	0.286900
C291	C29	0.828300	0.335100	0.196800
C301	C30	0.826800	0.288800	0.479200
C311	C31	0.404300	0.932200	0.285200
C321	C32	0.204900	0.932300	0.340000
C331	C33	0.045300	0.680900	0.345900
C341	C34	0.477800	0.888500	0.228800
C351	C35	0.098300	0.889800	0.332100
C361	C36	0.360800	0.846900	0.218100
C371	C37	0.247400	0.703900	0.073300
C381	C38	0.531900	0.976700	0.286900
C391	C39	0.171700	0.664900	0.196800
C401	C40	0.173200	0.711200	0.479200
N11	N1	0.329500	0.346400	0.733100
N21	N2	0.670500	0.653600	0.733100
N31	N3	0.829500	0.153600	0.266900
N41	N4	0.170500	0.846400	0.266900
O11	O1	0.617600	0.209400	0.719300
O21	O2	0.291100	0.248700	0.904300
O31	O3	0.215800	0.188000	0.420000
O41	O4	0.349400	0.257600	0.525900
O51	O5	0.150800	0.187200	0.051700
O61	O6	0.382400	0.790600	0.719300
O71	O7	0.708900	0.751300	0.904300
O81	O8	0.784200	0.812000	0.420000
O91	O9	0.650600	0.742400	0.525900
O101	O10	0.849200	0.812800	0.051700
O111	O11	0.117600	0.290600	0.280700
O121	O12	0.791100	0.251300	0.095700
O131	O13	0.715800	0.312000	0.580000
O141	O14	0.849400	0.242400	0.474100
O151	O15	0.650800	0.312800	0.948300
O161	O16	0.882400	0.709400	0.280700
O171	O17	0.208900	0.748700	0.095700
O181	O18	0.284200	0.688000	0.580000
O191	O19	0.150600	0.757600	0.474100
O201	O20	0.349200	0.687200	0.948300
