data_DAWCIP_freeONLY_PM
_symmetry_space_group_name_H-M	'P1'
_cell_length_a	16.748000
_cell_length_b	24.518000
_cell_length_c	33.291000
_cell_angle_alpha	90.000000
_cell_angle_beta	90.000000
_cell_angle_gamma	90.000000
_symmetry_Int_Tables_number 1

loop_
_symmetry_equiv_pos_as_xyz
'x,y,z'

loop_
_atom_site_label
_atom_site_type_symbol
_atom_site_fract_x
_atom_site_fract_y
_atom_site_fract_z
Zn11	Zn1	0.897370	0.775350	0.849270
Zn21	Zn2	0.043820	0.280410	0.070380
Zn31	Zn3	0.043270	0.694410	0.847710
Zn41	Zn4	0.931860	0.190730	0.113700
Zn51	Zn5	0.397370	0.724650	0.650730
Zn61	Zn6	0.543820	0.219590	0.429620
Zn71	Zn7	0.543270	0.805590	0.652290
Zn81	Zn8	0.431860	0.309270	0.386300
Zn91	Zn9	0.602630	0.775350	0.150730
Zn101	Zn10	0.456180	0.280410	0.929620
Zn111	Zn11	0.456730	0.694410	0.152290
Zn121	Zn12	0.568140	0.190730	0.886300
Zn131	Zn13	0.102630	0.724650	0.349270
Zn141	Zn14	0.956180	0.219590	0.570380
Zn151	Zn15	0.956730	0.805590	0.347710
Zn161	Zn16	0.068140	0.309270	0.613700
Zn171	Zn17	0.102630	0.224650	0.150730
Zn181	Zn18	0.956180	0.719590	0.929620
Zn191	Zn19	0.956730	0.305590	0.152290
Zn201	Zn20	0.068140	0.809270	0.886300
Zn211	Zn21	0.602630	0.275350	0.349270
Zn221	Zn22	0.456180	0.780410	0.570380
Zn231	Zn23	0.456730	0.194410	0.347710
Zn241	Zn24	0.568140	0.690730	0.613700
Zn251	Zn25	0.397370	0.224650	0.849270
Zn261	Zn26	0.543820	0.719590	0.070380
Zn271	Zn27	0.543270	0.305590	0.847710
Zn281	Zn28	0.431860	0.809270	0.113700
Zn291	Zn29	0.897370	0.275350	0.650730
Zn301	Zn30	0.043820	0.780410	0.429620
Zn311	Zn31	0.043270	0.194410	0.652290
Zn321	Zn32	0.931860	0.690730	0.386300
H11	H1	0.832700	0.147000	0.006100
H21	H2	0.787700	0.111400	0.945600
H31	H3	0.975000	0.179000	0.888900
H41	H4	0.020000	0.214500	0.949400
H51	H5	0.782900	0.118300	0.874700
H61	H6	0.762800	0.031900	0.841800
H71	H7	0.792900	0.939700	0.837100
H81	H8	0.994900	0.964600	0.899600
H91	H9	0.964900	0.056800	0.904300
H101	H10	0.968500	0.093900	0.822900
H111	H11	0.785000	0.197900	0.832700
H121	H12	0.740500	0.663600	0.966700
H131	H13	0.617700	0.624600	0.981300
H141	H14	0.527000	0.687600	0.879600
H151	H15	0.649900	0.726600	0.865000
H161	H16	0.475300	0.624500	0.972100
H171	H17	0.407600	0.605900	0.872300
H181	H18	0.388300	0.701500	0.969200
H191	H19	0.006200	0.133800	0.766600
H201	H20	0.825500	0.238500	0.772800
H211	H21	0.290100	0.641200	0.846700
H221	H22	0.278500	0.741100	0.941500
H231	H23	0.560300	0.474400	0.868100
H241	H24	0.558200	0.566600	0.884000
H251	H25	0.422600	0.536500	0.979400
H261	H26	0.427700	0.444400	0.965300
H271	H27	0.868600	0.107900	0.146000
H281	H28	0.874700	0.096700	0.099800
H291	H29	0.332700	0.353000	0.493900
H301	H30	0.287700	0.388600	0.554400
H311	H31	0.475000	0.321000	0.611100
H321	H32	0.520000	0.285500	0.550600
H331	H33	0.282900	0.381700	0.625300
H341	H34	0.262800	0.468100	0.658200
H351	H35	0.292900	0.560300	0.662900
H361	H36	0.494900	0.535400	0.600400
H371	H37	0.464900	0.443200	0.595700
H381	H38	0.468500	0.406100	0.677100
H391	H39	0.285000	0.302100	0.667300
H401	H40	0.240500	0.836400	0.533300
H411	H41	0.117700	0.875400	0.518700
H421	H42	0.027000	0.812400	0.620400
H431	H43	0.149900	0.773400	0.635000
H441	H44	0.975300	0.875500	0.527900
H451	H45	0.907600	0.894100	0.627700
H461	H46	0.888300	0.798500	0.530800
H471	H47	0.506200	0.366200	0.733400
H481	H48	0.325500	0.261500	0.727200
H491	H49	0.790100	0.858800	0.653300
H501	H50	0.778500	0.758900	0.558500
H511	H51	0.060300	0.025600	0.631900
H521	H52	0.058200	0.933400	0.616000
H531	H53	0.922600	0.963500	0.520600
H541	H54	0.927700	0.055600	0.534700
H551	H55	0.368600	0.392100	0.354000
H561	H56	0.374700	0.403300	0.400200
H571	H57	0.667300	0.147000	0.993900
H581	H58	0.712300	0.111400	0.054400
H591	H59	0.525000	0.179000	0.111100
H601	H60	0.480000	0.214500	0.050600
H611	H61	0.717100	0.118300	0.125300
H621	H62	0.737200	0.031900	0.158200
H631	H63	0.707100	0.939700	0.162900
H641	H64	0.505100	0.964600	0.100400
H651	H65	0.535100	0.056800	0.095700
H661	H66	0.531500	0.093900	0.177100
H671	H67	0.715000	0.197900	0.167300
H681	H68	0.759500	0.663600	0.033300
H691	H69	0.882300	0.624600	0.018700
H701	H70	0.973000	0.687600	0.120400
H711	H71	0.850100	0.726600	0.135000
H721	H72	0.024700	0.624500	0.027900
H731	H73	0.092400	0.605900	0.127700
H741	H74	0.111700	0.701500	0.030800
H751	H75	0.493800	0.133800	0.233400
H761	H76	0.674500	0.238500	0.227200
H771	H77	0.209900	0.641200	0.153300
H781	H78	0.221500	0.741100	0.058500
H791	H79	0.939700	0.474400	0.131900
H801	H80	0.941800	0.566600	0.116000
H811	H81	0.077400	0.536500	0.020600
H821	H82	0.072300	0.444400	0.034700
H831	H83	0.631400	0.107900	0.854000
H841	H84	0.625300	0.096700	0.900200
H851	H85	0.167300	0.353000	0.506100
H861	H86	0.212300	0.388600	0.445600
H871	H87	0.025000	0.321000	0.388900
H881	H88	0.980000	0.285500	0.449400
H891	H89	0.217100	0.381700	0.374700
H901	H90	0.237200	0.468100	0.341800
H911	H91	0.207100	0.560300	0.337100
H921	H92	0.005100	0.535400	0.399600
H931	H93	0.035100	0.443200	0.404300
H941	H94	0.031500	0.406100	0.322900
H951	H95	0.215000	0.302100	0.332700
H961	H96	0.259500	0.836400	0.466700
H971	H97	0.382300	0.875400	0.481300
H981	H98	0.473000	0.812400	0.379600
H991	H99	0.350100	0.773400	0.365000
H1001	H100	0.524700	0.875500	0.472100
H1011	H101	0.592400	0.894100	0.372300
H1021	H102	0.611700	0.798500	0.469200
H1031	H103	0.993800	0.366200	0.266600
H1041	H104	0.174500	0.261500	0.272800
H1051	H105	0.709900	0.858800	0.346700
H1061	H106	0.721500	0.758900	0.441500
H1071	H107	0.439700	0.025600	0.368100
H1081	H108	0.441800	0.933400	0.384000
H1091	H109	0.577400	0.963500	0.479400
H1101	H110	0.572300	0.055600	0.465300
H1111	H111	0.131400	0.392100	0.646000
H1121	H112	0.125300	0.403300	0.599800
H1131	H113	0.167300	0.853000	0.993900
H1141	H114	0.212300	0.888600	0.054400
H1151	H115	0.025000	0.821000	0.111100
H1161	H116	0.980000	0.785500	0.050600
H1171	H117	0.217100	0.881700	0.125300
H1181	H118	0.237200	0.968100	0.158200
H1191	H119	0.207100	0.060300	0.162900
H1201	H120	0.005100	0.035400	0.100400
H1211	H121	0.035100	0.943200	0.095700
H1221	H122	0.031500	0.906100	0.177100
H1231	H123	0.215000	0.802100	0.167300
H1241	H124	0.259500	0.336400	0.033300
H1251	H125	0.382300	0.375400	0.018700
H1261	H126	0.473000	0.312400	0.120400
H1271	H127	0.350100	0.273400	0.135000
H1281	H128	0.524700	0.375500	0.027900
H1291	H129	0.592400	0.394100	0.127700
H1301	H130	0.611700	0.298500	0.030800
H1311	H131	0.993800	0.866200	0.233400
H1321	H132	0.174500	0.761500	0.227200
H1331	H133	0.709900	0.358800	0.153300
H1341	H134	0.721500	0.258900	0.058500
H1351	H135	0.439700	0.525600	0.131900
H1361	H136	0.441800	0.433400	0.116000
H1371	H137	0.577400	0.463500	0.020600
H1381	H138	0.572300	0.555600	0.034700
H1391	H139	0.131400	0.892100	0.854000
H1401	H140	0.125300	0.903300	0.900200
H1411	H141	0.667300	0.647000	0.506100
H1421	H142	0.712300	0.611400	0.445600
H1431	H143	0.525000	0.679000	0.388900
H1441	H144	0.480000	0.714500	0.449400
H1451	H145	0.717100	0.618300	0.374700
H1461	H146	0.737200	0.531900	0.341800
H1471	H147	0.707100	0.439700	0.337100
H1481	H148	0.505100	0.464600	0.399600
H1491	H149	0.535100	0.556800	0.404300
H1501	H150	0.531500	0.593900	0.322900
H1511	H151	0.715000	0.697900	0.332700
H1521	H152	0.759500	0.163600	0.466700
H1531	H153	0.882300	0.124600	0.481300
H1541	H154	0.973000	0.187600	0.379600
H1551	H155	0.850100	0.226600	0.365000
H1561	H156	0.024700	0.124500	0.472100
H1571	H157	0.092400	0.105900	0.372300
H1581	H158	0.111700	0.201500	0.469200
H1591	H159	0.493800	0.633800	0.266600
H1601	H160	0.674500	0.738500	0.272800
H1611	H161	0.209900	0.141200	0.346700
H1621	H162	0.221500	0.241100	0.441500
H1631	H163	0.939700	0.974400	0.368100
H1641	H164	0.941800	0.066600	0.384000
H1651	H165	0.077400	0.036500	0.479400
H1661	H166	0.072300	0.944400	0.465300
H1671	H167	0.631400	0.607900	0.646000
H1681	H168	0.625300	0.596700	0.599800
H1691	H169	0.332700	0.853000	0.006100
H1701	H170	0.287700	0.888600	0.945600
H1711	H171	0.475000	0.821000	0.888900
H1721	H172	0.520000	0.785500	0.949400
H1731	H173	0.282900	0.881700	0.874700
H1741	H174	0.262800	0.968100	0.841800
H1751	H175	0.292900	0.060300	0.837100
H1761	H176	0.494900	0.035400	0.899600
H1771	H177	0.464900	0.943200	0.904300
H1781	H178	0.468500	0.906100	0.822900
H1791	H179	0.285000	0.802100	0.832700
H1801	H180	0.240500	0.336400	0.966700
H1811	H181	0.117700	0.375400	0.981300
H1821	H182	0.027000	0.312400	0.879600
H1831	H183	0.149900	0.273400	0.865000
H1841	H184	0.975300	0.375500	0.972100
H1851	H185	0.907600	0.394100	0.872300
H1861	H186	0.888300	0.298500	0.969200
H1871	H187	0.506200	0.866200	0.766600
H1881	H188	0.325500	0.761500	0.772800
H1891	H189	0.790100	0.358800	0.846700
H1901	H190	0.778500	0.258900	0.941500
H1911	H191	0.060300	0.525600	0.868100
H1921	H192	0.058200	0.433400	0.884000
H1931	H193	0.922600	0.463500	0.979400
H1941	H194	0.927700	0.555600	0.965300
H1951	H195	0.368600	0.892100	0.146000
H1961	H196	0.374700	0.903300	0.099800
H1971	H197	0.832700	0.647000	0.493900
H1981	H198	0.787700	0.611400	0.554400
H1991	H199	0.975000	0.679000	0.611100
H2001	H200	0.020000	0.714500	0.550600
H2011	H201	0.782900	0.618300	0.625300
H2021	H202	0.762800	0.531900	0.658200
H2031	H203	0.792900	0.439700	0.662900
H2041	H204	0.994900	0.464600	0.600400
H2051	H205	0.964900	0.556800	0.595700
H2061	H206	0.968500	0.593900	0.677100
H2071	H207	0.785000	0.697900	0.667300
H2081	H208	0.740500	0.163600	0.533300
H2091	H209	0.617700	0.124600	0.518700
H2101	H210	0.527000	0.187600	0.620400
H2111	H211	0.649900	0.226600	0.635000
H2121	H212	0.475300	0.124500	0.527900
H2131	H213	0.407600	0.105900	0.627700
H2141	H214	0.388300	0.201500	0.530800
H2151	H215	0.006200	0.633800	0.733400
H2161	H216	0.825500	0.738500	0.727200
H2171	H217	0.290100	0.141200	0.653300
H2181	H218	0.278500	0.241100	0.558500
H2191	H219	0.560300	0.974400	0.631900
H2201	H220	0.558200	0.066600	0.616000
H2211	H221	0.422600	0.036500	0.520600
H2221	H222	0.427700	0.944400	0.534700
H2231	H223	0.868600	0.607900	0.354000
H2241	H224	0.874700	0.596700	0.400200
C11	C1	0.959500	0.206520	0.022340
C21	C2	0.930810	0.184270	0.983730
C31	C3	0.861240	0.153390	0.982610
C41	C4	0.834280	0.132110	0.946370
C51	C5	0.876890	0.141700	0.911240
C61	C6	0.946460	0.172580	0.912360
C71	C7	0.973420	0.193870	0.948600
C81	C8	0.841100	0.114060	0.873930
C91	C9	0.860880	0.053440	0.873530
C101	C10	0.809360	0.018370	0.853410
C111	C11	0.827370	0.963160	0.850610
C121	C12	0.896890	0.943020	0.867920
C131	C13	0.948410	0.978080	0.888040
C141	C14	0.930400	0.033290	0.890840
C151	C15	0.872900	0.141570	0.835230
C161	C16	0.938900	0.123100	0.813200
C171	C17	0.829700	0.184600	0.819210
C181	C18	0.786700	0.721970	0.905220
C191	C19	0.707360	0.698990	0.914410
C201	C20	0.697720	0.668440	0.949250
C211	C21	0.624130	0.645060	0.957990
C221	C22	0.560190	0.652240	0.931910
C231	C23	0.569820	0.682790	0.897070
C241	C24	0.643410	0.706170	0.888320
C251	C25	0.481500	0.622180	0.942870
C261	C26	0.409000	0.648240	0.924330
C271	C27	0.379800	0.632000	0.886910
C281	C28	0.369500	0.689470	0.944420
C291	C29	0.937000	0.208500	0.721190
C301	C30	0.916700	0.187670	0.760770
C311	C31	0.959900	0.146000	0.779150
C321	C32	0.853100	0.208400	0.782560
C331	C33	0.192500	0.717200	0.876890
C341	C34	0.270800	0.695090	0.891870
C351	C35	0.310200	0.653900	0.871040
C361	C36	0.303100	0.712500	0.927990
C371	C37	0.918000	0.883230	0.865990
C381	C38	0.500700	0.390430	0.908680
C391	C39	0.494900	0.449580	0.915780
C401	C40	0.533100	0.486480	0.890800
C411	C41	0.530400	0.542020	0.900090
C421	C42	0.488400	0.561080	0.931990
C431	C43	0.450400	0.524200	0.956960
C441	C44	0.453800	0.468890	0.948490
C451	C45	0.459500	0.293480	0.477660
C461	C46	0.430810	0.315730	0.516270
C471	C47	0.361240	0.346610	0.517390
C481	C48	0.334280	0.367890	0.553630
C491	C49	0.376890	0.358300	0.588760
C501	C50	0.446460	0.327420	0.587640
C511	C51	0.473420	0.306130	0.551400
C521	C52	0.341100	0.385940	0.626070
C531	C53	0.360880	0.446560	0.626470
C541	C54	0.309360	0.481630	0.646590
C551	C55	0.327370	0.536840	0.649390
C561	C56	0.396890	0.556980	0.632080
C571	C57	0.448410	0.521920	0.611960
C581	C58	0.430400	0.466710	0.609160
C591	C59	0.372900	0.358430	0.664770
C601	C60	0.438900	0.376900	0.686800
C611	C61	0.329700	0.315400	0.680790
C621	C62	0.286700	0.778030	0.594780
C631	C63	0.207360	0.801010	0.585590
C641	C64	0.197720	0.831560	0.550750
C651	C65	0.124130	0.854940	0.542010
C661	C66	0.060190	0.847760	0.568090
C671	C67	0.069820	0.817210	0.602930
C681	C68	0.143410	0.793830	0.611680
C691	C69	0.981500	0.877820	0.557130
C701	C70	0.909000	0.851760	0.575670
C711	C71	0.879800	0.868000	0.613090
C721	C72	0.869500	0.810530	0.555580
C731	C73	0.437000	0.291500	0.778810
C741	C74	0.416700	0.312330	0.739230
C751	C75	0.459900	0.354000	0.720850
C761	C76	0.353100	0.291600	0.717440
C771	C77	0.692500	0.782800	0.623110
C781	C78	0.770800	0.804910	0.608130
C791	C79	0.810200	0.846100	0.628960
C801	C80	0.803100	0.787500	0.572010
C811	C81	0.418000	0.616770	0.634010
C821	C82	0.000700	0.109570	0.591320
C831	C83	0.994900	0.050420	0.584220
C841	C84	0.033100	0.013520	0.609200
C851	C85	0.030400	0.957980	0.599910
C861	C86	0.988400	0.938920	0.568010
C871	C87	0.950400	0.975800	0.543040
C881	C88	0.953800	0.031110	0.551510
C891	C89	0.540500	0.206520	0.977660
C901	C90	0.569190	0.184270	0.016270
C911	C91	0.638760	0.153390	0.017390
C921	C92	0.665720	0.132110	0.053630
C931	C93	0.623110	0.141700	0.088760
C941	C94	0.553540	0.172580	0.087640
C951	C95	0.526580	0.193870	0.051400
C961	C96	0.658900	0.114060	0.126070
C971	C97	0.639120	0.053440	0.126470
C981	C98	0.690640	0.018370	0.146590
C991	C99	0.672630	0.963160	0.149390
C1001	C100	0.603110	0.943020	0.132080
C1011	C101	0.551590	0.978080	0.111960
C1021	C102	0.569600	0.033290	0.109160
C1031	C103	0.627100	0.141570	0.164770
C1041	C104	0.561100	0.123100	0.186800
C1051	C105	0.670300	0.184600	0.180790
C1061	C106	0.713300	0.721970	0.094780
C1071	C107	0.792640	0.698990	0.085590
C1081	C108	0.802280	0.668440	0.050750
C1091	C109	0.875870	0.645060	0.042010
C1101	C110	0.939810	0.652240	0.068090
C1111	C111	0.930180	0.682790	0.102930
C1121	C112	0.856590	0.706170	0.111680
C1131	C113	0.018500	0.622180	0.057130
C1141	C114	0.091000	0.648240	0.075670
C1151	C115	0.120200	0.632000	0.113090
C1161	C116	0.130500	0.689470	0.055580
C1171	C117	0.563000	0.208500	0.278810
C1181	C118	0.583300	0.187670	0.239230
C1191	C119	0.540100	0.146000	0.220850
C1201	C120	0.646900	0.208400	0.217440
C1211	C121	0.307500	0.717200	0.123110
C1221	C122	0.229200	0.695090	0.108130
C1231	C123	0.189800	0.653900	0.128960
C1241	C124	0.196900	0.712500	0.072010
C1251	C125	0.582000	0.883230	0.134010
C1261	C126	0.999300	0.390430	0.091320
C1271	C127	0.005100	0.449580	0.084220
C1281	C128	0.966900	0.486480	0.109200
C1291	C129	0.969600	0.542020	0.099910
C1301	C130	0.011600	0.561080	0.068010
C1311	C131	0.049600	0.524200	0.043040
C1321	C132	0.046200	0.468890	0.051510
C1331	C133	0.040500	0.293480	0.522340
C1341	C134	0.069190	0.315730	0.483730
C1351	C135	0.138760	0.346610	0.482610
C1361	C136	0.165720	0.367890	0.446370
C1371	C137	0.123110	0.358300	0.411240
C1381	C138	0.053540	0.327420	0.412360
C1391	C139	0.026580	0.306130	0.448600
C1401	C140	0.158900	0.385940	0.373930
C1411	C141	0.139120	0.446560	0.373530
C1421	C142	0.190640	0.481630	0.353410
C1431	C143	0.172630	0.536840	0.350610
C1441	C144	0.103110	0.556980	0.367920
C1451	C145	0.051590	0.521920	0.388040
C1461	C146	0.069600	0.466710	0.390840
C1471	C147	0.127100	0.358430	0.335230
C1481	C148	0.061100	0.376900	0.313200
C1491	C149	0.170300	0.315400	0.319210
C1501	C150	0.213300	0.778030	0.405220
C1511	C151	0.292640	0.801010	0.414410
C1521	C152	0.302280	0.831560	0.449250
C1531	C153	0.375870	0.854940	0.457990
C1541	C154	0.439810	0.847760	0.431910
C1551	C155	0.430180	0.817210	0.397070
C1561	C156	0.356590	0.793830	0.388320
C1571	C157	0.518500	0.877820	0.442870
C1581	C158	0.591000	0.851760	0.424330
C1591	C159	0.620200	0.868000	0.386910
C1601	C160	0.630500	0.810530	0.444420
C1611	C161	0.063000	0.291500	0.221190
C1621	C162	0.083300	0.312330	0.260770
C1631	C163	0.040100	0.354000	0.279150
C1641	C164	0.146900	0.291600	0.282560
C1651	C165	0.807500	0.782800	0.376890
C1661	C166	0.729200	0.804910	0.391870
C1671	C167	0.689800	0.846100	0.371040
C1681	C168	0.696900	0.787500	0.427990
C1691	C169	0.082000	0.616770	0.365990
C1701	C170	0.499300	0.109570	0.408680
C1711	C171	0.505100	0.050420	0.415780
C1721	C172	0.466900	0.013520	0.390800
C1731	C173	0.469600	0.957980	0.400090
C1741	C174	0.511600	0.938920	0.431990
C1751	C175	0.549600	0.975800	0.456960
C1761	C176	0.546200	0.031110	0.448490
C1771	C177	0.040500	0.793480	0.977660
C1781	C178	0.069190	0.815730	0.016270
C1791	C179	0.138760	0.846610	0.017390
C1801	C180	0.165720	0.867890	0.053630
C1811	C181	0.123110	0.858300	0.088760
C1821	C182	0.053540	0.827420	0.087640
C1831	C183	0.026580	0.806130	0.051400
C1841	C184	0.158900	0.885940	0.126070
C1851	C185	0.139120	0.946560	0.126470
C1861	C186	0.190640	0.981630	0.146590
C1871	C187	0.172630	0.036840	0.149390
C1881	C188	0.103110	0.056980	0.132080
C1891	C189	0.051590	0.021920	0.111960
C1901	C190	0.069600	0.966710	0.109160
C1911	C191	0.127100	0.858430	0.164770
C1921	C192	0.061100	0.876900	0.186800
C1931	C193	0.170300	0.815400	0.180790
C1941	C194	0.213300	0.278030	0.094780
C1951	C195	0.292640	0.301010	0.085590
C1961	C196	0.302280	0.331560	0.050750
C1971	C197	0.375870	0.354940	0.042010
C1981	C198	0.439810	0.347760	0.068090
C1991	C199	0.430180	0.317210	0.102930
C2001	C200	0.356590	0.293830	0.111680
C2011	C201	0.518500	0.377820	0.057130
C2021	C202	0.591000	0.351760	0.075670
C2031	C203	0.620200	0.368000	0.113090
C2041	C204	0.630500	0.310530	0.055580
C2051	C205	0.063000	0.791500	0.278810
C2061	C206	0.083300	0.812330	0.239230
C2071	C207	0.040100	0.854000	0.220850
C2081	C208	0.146900	0.791600	0.217440
C2091	C209	0.807500	0.282800	0.123110
C2101	C210	0.729200	0.304910	0.108130
C2111	C211	0.689800	0.346100	0.128960
C2121	C212	0.696900	0.287500	0.072010
C2131	C213	0.082000	0.116770	0.134010
C2141	C214	0.499300	0.609570	0.091320
C2151	C215	0.505100	0.550420	0.084220
C2161	C216	0.466900	0.513520	0.109200
C2171	C217	0.469600	0.457980	0.099910
C2181	C218	0.511600	0.438920	0.068010
C2191	C219	0.549600	0.475800	0.043040
C2201	C220	0.546200	0.531110	0.051510
C2211	C221	0.540500	0.706520	0.522340
C2221	C222	0.569190	0.684270	0.483730
C2231	C223	0.638760	0.653390	0.482610
C2241	C224	0.665720	0.632110	0.446370
C2251	C225	0.623110	0.641700	0.411240
C2261	C226	0.553540	0.672580	0.412360
C2271	C227	0.526580	0.693870	0.448600
C2281	C228	0.658900	0.614060	0.373930
C2291	C229	0.639120	0.553440	0.373530
C2301	C230	0.690640	0.518370	0.353410
C2311	C231	0.672630	0.463160	0.350610
C2321	C232	0.603110	0.443020	0.367920
C2331	C233	0.551590	0.478080	0.388040
C2341	C234	0.569600	0.533290	0.390840
C2351	C235	0.627100	0.641570	0.335230
C2361	C236	0.561100	0.623100	0.313200
C2371	C237	0.670300	0.684600	0.319210
C2381	C238	0.713300	0.221970	0.405220
C2391	C239	0.792640	0.198990	0.414410
C2401	C240	0.802280	0.168440	0.449250
C2411	C241	0.875870	0.145060	0.457990
C2421	C242	0.939810	0.152240	0.431910
C2431	C243	0.930180	0.182790	0.397070
C2441	C244	0.856590	0.206170	0.388320
C2451	C245	0.018500	0.122180	0.442870
C2461	C246	0.091000	0.148240	0.424330
C2471	C247	0.120200	0.132000	0.386910
C2481	C248	0.130500	0.189470	0.444420
C2491	C249	0.563000	0.708500	0.221190
C2501	C250	0.583300	0.687670	0.260770
C2511	C251	0.540100	0.646000	0.279150
C2521	C252	0.646900	0.708400	0.282560
C2531	C253	0.307500	0.217200	0.376890
C2541	C254	0.229200	0.195090	0.391870
C2551	C255	0.189800	0.153900	0.371040
C2561	C256	0.196900	0.212500	0.427990
C2571	C257	0.582000	0.383230	0.365990
C2581	C258	0.999300	0.890430	0.408680
C2591	C259	0.005100	0.949580	0.415780
C2601	C260	0.966900	0.986480	0.390800
C2611	C261	0.969600	0.042020	0.400090
C2621	C262	0.011600	0.061080	0.431990
C2631	C263	0.049600	0.024200	0.456960
C2641	C264	0.046200	0.968890	0.448490
C2651	C265	0.459500	0.793480	0.022340
C2661	C266	0.430810	0.815730	0.983730
C2671	C267	0.361240	0.846610	0.982610
C2681	C268	0.334280	0.867890	0.946370
C2691	C269	0.376890	0.858300	0.911240
C2701	C270	0.446460	0.827420	0.912360
C2711	C271	0.473420	0.806130	0.948600
C2721	C272	0.341100	0.885940	0.873930
C2731	C273	0.360880	0.946560	0.873530
C2741	C274	0.309360	0.981630	0.853410
C2751	C275	0.327370	0.036840	0.850610
C2761	C276	0.396890	0.056980	0.867920
C2771	C277	0.448410	0.021920	0.888040
C2781	C278	0.430400	0.966710	0.890840
C2791	C279	0.372900	0.858430	0.835230
C2801	C280	0.438900	0.876900	0.813200
C2811	C281	0.329700	0.815400	0.819210
C2821	C282	0.286700	0.278030	0.905220
C2831	C283	0.207360	0.301010	0.914410
C2841	C284	0.197720	0.331560	0.949250
C2851	C285	0.124130	0.354940	0.957990
C2861	C286	0.060190	0.347760	0.931910
C2871	C287	0.069820	0.317210	0.897070
C2881	C288	0.143410	0.293830	0.888320
C2891	C289	0.981500	0.377820	0.942870
C2901	C290	0.909000	0.351760	0.924330
C2911	C291	0.879800	0.368000	0.886910
C2921	C292	0.869500	0.310530	0.944420
C2931	C293	0.437000	0.791500	0.721190
C2941	C294	0.416700	0.812330	0.760770
C2951	C295	0.459900	0.854000	0.779150
C2961	C296	0.353100	0.791600	0.782560
C2971	C297	0.692500	0.282800	0.876890
C2981	C298	0.770800	0.304910	0.891870
C2991	C299	0.810200	0.346100	0.871040
C3001	C300	0.803100	0.287500	0.927990
C3011	C301	0.418000	0.116770	0.865990
C3021	C302	0.000700	0.609570	0.908680
C3031	C303	0.994900	0.550420	0.915780
C3041	C304	0.033100	0.513520	0.890800
C3051	C305	0.030400	0.457980	0.900090
C3061	C306	0.988400	0.438920	0.931990
C3071	C307	0.950400	0.475800	0.956960
C3081	C308	0.953800	0.531110	0.948490
C3091	C309	0.959500	0.706520	0.477660
C3101	C310	0.930810	0.684270	0.516270
C3111	C311	0.861240	0.653390	0.517390
C3121	C312	0.834280	0.632110	0.553630
C3131	C313	0.876890	0.641700	0.588760
C3141	C314	0.946460	0.672580	0.587640
C3151	C315	0.973420	0.693870	0.551400
C3161	C316	0.841100	0.614060	0.626070
C3171	C317	0.860880	0.553440	0.626470
C3181	C318	0.809360	0.518370	0.646590
C3191	C319	0.827370	0.463160	0.649390
C3201	C320	0.896890	0.443020	0.632080
C3211	C321	0.948410	0.478080	0.611960
C3221	C322	0.930400	0.533290	0.609160
C3231	C323	0.872900	0.641570	0.664770
C3241	C324	0.938900	0.623100	0.686800
C3251	C325	0.829700	0.684600	0.680790
C3261	C326	0.786700	0.221970	0.594780
C3271	C327	0.707360	0.198990	0.585590
C3281	C328	0.697720	0.168440	0.550750
C3291	C329	0.624130	0.145060	0.542010
C3301	C330	0.560190	0.152240	0.568090
C3311	C331	0.569820	0.182790	0.602930
C3321	C332	0.643410	0.206170	0.611680
C3331	C333	0.481500	0.122180	0.557130
C3341	C334	0.409000	0.148240	0.575670
C3351	C335	0.379800	0.132000	0.613090
C3361	C336	0.369500	0.189470	0.555580
C3371	C337	0.937000	0.708500	0.778810
C3381	C338	0.916700	0.687670	0.739230
C3391	C339	0.959900	0.646000	0.720850
C3401	C340	0.853100	0.708400	0.717440
C3411	C341	0.192500	0.217200	0.623110
C3421	C342	0.270800	0.195090	0.608130
C3431	C343	0.310200	0.153900	0.628960
C3441	C344	0.303100	0.212500	0.572010
C3451	C345	0.918000	0.383230	0.634010
C3461	C346	0.500700	0.890430	0.591320
C3471	C347	0.494900	0.949580	0.584220
C3481	C348	0.533100	0.986480	0.609200
C3491	C349	0.530400	0.042020	0.599910
C3501	C350	0.488400	0.061080	0.568010
C3511	C351	0.450400	0.024200	0.543040
C3521	C352	0.453800	0.968890	0.551510
O11	O1	0.872600	0.852320	0.846310
O21	O2	0.931300	0.183590	0.053350
O31	O3	0.006900	0.245190	0.022070
O41	O4	0.518800	0.377560	0.872410
O51	O5	0.481000	0.358630	0.935670
O61	O6	0.840180	0.717810	0.931360
O71	O7	0.798110	0.743880	0.871610
O81	O8	0.895600	0.245610	0.705680
O91	O9	0.997100	0.187210	0.705230
O101	O10	0.168900	0.760700	0.892940
O111	O11	0.158200	0.691690	0.849710
O121	O12	0.988410	0.749590	0.879210
O131	O13	0.973800	0.867390	0.885310
O141	O14	0.860500	0.123160	0.119780
O151	O15	0.372600	0.647680	0.653690
O161	O16	0.431300	0.316410	0.446650
O171	O17	0.506900	0.254810	0.477930
O181	O18	0.018800	0.122440	0.627590
O191	O19	0.981000	0.141370	0.564330
O201	O20	0.340180	0.782190	0.568640
O211	O21	0.298110	0.756120	0.628390
O221	O22	0.395600	0.254390	0.794320
O231	O23	0.497100	0.312790	0.794770
O241	O24	0.668900	0.739300	0.607060
O251	O25	0.658200	0.808310	0.650290
O261	O26	0.488410	0.750410	0.620790
O271	O27	0.473800	0.632610	0.614690
O281	O28	0.360500	0.376840	0.380220
O291	O29	0.627400	0.852320	0.153690
O301	O30	0.568700	0.183590	0.946650
O311	O31	0.493100	0.245190	0.977930
O321	O32	0.981200	0.377560	0.127590
O331	O33	0.019000	0.358630	0.064330
O341	O34	0.659820	0.717810	0.068640
O351	O35	0.701890	0.743880	0.128390
O361	O36	0.604400	0.245610	0.294320
O371	O37	0.502900	0.187210	0.294770
O381	O38	0.331100	0.760700	0.107060
O391	O39	0.341800	0.691690	0.150290
O401	O40	0.511590	0.749590	0.120790
O411	O41	0.526200	0.867390	0.114690
O421	O42	0.639500	0.123160	0.880220
O431	O43	0.127400	0.647680	0.346310
O441	O44	0.068700	0.316410	0.553350
O451	O45	0.993100	0.254810	0.522070
O461	O46	0.481200	0.122440	0.372410
O471	O47	0.519000	0.141370	0.435670
O481	O48	0.159820	0.782190	0.431360
O491	O49	0.201890	0.756120	0.371610
O501	O50	0.104400	0.254390	0.205680
O511	O51	0.002900	0.312790	0.205230
O521	O52	0.831100	0.739300	0.392940
O531	O53	0.841800	0.808310	0.349710
O541	O54	0.011590	0.750410	0.379210
O551	O55	0.026200	0.632610	0.385310
O561	O56	0.139500	0.376840	0.619780
O571	O57	0.127400	0.147680	0.153690
O581	O58	0.068700	0.816410	0.946650
O591	O59	0.993100	0.754810	0.977930
O601	O60	0.481200	0.622440	0.127590
O611	O61	0.519000	0.641370	0.064330
O621	O62	0.159820	0.282190	0.068640
O631	O63	0.201890	0.256120	0.128390
O641	O64	0.104400	0.754390	0.294320
O651	O65	0.002900	0.812790	0.294770
O661	O66	0.831100	0.239300	0.107060
O671	O67	0.841800	0.308310	0.150290
O681	O68	0.011590	0.250410	0.120790
O691	O69	0.026200	0.132610	0.114690
O701	O70	0.139500	0.876840	0.880220
O711	O71	0.627400	0.352320	0.346310
O721	O72	0.568700	0.683590	0.553350
O731	O73	0.493100	0.745190	0.522070
O741	O74	0.981200	0.877560	0.372410
O751	O75	0.019000	0.858630	0.435670
O761	O76	0.659820	0.217810	0.431360
O771	O77	0.701890	0.243880	0.371610
O781	O78	0.604400	0.745610	0.205680
O791	O79	0.502900	0.687210	0.205230
O801	O80	0.331100	0.260700	0.392940
O811	O81	0.341800	0.191690	0.349710
O821	O82	0.511590	0.249590	0.379210
O831	O83	0.526200	0.367390	0.385310
O841	O84	0.639500	0.623160	0.619780
O851	O85	0.372600	0.147680	0.846310
O861	O86	0.431300	0.816410	0.053350
O871	O87	0.506900	0.754810	0.022070
O881	O88	0.018800	0.622440	0.872410
O891	O89	0.981000	0.641370	0.935670
O901	O90	0.340180	0.282190	0.931360
O911	O91	0.298110	0.256120	0.871610
O921	O92	0.395600	0.754390	0.705680
O931	O93	0.497100	0.812790	0.705230
O941	O94	0.668900	0.239300	0.892940
O951	O95	0.658200	0.308310	0.849710
O961	O96	0.488410	0.250410	0.879210
O971	O97	0.473800	0.132610	0.885310
O981	O98	0.360500	0.876840	0.119780
O991	O99	0.872600	0.352320	0.653690
O1001	O100	0.931300	0.683590	0.446650
O1011	O101	0.006900	0.745190	0.477930
O1021	O102	0.518800	0.877560	0.627590
O1031	O103	0.481000	0.858630	0.564330
O1041	O104	0.840180	0.217810	0.568640
O1051	O105	0.798110	0.243880	0.628390
O1061	O106	0.895600	0.745610	0.794320
O1071	O107	0.997100	0.687210	0.794770
O1081	O108	0.168900	0.260700	0.607060
O1091	O109	0.158200	0.191690	0.650290
O1101	O110	0.988410	0.249590	0.620790
O1111	O111	0.973800	0.367390	0.614690
O1121	O112	0.860500	0.623160	0.380220
