data_DAXHUH_freeONLY_PM
_symmetry_space_group_name_H-M	'P1'
_cell_length_a	12.106000
_cell_length_b	12.118000
_cell_length_c	13.720800
_cell_angle_alpha	98.962800
_cell_angle_beta	116.178000
_cell_angle_gamma	69.320000
_symmetry_Int_Tables_number 1

loop_
_symmetry_equiv_pos_as_xyz
'x,y,z'

loop_
_atom_site_label
_atom_site_type_symbol
_atom_site_fract_x
_atom_site_fract_y
_atom_site_fract_z
Fe11	Fe1	0.000000	0.000000	0.000000
Fe21	Fe2	0.104030	0.257050	0.000000
Fe31	Fe3	0.895970	0.742950	0.000000
H11	H1	0.278100	0.284800	0.950200
H21	H2	0.909200	0.912600	0.572000
H31	H3	0.116900	0.126000	0.604600
H41	H4	0.672100	0.715200	0.950200
H51	H5	0.662800	0.087400	0.572000
H61	H6	0.487700	0.874000	0.604600
H71	H7	0.721900	0.715200	0.049800
H81	H8	0.090800	0.087400	0.428000
H91	H9	0.883100	0.874000	0.395400
H101	H10	0.327900	0.284800	0.049800
H111	H11	0.337200	0.912600	0.428000
H121	H12	0.512300	0.126000	0.395400
H131	H13	0.529500	0.301800	0.000000
H141	H14	0.662900	0.558300	0.000000
H151	H15	0.470500	0.698200	0.000000
H161	H16	0.337100	0.441700	0.000000
C11	C1	0.947300	0.947700	0.543200
C21	C2	0.017900	0.018300	0.608800
C31	C3	0.070100	0.074100	0.562000
C41	C4	0.039300	0.043300	0.722200
C51	C5	0.595900	0.052300	0.543200
C61	C6	0.590900	0.981700	0.608800
C71	C7	0.491900	0.925900	0.562000
C81	C8	0.682900	0.956700	0.722200
C91	C9	0.052700	0.052300	0.456800
C101	C10	0.982100	0.981700	0.391200
C111	C11	0.929900	0.925900	0.438000
C121	C12	0.960700	0.956700	0.277800
C131	C13	0.404100	0.947700	0.456800
C141	C14	0.409100	0.018300	0.391200
C151	C15	0.508100	0.074100	0.438000
C161	C16	0.317100	0.043300	0.277800
C171	C17	0.518900	0.383300	0.000000
C181	C18	0.614400	0.414600	0.000000
C191	C19	0.597100	0.532900	0.000000
C201	C20	0.736600	0.332400	0.000000
C211	C21	0.481100	0.616700	0.000000
C221	C22	0.385600	0.585400	0.000000
C231	C23	0.402900	0.467100	0.000000
C241	C24	0.263400	0.667600	0.000000
C251	C25	0.968200	0.500000	0.936400
C261	C26	0.031800	0.500000	0.063600
N11	N1	0.018400	0.979900	0.780400
N21	N2	0.040780	0.035800	0.877160
N31	N3	0.077000	0.125100	0.875600
N41	N4	0.074600	0.135400	0.780000
N51	N5	0.762000	0.020100	0.780400
N61	N6	0.836380	0.964200	0.877160
N71	N7	0.798600	0.874900	0.875600
N81	N8	0.705400	0.864600	0.780000
N91	N9	0.981600	0.020100	0.219600
N101	N10	0.959220	0.964200	0.122840
N111	N11	0.923000	0.874900	0.124400
N121	N12	0.925400	0.864600	0.220000
N131	N13	0.238000	0.979900	0.219600
N141	N14	0.163620	0.035800	0.122840
N151	N15	0.201400	0.125100	0.124400
N161	N16	0.294600	0.135400	0.220000
N171	N17	0.769400	0.212000	0.000000
N181	N18	0.887600	0.175700	0.000000
N191	N19	0.921400	0.264800	0.000000
N201	N20	0.829600	0.364500	0.000000
N211	N21	0.230600	0.788000	0.000000
N221	N22	0.112400	0.824300	0.000000
N231	N23	0.078600	0.735200	0.000000
N241	N24	0.170400	0.635500	0.000000
O11	O1	0.995290	0.402800	0.889180
O21	O2	0.893890	0.597200	0.889180
O31	O3	0.004710	0.597200	0.110820
O41	O4	0.106110	0.402800	0.110820
O51	O5	0.281300	0.247100	0.000000
O61	O6	0.718700	0.752900	0.000000
