data_DAXKIY_freeONLY_PM
_symmetry_space_group_name_H-M	'P1'
_cell_length_a	9.159000
_cell_length_b	9.159000
_cell_length_c	24.445000
_cell_angle_alpha	90.000000
_cell_angle_beta	90.000000
_cell_angle_gamma	90.000000
_symmetry_Int_Tables_number 1

loop_
_symmetry_equiv_pos_as_xyz
'x,y,z'

loop_
_atom_site_label
_atom_site_type_symbol
_atom_site_fract_x
_atom_site_fract_y
_atom_site_fract_z
N11	N1	0.014700	0.093200	0.544130
C11	C1	0.132100	0.043100	0.517750
H11	H1	0.224900	0.070900	0.529200
C21	C2	0.883100	0.050200	0.526700
C31	C3	0.750800	0.107800	0.557610
O11	O1	0.779300	0.193500	0.597990
O21	O2	0.629200	0.067700	0.542930
N21	N2	0.514700	0.593200	0.044130
C41	C4	0.632100	0.543100	0.017750
H21	H2	0.724900	0.570900	0.029200
C51	C5	0.383100	0.550200	0.026700
C61	C6	0.250800	0.607800	0.057610
O31	O3	0.279300	0.693500	0.097990
O41	O4	0.129200	0.567700	0.042930
N31	N3	0.485300	0.906800	0.044130
C71	C7	0.367900	0.956900	0.017750
H31	H3	0.275100	0.929100	0.029200
C81	C8	0.616900	0.949800	0.026700
C91	C9	0.749200	0.892200	0.057610
O51	O5	0.720700	0.806500	0.097990
O61	O6	0.870800	0.932300	0.042930
N41	N4	0.985300	0.406800	0.544130
C101	C10	0.867900	0.456900	0.517750
H41	H4	0.775100	0.429100	0.529200
C111	C11	0.116900	0.449800	0.526700
C121	C12	0.249200	0.392200	0.557610
O71	O7	0.220700	0.306500	0.597990
O81	O8	0.370800	0.432300	0.542930
N51	N5	0.656800	0.264700	0.794130
C131	C13	0.706900	0.382100	0.767750
H51	H5	0.679100	0.474900	0.779200
C141	C14	0.699800	0.133100	0.776700
C151	C15	0.642200	0.000800	0.807610
O91	O9	0.556500	0.029300	0.847990
O101	O10	0.682300	0.879200	0.792930
N61	N6	0.156800	0.764700	0.294130
C161	C16	0.206900	0.882100	0.267750
H61	H6	0.179100	0.974900	0.279200
C171	C17	0.199800	0.633100	0.276700
C181	C18	0.142200	0.500800	0.307610
O111	O11	0.056500	0.529300	0.347990
O121	O12	0.182300	0.379200	0.292930
N71	N7	0.843200	0.735300	0.294130
C191	C19	0.793100	0.617900	0.267750
H71	H7	0.820900	0.525100	0.279200
C201	C20	0.800200	0.866900	0.276700
C211	C21	0.857800	0.999200	0.307610
O131	O13	0.943500	0.970700	0.347990
O141	O14	0.817700	0.120800	0.292930
N81	N8	0.343200	0.235300	0.794130
C221	C22	0.293100	0.117900	0.767750
H81	H8	0.320900	0.025100	0.779200
C231	C23	0.300200	0.366900	0.776700
C241	C24	0.357800	0.499200	0.807610
O151	O15	0.443500	0.470700	0.847990
O161	O16	0.317700	0.620800	0.792930
N91	N9	0.985300	0.906800	0.455870
C251	C25	0.867900	0.956900	0.482250
H91	H9	0.775100	0.929100	0.470800
C261	C26	0.116900	0.949800	0.473300
C271	C27	0.249200	0.892200	0.442390
O171	O17	0.220700	0.806500	0.402010
O181	O18	0.370800	0.932300	0.457070
N101	N10	0.485300	0.406800	0.955870
C281	C28	0.367900	0.456900	0.982250
H101	H10	0.275100	0.429100	0.970800
C291	C29	0.616900	0.449800	0.973300
C301	C30	0.749200	0.392200	0.942390
O191	O19	0.720700	0.306500	0.902010
O201	O20	0.870800	0.432300	0.957070
N111	N11	0.514700	0.093200	0.955870
C311	C31	0.632100	0.043100	0.982250
H111	H11	0.724900	0.070900	0.970800
C321	C32	0.383100	0.050200	0.973300
C331	C33	0.250800	0.107800	0.942390
O211	O21	0.279300	0.193500	0.902010
O221	O22	0.129200	0.067700	0.957070
N121	N12	0.014700	0.593200	0.455870
C341	C34	0.132100	0.543100	0.482250
H121	H12	0.224900	0.570900	0.470800
C351	C35	0.883100	0.550200	0.473300
C361	C36	0.750800	0.607800	0.442390
O231	O23	0.779300	0.693500	0.402010
O241	O24	0.629200	0.567700	0.457070
N131	N13	0.343200	0.735300	0.205870
C371	C37	0.293100	0.617900	0.232250
H131	H13	0.320900	0.525100	0.220800
C381	C38	0.300200	0.866900	0.223300
C391	C39	0.357800	0.999200	0.192390
O251	O25	0.443500	0.970700	0.152010
O261	O26	0.317700	0.120800	0.207070
N141	N14	0.843200	0.235300	0.705870
C401	C40	0.793100	0.117900	0.732250
H141	H14	0.820900	0.025100	0.720800
C411	C41	0.800200	0.366900	0.723300
C421	C42	0.857800	0.499200	0.692390
O271	O27	0.943500	0.470700	0.652010
O281	O28	0.817700	0.620800	0.707070
N151	N15	0.156800	0.264700	0.705870
C431	C43	0.206900	0.382100	0.732250
H151	H15	0.179100	0.474900	0.720800
C441	C44	0.199800	0.133100	0.723300
C451	C45	0.142200	0.000800	0.692390
O291	O29	0.056500	0.029300	0.652010
O301	O30	0.182300	0.879200	0.707070
N161	N16	0.656800	0.764700	0.205870
C461	C46	0.706900	0.882100	0.232250
H161	H16	0.679100	0.974900	0.220800
C471	C47	0.699800	0.633100	0.223300
C481	C48	0.642200	0.500800	0.192390
O311	O31	0.556500	0.529300	0.152010
O321	O32	0.682300	0.379200	0.207070
In11	In1	0.000000	0.250000	0.625000
In21	In2	0.500000	0.750000	0.125000
In31	In3	0.500000	0.250000	0.875000
In41	In4	0.000000	0.750000	0.375000
