data_DAXKOE_charged_PM
_symmetry_space_group_name_H-M	'P1'
_cell_length_a	10.114900
_cell_length_b	10.114900
_cell_length_c	11.467000
_cell_angle_alpha	98.920400
_cell_angle_beta	98.920400
_cell_angle_gamma	115.278000
_symmetry_Int_Tables_number 1

loop_
_symmetry_equiv_pos_as_xyz
'x,y,z'

loop_
_atom_site_label
_atom_site_type_symbol
_atom_site_fract_x
_atom_site_fract_y
_atom_site_fract_z
In11	In1	0.363030	0.636970	0.250000
In21	In2	0.636970	0.363030	0.750000
H11	H1	0.418600	0.786200	0.568000
H21	H2	0.583700	0.753900	0.057700
H31	H3	0.213800	0.581400	0.932000
H41	H4	0.246100	0.416300	0.442300
H51	H5	0.581400	0.213800	0.432000
H61	H6	0.416300	0.246100	0.942300
H71	H7	0.786200	0.418600	0.068000
H81	H8	0.753900	0.583700	0.557700
C11	C1	0.451300	0.872500	0.538600
C21	C2	0.548900	0.650100	0.035100
C31	C3	0.606300	0.588900	0.950600
C41	C4	0.486500	0.986700	0.380400
C51	C5	0.466000	0.968200	0.243900
C61	C6	0.722500	0.684500	0.891000
C71	C7	0.127500	0.548700	0.961400
C81	C8	0.349900	0.451100	0.464900
C91	C9	0.411100	0.393700	0.549400
C101	C10	0.013300	0.513500	0.119600
C111	C11	0.031800	0.534000	0.256100
C121	C12	0.315500	0.277500	0.609000
C131	C13	0.548700	0.127500	0.461400
C141	C14	0.451100	0.349900	0.964900
C151	C15	0.393700	0.411100	0.049400
C161	C16	0.513500	0.013300	0.619600
C171	C17	0.534000	0.031800	0.756100
C181	C18	0.277500	0.315500	0.109000
C191	C19	0.872500	0.451300	0.038600
C201	C20	0.650100	0.548900	0.535100
C211	C21	0.588900	0.606300	0.450600
C221	C22	0.986700	0.486500	0.880400
C231	C23	0.968200	0.466000	0.743900
C241	C24	0.684500	0.722500	0.391000
N11	N1	0.437900	0.859300	0.419100
N21	N2	0.443930	0.559270	0.083500
N31	N3	0.140700	0.562100	0.080900
N41	N4	0.440730	0.556070	0.416500
N51	N5	0.562100	0.140700	0.580900
N61	N6	0.556070	0.440730	0.916500
N71	N7	0.859300	0.437900	0.919100
N81	N8	0.559270	0.443930	0.583500
O11	O1	0.408720	0.833480	0.178600
O21	O2	0.501600	0.080600	0.204600
O31	O3	0.749890	0.614110	0.805400
O41	O4	0.783500	0.823300	0.931300
O51	O5	0.166520	0.591280	0.321400
O61	O6	0.919400	0.498400	0.295400
O71	O7	0.385890	0.250110	0.694600
O81	O8	0.176700	0.216500	0.568700
O91	O9	0.591280	0.166520	0.821400
O101	O10	0.498400	0.919400	0.795400
O111	O11	0.250110	0.385890	0.194600
O121	O12	0.216500	0.176700	0.068700
O131	O13	0.833480	0.408720	0.678600
O141	O14	0.080600	0.501600	0.704600
O151	O15	0.614110	0.749890	0.305400
O161	O16	0.823300	0.783500	0.431300
