data_DEGJIK_freeONLY_PM
_symmetry_space_group_name_H-M	'P1'
_cell_length_a	5.814500
_cell_length_b	8.966300
_cell_length_c	16.880000
_cell_angle_alpha	90.000000
_cell_angle_beta	90.000000
_cell_angle_gamma	94.078000
_symmetry_Int_Tables_number 1

loop_
_symmetry_equiv_pos_as_xyz
'x,y,z'

loop_
_atom_site_label
_atom_site_type_symbol
_atom_site_fract_x
_atom_site_fract_y
_atom_site_fract_z
Cu11	Cu1	0.752090	0.471750	0.564900
Cu21	Cu2	0.247910	0.028250	0.064900
Cu31	Cu3	0.247910	0.528250	0.435100
Cu41	Cu4	0.752090	0.971750	0.935100
H11	H1	0.712000	0.144000	0.648300
H21	H2	0.885200	0.040000	0.756700
H31	H3	0.245900	0.306400	0.797900
H41	H4	0.434500	0.200500	0.901300
H51	H5	0.288000	0.356000	0.148300
H61	H6	0.114800	0.460000	0.256700
H71	H7	0.754100	0.193600	0.297900
H81	H8	0.565500	0.299500	0.401300
H91	H9	0.288000	0.856000	0.351700
H101	H10	0.114800	0.960000	0.243300
H111	H11	0.754100	0.693600	0.202100
H121	H12	0.565500	0.799500	0.098700
H131	H13	0.712000	0.644000	0.851700
H141	H14	0.885200	0.540000	0.743300
H151	H15	0.245900	0.806400	0.702100
H161	H16	0.434500	0.700500	0.598700
C11	C1	0.334600	0.305100	0.645000
C21	C2	0.458400	0.237400	0.710100
C31	C3	0.650500	0.156700	0.699800
C41	C4	0.753000	0.094500	0.764900
C51	C5	0.377400	0.252200	0.787700
C61	C6	0.490200	0.187600	0.849000
C71	C7	0.665400	0.194900	0.145000
C81	C8	0.541600	0.262600	0.210100
C91	C9	0.349500	0.343300	0.199800
C101	C10	0.247000	0.405500	0.264900
C111	C11	0.622600	0.247800	0.287700
C121	C12	0.509800	0.312400	0.349000
C131	C13	0.665400	0.694900	0.355000
C141	C14	0.541600	0.762600	0.289900
C151	C15	0.349500	0.843300	0.300200
C161	C16	0.247000	0.905500	0.235100
C171	C17	0.622600	0.747800	0.212300
C181	C18	0.509800	0.812400	0.151000
C191	C19	0.334600	0.805100	0.855000
C201	C20	0.458400	0.737400	0.789900
C211	C21	0.650500	0.656700	0.800200
C221	C22	0.753000	0.594500	0.735100
C231	C23	0.377400	0.752200	0.712300
C241	C24	0.490200	0.687600	0.651000
N11	N1	0.427500	0.359200	0.577600
N21	N2	0.247500	0.413100	0.538300
N31	N3	0.059100	0.391800	0.582600
N41	N4	0.110100	0.324700	0.650400
N51	N5	0.673500	0.107900	0.839300
N61	N6	0.572500	0.140800	0.077600
N71	N7	0.752500	0.086900	0.038300
N81	N8	0.940900	0.108200	0.082600
N91	N9	0.889900	0.175300	0.150400
N101	N10	0.326500	0.392100	0.339300
N111	N11	0.572500	0.640800	0.422400
N121	N12	0.752500	0.586900	0.461700
N131	N13	0.940900	0.608200	0.417400
N141	N14	0.889900	0.675300	0.349600
N151	N15	0.326500	0.892100	0.160700
N161	N16	0.427500	0.859200	0.922400
N171	N17	0.247500	0.913100	0.961700
N181	N18	0.059100	0.891800	0.917400
N191	N19	0.110100	0.824700	0.849600
N201	N20	0.673500	0.607900	0.660700
