data_DEGPEL_charged_PM
_symmetry_space_group_name_H-M	'P1'
_cell_length_a	17.550400
_cell_length_b	17.550400
_cell_length_c	17.550400
_cell_angle_alpha	60.000000
_cell_angle_beta	60.000000
_cell_angle_gamma	60.000000
_symmetry_Int_Tables_number 1

loop_
_symmetry_equiv_pos_as_xyz
'x,y,z'

loop_
_atom_site_label
_atom_site_type_symbol
_atom_site_fract_x
_atom_site_fract_y
_atom_site_fract_z
Cu11	Cu1	0.636900	0.363100	0.750000
Cu21	Cu2	0.863100	0.136900	0.250000
Cu31	Cu3	0.250000	0.250000	0.136900
Cu41	Cu4	0.750000	0.750000	0.363100
Cu51	Cu5	0.636900	0.750000	0.250000
Cu61	Cu6	0.863100	0.250000	0.750000
Cu71	Cu7	0.250000	0.136900	0.363100
Cu81	Cu8	0.750000	0.363100	0.136900
Cu91	Cu9	0.636900	0.250000	0.363100
Cu101	Cu10	0.863100	0.750000	0.136900
Cu111	Cu11	0.250000	0.363100	0.250000
Cu121	Cu12	0.750000	0.136900	0.750000
Cu131	Cu13	0.363100	0.636900	0.250000
Cu141	Cu14	0.136900	0.863100	0.750000
Cu151	Cu15	0.750000	0.750000	0.863100
Cu161	Cu16	0.250000	0.250000	0.636900
Cu171	Cu17	0.363100	0.250000	0.750000
Cu181	Cu18	0.136900	0.750000	0.250000
Cu191	Cu19	0.750000	0.863100	0.636900
Cu201	Cu20	0.250000	0.636900	0.863100
Cu211	Cu21	0.363100	0.750000	0.636900
Cu221	Cu22	0.136900	0.250000	0.863100
Cu231	Cu23	0.750000	0.636900	0.750000
Cu241	Cu24	0.250000	0.863100	0.250000
H11	H1	0.618600	0.548600	0.766000
H21	H2	0.048600	0.118600	0.066800
H31	H3	0.266000	0.066800	0.118600
H41	H4	0.566800	0.766000	0.548600
H51	H5	0.618600	0.766000	0.066800
H61	H6	0.048600	0.066800	0.766000
H71	H7	0.266000	0.118600	0.548600
H81	H8	0.566800	0.548600	0.118600
H91	H9	0.618600	0.066800	0.548600
H101	H10	0.048600	0.766000	0.118600
H111	H11	0.266000	0.548600	0.066800
H121	H12	0.566800	0.118600	0.766000
H131	H13	0.451400	0.381400	0.734000
H141	H14	0.881400	0.951400	0.433200
H151	H15	0.933200	0.734000	0.381400
H161	H16	0.234000	0.433200	0.951400
H171	H17	0.234000	0.381400	0.433200
H181	H18	0.933200	0.951400	0.734000
H191	H19	0.881400	0.734000	0.951400
H201	H20	0.451400	0.433200	0.381400
H211	H21	0.933200	0.381400	0.951400
H221	H22	0.234000	0.951400	0.381400
H231	H23	0.451400	0.734000	0.433200
H241	H24	0.881400	0.433200	0.734000
H251	H25	0.381400	0.451400	0.234000
H261	H26	0.951400	0.881400	0.933200
H271	H27	0.734000	0.933200	0.881400
H281	H28	0.433200	0.234000	0.451400
H291	H29	0.381400	0.234000	0.933200
H301	H30	0.951400	0.933200	0.234000
H311	H31	0.734000	0.881400	0.451400
H321	H32	0.433200	0.451400	0.881400
H331	H33	0.381400	0.933200	0.451400
H341	H34	0.951400	0.234000	0.881400
H351	H35	0.734000	0.451400	0.933200
H361	H36	0.433200	0.881400	0.234000
H371	H37	0.548600	0.618600	0.266000
H381	H38	0.118600	0.048600	0.566800
H391	H39	0.066800	0.266000	0.618600
H401	H40	0.766000	0.566800	0.048600
H411	H41	0.766000	0.618600	0.566800
H421	H42	0.066800	0.048600	0.266000
H431	H43	0.118600	0.266000	0.048600
H441	H44	0.548600	0.566800	0.618600
H451	H45	0.066800	0.618600	0.048600
H461	H46	0.766000	0.048600	0.618600
H471	H47	0.548600	0.266000	0.566800
H481	H48	0.118600	0.566800	0.266000
C11	C1	0.678900	0.506100	0.758700
C21	C2	0.006100	0.178900	0.056300
C31	C3	0.258700	0.056300	0.178900
C41	C4	0.556300	0.758700	0.506100
C51	C5	0.678900	0.758700	0.056300
C61	C6	0.006100	0.056300	0.758700
C71	C7	0.258700	0.178900	0.506100
C81	C8	0.556300	0.506100	0.178900
C91	C9	0.678900	0.056300	0.506100
C101	C10	0.006100	0.758700	0.178900
C111	C11	0.258700	0.506100	0.056300
C121	C12	0.556300	0.178900	0.758700
C131	C13	0.493900	0.321100	0.741300
C141	C14	0.821100	0.993900	0.443700
C151	C15	0.943700	0.741300	0.321100
C161	C16	0.241300	0.443700	0.993900
C171	C17	0.241300	0.321100	0.443700
C181	C18	0.943700	0.993900	0.741300
C191	C19	0.821100	0.741300	0.993900
C201	C20	0.493900	0.443700	0.321100
C211	C21	0.943700	0.321100	0.993900
C221	C22	0.241300	0.993900	0.321100
C231	C23	0.493900	0.741300	0.443700
C241	C24	0.821100	0.443700	0.741300
C251	C25	0.321100	0.493900	0.241300
C261	C26	0.993900	0.821100	0.943700
C271	C27	0.741300	0.943700	0.821100
C281	C28	0.443700	0.241300	0.493900
C291	C29	0.321100	0.241300	0.943700
C301	C30	0.993900	0.943700	0.241300
C311	C31	0.741300	0.821100	0.493900
C321	C32	0.443700	0.493900	0.821100
C331	C33	0.321100	0.943700	0.493900
C341	C34	0.993900	0.241300	0.821100
C351	C35	0.741300	0.493900	0.943700
C361	C36	0.443700	0.821100	0.241300
C371	C37	0.506100	0.678900	0.258700
C381	C38	0.178900	0.006100	0.556300
C391	C39	0.056300	0.258700	0.678900
C401	C40	0.758700	0.556300	0.006100
C411	C41	0.758700	0.678900	0.556300
C421	C42	0.056300	0.006100	0.258700
C431	C43	0.178900	0.258700	0.006100
C441	C44	0.506100	0.556300	0.678900
C451	C45	0.056300	0.678900	0.006100
C461	C46	0.758700	0.006100	0.678900
C471	C47	0.506100	0.258700	0.556300
C481	C48	0.178900	0.556300	0.258700
N11	N1	0.703430	0.423690	0.755710
N21	N2	0.923690	0.203430	0.117170
N31	N3	0.255710	0.117170	0.203430
N41	N4	0.617170	0.755710	0.423690
N51	N5	0.703430	0.755710	0.117170
N61	N6	0.923690	0.117170	0.755710
N71	N7	0.255710	0.203430	0.423690
N81	N8	0.617170	0.423690	0.203430
N91	N9	0.703430	0.117170	0.423690
N101	N10	0.923690	0.755710	0.203430
N111	N11	0.255710	0.423690	0.117170
N121	N12	0.617170	0.203430	0.755710
N131	N13	0.576310	0.296570	0.744290
N141	N14	0.796570	0.076310	0.382830
N151	N15	0.882830	0.744290	0.296570
N161	N16	0.244290	0.382830	0.076310
N171	N17	0.244290	0.296570	0.382830
N181	N18	0.882830	0.076310	0.744290
N191	N19	0.796570	0.744290	0.076310
N201	N20	0.576310	0.382830	0.296570
N211	N21	0.882830	0.296570	0.076310
N221	N22	0.244290	0.076310	0.296570
N231	N23	0.576310	0.744290	0.382830
N241	N24	0.796570	0.382830	0.744290
N251	N25	0.296570	0.576310	0.244290
N261	N26	0.076310	0.796570	0.882830
N271	N27	0.744290	0.882830	0.796570
N281	N28	0.382830	0.244290	0.576310
N291	N29	0.296570	0.244290	0.882830
N301	N30	0.076310	0.882830	0.244290
N311	N31	0.744290	0.796570	0.576310
N321	N32	0.382830	0.576310	0.796570
N331	N33	0.296570	0.882830	0.576310
N341	N34	0.076310	0.244290	0.796570
N351	N35	0.744290	0.576310	0.882830
N361	N36	0.382830	0.796570	0.244290
N371	N37	0.423690	0.703430	0.255710
N381	N38	0.203430	0.923690	0.617170
N391	N39	0.117170	0.255710	0.703430
N401	N40	0.755710	0.617170	0.923690
N411	N41	0.755710	0.703430	0.617170
N421	N42	0.117170	0.923690	0.255710
N431	N43	0.203430	0.255710	0.923690
N441	N44	0.423690	0.617170	0.703430
N451	N45	0.117170	0.703430	0.923690
N461	N46	0.755710	0.923690	0.703430
N471	N47	0.423690	0.255710	0.617170
N481	N48	0.203430	0.617170	0.255710
N491	N49	0.750000	0.522400	0.750000
N501	N50	0.022400	0.250000	0.977600
N511	N51	0.250000	0.977600	0.250000
N521	N52	0.477600	0.750000	0.522400
N531	N53	0.750000	0.750000	0.977600
N541	N54	0.022400	0.977600	0.750000
N551	N55	0.250000	0.250000	0.522400
N561	N56	0.477600	0.522400	0.250000
N571	N57	0.750000	0.977600	0.522400
N581	N58	0.022400	0.750000	0.250000
N591	N59	0.250000	0.522400	0.977600
N601	N60	0.477600	0.250000	0.750000
N611	N61	0.250000	0.477600	0.250000
N621	N62	0.977600	0.750000	0.022400
N631	N63	0.750000	0.022400	0.750000
N641	N64	0.522400	0.250000	0.477600
N651	N65	0.250000	0.250000	0.022400
N661	N66	0.977600	0.022400	0.250000
N671	N67	0.750000	0.750000	0.477600
N681	N68	0.522400	0.477600	0.750000
N691	N69	0.250000	0.022400	0.477600
N701	N70	0.977600	0.250000	0.750000
N711	N71	0.750000	0.477600	0.022400
N721	N72	0.522400	0.750000	0.250000
O11	O1	0.750000	0.250000	0.750000
O21	O2	0.750000	0.250000	0.250000
O31	O3	0.250000	0.250000	0.250000
O41	O4	0.750000	0.750000	0.250000
O51	O5	0.250000	0.750000	0.250000
O61	O6	0.250000	0.750000	0.750000
O71	O7	0.750000	0.750000	0.750000
O81	O8	0.250000	0.250000	0.750000
