data_DEKHEH_freeONLY_PM
_symmetry_space_group_name_H-M	'P1'
_cell_length_a	9.317000
_cell_length_b	11.742000
_cell_length_c	13.251000
_cell_angle_alpha	90.000000
_cell_angle_beta	90.195000
_cell_angle_gamma	90.000000
_symmetry_Int_Tables_number 1

loop_
_symmetry_equiv_pos_as_xyz
'x,y,z'

loop_
_atom_site_label
_atom_site_type_symbol
_atom_site_fract_x
_atom_site_fract_y
_atom_site_fract_z
Mn11	Mn1	0.250000	0.055130	0.000000
Mn21	Mn2	0.750000	0.944870	0.000000
H11	H1	0.569800	0.793400	0.738700
H21	H2	0.473900	0.707200	0.595700
H31	H3	0.161500	0.941700	0.589500
H41	H4	0.258300	0.027600	0.731700
H51	H5	0.352900	0.835900	0.127500
H61	H6	0.357900	0.642200	0.131200
H71	H7	0.426500	0.466000	0.086200
H81	H8	0.423800	0.272400	0.080600
H91	H9	0.930200	0.793400	0.261300
H101	H10	0.026100	0.707200	0.404300
H111	H11	0.338500	0.941700	0.410500
H121	H12	0.241700	0.027600	0.268300
H131	H13	0.147100	0.835900	0.872500
H141	H14	0.142100	0.642200	0.868800
H151	H15	0.073500	0.466000	0.913800
H161	H16	0.076200	0.272400	0.919400
H171	H17	0.430200	0.206600	0.261300
H181	H18	0.526100	0.292800	0.404300
H191	H19	0.838500	0.058300	0.410500
H201	H20	0.741700	0.972400	0.268300
H211	H21	0.647100	0.164100	0.872500
H221	H22	0.642100	0.357800	0.868800
H231	H23	0.573500	0.534000	0.913800
H241	H24	0.576200	0.727600	0.919400
H251	H25	0.069800	0.206600	0.738700
H261	H26	0.973900	0.292800	0.595700
H271	H27	0.661500	0.058300	0.589500
H281	H28	0.758300	0.972400	0.731700
H291	H29	0.852900	0.164100	0.127500
H301	H30	0.857900	0.357800	0.131200
H311	H31	0.926500	0.534000	0.086200
H321	H32	0.923800	0.727600	0.080600
C11	C1	0.480800	0.971800	0.845600
C21	C2	0.423800	0.918500	0.750600
C31	C3	0.487500	0.823300	0.709000
C41	C4	0.430600	0.771300	0.623500
C51	C5	0.308300	0.817200	0.580800
C61	C6	0.243500	0.911900	0.619700
C71	C7	0.301600	0.963000	0.704900
C81	C8	0.310400	0.796200	0.074500
C91	C9	0.313500	0.679400	0.077500
C101	C10	0.354400	0.428700	0.050400
C111	C11	0.351200	0.312000	0.047500
C121	C12	0.019200	0.971800	0.154400
C131	C13	0.076200	0.918500	0.249400
C141	C14	0.012500	0.823300	0.291000
C151	C15	0.069400	0.771300	0.376500
C161	C16	0.191700	0.817200	0.419200
C171	C17	0.256500	0.911900	0.380300
C181	C18	0.198400	0.963000	0.295100
C191	C19	0.189600	0.796200	0.925500
C201	C20	0.186500	0.679400	0.922500
C211	C21	0.145600	0.428700	0.949600
C221	C22	0.148800	0.312000	0.952500
C231	C23	0.519200	0.028200	0.154400
C241	C24	0.576200	0.081500	0.249400
C251	C25	0.512500	0.176700	0.291000
C261	C26	0.569400	0.228700	0.376500
C271	C27	0.691700	0.182800	0.419200
C281	C28	0.756500	0.088100	0.380300
C291	C29	0.698400	0.037000	0.295100
C301	C30	0.689600	0.203800	0.925500
C311	C31	0.686500	0.320600	0.922500
C321	C32	0.645600	0.571300	0.949600
C331	C33	0.648800	0.688000	0.952500
C341	C34	0.980800	0.028200	0.845600
C351	C35	0.923800	0.081500	0.750600
C361	C36	0.987500	0.176700	0.709000
C371	C37	0.930600	0.228700	0.623500
C381	C38	0.808300	0.182800	0.580800
C391	C39	0.743500	0.088100	0.619700
C401	C40	0.801600	0.037000	0.704900
C411	C41	0.810400	0.203800	0.074500
C421	C42	0.813500	0.320600	0.077500
C431	C43	0.854400	0.571300	0.050400
C441	C44	0.851200	0.688000	0.047500
C451	C45	0.250000	0.616700	0.000000
C461	C46	0.250000	0.491400	0.000000
C471	C47	0.750000	0.383300	0.000000
C481	C48	0.750000	0.508600	0.000000
N11	N1	0.250000	0.856400	0.000000
N21	N2	0.250000	0.252000	0.000000
N31	N3	0.750000	0.143600	0.000000
N41	N4	0.750000	0.748000	0.000000
O11	O1	0.412600	0.052180	0.884030
O21	O2	0.596600	0.930810	0.879420
O31	O3	0.087400	0.052180	0.115970
O41	O4	0.903400	0.930810	0.120580
O51	O5	0.587400	0.947820	0.115970
O61	O6	0.403400	0.069190	0.120580
O71	O7	0.912600	0.947820	0.884030
O81	O8	0.096600	0.069190	0.879420
O91	O9	0.250000	0.756700	0.500000
O101	O10	0.750000	0.243300	0.500000
