data_DEYLUQ_freeONLY_PM
_symmetry_space_group_name_H-M	'P1'
_cell_length_a	13.570300
_cell_length_b	14.408000
_cell_length_c	19.487900
_cell_angle_alpha	93.937000
_cell_angle_beta	109.856000
_cell_angle_gamma	93.505000
_symmetry_Int_Tables_number 1

loop_
_symmetry_equiv_pos_as_xyz
'x,y,z'

loop_
_atom_site_label
_atom_site_type_symbol
_atom_site_fract_x
_atom_site_fract_y
_atom_site_fract_z
Cd11	Cd1	0.942100	0.454710	0.201410
Cd21	Cd2	0.471660	0.885080	0.591580
Cd31	Cd3	0.057900	0.545290	0.798590
Cd41	Cd4	0.528340	0.114920	0.408420
H11	H1	0.172100	0.434100	0.169400
H21	H2	0.894900	0.402800	0.014500
H31	H3	0.017200	0.332000	0.960800
H41	H4	0.202000	0.350400	0.954100
H51	H5	0.468100	0.226700	0.056300
H61	H6	0.283000	0.308400	0.170000
H71	H7	0.367300	0.175600	0.243500
H81	H8	0.610200	0.260000	0.183800
H91	H9	0.677600	0.198200	0.304800
H101	H10	0.225800	0.311300	0.849600
H111	H11	0.476400	0.220200	0.821100
H121	H12	0.507800	0.231700	0.950700
H131	H13	0.091300	0.447800	0.380400
H141	H14	0.124300	0.269800	0.227800
H151	H15	0.247000	0.234500	0.348200
H161	H16	0.266500	0.600900	0.609900
H171	H17	0.183200	0.669900	0.691900
H181	H18	0.156700	0.396900	0.702800
H191	H19	0.203600	0.469100	0.502300
H201	H20	0.265200	0.199700	0.467200
H211	H21	0.303400	0.310400	0.673500
H221	H22	0.389700	0.095700	0.531600
H231	H23	0.281300	0.144300	0.694000
H241	H24	0.351300	0.991600	0.704900
H251	H25	0.827900	0.565900	0.830600
H261	H26	0.105100	0.597200	0.985500
H271	H27	0.982800	0.668000	0.039200
H281	H28	0.798000	0.649600	0.045900
H291	H29	0.531900	0.773300	0.943700
H301	H30	0.717000	0.691600	0.830000
H311	H31	0.632700	0.824400	0.756500
H321	H32	0.389800	0.740000	0.816200
H331	H33	0.322400	0.801800	0.695200
H341	H34	0.774200	0.688700	0.150400
H351	H35	0.523600	0.779800	0.178900
H361	H36	0.492200	0.768300	0.049300
H371	H37	0.908700	0.552200	0.619600
H381	H38	0.875700	0.730200	0.772200
H391	H39	0.753000	0.765500	0.651800
H401	H40	0.733500	0.399100	0.390100
H411	H41	0.816800	0.330100	0.308100
H421	H42	0.843300	0.603100	0.297200
H431	H43	0.796400	0.530900	0.497700
H441	H44	0.734800	0.800300	0.532800
H451	H45	0.696600	0.689600	0.326500
H461	H46	0.610300	0.904300	0.468400
H471	H47	0.718700	0.855700	0.306000
H481	H48	0.648700	0.008400	0.295100
C11	C1	0.118100	0.417100	0.125000
C21	C2	0.966300	0.399400	0.039500
C31	C3	0.033500	0.360100	0.008300
C41	C4	0.226000	0.332600	0.062500
C51	C5	0.246800	0.327100	0.995600
C61	C6	0.338000	0.284900	0.994100
C71	C7	0.408100	0.253400	0.057800
C81	C8	0.387400	0.262200	0.123200
C91	C9	0.296200	0.302300	0.126200
C101	C10	0.435500	0.188400	0.243900
C111	C11	0.569900	0.236600	0.210000
C121	C12	0.606900	0.200600	0.277200
C131	C13	0.291400	0.289200	0.857700
C141	C14	0.429000	0.240200	0.842700
C151	C15	0.446600	0.245300	0.914600
C161	C16	0.114900	0.400100	0.357100
C171	C17	0.133600	0.301800	0.273000
C181	C18	0.201300	0.281400	0.340500
C191	C19	0.234800	0.569200	0.638100
C201	C20	0.188400	0.606300	0.683700
C211	C21	0.173200	0.455500	0.690300
C221	C22	0.246800	0.399000	0.596300
C231	C23	0.222600	0.412100	0.520000
C241	C24	0.228700	0.336200	0.473700
C251	C25	0.262100	0.249600	0.499100
C261	C26	0.290600	0.242500	0.575900
C271	C27	0.283500	0.316400	0.623500
C281	C28	0.371600	0.088400	0.573000
C291	C29	0.311500	0.116200	0.662600
C301	C30	0.350200	0.030900	0.668800
C311	C31	0.464900	0.693400	0.541000
C321	C32	0.482700	0.593700	0.519900
C331	C33	0.518000	0.529700	0.573700
C341	C34	0.534400	0.436600	0.554000
C351	C35	0.698300	0.419200	0.085300
C361	C36	0.595500	0.462800	0.040600
C371	C37	0.527800	0.493000	0.075300
C381	C38	0.433200	0.530800	0.035200
C391	C39	0.020900	0.666900	0.234600
C401	C40	0.096200	0.753500	0.268500
C411	C41	0.185000	0.769600	0.248900
C421	C42	0.272800	0.838200	0.297900
C431	C43	0.268400	0.888200	0.357000
C441	C44	0.168500	0.876600	0.373100
C451	C45	0.077700	0.818700	0.319500
C461	C46	0.359100	0.956200	0.408600
C471	C47	0.881900	0.582900	0.875000
C481	C48	0.033700	0.600600	0.960500
C491	C49	0.966500	0.639900	0.991700
C501	C50	0.774000	0.667400	0.937500
C511	C51	0.753200	0.672900	0.004400
C521	C52	0.662000	0.715100	0.005900
C531	C53	0.591900	0.746600	0.942200
C541	C54	0.612600	0.737800	0.876800
C551	C55	0.703800	0.697700	0.873800
C561	C56	0.564500	0.811600	0.756100
C571	C57	0.430100	0.763400	0.790000
C581	C58	0.393100	0.799400	0.722800
C591	C59	0.708600	0.710800	0.142300
C601	C60	0.571000	0.759800	0.157300
C611	C61	0.553400	0.754700	0.085400
C621	C62	0.885100	0.599900	0.642900
C631	C63	0.866400	0.698200	0.727000
C641	C64	0.798700	0.718600	0.659500
C651	C65	0.765200	0.430800	0.361900
C661	C66	0.811600	0.393700	0.316300
C671	C67	0.826800	0.544500	0.309700
C681	C68	0.753200	0.601000	0.403700
C691	C69	0.777400	0.587900	0.480000
C701	C70	0.771300	0.663800	0.526300
C711	C71	0.737900	0.750400	0.500900
C721	C72	0.709400	0.757500	0.424100
C731	C73	0.716500	0.683600	0.376500
C741	C74	0.628400	0.911600	0.427000
C751	C75	0.688500	0.883800	0.337400
C761	C76	0.649800	0.969100	0.331200
C771	C77	0.535100	0.306600	0.459000
C781	C78	0.517300	0.406300	0.480100
C791	C79	0.482000	0.470300	0.426300
C801	C80	0.465600	0.563400	0.446000
C811	C81	0.301700	0.580800	0.914700
C821	C82	0.404500	0.537200	0.959400
C831	C83	0.472200	0.507000	0.924700
C841	C84	0.566800	0.469200	0.964800
C851	C85	0.979100	0.333100	0.765400
C861	C86	0.903800	0.246500	0.731500
C871	C87	0.815000	0.230400	0.751100
C881	C88	0.727200	0.161800	0.702100
C891	C89	0.731600	0.111800	0.643000
C901	C90	0.831500	0.123400	0.626900
C911	C91	0.922300	0.181300	0.680500
C921	C92	0.640900	0.043800	0.591400
Br11	Br1	0.537430	0.570270	0.673780
Br21	Br2	0.578410	0.349800	0.626420
Br31	Br3	0.564720	0.485020	0.179800
Br41	Br4	0.340890	0.576270	0.084010
Br51	Br5	0.955190	0.798500	0.345250
Br61	Br6	0.156200	0.958800	0.451300
Br71	Br7	0.207940	0.683070	0.179680
Br81	Br8	0.396400	0.859600	0.270710
Br91	Br9	0.462570	0.429730	0.326220
Br101	Br10	0.421590	0.650200	0.373580
Br111	Br11	0.435280	0.514980	0.820200
Br121	Br12	0.659110	0.423730	0.915990
Br131	Br13	0.044810	0.201500	0.654750
Br141	Br14	0.843800	0.041200	0.548700
Br151	Br15	0.792060	0.316930	0.820320
Br161	Br16	0.603600	0.140400	0.729290
N11	N1	0.017200	0.433000	0.111900
N21	N2	0.131700	0.372200	0.064400
N31	N3	0.358400	0.274200	0.925700
N41	N4	0.330000	0.268800	0.803900
N51	N5	0.460400	0.230900	0.189000
N61	N6	0.522500	0.168200	0.297600
N71	N7	0.081100	0.380000	0.285000
N81	N8	0.189200	0.342300	0.393800
N91	N9	0.224600	0.471700	0.642500
N101	N10	0.149400	0.537500	0.717000
N111	N11	0.323700	0.154400	0.603200
N121	N12	0.388500	0.013100	0.610500
N131	N13	0.982800	0.567000	0.888100
N141	N14	0.868300	0.627800	0.935600
N151	N15	0.641600	0.725800	0.074300
N161	N16	0.670000	0.731200	0.196100
N171	N17	0.539600	0.769100	0.811000
N181	N18	0.477500	0.831800	0.702400
N191	N19	0.918900	0.620000	0.715000
N201	N20	0.810800	0.657700	0.606200
N211	N21	0.775400	0.528300	0.357500
N221	N22	0.850600	0.462500	0.283000
N231	N23	0.676300	0.845600	0.396800
N241	N24	0.611500	0.986900	0.389500
O11	O1	0.781000	0.472600	0.107900
O21	O2	0.687400	0.332100	0.089800
O31	O3	0.040100	0.595900	0.270300
O41	O4	0.950700	0.672000	0.172100
O51	O5	0.543700	0.753600	0.560700
O61	O6	0.373700	0.710900	0.538800
O71	O7	0.367300	0.033700	0.386900
O81	O8	0.407800	0.915800	0.466100
O91	O9	0.219000	0.527400	0.892100
O101	O10	0.312600	0.667900	0.910200
O111	O11	0.959900	0.404100	0.729700
O121	O12	0.049300	0.328000	0.827900
O131	O13	0.456300	0.246400	0.439300
O141	O14	0.626300	0.289100	0.461200
O151	O15	0.632700	0.966300	0.613100
O161	O16	0.592200	0.084200	0.533900
