data_DEYNIG_freeONLY_PM
_symmetry_space_group_name_H-M	'P1'
_cell_length_a	7.666400
_cell_length_b	15.481000
_cell_length_c	31.951000
_cell_angle_alpha	90.000000
_cell_angle_beta	90.000000
_cell_angle_gamma	90.000000
_symmetry_Int_Tables_number 1

loop_
_symmetry_equiv_pos_as_xyz
'x,y,z'

loop_
_atom_site_label
_atom_site_type_symbol
_atom_site_fract_x
_atom_site_fract_y
_atom_site_fract_z
Cu11	Cu1	0.914400	0.674280	0.561740
Cu21	Cu2	0.078100	0.530520	0.534110
Cu31	Cu3	0.749100	0.626320	0.770890
Cu41	Cu4	0.585600	0.174280	0.938260
Cu51	Cu5	0.421900	0.030520	0.965890
Cu61	Cu6	0.750900	0.126320	0.729110
Cu71	Cu7	0.085600	0.825720	0.561740
Cu81	Cu8	0.921900	0.969480	0.534110
Cu91	Cu9	0.250900	0.873680	0.770890
Cu101	Cu10	0.414400	0.325720	0.938260
Cu111	Cu11	0.578100	0.469480	0.965890
Cu121	Cu12	0.249100	0.373680	0.729110
Cu131	Cu13	0.085600	0.325720	0.438260
Cu141	Cu14	0.921900	0.469480	0.465890
Cu151	Cu15	0.250900	0.373680	0.229110
Cu161	Cu16	0.414400	0.825720	0.061740
Cu171	Cu17	0.578100	0.969480	0.034110
Cu181	Cu18	0.249100	0.873680	0.270890
Cu191	Cu19	0.914400	0.174280	0.438260
Cu201	Cu20	0.078100	0.030520	0.465890
Cu211	Cu21	0.749100	0.126320	0.229110
Cu221	Cu22	0.585600	0.674280	0.061740
Cu231	Cu23	0.421900	0.530520	0.034110
Cu241	Cu24	0.750900	0.626320	0.270890
H11	H1	0.417100	0.606200	0.829200
H21	H2	0.373700	0.554800	0.895700
H31	H3	0.728900	0.822000	0.781300
H41	H4	0.851000	0.762800	0.794100
H51	H5	0.615700	0.655400	0.625300
H61	H6	0.119900	0.641200	0.641200
H71	H7	0.084700	0.626900	0.711000
H81	H8	0.875000	0.511300	0.905800
H91	H9	0.082900	0.106200	0.670800
H101	H10	0.126300	0.054800	0.604300
H111	H11	0.771100	0.322000	0.718700
H121	H12	0.649000	0.262800	0.705900
H131	H13	0.884300	0.155400	0.874700
H141	H14	0.380100	0.141200	0.858800
H151	H15	0.415300	0.126900	0.789000
H161	H16	0.625000	0.011300	0.594200
H171	H17	0.582900	0.893800	0.829200
H181	H18	0.626300	0.945200	0.895700
H191	H19	0.271100	0.678000	0.781300
H201	H20	0.149000	0.737200	0.794100
H211	H21	0.384300	0.844600	0.625300
H221	H22	0.880100	0.858800	0.641200
H231	H23	0.915300	0.873100	0.711000
H241	H24	0.125000	0.988700	0.905800
H251	H25	0.917100	0.393800	0.670800
H261	H26	0.873700	0.445200	0.604300
H271	H27	0.228900	0.178000	0.718700
H281	H28	0.351000	0.237200	0.705900
H291	H29	0.115700	0.344600	0.874700
H301	H30	0.619900	0.358800	0.858800
H311	H31	0.584700	0.373100	0.789000
H321	H32	0.375000	0.488700	0.594200
H331	H33	0.582900	0.393800	0.170800
H341	H34	0.626300	0.445200	0.104300
H351	H35	0.271100	0.178000	0.218700
H361	H36	0.149000	0.237200	0.205900
H371	H37	0.384300	0.344600	0.374700
H381	H38	0.880100	0.358800	0.358800
H391	H39	0.915300	0.373100	0.289000
H401	H40	0.125000	0.488700	0.094200
H411	H41	0.917100	0.893800	0.329200
H421	H42	0.873700	0.945200	0.395700
H431	H43	0.228900	0.678000	0.281300
H441	H44	0.351000	0.737200	0.294100
H451	H45	0.115700	0.844600	0.125300
H461	H46	0.619900	0.858800	0.141200
H471	H47	0.584700	0.873100	0.211000
H481	H48	0.375000	0.988700	0.405800
H491	H49	0.417100	0.106200	0.170800
H501	H50	0.373700	0.054800	0.104300
H511	H51	0.728900	0.322000	0.218700
H521	H52	0.851000	0.262800	0.205900
H531	H53	0.615700	0.155400	0.374700
H541	H54	0.119900	0.141200	0.358800
H551	H55	0.084700	0.126900	0.289000
H561	H56	0.875000	0.011300	0.094200
H571	H57	0.082900	0.606200	0.329200
H581	H58	0.126300	0.554800	0.395700
H591	H59	0.771100	0.822000	0.281300
H601	H60	0.649000	0.762800	0.294100
H611	H61	0.884300	0.655400	0.125300
H621	H62	0.380100	0.641200	0.141200
H631	H63	0.415300	0.626900	0.211000
H641	H64	0.625000	0.511300	0.405800
C11	C1	0.512000	0.586800	0.844700
C21	C2	0.515000	0.640200	0.705700
C31	C3	0.979000	0.568900	0.829700
C41	C4	0.486000	0.557200	0.884800
C51	C5	0.689300	0.640500	0.685300
C61	C6	0.713000	0.650500	0.642600
C71	C7	0.007000	0.642400	0.652100
C81	C8	0.987000	0.633000	0.693900
C91	C9	0.780100	0.533000	0.891100
C101	C10	0.804300	0.565400	0.851900
C111	C11	0.988000	0.086800	0.655300
C121	C12	0.985000	0.140200	0.794300
C131	C13	0.521000	0.068900	0.670300
C141	C14	0.014000	0.057200	0.615200
C151	C15	0.810700	0.140500	0.814700
C161	C16	0.787000	0.150500	0.857400
C171	C17	0.493000	0.142400	0.847900
C181	C18	0.513000	0.133000	0.806100
C191	C19	0.719900	0.033000	0.608900
C201	C20	0.695700	0.065400	0.648100
C211	C21	0.488000	0.913200	0.844700
C221	C22	0.485000	0.859800	0.705700
C231	C23	0.021000	0.931100	0.829700
C241	C24	0.514000	0.942800	0.884800
C251	C25	0.310700	0.859500	0.685300
C261	C26	0.287000	0.849500	0.642600
C271	C27	0.993000	0.857600	0.652100
C281	C28	0.013000	0.867000	0.693900
C291	C29	0.219900	0.967000	0.891100
C301	C30	0.195700	0.934600	0.851900
C311	C31	0.012000	0.413200	0.655300
C321	C32	0.015000	0.359800	0.794300
C331	C33	0.479000	0.431100	0.670300
C341	C34	0.986000	0.442800	0.615200
C351	C35	0.189300	0.359500	0.814700
C361	C36	0.213000	0.349500	0.857400
C371	C37	0.507000	0.357600	0.847900
C381	C38	0.487000	0.367000	0.806100
C391	C39	0.280100	0.467000	0.608900
C401	C40	0.304300	0.434600	0.648100
C411	C41	0.488000	0.413200	0.155300
C421	C42	0.485000	0.359800	0.294300
C431	C43	0.021000	0.431100	0.170300
C441	C44	0.514000	0.442800	0.115200
C451	C45	0.310700	0.359500	0.314700
C461	C46	0.287000	0.349500	0.357400
C471	C47	0.993000	0.357600	0.347900
C481	C48	0.013000	0.367000	0.306100
C491	C49	0.219900	0.467000	0.108900
C501	C50	0.195700	0.434600	0.148100
C511	C51	0.012000	0.913200	0.344700
C521	C52	0.015000	0.859800	0.205700
C531	C53	0.479000	0.931100	0.329700
C541	C54	0.986000	0.942800	0.384800
C551	C55	0.189300	0.859500	0.185300
C561	C56	0.213000	0.849500	0.142600
C571	C57	0.507000	0.857600	0.152100
C581	C58	0.487000	0.867000	0.193900
C591	C59	0.280100	0.967000	0.391100
C601	C60	0.304300	0.934600	0.351900
C611	C61	0.512000	0.086800	0.155300
C621	C62	0.515000	0.140200	0.294300
C631	C63	0.979000	0.068900	0.170300
C641	C64	0.486000	0.057200	0.115200
C651	C65	0.689300	0.140500	0.314700
C661	C66	0.713000	0.150500	0.357400
C671	C67	0.007000	0.142400	0.347900
C681	C68	0.987000	0.133000	0.306100
C691	C69	0.780100	0.033000	0.108900
C701	C70	0.804300	0.065400	0.148100
C711	C71	0.988000	0.586800	0.344700
C721	C72	0.985000	0.640200	0.205700
C731	C73	0.521000	0.568900	0.329700
C741	C74	0.014000	0.557200	0.384800
C751	C75	0.810700	0.640500	0.185300
C761	C76	0.787000	0.650500	0.142600
C771	C77	0.493000	0.642400	0.152100
C781	C78	0.513000	0.633000	0.193900
C791	C79	0.719900	0.533000	0.391100
C801	C80	0.695700	0.565400	0.351900
I11	I1	0.737810	0.550350	0.523290
I21	I2	0.744380	0.820960	0.547770
I31	I3	0.762190	0.050350	0.976710
I41	I4	0.755620	0.320960	0.952230
I51	I5	0.262190	0.949650	0.523290
I61	I6	0.255620	0.679040	0.547770
I71	I7	0.237810	0.449650	0.976710
I81	I8	0.244380	0.179040	0.952230
I91	I9	0.262190	0.449650	0.476710
I101	I10	0.255620	0.179040	0.452230
I111	I11	0.237810	0.949650	0.023290
I121	I12	0.244380	0.679040	0.047770
I131	I13	0.737810	0.050350	0.476710
I141	I14	0.744380	0.320960	0.452230
I151	I15	0.762190	0.550350	0.023290
I161	I16	0.755620	0.820960	0.047770
N11	N1	0.670500	0.588200	0.827600
N21	N2	0.828200	0.632500	0.711000
N31	N3	0.621500	0.531900	0.908600
N41	N4	0.873300	0.653400	0.625600
N51	N5	0.829500	0.088200	0.672400
N61	N6	0.671800	0.132500	0.789000
N71	N7	0.878500	0.031900	0.591400
N81	N8	0.626700	0.153400	0.874400
N91	N9	0.329500	0.911800	0.827600
N101	N10	0.171800	0.867500	0.711000
N111	N11	0.378500	0.968100	0.908600
N121	N12	0.126700	0.846600	0.625600
N131	N13	0.170500	0.411800	0.672400
N141	N14	0.328200	0.367500	0.789000
N151	N15	0.121500	0.468100	0.591400
N161	N16	0.373300	0.346600	0.874400
N171	N17	0.329500	0.411800	0.172400
N181	N18	0.171800	0.367500	0.289000
N191	N19	0.378500	0.468100	0.091400
N201	N20	0.126700	0.346600	0.374400
N211	N21	0.170500	0.911800	0.327600
N221	N22	0.328200	0.867500	0.211000
N231	N23	0.121500	0.968100	0.408600
N241	N24	0.373300	0.846600	0.125600
N251	N25	0.670500	0.088200	0.172400
N261	N26	0.828200	0.132500	0.289000
N271	N27	0.621500	0.031900	0.091400
N281	N28	0.873300	0.153400	0.374400
N291	N29	0.829500	0.588200	0.327600
N301	N30	0.671800	0.632500	0.211000
N311	N31	0.878500	0.531900	0.408600
N321	N32	0.626700	0.653400	0.125600
O11	O1	0.977700	0.601200	0.793000
O21	O2	0.516000	0.633700	0.745900
O31	O3	0.111000	0.546200	0.848900
O41	O4	0.381500	0.646400	0.684400
O51	O5	0.754300	0.768600	0.781200
O61	O6	0.522300	0.101200	0.707000
O71	O7	0.984000	0.133700	0.754100
O81	O8	0.389000	0.046200	0.651100
O91	O9	0.118500	0.146400	0.815600
O101	O10	0.745700	0.268600	0.718800
O111	O11	0.022300	0.898800	0.793000
O121	O12	0.484000	0.866300	0.745900
O131	O13	0.889000	0.953800	0.848900
O141	O14	0.618500	0.853600	0.684400
O151	O15	0.245700	0.731400	0.781200
O161	O16	0.477700	0.398800	0.707000
O171	O17	0.016000	0.366300	0.754100
O181	O18	0.611000	0.453800	0.651100
O191	O19	0.881500	0.353600	0.815600
O201	O20	0.254300	0.231400	0.718800
O211	O21	0.022300	0.398800	0.207000
O221	O22	0.484000	0.366300	0.254100
O231	O23	0.889000	0.453800	0.151100
O241	O24	0.618500	0.353600	0.315600
O251	O25	0.245700	0.231400	0.218800
O261	O26	0.477700	0.898800	0.293000
O271	O27	0.016000	0.866300	0.245900
O281	O28	0.611000	0.953800	0.348900
O291	O29	0.881500	0.853600	0.184400
O301	O30	0.254300	0.731400	0.281200
O311	O31	0.977700	0.101200	0.207000
O321	O32	0.516000	0.133700	0.254100
O331	O33	0.111000	0.046200	0.151100
O341	O34	0.381500	0.146400	0.315600
O351	O35	0.754300	0.268600	0.218800
O361	O36	0.522300	0.601200	0.293000
O371	O37	0.984000	0.633700	0.245900
O381	O38	0.389000	0.546200	0.348900
O391	O39	0.118500	0.646400	0.184400
O401	O40	0.745700	0.768600	0.281200
