data_DEZKAW_freeONLY_PM
_symmetry_space_group_name_H-M	'P1'
_cell_length_a	17.145400
_cell_length_b	17.145400
_cell_length_c	17.145400
_cell_angle_alpha	108.651000
_cell_angle_beta	109.883000
_cell_angle_gamma	109.883000
_symmetry_Int_Tables_number 1

loop_
_symmetry_equiv_pos_as_xyz
'x,y,z'

loop_
_atom_site_label
_atom_site_type_symbol
_atom_site_fract_x
_atom_site_fract_y
_atom_site_fract_z
Mn11	Mn1	0.877100	0.006460	0.919280
Mn21	Mn2	0.622900	0.542180	0.129360
Mn31	Mn3	0.912820	0.919280	0.542180
Mn41	Mn4	0.587180	0.129360	0.006460
Mn51	Mn5	0.122900	0.993540	0.080720
Mn61	Mn6	0.377100	0.457820	0.870640
Mn71	Mn7	0.087180	0.080720	0.457820
Mn81	Mn8	0.412820	0.870640	0.993540
H11	H1	0.544900	0.789100	0.921200
H21	H2	0.934100	0.339900	0.978600
H31	H3	0.080300	0.402900	0.986200
H41	H4	0.159700	0.317500	0.981000
H51	H5	0.085000	0.166200	0.957800
H61	H6	0.732000	0.877000	0.891000
H71	H7	0.741000	0.824400	0.817400
H81	H8	0.955100	0.876300	0.244200
H91	H9	0.565900	0.544500	0.405800
H101	H10	0.419700	0.405900	0.322600
H111	H11	0.340300	0.321300	0.157800
H121	H12	0.415000	0.372800	0.081200
H131	H13	0.768000	0.659000	0.145000
H141	H14	0.759000	0.576400	0.083400
H151	H15	0.132100	0.921200	0.876300
H161	H16	0.638700	0.978600	0.544500
H171	H17	0.583300	0.986200	0.405900
H181	H18	0.663500	0.981000	0.321300
H191	H19	0.791600	0.957800	0.372800
H201	H20	0.014000	0.891000	0.659000
H211	H21	0.993000	0.817400	0.576400
H221	H22	0.367900	0.244200	0.789100
H231	H23	0.861300	0.405800	0.339900
H241	H24	0.916700	0.322600	0.402900
H251	H25	0.836500	0.157800	0.317500
H261	H26	0.708400	0.081200	0.166200
H271	H27	0.486000	0.145000	0.877000
H281	H28	0.507000	0.083400	0.824400
H291	H29	0.455100	0.210900	0.078800
H301	H30	0.065900	0.660100	0.021400
H311	H31	0.919700	0.597100	0.013800
H321	H32	0.840300	0.682500	0.019000
H331	H33	0.915000	0.833800	0.042200
H341	H34	0.268000	0.123000	0.109000
H351	H35	0.259000	0.175600	0.182600
H361	H36	0.044900	0.123700	0.755800
H371	H37	0.434100	0.455500	0.594200
H381	H38	0.580300	0.594100	0.677400
H391	H39	0.659700	0.678700	0.842200
H401	H40	0.585000	0.627200	0.918800
H411	H41	0.232000	0.341000	0.855000
H421	H42	0.241000	0.423600	0.916600
H431	H43	0.867900	0.078800	0.123700
H441	H44	0.361300	0.021400	0.455500
H451	H45	0.416700	0.013800	0.594100
H461	H46	0.336500	0.019000	0.678700
H471	H47	0.208400	0.042200	0.627200
H481	H48	0.986000	0.109000	0.341000
H491	H49	0.007000	0.182600	0.423600
H501	H50	0.632100	0.755800	0.210900
H511	H51	0.138700	0.594200	0.660100
H521	H52	0.083300	0.677400	0.597100
H531	H53	0.163500	0.842200	0.682500
H541	H54	0.291600	0.918800	0.833800
H551	H55	0.514000	0.855000	0.123000
H561	H56	0.493000	0.916600	0.175600
C11	C1	0.567200	0.851200	0.931800
C21	C2	0.646490	0.981710	0.944260
C31	C3	0.715720	0.064600	0.950360
C41	C4	0.833640	0.168540	0.960500
C51	C5	0.925200	0.214200	0.964000
C61	C6	0.965600	0.305200	0.974800
C71	C7	0.052600	0.342600	0.979800
C81	C8	0.099600	0.291800	0.975400
C91	C9	0.054500	0.201800	0.962500
C101	C10	0.932800	0.864600	0.284000
C111	C11	0.853510	0.797770	0.335220
C121	C12	0.784280	0.734640	0.348880
C131	C13	0.666360	0.626860	0.334900
C141	C14	0.574800	0.538800	0.289000
C151	C15	0.534400	0.509200	0.339600
C161	C16	0.447400	0.427200	0.290000
C171	C17	0.400400	0.375800	0.192200
C181	C18	0.445500	0.408000	0.147300
C191	C19	0.080600	0.931800	0.864600
C201	C20	0.962550	0.944260	0.797770
C211	C21	0.885760	0.950360	0.734640
C221	C22	0.791960	0.960500	0.626860
C231	C23	0.749800	0.964000	0.538800
C241	C24	0.669600	0.974800	0.509200
C251	C25	0.637200	0.979800	0.427200
C261	C26	0.683600	0.975400	0.375800
C271	C27	0.760700	0.962500	0.408000
C281	C28	0.419400	0.284000	0.851200
C291	C29	0.537450	0.335220	0.981710
C301	C30	0.614240	0.348880	0.064600
C311	C31	0.708040	0.334900	0.168540
C321	C32	0.750200	0.289000	0.214200
C331	C33	0.830400	0.339600	0.305200
C341	C34	0.862800	0.290000	0.342600
C351	C35	0.816400	0.192200	0.291800
C361	C36	0.739300	0.147300	0.201800
C371	C37	0.432800	0.148800	0.068200
C381	C38	0.353510	0.018290	0.055740
C391	C39	0.284280	0.935400	0.049640
C401	C40	0.166360	0.831460	0.039500
C411	C41	0.074800	0.785800	0.036000
C421	C42	0.034400	0.694800	0.025200
C431	C43	0.947400	0.657400	0.020200
C441	C44	0.900400	0.708200	0.024600
C451	C45	0.945500	0.798200	0.037500
C461	C46	0.067200	0.135400	0.716000
C471	C47	0.146490	0.202230	0.664780
C481	C48	0.215720	0.265360	0.651120
C491	C49	0.333640	0.373140	0.665100
C501	C50	0.425200	0.461200	0.711000
C511	C51	0.465600	0.490800	0.660400
C521	C52	0.552600	0.572800	0.710000
C531	C53	0.599600	0.624200	0.807800
C541	C54	0.554500	0.592000	0.852700
C551	C55	0.919400	0.068200	0.135400
C561	C56	0.037450	0.055740	0.202230
C571	C57	0.114240	0.049640	0.265360
C581	C58	0.208040	0.039500	0.373140
C591	C59	0.250200	0.036000	0.461200
C601	C60	0.330400	0.025200	0.490800
C611	C61	0.362800	0.020200	0.572800
C621	C62	0.316400	0.024600	0.624200
C631	C63	0.239300	0.037500	0.592000
C641	C64	0.580600	0.716000	0.148800
C651	C65	0.462550	0.664780	0.018290
C661	C66	0.385760	0.651120	0.935400
C671	C67	0.291960	0.665100	0.831460
C681	C68	0.249800	0.711000	0.785800
C691	C69	0.169600	0.660400	0.694800
C701	C70	0.137200	0.710000	0.657400
C711	C71	0.183600	0.807800	0.708200
C721	C72	0.260700	0.852700	0.798200
N11	N1	0.641610	0.896900	0.922290
N21	N2	0.580570	0.988190	0.966020
N31	N3	0.528380	0.902470	0.957630
N41	N4	0.793360	0.076180	0.941500
N51	N5	0.784810	0.210410	0.978380
N61	N6	0.707140	0.141750	0.971050
N71	N7	0.968410	0.162300	0.956190
N81	N8	0.858390	0.780680	0.255290
N91	N9	0.919430	0.885450	0.407620
N101	N10	0.971620	0.929250	0.374090
N111	N11	0.706640	0.648140	0.282820
N121	N12	0.715190	0.693570	0.425600
N131	N13	0.792860	0.763910	0.434610
N141	N14	0.531590	0.487780	0.193890
N151	N15	0.025390	0.922290	0.780680
N161	N16	0.977830	0.966020	0.885450
N171	N17	0.055160	0.957630	0.929250
N181	N18	0.865320	0.941500	0.648140
N191	N19	0.767970	0.978380	0.693570
N201	N20	0.829300	0.971050	0.763910
N211	N21	0.793890	0.956190	0.487780
N221	N22	0.474610	0.255290	0.896900
N231	N23	0.522170	0.407620	0.988190
N241	N24	0.444840	0.374090	0.902470
N251	N25	0.634680	0.282820	0.076180
N261	N26	0.732030	0.425600	0.210410
N271	N27	0.670700	0.434610	0.141750
N281	N28	0.706110	0.193890	0.162300
N291	N29	0.358390	0.103100	0.077710
N301	N30	0.419430	0.011810	0.033980
N311	N31	0.471620	0.097530	0.042370
N321	N32	0.206640	0.923820	0.058500
N331	N33	0.215190	0.789590	0.021620
N341	N34	0.292860	0.858250	0.028950
N351	N35	0.031590	0.837700	0.043810
N361	N36	0.141610	0.219320	0.744710
N371	N37	0.080570	0.114550	0.592380
N381	N38	0.028380	0.070750	0.625910
N391	N39	0.293360	0.351860	0.717180
N401	N40	0.284810	0.306430	0.574400
N411	N41	0.207140	0.236090	0.565390
N421	N42	0.468410	0.512220	0.806110
N431	N43	0.974610	0.077710	0.219320
N441	N44	0.022170	0.033980	0.114550
N451	N45	0.944840	0.042370	0.070750
N461	N46	0.134680	0.058500	0.351860
N471	N47	0.232030	0.021620	0.306430
N481	N48	0.170700	0.028950	0.236090
N491	N49	0.206110	0.043810	0.512220
N501	N50	0.525390	0.744710	0.103100
N511	N51	0.477830	0.592380	0.011810
N521	N52	0.555160	0.625910	0.097530
N531	N53	0.365320	0.717180	0.923820
N541	N54	0.267970	0.574400	0.789590
N551	N55	0.329300	0.565390	0.858250
N561	N56	0.293890	0.806110	0.837700
O11	O1	0.771450	0.864010	0.876960
O21	O2	0.728550	0.605510	0.092560
O31	O3	0.012950	0.876960	0.605510
O41	O4	0.487050	0.092560	0.864010
O51	O5	0.228550	0.135990	0.123040
O61	O6	0.271450	0.394490	0.907440
O71	O7	0.987050	0.123040	0.394490
O81	O8	0.512950	0.907440	0.135990
