data_DIBPIP_freeONLY_PM
_symmetry_space_group_name_H-M	'P1'
_cell_length_a	10.758500
_cell_length_b	15.099700
_cell_length_c	18.136600
_cell_angle_alpha	68.385300
_cell_angle_beta	72.746700
_cell_angle_gamma	69.130000
_symmetry_Int_Tables_number 1

loop_
_symmetry_equiv_pos_as_xyz
'x,y,z'

loop_
_atom_site_label
_atom_site_type_symbol
_atom_site_fract_x
_atom_site_fract_y
_atom_site_fract_z
Ni11	Ni1	0.500000	0.000000	0.500000
Ni21	Ni2	0.000000	0.500000	0.000000
Ni31	Ni3	0.000000	0.000000	0.500000
Ni41	Ni4	0.500000	0.500000	0.000000
H11	H1	0.549200	0.960500	0.639100
H21	H2	0.670000	0.972000	0.584000
H31	H3	0.624500	0.477100	0.335100
H41	H4	0.837100	0.831100	0.363900
H51	H5	0.162900	0.991100	0.218100
H61	H6	0.171300	0.849700	0.195700
H71	H7	0.258600	0.928000	0.389200
H81	H8	0.397900	0.788700	0.355700
H91	H9	0.159700	0.634500	0.526700
H101	H10	0.022800	0.778600	0.553800
H111	H11	0.363000	0.329500	0.550500
H121	H12	0.385600	0.165100	0.577700
H131	H13	0.627200	0.158900	0.371500
H141	H14	0.618500	0.322600	0.340400
H151	H15	0.148800	0.539500	0.860900
H161	H16	0.226000	0.528000	0.916000
H171	H17	0.436700	0.022900	0.164900
H181	H18	0.032100	0.668900	0.136100
H191	H19	0.372100	0.508900	0.281900
H201	H20	0.216700	0.650300	0.304300
H211	H21	0.575800	0.572000	0.110800
H221	H22	0.542300	0.711300	0.144300
H231	H23	0.320900	0.865500	0.973300
H241	H24	0.355200	0.721400	0.946200
H251	H25	0.243000	0.170500	0.949500
H261	H26	0.128400	0.334900	0.922300
H271	H27	0.157600	0.341100	0.128500
H281	H28	0.281500	0.177400	0.159600
H291	H29	0.450800	0.039500	0.360900
H301	H30	0.330000	0.028000	0.416000
H311	H31	0.375500	0.522900	0.664900
H321	H32	0.162900	0.168900	0.636100
H331	H33	0.837100	0.008900	0.781900
H341	H34	0.828700	0.150300	0.804300
H351	H35	0.741400	0.072000	0.610800
H361	H36	0.602100	0.211300	0.644300
H371	H37	0.840300	0.365500	0.473300
H381	H38	0.977200	0.221400	0.446200
H391	H39	0.637000	0.670500	0.449500
H401	H40	0.614400	0.834900	0.422300
H411	H41	0.372800	0.841100	0.628500
H421	H42	0.381500	0.677400	0.659600
H431	H43	0.851200	0.460500	0.139100
H441	H44	0.774000	0.472000	0.084000
H451	H45	0.563300	0.977100	0.835100
H461	H46	0.967900	0.331100	0.863900
H471	H47	0.627900	0.491100	0.718100
H481	H48	0.783300	0.349700	0.695700
H491	H49	0.424200	0.428000	0.889200
H501	H50	0.457700	0.288700	0.855700
H511	H51	0.679100	0.134500	0.026700
H521	H52	0.644800	0.278600	0.053800
H531	H53	0.757000	0.829500	0.050500
H541	H54	0.871600	0.665100	0.077700
H551	H55	0.842400	0.658900	0.871500
H561	H56	0.718500	0.822600	0.840400
C11	C1	0.004100	0.826800	0.275600
C21	C2	0.906000	0.861600	0.336400
C31	C3	0.908780	0.940740	0.356700
C41	C4	0.799330	0.968540	0.425800
C51	C5	0.002900	0.991800	0.311200
C61	C6	0.010400	0.083400	0.322800
C71	C7	0.099300	0.956800	0.249600
C81	C8	0.102100	0.874000	0.234400
C91	C9	0.237500	0.868200	0.417000
C101	C10	0.322290	0.784520	0.396900
C111	C11	0.295750	0.695200	0.437300
C121	C12	0.181400	0.694100	0.497300
C131	C13	0.099900	0.780800	0.513600
C141	C14	0.384940	0.602620	0.420100
C151	C15	0.467780	0.452940	0.421100
C161	C16	0.485080	0.346540	0.440700
C171	C17	0.417420	0.296360	0.512800
C181	C18	0.430690	0.197820	0.528400
C191	C19	0.573150	0.193900	0.408000
C201	C20	0.567430	0.292840	0.388300
C211	C21	0.106500	0.673200	0.224400
C221	C22	0.104000	0.638400	0.163600
C231	C23	0.206220	0.559260	0.143300
C241	C24	0.193670	0.531460	0.074200
C251	C25	0.305900	0.508200	0.188800
C261	C26	0.416600	0.416600	0.177200
C271	C27	0.305700	0.543200	0.250400
C281	C28	0.210500	0.626000	0.265600
C291	C29	0.522700	0.631800	0.083000
C301	C30	0.503710	0.715480	0.103100
C311	C31	0.428250	0.804800	0.062700
C321	C32	0.372800	0.805900	0.002700
C331	C33	0.394300	0.719200	0.986400
C341	C34	0.407660	0.897380	0.079900
C351	C35	0.341820	0.047060	0.078900
C361	C36	0.272320	0.153460	0.059300
C371	C37	0.226580	0.203640	0.987200
C381	C38	0.156910	0.302180	0.971600
C391	C39	0.175050	0.306100	0.092000
C401	C40	0.248570	0.207160	0.111700
C411	C41	0.995900	0.173200	0.724400
C421	C42	0.094000	0.138400	0.663600
C431	C43	0.091220	0.059260	0.643300
C441	C44	0.200670	0.031460	0.574200
C451	C45	0.997100	0.008200	0.688800
C461	C46	0.989600	0.916600	0.677200
C471	C47	0.900700	0.043200	0.750400
C481	C48	0.897900	0.126000	0.765600
C491	C49	0.762500	0.131800	0.583000
C501	C50	0.677710	0.215480	0.603100
C511	C51	0.704250	0.304800	0.562700
C521	C52	0.818600	0.305900	0.502700
C531	C53	0.900100	0.219200	0.486400
C541	C54	0.615060	0.397380	0.579900
C551	C55	0.532220	0.547060	0.578900
C561	C56	0.514920	0.653460	0.559300
C571	C57	0.582580	0.703640	0.487200
C581	C58	0.569310	0.802180	0.471600
C591	C59	0.426850	0.806100	0.592000
C601	C60	0.432570	0.707160	0.611700
C611	C61	0.893500	0.326800	0.775600
C621	C62	0.896000	0.361600	0.836400
C631	C63	0.793780	0.440740	0.856700
C641	C64	0.806330	0.468540	0.925800
C651	C65	0.694100	0.491800	0.811200
C661	C66	0.583400	0.583400	0.822800
C671	C67	0.694300	0.456800	0.749600
C681	C68	0.789500	0.374000	0.734400
C691	C69	0.477300	0.368200	0.917000
C701	C70	0.496290	0.284520	0.896900
C711	C71	0.571750	0.195200	0.937300
C721	C72	0.627200	0.194100	0.997300
C731	C73	0.605700	0.280800	0.013600
C741	C74	0.592340	0.102620	0.920100
C751	C75	0.658180	0.952940	0.921100
C761	C76	0.727680	0.846540	0.940700
C771	C77	0.773420	0.796360	0.012800
C781	C78	0.843090	0.697820	0.028400
C791	C79	0.824950	0.693900	0.908000
C801	C80	0.751430	0.792840	0.888300
C811	C81	0.986400	0.750000	0.250000
C821	C82	0.013600	0.250000	0.750000
N11	N1	0.126170	0.867960	0.474500
N21	N2	0.362160	0.512780	0.457100
N31	N3	0.497660	0.597980	0.364300
N41	N4	0.551140	0.501720	0.365000
N51	N5	0.505430	0.146040	0.476500
N61	N6	0.468630	0.632040	0.025500
N71	N7	0.332040	0.987220	0.042900
N81	N8	0.459940	0.902020	0.135700
N91	N9	0.417860	0.998280	0.135000
N101	N10	0.127970	0.353960	0.023500
N111	N11	0.873830	0.132040	0.525500
N121	N12	0.637840	0.487220	0.542900
N131	N13	0.502340	0.402020	0.635700
N141	N14	0.448860	0.498280	0.635000
N151	N15	0.494570	0.853960	0.523500
N161	N16	0.531370	0.367960	0.974500
N171	N17	0.667960	0.012780	0.957100
N181	N18	0.540060	0.097980	0.864300
N191	N19	0.582140	0.001720	0.865000
N201	N20	0.872030	0.646040	0.976500
O11	O1	0.682600	0.971100	0.423700
O21	O2	0.828390	0.985220	0.480400
O31	O3	0.042590	0.080620	0.383600
O41	O4	0.995000	0.159000	0.264000
O51	O5	0.601860	0.950580	0.596100
O61	O6	0.077400	0.528900	0.076300
O71	O7	0.294010	0.514780	0.019600
O81	O8	0.506810	0.419380	0.116400
O91	O9	0.418000	0.341000	0.236000
O101	O10	0.148540	0.549420	0.903900
O111	O11	0.317400	0.028900	0.576300
O121	O12	0.171610	0.014780	0.519600
O131	O13	0.957410	0.919380	0.616400
O141	O14	0.005000	0.841000	0.736000
O151	O15	0.398140	0.049420	0.403900
O161	O16	0.922600	0.471100	0.923700
O171	O17	0.705990	0.485220	0.980400
O181	O18	0.493190	0.580620	0.883600
O191	O19	0.582000	0.659000	0.764000
O201	O20	0.851460	0.450580	0.096100
O211	O21	0.870900	0.750000	0.250000
O221	O22	0.129100	0.250000	0.750000
