data_DIHVIB01_freeONLY_PM
_symmetry_space_group_name_H-M	'P1'
_cell_length_a	26.316700
_cell_length_b	26.316700
_cell_length_c	26.316700
_cell_angle_alpha	90.000000
_cell_angle_beta	90.000000
_cell_angle_gamma	90.000000
_symmetry_Int_Tables_number 1

loop_
_symmetry_equiv_pos_as_xyz
'x,y,z'

loop_
_atom_site_label
_atom_site_type_symbol
_atom_site_fract_x
_atom_site_fract_y
_atom_site_fract_z
O11	O1	0.180340	0.739920	0.951440
O21	O2	0.180340	0.239920	0.451440
O31	O3	0.680340	0.739920	0.451440
O41	O4	0.680340	0.239920	0.951440
O51	O5	0.819660	0.260080	0.951440
O61	O6	0.819660	0.760080	0.451440
O71	O7	0.319660	0.260080	0.451440
O81	O8	0.319660	0.760080	0.951440
O91	O9	0.819660	0.739920	0.048560
O101	O10	0.819660	0.239920	0.548560
O111	O11	0.319660	0.739920	0.548560
O121	O12	0.319660	0.239920	0.048560
O131	O13	0.180340	0.260080	0.048560
O141	O14	0.180340	0.760080	0.548560
O151	O15	0.680340	0.260080	0.548560
O161	O16	0.680340	0.760080	0.048560
O171	O17	0.951440	0.180340	0.739920
O181	O18	0.951440	0.680340	0.239920
O191	O19	0.451440	0.180340	0.239920
O201	O20	0.451440	0.680340	0.739920
O211	O21	0.951440	0.819660	0.260080
O221	O22	0.951440	0.319660	0.760080
O231	O23	0.451440	0.819660	0.760080
O241	O24	0.451440	0.319660	0.260080
O251	O25	0.048560	0.819660	0.739920
O261	O26	0.048560	0.319660	0.239920
O271	O27	0.548560	0.819660	0.239920
O281	O28	0.548560	0.319660	0.739920
O291	O29	0.048560	0.180340	0.260080
O301	O30	0.048560	0.680340	0.760080
O311	O31	0.548560	0.180340	0.760080
O321	O32	0.548560	0.680340	0.260080
O331	O33	0.739920	0.951440	0.180340
O341	O34	0.739920	0.451440	0.680340
O351	O35	0.239920	0.951440	0.680340
O361	O36	0.239920	0.451440	0.180340
O371	O37	0.260080	0.951440	0.819660
O381	O38	0.260080	0.451440	0.319660
O391	O39	0.760080	0.951440	0.319660
O401	O40	0.760080	0.451440	0.819660
O411	O41	0.739920	0.048560	0.819660
O421	O42	0.739920	0.548560	0.319660
O431	O43	0.239920	0.048560	0.319660
O441	O44	0.239920	0.548560	0.819660
O451	O45	0.260080	0.048560	0.180340
O461	O46	0.260080	0.548560	0.680340
O471	O47	0.760080	0.048560	0.680340
O481	O48	0.760080	0.548560	0.180340
O491	O49	0.739920	0.180340	0.048560
O501	O50	0.739920	0.680340	0.548560
O511	O51	0.239920	0.180340	0.548560
O521	O52	0.239920	0.680340	0.048560
O531	O53	0.260080	0.819660	0.048560
O541	O54	0.260080	0.319660	0.548560
O551	O55	0.760080	0.819660	0.548560
O561	O56	0.760080	0.319660	0.048560
O571	O57	0.739920	0.819660	0.951440
O581	O58	0.739920	0.319660	0.451440
O591	O59	0.239920	0.819660	0.451440
O601	O60	0.239920	0.319660	0.951440
O611	O61	0.260080	0.180340	0.951440
O621	O62	0.260080	0.680340	0.451440
O631	O63	0.760080	0.180340	0.451440
O641	O64	0.760080	0.680340	0.951440
O651	O65	0.180340	0.951440	0.260080
O661	O66	0.180340	0.451440	0.760080
O671	O67	0.680340	0.951440	0.760080
O681	O68	0.680340	0.451440	0.260080
O691	O69	0.819660	0.951440	0.739920
O701	O70	0.819660	0.451440	0.239920
O711	O71	0.319660	0.951440	0.239920
O721	O72	0.319660	0.451440	0.739920
O731	O73	0.819660	0.048560	0.260080
O741	O74	0.819660	0.548560	0.760080
O751	O75	0.319660	0.048560	0.760080
O761	O76	0.319660	0.548560	0.260080
O771	O77	0.180340	0.048560	0.739920
O781	O78	0.180340	0.548560	0.239920
O791	O79	0.680340	0.048560	0.239920
O801	O80	0.680340	0.548560	0.739920
O811	O81	0.951440	0.739920	0.819660
O821	O82	0.951440	0.239920	0.319660
O831	O83	0.451440	0.739920	0.319660
O841	O84	0.451440	0.239920	0.819660
O851	O85	0.951440	0.260080	0.180340
O861	O86	0.951440	0.760080	0.680340
O871	O87	0.451440	0.260080	0.680340
O881	O88	0.451440	0.760080	0.180340
O891	O89	0.048560	0.739920	0.180340
O901	O90	0.048560	0.239920	0.680340
O911	O91	0.548560	0.739920	0.680340
O921	O92	0.548560	0.239920	0.180340
O931	O93	0.048560	0.260080	0.819660
O941	O94	0.048560	0.760080	0.319660
O951	O95	0.548560	0.260080	0.319660
O961	O96	0.548560	0.760080	0.819660
O971	O97	0.819660	0.260080	0.048560
O981	O98	0.819660	0.760080	0.548560
O991	O99	0.319660	0.260080	0.548560
O1001	O100	0.319660	0.760080	0.048560
O1011	O101	0.180340	0.739920	0.048560
O1021	O102	0.180340	0.239920	0.548560
O1031	O103	0.680340	0.739920	0.548560
O1041	O104	0.680340	0.239920	0.048560
O1051	O105	0.180340	0.260080	0.951440
O1061	O106	0.180340	0.760080	0.451440
O1071	O107	0.680340	0.260080	0.451440
O1081	O108	0.680340	0.760080	0.951440
O1091	O109	0.819660	0.739920	0.951440
O1101	O110	0.819660	0.239920	0.451440
O1111	O111	0.319660	0.739920	0.451440
O1121	O112	0.319660	0.239920	0.951440
O1131	O113	0.048560	0.819660	0.260080
O1141	O114	0.048560	0.319660	0.760080
O1151	O115	0.548560	0.819660	0.760080
O1161	O116	0.548560	0.319660	0.260080
O1171	O117	0.048560	0.180340	0.739920
O1181	O118	0.048560	0.680340	0.239920
O1191	O119	0.548560	0.180340	0.239920
O1201	O120	0.548560	0.680340	0.739920
O1211	O121	0.951440	0.180340	0.260080
O1221	O122	0.951440	0.680340	0.760080
O1231	O123	0.451440	0.180340	0.760080
O1241	O124	0.451440	0.680340	0.260080
O1251	O125	0.951440	0.819660	0.739920
O1261	O126	0.951440	0.319660	0.239920
O1271	O127	0.451440	0.819660	0.239920
O1281	O128	0.451440	0.319660	0.739920
O1291	O129	0.260080	0.048560	0.819660
O1301	O130	0.260080	0.548560	0.319660
O1311	O131	0.760080	0.048560	0.319660
O1321	O132	0.760080	0.548560	0.819660
O1331	O133	0.739920	0.048560	0.180340
O1341	O134	0.739920	0.548560	0.680340
O1351	O135	0.239920	0.048560	0.680340
O1361	O136	0.239920	0.548560	0.180340
O1371	O137	0.260080	0.951440	0.180340
O1381	O138	0.260080	0.451440	0.680340
O1391	O139	0.760080	0.951440	0.680340
O1401	O140	0.760080	0.451440	0.180340
O1411	O141	0.739920	0.951440	0.819660
O1421	O142	0.739920	0.451440	0.319660
O1431	O143	0.239920	0.951440	0.319660
O1441	O144	0.239920	0.451440	0.819660
O1451	O145	0.260080	0.819660	0.951440
O1461	O146	0.260080	0.319660	0.451440
O1471	O147	0.760080	0.819660	0.451440
O1481	O148	0.760080	0.319660	0.951440
O1491	O149	0.739920	0.180340	0.951440
O1501	O150	0.739920	0.680340	0.451440
O1511	O151	0.239920	0.180340	0.451440
O1521	O152	0.239920	0.680340	0.951440
O1531	O153	0.260080	0.180340	0.048560
O1541	O154	0.260080	0.680340	0.548560
O1551	O155	0.760080	0.180340	0.548560
O1561	O156	0.760080	0.680340	0.048560
O1571	O157	0.739920	0.819660	0.048560
O1581	O158	0.739920	0.319660	0.548560
O1591	O159	0.239920	0.819660	0.548560
O1601	O160	0.239920	0.319660	0.048560
O1611	O161	0.819660	0.048560	0.739920
O1621	O162	0.819660	0.548560	0.239920
O1631	O163	0.319660	0.048560	0.239920
O1641	O164	0.319660	0.548560	0.739920
O1651	O165	0.180340	0.048560	0.260080
O1661	O166	0.180340	0.548560	0.760080
O1671	O167	0.680340	0.048560	0.760080
O1681	O168	0.680340	0.548560	0.260080
O1691	O169	0.180340	0.951440	0.739920
O1701	O170	0.180340	0.451440	0.239920
O1711	O171	0.680340	0.951440	0.239920
O1721	O172	0.680340	0.451440	0.739920
O1731	O173	0.819660	0.951440	0.260080
O1741	O174	0.819660	0.451440	0.760080
O1751	O175	0.319660	0.951440	0.760080
O1761	O176	0.319660	0.451440	0.260080
O1771	O177	0.048560	0.260080	0.180340
O1781	O178	0.048560	0.760080	0.680340
O1791	O179	0.548560	0.260080	0.680340
O1801	O180	0.548560	0.760080	0.180340
O1811	O181	0.048560	0.739920	0.819660
O1821	O182	0.048560	0.239920	0.319660
O1831	O183	0.548560	0.739920	0.319660
O1841	O184	0.548560	0.239920	0.819660
O1851	O185	0.951440	0.260080	0.819660
O1861	O186	0.951440	0.760080	0.319660
O1871	O187	0.451440	0.260080	0.319660
O1881	O188	0.451440	0.760080	0.819660
O1891	O189	0.951440	0.739920	0.180340
O1901	O190	0.951440	0.239920	0.680340
O1911	O191	0.451440	0.739920	0.680340
O1921	O192	0.451440	0.239920	0.180340
Cu11	Cu1	0.214730	0.785270	0.000000
O1931	O193	0.156710	0.843290	0.000000
Cu21	Cu2	0.214730	0.285270	0.500000
O1941	O194	0.156710	0.343290	0.500000
Cu31	Cu3	0.714730	0.785270	0.500000
O1951	O195	0.656710	0.843290	0.500000
Cu41	Cu4	0.714730	0.285270	0.000000
O1961	O196	0.656710	0.343290	0.000000
Cu51	Cu5	0.785270	0.214730	0.000000
O1971	O197	0.843290	0.156710	0.000000
Cu61	Cu6	0.785270	0.714730	0.500000
O1981	O198	0.843290	0.656710	0.500000
Cu71	Cu7	0.285270	0.214730	0.500000
O1991	O199	0.343290	0.156710	0.500000
Cu81	Cu8	0.285270	0.714730	0.000000
O2001	O200	0.343290	0.656710	0.000000
Cu91	Cu9	0.785270	0.785270	0.000000
O2011	O201	0.843290	0.843290	0.000000
Cu101	Cu10	0.785270	0.285270	0.500000
O2021	O202	0.843290	0.343290	0.500000
Cu111	Cu11	0.285270	0.785270	0.500000
O2031	O203	0.343290	0.843290	0.500000
Cu121	Cu12	0.285270	0.285270	0.000000
O2041	O204	0.343290	0.343290	0.000000
Cu131	Cu13	0.214730	0.214730	0.000000
O2051	O205	0.156710	0.156710	0.000000
Cu141	Cu14	0.214730	0.714730	0.500000
O2061	O206	0.156710	0.656710	0.500000
Cu151	Cu15	0.714730	0.214730	0.500000
O2071	O207	0.656710	0.156710	0.500000
Cu161	Cu16	0.714730	0.714730	0.000000
O2081	O208	0.656710	0.656710	0.000000
Cu171	Cu17	0.000000	0.214730	0.785270
O2091	O209	0.000000	0.156710	0.843290
Cu181	Cu18	0.000000	0.714730	0.285270
O2101	O210	0.000000	0.656710	0.343290
Cu191	Cu19	0.500000	0.214730	0.285270
O2111	O211	0.500000	0.156710	0.343290
Cu201	Cu20	0.500000	0.714730	0.785270
O2121	O212	0.500000	0.656710	0.843290
Cu211	Cu21	0.000000	0.785270	0.214730
O2131	O213	0.000000	0.843290	0.156710
Cu221	Cu22	0.000000	0.285270	0.714730
O2141	O214	0.000000	0.343290	0.656710
Cu231	Cu23	0.500000	0.785270	0.714730
O2151	O215	0.500000	0.843290	0.656710
Cu241	Cu24	0.500000	0.285270	0.214730
O2161	O216	0.500000	0.343290	0.156710
Cu251	Cu25	0.000000	0.785270	0.785270
O2171	O217	0.000000	0.843290	0.843290
Cu261	Cu26	0.000000	0.285270	0.285270
O2181	O218	0.000000	0.343290	0.343290
Cu271	Cu27	0.500000	0.785270	0.285270
O2191	O219	0.500000	0.843290	0.343290
Cu281	Cu28	0.500000	0.285270	0.785270
O2201	O220	0.500000	0.343290	0.843290
Cu291	Cu29	0.000000	0.214730	0.214730
O2211	O221	0.000000	0.156710	0.156710
Cu301	Cu30	0.000000	0.714730	0.714730
O2221	O222	0.000000	0.656710	0.656710
Cu311	Cu31	0.500000	0.214730	0.714730
O2231	O223	0.500000	0.156710	0.656710
Cu321	Cu32	0.500000	0.714730	0.214730
O2241	O224	0.500000	0.656710	0.156710
Cu331	Cu33	0.785270	0.000000	0.214730
O2251	O225	0.843290	0.000000	0.156710
Cu341	Cu34	0.785270	0.500000	0.714730
O2261	O226	0.843290	0.500000	0.656710
Cu351	Cu35	0.285270	0.000000	0.714730
O2271	O227	0.343290	0.000000	0.656710
Cu361	Cu36	0.285270	0.500000	0.214730
O2281	O228	0.343290	0.500000	0.156710
Cu371	Cu37	0.214730	0.000000	0.785270
O2291	O229	0.156710	0.000000	0.843290
Cu381	Cu38	0.214730	0.500000	0.285270
O2301	O230	0.156710	0.500000	0.343290
Cu391	Cu39	0.714730	0.000000	0.285270
O2311	O231	0.656710	0.000000	0.343290
Cu401	Cu40	0.714730	0.500000	0.785270
O2321	O232	0.656710	0.500000	0.843290
Cu411	Cu41	0.785270	0.000000	0.785270
O2331	O233	0.843290	0.000000	0.843290
Cu421	Cu42	0.785270	0.500000	0.285270
O2341	O234	0.843290	0.500000	0.343290
Cu431	Cu43	0.285270	0.000000	0.285270
O2351	O235	0.343290	0.000000	0.343290
Cu441	Cu44	0.285270	0.500000	0.785270
O2361	O236	0.343290	0.500000	0.843290
Cu451	Cu45	0.214730	0.000000	0.214730
O2371	O237	0.156710	0.000000	0.156710
Cu461	Cu46	0.214730	0.500000	0.714730
O2381	O238	0.156710	0.500000	0.656710
Cu471	Cu47	0.714730	0.000000	0.714730
O2391	O239	0.656710	0.000000	0.656710
Cu481	Cu48	0.714730	0.500000	0.214730
O2401	O240	0.656710	0.500000	0.156710
C11	C1	0.201240	0.701240	0.933750
C21	C2	0.177930	0.677930	0.887290
C31	C3	0.201240	0.201240	0.433750
C41	C4	0.177930	0.177930	0.387290
C51	C5	0.701240	0.701240	0.433750
C61	C6	0.677930	0.677930	0.387290
C71	C7	0.798760	0.298760	0.933750
C81	C8	0.822070	0.322070	0.887290
C91	C9	0.798760	0.798760	0.433750
C101	C10	0.822070	0.822070	0.387290
C111	C11	0.798760	0.701240	0.066250
C121	C12	0.822070	0.677930	0.112710
C131	C13	0.798760	0.201240	0.566250
C141	C14	0.822070	0.177930	0.612710
C151	C15	0.201240	0.298760	0.066250
C161	C16	0.177930	0.322070	0.112710
C171	C17	0.201240	0.798760	0.566250
C181	C18	0.177930	0.822070	0.612710
C191	C19	0.701240	0.798760	0.066250
C201	C20	0.677930	0.822070	0.112710
C211	C21	0.933750	0.201240	0.701240
C221	C22	0.887290	0.177930	0.677930
C231	C23	0.433750	0.201240	0.201240
C241	C24	0.387290	0.177930	0.177930
C251	C25	0.433750	0.701240	0.701240
C261	C26	0.387290	0.677930	0.677930
C271	C27	0.933750	0.798760	0.298760
C281	C28	0.887290	0.822070	0.322070
C291	C29	0.433750	0.798760	0.798760
C301	C30	0.387290	0.822070	0.822070
C311	C31	0.066250	0.798760	0.701240
C321	C32	0.112710	0.822070	0.677930
C331	C33	0.566250	0.798760	0.201240
C341	C34	0.612710	0.822070	0.177930
C351	C35	0.066250	0.201240	0.298760
C361	C36	0.112710	0.177930	0.322070
C371	C37	0.066250	0.701240	0.798760
C381	C38	0.112710	0.677930	0.822070
C391	C39	0.566250	0.201240	0.798760
C401	C40	0.612710	0.177930	0.822070
C411	C41	0.701240	0.933750	0.201240
C421	C42	0.677930	0.887290	0.177930
C431	C43	0.701240	0.433750	0.701240
C441	C44	0.677930	0.387290	0.677930
C451	C45	0.298760	0.933750	0.798760
C461	C46	0.322070	0.887290	0.822070
C471	C47	0.298760	0.433750	0.298760
C481	C48	0.322070	0.387290	0.322070
C491	C49	0.798760	0.433750	0.798760
C501	C50	0.822070	0.387290	0.822070
C511	C51	0.701240	0.066250	0.798760
C521	C52	0.677930	0.112710	0.822070
C531	C53	0.701240	0.566250	0.298760
C541	C54	0.677930	0.612710	0.322070
C551	C55	0.298760	0.066250	0.201240
C561	C56	0.322070	0.112710	0.177930
C571	C57	0.298760	0.566250	0.701240
C581	C58	0.322070	0.612710	0.677930
C591	C59	0.798760	0.066250	0.701240
C601	C60	0.822070	0.112710	0.677930
C611	C61	0.701240	0.201240	0.066250
C621	C62	0.677930	0.177930	0.112710
C631	C63	0.701240	0.701240	0.566250
C641	C64	0.677930	0.677930	0.612710
C651	C65	0.298760	0.798760	0.066250
C661	C66	0.322070	0.822070	0.112710
C671	C67	0.298760	0.298760	0.566250
C681	C68	0.322070	0.322070	0.612710
C691	C69	0.798760	0.798760	0.566250
C701	C70	0.822070	0.822070	0.612710
C711	C71	0.701240	0.798760	0.933750
C721	C72	0.677930	0.822070	0.887290
C731	C73	0.701240	0.298760	0.433750
C741	C74	0.677930	0.322070	0.387290
C751	C75	0.298760	0.201240	0.933750
C761	C76	0.322070	0.177930	0.887290
C771	C77	0.298760	0.701240	0.433750
C781	C78	0.322070	0.677930	0.387290
C791	C79	0.798760	0.701240	0.933750
C801	C80	0.822070	0.677930	0.887290
C811	C81	0.201240	0.933750	0.298760
C821	C82	0.177930	0.887290	0.322070
C831	C83	0.201240	0.433750	0.798760
C841	C84	0.177930	0.387290	0.822070
C851	C85	0.701240	0.933750	0.798760
C861	C86	0.677930	0.887290	0.822070
C871	C87	0.798760	0.933750	0.701240
C881	C88	0.822070	0.887290	0.677930
C891	C89	0.798760	0.433750	0.201240
C901	C90	0.822070	0.387290	0.177930
C911	C91	0.798760	0.066250	0.298760
C921	C92	0.822070	0.112710	0.322070
C931	C93	0.798760	0.566250	0.798760
C941	C94	0.822070	0.612710	0.822070
C951	C95	0.201240	0.066250	0.701240
C961	C96	0.177930	0.112710	0.677930
C971	C97	0.201240	0.566250	0.201240
C981	C98	0.177930	0.612710	0.177930
C991	C99	0.701240	0.566250	0.701240
C1001	C100	0.677930	0.612710	0.677930
C1011	C101	0.933750	0.701240	0.798760
C1021	C102	0.887290	0.677930	0.822070
C1031	C103	0.433750	0.701240	0.298760
C1041	C104	0.387290	0.677930	0.322070
C1051	C105	0.933750	0.298760	0.201240
C1061	C106	0.887290	0.322070	0.177930
C1071	C107	0.933750	0.798760	0.701240
C1081	C108	0.887290	0.822070	0.677930
C1091	C109	0.433750	0.298760	0.701240
C1101	C110	0.387290	0.322070	0.677930
C1111	C111	0.066250	0.701240	0.201240
C1121	C112	0.112710	0.677930	0.177930
C1131	C113	0.566250	0.701240	0.701240
C1141	C114	0.612710	0.677930	0.677930
C1151	C115	0.066250	0.298760	0.798760
C1161	C116	0.112710	0.322070	0.822070
C1171	C117	0.566250	0.298760	0.298760
C1181	C118	0.612710	0.322070	0.322070
C1191	C119	0.566250	0.798760	0.798760
C1201	C120	0.612710	0.822070	0.822070
C1211	C121	0.798760	0.298760	0.066250
C1221	C122	0.822070	0.322070	0.112710
C1231	C123	0.201240	0.701240	0.066250
C1241	C124	0.177930	0.677930	0.112710
C1251	C125	0.201240	0.201240	0.566250
C1261	C126	0.177930	0.177930	0.612710
C1271	C127	0.201240	0.298760	0.933750
C1281	C128	0.177930	0.322070	0.887290
C1291	C129	0.201240	0.798760	0.433750
C1301	C130	0.177930	0.822070	0.387290
C1311	C131	0.798760	0.201240	0.433750
C1321	C132	0.822070	0.177930	0.387290
C1331	C133	0.066250	0.798760	0.298760
C1341	C134	0.112710	0.822070	0.322070
C1351	C135	0.066250	0.201240	0.701240
C1361	C136	0.112710	0.177930	0.677930
C1371	C137	0.566250	0.201240	0.201240
C1381	C138	0.612710	0.177930	0.177930
C1391	C139	0.933750	0.201240	0.298760
C1401	C140	0.887290	0.177930	0.322070
C1411	C141	0.433750	0.201240	0.798760
C1421	C142	0.387290	0.177930	0.822070
C1431	C143	0.433750	0.798760	0.201240
C1441	C144	0.387290	0.822070	0.177930
C1451	C145	0.298760	0.066250	0.798760
C1461	C146	0.322070	0.112710	0.822070
C1471	C147	0.298760	0.566250	0.298760
C1481	C148	0.322070	0.612710	0.322070
C1491	C149	0.701240	0.066250	0.201240
C1501	C150	0.677930	0.112710	0.177930
C1511	C151	0.298760	0.933750	0.201240
C1521	C152	0.322070	0.887290	0.177930
C1531	C153	0.298760	0.433750	0.701240
C1541	C154	0.322070	0.387290	0.677930
C1551	C155	0.701240	0.433750	0.298760
C1561	C156	0.677930	0.387290	0.322070
C1571	C157	0.298760	0.798760	0.933750
C1581	C158	0.322070	0.822070	0.887290
C1591	C159	0.298760	0.298760	0.433750
C1601	C160	0.322070	0.322070	0.387290
C1611	C161	0.701240	0.201240	0.933750
C1621	C162	0.677930	0.177930	0.887290
C1631	C163	0.298760	0.201240	0.066250
C1641	C164	0.322070	0.177930	0.112710
C1651	C165	0.298760	0.701240	0.566250
C1661	C166	0.322070	0.677930	0.612710
C1671	C167	0.701240	0.298760	0.566250
C1681	C168	0.677930	0.322070	0.612710
C1691	C169	0.798760	0.566250	0.201240
C1701	C170	0.822070	0.612710	0.177930
C1711	C171	0.201240	0.066250	0.298760
C1721	C172	0.177930	0.112710	0.322070
C1731	C173	0.201240	0.566250	0.798760
C1741	C174	0.177930	0.612710	0.822070
C1751	C175	0.201240	0.933750	0.701240
C1761	C176	0.177930	0.887290	0.677930
C1771	C177	0.201240	0.433750	0.201240
C1781	C178	0.177930	0.387290	0.177930
C1791	C179	0.798760	0.933750	0.298760
C1801	C180	0.822070	0.887290	0.322070
C1811	C181	0.066250	0.298760	0.201240
C1821	C182	0.112710	0.322070	0.177930
C1831	C183	0.566250	0.298760	0.701240
C1841	C184	0.612710	0.322070	0.677930
C1851	C185	0.566250	0.701240	0.298760
C1861	C186	0.612710	0.677930	0.322070
C1871	C187	0.933750	0.298760	0.798760
C1881	C188	0.887290	0.322070	0.822070
C1891	C189	0.433750	0.298760	0.298760
C1901	C190	0.387290	0.322070	0.322070
C1911	C191	0.933750	0.701240	0.201240
C1921	C192	0.887290	0.677930	0.177930
C1931	C193	0.199670	0.634450	0.865550
H11	H1	0.228520	0.620020	0.879980
C1941	C194	0.699670	0.634450	0.365550
H21	H2	0.728520	0.620020	0.379980
C1951	C195	0.800330	0.365550	0.865550
H31	H3	0.771480	0.379980	0.879980
C1961	C196	0.300330	0.365550	0.365550
H41	H4	0.271480	0.379980	0.379980
C1971	C197	0.300330	0.865550	0.865550
H51	H5	0.271480	0.879980	0.879980
C1981	C198	0.800330	0.634450	0.134450
H61	H6	0.771480	0.620020	0.120020
C1991	C199	0.300330	0.634450	0.634450
H71	H7	0.271480	0.620020	0.620020
C2001	C200	0.199670	0.365550	0.134450
H81	H8	0.228520	0.379980	0.120020
C2011	C201	0.199670	0.865550	0.634450
H91	H9	0.228520	0.879980	0.620020
C2021	C202	0.699670	0.365550	0.634450
H101	H10	0.728520	0.379980	0.620020
C2031	C203	0.865550	0.199670	0.634450
H111	H11	0.879980	0.228520	0.620020
C2041	C204	0.865550	0.699670	0.134450
H121	H12	0.879980	0.728520	0.120020
C2051	C205	0.865550	0.800330	0.365550
H131	H13	0.879980	0.771480	0.379980
C2061	C206	0.865550	0.300330	0.865550
H141	H14	0.879980	0.271480	0.879980
C2071	C207	0.134450	0.800330	0.634450
H151	H15	0.120020	0.771480	0.620020
C2081	C208	0.134450	0.300330	0.134450
H161	H16	0.120020	0.271480	0.120020
C2091	C209	0.634450	0.300330	0.634450
H171	H17	0.620020	0.271480	0.620020
C2101	C210	0.134450	0.199670	0.365550
H181	H18	0.120020	0.228520	0.379980
C2111	C211	0.134450	0.699670	0.865550
H191	H19	0.120020	0.728520	0.879980
C2121	C212	0.634450	0.199670	0.865550
H201	H20	0.620020	0.228520	0.879980
C2131	C213	0.634450	0.865550	0.199670
H211	H21	0.620020	0.879980	0.228520
C2141	C214	0.634450	0.365550	0.699670
H221	H22	0.620020	0.379980	0.728520
C2151	C215	0.365550	0.865550	0.800330
H231	H23	0.379980	0.879980	0.771480
C2161	C216	0.365550	0.365550	0.300330
H241	H24	0.379980	0.379980	0.271480
C2171	C217	0.865550	0.865550	0.300330
H251	H25	0.879980	0.879980	0.271480
C2181	C218	0.634450	0.134450	0.800330
H261	H26	0.620020	0.120020	0.771480
C2191	C219	0.634450	0.634450	0.300330
H271	H27	0.620020	0.620020	0.271480
C2201	C220	0.365550	0.134450	0.199670
H281	H28	0.379980	0.120020	0.228520
C2211	C221	0.365550	0.634450	0.699670
H291	H29	0.379980	0.620020	0.728520
C2221	C222	0.865550	0.634450	0.199670
H301	H30	0.879980	0.620020	0.228520
C2231	C223	0.634450	0.199670	0.134450
H311	H31	0.620020	0.228520	0.120020
C2241	C224	0.634450	0.699670	0.634450
H321	H32	0.620020	0.728520	0.620020
C2251	C225	0.365550	0.800330	0.134450
H331	H33	0.379980	0.771480	0.120020
C2261	C226	0.365550	0.300330	0.634450
H341	H34	0.379980	0.271480	0.620020
C2271	C227	0.865550	0.800330	0.634450
H351	H35	0.879980	0.771480	0.620020
C2281	C228	0.634450	0.800330	0.865550
H361	H36	0.620020	0.771480	0.879980
C2291	C229	0.634450	0.300330	0.365550
H371	H37	0.620020	0.271480	0.379980
C2301	C230	0.365550	0.199670	0.865550
H381	H38	0.379980	0.228520	0.879980
C2311	C231	0.365550	0.699670	0.365550
H391	H39	0.379980	0.728520	0.379980
C2321	C232	0.865550	0.699670	0.865550
H401	H40	0.879980	0.728520	0.879980
C2331	C233	0.199670	0.865550	0.365550
H411	H41	0.228520	0.879980	0.379980
C2341	C234	0.699670	0.865550	0.865550
H421	H42	0.728520	0.879980	0.879980
C2351	C235	0.800330	0.865550	0.634450
H431	H43	0.771480	0.879980	0.620020
C2361	C236	0.300330	0.865550	0.134450
H441	H44	0.271480	0.879980	0.120020
C2371	C237	0.800330	0.134450	0.365550
H451	H45	0.771480	0.120020	0.379980
C2381	C238	0.800330	0.634450	0.865550
H461	H46	0.771480	0.620020	0.879980
C2391	C239	0.300330	0.134450	0.865550
H471	H47	0.271480	0.120020	0.879980
C2401	C240	0.199670	0.134450	0.634450
H481	H48	0.228520	0.120020	0.620020
C2411	C241	0.699670	0.134450	0.134450
H491	H49	0.728520	0.120020	0.120020
C2421	C242	0.699670	0.634450	0.634450
H501	H50	0.728520	0.620020	0.620020
C2431	C243	0.865550	0.634450	0.800330
H511	H51	0.879980	0.620020	0.771480
C2441	C244	0.865550	0.134450	0.300330
H521	H52	0.879980	0.120020	0.271480
C2451	C245	0.865550	0.365550	0.199670
H531	H53	0.879980	0.379980	0.228520
C2461	C246	0.865550	0.865550	0.699670
H541	H54	0.879980	0.879980	0.728520
C2471	C247	0.134450	0.634450	0.199670
H551	H55	0.120020	0.620020	0.228520
C2481	C248	0.134450	0.134450	0.699670
H561	H56	0.120020	0.120020	0.728520
C2491	C249	0.634450	0.634450	0.699670
H571	H57	0.620020	0.620020	0.728520
C2501	C250	0.134450	0.365550	0.800330
H581	H58	0.120020	0.379980	0.771480
C2511	C251	0.134450	0.865550	0.300330
H591	H59	0.120020	0.879980	0.271480
C2521	C252	0.634450	0.865550	0.800330
H601	H60	0.620020	0.879980	0.771480
C2531	C253	0.800330	0.365550	0.134450
H611	H61	0.771480	0.379980	0.120020
C2541	C254	0.300330	0.365550	0.634450
H621	H62	0.271480	0.379980	0.620020
C2551	C255	0.199670	0.634450	0.134450
H631	H63	0.228520	0.620020	0.120020
C2561	C256	0.199670	0.365550	0.865550
H641	H64	0.228520	0.379980	0.879980
C2571	C257	0.699670	0.365550	0.365550
H651	H65	0.728520	0.379980	0.379980
C2581	C258	0.300330	0.634450	0.365550
H661	H66	0.271480	0.620020	0.379980
C2591	C259	0.134450	0.800330	0.365550
H671	H67	0.120020	0.771480	0.379980
C2601	C260	0.134450	0.300330	0.865550
H681	H68	0.120020	0.271480	0.879980
C2611	C261	0.134450	0.199670	0.634450
H691	H69	0.120020	0.228520	0.620020
C2621	C262	0.134450	0.699670	0.134450
H701	H70	0.120020	0.728520	0.120020
C2631	C263	0.865550	0.199670	0.365550
H711	H71	0.879980	0.228520	0.379980
C2641	C264	0.865550	0.300330	0.134450
H721	H72	0.879980	0.271480	0.120020
C2651	C265	0.365550	0.134450	0.800330
H731	H73	0.379980	0.120020	0.771480
C2661	C266	0.365550	0.634450	0.300330
H741	H74	0.379980	0.620020	0.271480
C2671	C267	0.634450	0.134450	0.199670
H751	H75	0.620020	0.120020	0.228520
C2681	C268	0.365550	0.865550	0.199670
H761	H76	0.379980	0.879980	0.228520
C2691	C269	0.365550	0.365550	0.699670
H771	H77	0.379980	0.379980	0.728520
C2701	C270	0.634450	0.365550	0.300330
H781	H78	0.620020	0.379980	0.271480
C2711	C271	0.365550	0.800330	0.865550
H791	H79	0.379980	0.771480	0.879980
C2721	C272	0.365550	0.300330	0.365550
H801	H80	0.379980	0.271480	0.379980
C2731	C273	0.634450	0.699670	0.365550
H811	H81	0.620020	0.728520	0.379980
C2741	C274	0.365550	0.199670	0.134450
H821	H82	0.379980	0.228520	0.120020
C2751	C275	0.365550	0.699670	0.634450
H831	H83	0.379980	0.728520	0.620020
C2761	C276	0.634450	0.800330	0.134450
H841	H84	0.620020	0.771480	0.120020
C2771	C277	0.800330	0.134450	0.634450
H851	H85	0.771480	0.120020	0.620020
C2781	C278	0.300330	0.134450	0.134450
H861	H86	0.271480	0.120020	0.120020
C2791	C279	0.199670	0.134450	0.365550
H871	H87	0.228520	0.120020	0.379980
C2801	C280	0.699670	0.134450	0.865550
H881	H88	0.728520	0.120020	0.879980
C2811	C281	0.699670	0.865550	0.134450
H891	H89	0.728520	0.879980	0.120020
C2821	C282	0.800330	0.865550	0.365550
H901	H90	0.771480	0.879980	0.379980
C2831	C283	0.134450	0.365550	0.199670
H911	H91	0.120020	0.379980	0.228520
C2841	C284	0.134450	0.865550	0.699670
H921	H92	0.120020	0.879980	0.728520
C2851	C285	0.134450	0.634450	0.800330
H931	H93	0.120020	0.620020	0.771480
C2861	C286	0.134450	0.134450	0.300330
H941	H94	0.120020	0.120020	0.271480
C2871	C287	0.865550	0.365550	0.800330
H951	H95	0.879980	0.379980	0.771480
C2881	C288	0.865550	0.134450	0.699670
H961	H96	0.879980	0.120020	0.728520
