data_DIMQOH_freeONLY_PM
_symmetry_space_group_name_H-M	'P1'
_cell_length_a	10.584100
_cell_length_b	10.584100
_cell_length_c	12.224600
_cell_angle_alpha	90.000000
_cell_angle_beta	90.000000
_cell_angle_gamma	112.854000
_symmetry_Int_Tables_number 1

loop_
_symmetry_equiv_pos_as_xyz
'x,y,z'

loop_
_atom_site_label
_atom_site_type_symbol
_atom_site_fract_x
_atom_site_fract_y
_atom_site_fract_z
Mn11	Mn1	0.500000	0.500000	0.000000
Mn21	Mn2	0.000000	0.000000	0.500000
Ag11	Ag1	0.754290	0.245710	0.757890
Ag21	Ag2	0.745710	0.254290	0.257890
Ag31	Ag3	0.254290	0.745710	0.742110
Ag41	Ag4	0.245710	0.754290	0.242110
H11	H1	0.733200	0.699200	0.844200
H21	H2	0.911000	0.915400	0.837300
H31	H3	0.766800	0.800800	0.344200
H41	H4	0.589000	0.584600	0.337300
H51	H5	0.800800	0.766800	0.655800
H61	H6	0.584600	0.589000	0.662700
H71	H7	0.699200	0.733200	0.155800
H81	H8	0.915400	0.911000	0.162700
H91	H9	0.266800	0.300800	0.155800
H101	H10	0.089000	0.084600	0.162700
H111	H11	0.233200	0.199200	0.655800
H121	H12	0.411000	0.415400	0.662700
H131	H13	0.199200	0.233200	0.344200
H141	H14	0.415400	0.411000	0.337300
H151	H15	0.300800	0.266800	0.844200
H161	H16	0.084600	0.089000	0.837300
C11	C1	0.762900	0.748700	0.910500
C21	C2	0.876900	0.874700	0.906000
C31	C3	0.737100	0.751300	0.410500
C41	C4	0.623100	0.625300	0.406000
C51	C5	0.751300	0.737100	0.589500
C61	C6	0.625300	0.623100	0.594000
C71	C7	0.748700	0.762900	0.089500
C81	C8	0.874700	0.876900	0.094000
C91	C9	0.237100	0.251300	0.089500
C101	C10	0.123100	0.125300	0.094000
C111	C11	0.262900	0.248700	0.589500
C121	C12	0.376900	0.374700	0.594000
C131	C13	0.248700	0.262900	0.410500
C141	C14	0.374700	0.376900	0.406000
C151	C15	0.251300	0.237100	0.910500
C161	C16	0.125300	0.123100	0.906000
C171	C17	0.649000	0.351000	0.831100
C181	C18	0.858600	0.141400	0.683100
C191	C19	0.851000	0.149000	0.331100
C201	C20	0.641400	0.358600	0.183100
C211	C21	0.149000	0.851000	0.668900
C221	C22	0.358600	0.641400	0.816900
C231	C23	0.351000	0.649000	0.168900
C241	C24	0.141400	0.858600	0.316900
C251	C25	0.938200	0.938200	0.000000
C261	C26	0.561800	0.561800	0.500000
C271	C27	0.061800	0.061800	0.000000
C281	C28	0.438200	0.438200	0.500000
N11	N1	0.592800	0.407200	0.876500
N21	N2	0.914200	0.085800	0.632600
N31	N3	0.907200	0.092800	0.376500
N41	N4	0.585800	0.414200	0.132600
N51	N5	0.092800	0.907200	0.623500
N61	N6	0.414200	0.585800	0.867400
N71	N7	0.407200	0.592800	0.123500
N81	N8	0.085800	0.914200	0.367400
N91	N9	0.695600	0.695600	0.000000
N101	N10	0.804400	0.804400	0.500000
N111	N11	0.304400	0.304400	0.000000
N121	N12	0.195600	0.195600	0.500000
