data_DISSUU_freeONLY_PM
_symmetry_space_group_name_H-M	'P1'
_cell_length_a	8.455200
_cell_length_b	10.061400
_cell_length_c	12.821800
_cell_angle_alpha	109.012000
_cell_angle_beta	90.922000
_cell_angle_gamma	91.298000
_symmetry_Int_Tables_number 1

loop_
_symmetry_equiv_pos_as_xyz
'x,y,z'

loop_
_atom_site_label
_atom_site_type_symbol
_atom_site_fract_x
_atom_site_fract_y
_atom_site_fract_z
Zn11	Zn1	0.052990	0.182170	0.156040
Zn21	Zn2	0.259820	0.998320	0.545170
Zn31	Zn3	0.185870	0.383270	0.485380
P11	P1	0.019050	0.489740	0.309930
P21	P2	0.060430	0.086860	0.375360
P31	P3	0.508300	0.747840	0.448900
P41	P4	0.227870	0.051940	0.929130
O11	O1	0.170800	0.479600	0.375200
O21	O2	0.871500	0.477200	0.373560
O31	O3	0.026300	0.640100	0.293900
O41	O4	0.013700	0.383100	0.194100
O51	O5	0.173900	0.982300	0.400460
O61	O6	0.049300	0.220800	0.476670
O71	O7	0.892900	0.015500	0.345310
O81	O8	0.125700	0.122300	0.276490
O91	O9	0.400900	0.652800	0.348300
O101	O10	0.404200	0.844900	0.535400
O111	O11	0.614500	0.827000	0.392100
O121	O12	0.593400	0.654700	0.502100
O131	O13	0.219000	0.136500	0.050980
O141	O14	0.156400	0.900400	0.901200
O151	O15	0.122800	0.131000	0.866200
O161	O16	0.397500	0.041200	0.891800
H11	H1	0.329400	0.596500	0.363900
H21	H2	0.009100	0.719200	0.361400
H31	H3	0.121900	0.082500	0.793200
Zn41	Zn4	0.947010	0.817830	0.843960
Zn51	Zn5	0.740180	0.001680	0.454830
Zn61	Zn6	0.814130	0.616730	0.514620
P51	P5	0.980950	0.510260	0.690070
P61	P6	0.939570	0.913140	0.624640
P71	P7	0.491700	0.252160	0.551100
P81	P8	0.772130	0.948060	0.070870
O171	O17	0.829200	0.520400	0.624800
O181	O18	0.128500	0.522800	0.626440
O191	O19	0.973700	0.359900	0.706100
O201	O20	0.986300	0.616900	0.805900
O211	O21	0.826100	0.017700	0.599540
O221	O22	0.950700	0.779200	0.523330
O231	O23	0.107100	0.984500	0.654690
O241	O24	0.874300	0.877700	0.723510
O251	O25	0.599100	0.347200	0.651700
O261	O26	0.595800	0.155100	0.464600
O271	O27	0.385500	0.173000	0.607900
O281	O28	0.406600	0.345300	0.497900
O291	O29	0.781000	0.863500	0.949020
O301	O30	0.843600	0.099600	0.098800
O311	O31	0.877200	0.869000	0.133800
O321	O32	0.602500	0.958800	0.108200
H41	H4	0.670600	0.403500	0.636100
H51	H5	0.990900	0.280800	0.638600
H61	H6	0.878100	0.917500	0.206800
