data_DIXNUV01_freeONLY_PM
_symmetry_space_group_name_H-M	'P1'
_cell_length_a	8.020300
_cell_length_b	20.455000
_cell_length_c	8.612000
_cell_angle_alpha	90.000000
_cell_angle_beta	90.650000
_cell_angle_gamma	90.000000
_symmetry_Int_Tables_number 1

loop_
_symmetry_equiv_pos_as_xyz
'x,y,z'

loop_
_atom_site_label
_atom_site_type_symbol
_atom_site_fract_x
_atom_site_fract_y
_atom_site_fract_z
N11	N1	0.154200	0.501630	0.687840
N21	N2	0.078100	0.502710	0.831900
N31	N3	0.347300	0.500420	0.864100
N41	N4	0.505000	0.500040	0.927800
N51	N5	0.125600	0.574020	0.403000
N61	N6	0.298300	0.577880	0.401700
N71	N7	0.189400	0.667240	0.304600
N81	N8	0.156700	0.730340	0.251100
N91	N9	0.325000	0.920950	0.119100
N101	N10	0.152500	0.914260	0.100400
N111	N11	0.256900	0.824240	0.198000
N121	N12	0.288700	0.761400	0.250200
C11	C1	0.315500	0.500340	0.709100
H11	H1	0.396800	0.499500	0.629700
C21	C2	0.196800	0.501940	0.936000
H21	H2	0.181000	0.502400	0.045100
C31	C3	0.062200	0.627270	0.343400
H31	H3	0.946800	0.636400	0.329700
C41	C4	0.334100	0.634960	0.343200
H41	H4	0.443500	0.651600	0.329500
C51	C5	0.383700	0.867230	0.178000
H51	H5	0.497500	0.859200	0.203100
C61	C6	0.114800	0.855490	0.148200
H61	H6	0.005800	0.837300	0.148500
N131	N13	0.345800	0.001630	0.812160
N141	N14	0.421900	0.002710	0.668100
N151	N15	0.152700	0.000420	0.635900
N161	N16	0.995000	0.000040	0.572200
N171	N17	0.374400	0.074020	0.097000
N181	N18	0.201700	0.077880	0.098300
N191	N19	0.310600	0.167240	0.195400
N201	N20	0.343300	0.230340	0.248900
N211	N21	0.175000	0.420950	0.380900
N221	N22	0.347500	0.414260	0.399600
N231	N23	0.243100	0.324240	0.302000
N241	N24	0.211300	0.261400	0.249800
C71	C7	0.184500	0.000340	0.790900
H71	H7	0.103200	0.999500	0.870300
C81	C8	0.303200	0.001940	0.564000
H81	H8	0.319000	0.002400	0.454900
C91	C9	0.437800	0.127270	0.156600
H91	H9	0.553200	0.136400	0.170300
C101	C10	0.165900	0.134960	0.156800
H101	H10	0.056500	0.151600	0.170500
C111	C11	0.116300	0.367230	0.322000
H111	H11	0.002500	0.359200	0.296900
C121	C12	0.385200	0.355490	0.351800
H121	H12	0.494200	0.337300	0.351500
N251	N25	0.845800	0.498370	0.312160
N261	N26	0.921900	0.497290	0.168100
N271	N27	0.652700	0.499580	0.135900
N281	N28	0.495000	0.499960	0.072200
N291	N29	0.874400	0.425980	0.597000
N301	N30	0.701700	0.422120	0.598300
N311	N31	0.810600	0.332760	0.695400
N321	N32	0.843300	0.269660	0.748900
N331	N33	0.675000	0.079050	0.880900
N341	N34	0.847500	0.085740	0.899600
N351	N35	0.743100	0.175760	0.802000
N361	N36	0.711300	0.238600	0.749800
C131	C13	0.684500	0.499660	0.290900
H131	H13	0.603200	0.500500	0.370300
C141	C14	0.803200	0.498060	0.064000
H141	H14	0.819000	0.497600	0.954900
C151	C15	0.937800	0.372730	0.656600
H151	H15	0.053200	0.363600	0.670300
C161	C16	0.665900	0.365040	0.656800
H161	H16	0.556500	0.348400	0.670500
C171	C17	0.616300	0.132770	0.822000
H171	H17	0.502500	0.140800	0.796900
C181	C18	0.885200	0.144510	0.851800
H181	H18	0.994200	0.162700	0.851500
N371	N37	0.654200	0.998370	0.187840
N381	N38	0.578100	0.997290	0.331900
N391	N39	0.847300	0.999580	0.364100
N401	N40	0.005000	0.999960	0.427800
N411	N41	0.625600	0.925980	0.903000
N421	N42	0.798300	0.922120	0.901700
N431	N43	0.689400	0.832760	0.804600
N441	N44	0.656700	0.769660	0.751100
N451	N45	0.825000	0.579050	0.619100
N461	N46	0.652500	0.585740	0.600400
N471	N47	0.756900	0.675760	0.698000
N481	N48	0.788700	0.738600	0.750200
C191	C19	0.815500	0.999660	0.209100
H191	H19	0.896800	0.000500	0.129700
C201	C20	0.696800	0.998060	0.436000
H201	H20	0.681000	0.997600	0.545100
C211	C21	0.562200	0.872730	0.843400
H211	H21	0.446800	0.863600	0.829700
C221	C22	0.834100	0.865040	0.843200
H221	H22	0.943500	0.848400	0.829500
C231	C23	0.883700	0.632770	0.678000
H231	H23	0.997500	0.640800	0.703100
C241	C24	0.614800	0.644510	0.648200
H241	H24	0.505800	0.662700	0.648500
Cu11	Cu1	0.000000	0.500000	0.500000
Cu21	Cu2	0.500000	0.000000	0.000000
