data_DOGMET_freeONLY_PM
_symmetry_space_group_name_H-M	'P1'
_cell_length_a	13.302000
_cell_length_b	13.352000
_cell_length_c	19.894000
_cell_angle_alpha	95.630000
_cell_angle_beta	104.800000
_cell_angle_gamma	117.750000
_symmetry_Int_Tables_number 1

loop_
_symmetry_equiv_pos_as_xyz
'x,y,z'

loop_
_atom_site_label
_atom_site_type_symbol
_atom_site_fract_x
_atom_site_fract_y
_atom_site_fract_z
Gd11	Gd1	0.661860	0.946050	0.595400
Gd21	Gd2	0.819870	0.037740	0.904700
Cu11	Cu1	0.772600	0.002260	0.247410
Cu21	Cu2	0.743590	0.483460	0.750720
Cl11	Cl1	0.939260	0.597070	0.742920
P11	P1	0.869400	0.073300	0.498790
P21	P2	0.638150	0.197290	0.542830
Cl21	Cl2	0.645100	0.804160	0.245650
P31	P3	0.878730	0.803110	0.946090
P41	P4	0.463180	0.089220	0.256320
P51	P5	0.057870	0.883140	0.241930
P61	P6	0.617700	0.870500	0.995080
P71	P7	0.610400	0.653150	0.579580
P81	P8	0.894200	0.341760	0.933900
O11	O1	0.008300	0.866900	0.995800
O21	O2	0.514200	0.170700	0.500500
O31	O3	0.159000	0.951400	0.312800
O41	O4	0.661300	0.779100	0.613300
O51	O5	0.431600	0.060700	0.321560
O61	O6	0.838300	0.875100	0.905700
O71	O7	0.083600	0.919600	0.176400
O81	O8	0.823400	0.210300	0.908400
O91	O9	0.710800	0.974800	0.978900
O101	O10	0.543260	0.224200	0.269400
O111	O11	0.601300	0.753900	0.963700
O121	O12	0.644800	0.101000	0.574200
O131	O13	0.778500	0.981400	0.524000
O141	O14	0.012700	0.749000	0.230100
O151	O15	0.361500	0.043490	0.186600
O161	O16	0.719400	0.234300	0.494900
O171	O17	0.649800	0.644300	0.512500
O181	O18	0.993700	0.084100	0.525000
O191	O19	0.792200	0.740600	0.988000
O201	O20	0.475400	0.574600	0.558800
O211	O21	0.863700	0.391300	0.992600
O221	O22	0.497800	0.867800	0.972000
N11	N1	0.642400	0.545000	0.694100
O231	O23	0.886800	0.194000	0.518500
N21	N2	0.639200	0.334400	0.661400
N31	N3	0.744700	0.578100	0.844100
N41	N4	0.755400	0.372300	0.811600
O241	O24	0.032100	0.385800	0.958600
C11	C1	0.674800	0.371800	0.851300
H11	H1	0.593500	0.339300	0.817700
H21	H2	0.672000	0.322900	0.884600
N51	N5	0.680800	0.095100	0.248600
C21	C2	0.877800	0.408900	0.858600
H31	H3	0.920200	0.492900	0.878200
H41	H4	0.919300	0.394000	0.828800
C31	C3	0.556900	0.024100	0.246700
H51	H5	0.512900	0.964900	0.201300
H61	H6	0.559600	0.983300	0.284200
C41	C4	0.523500	0.433700	0.664800
H71	H7	0.462800	0.447600	0.635800
H81	H8	0.498500	0.404900	0.704100
N61	N6	0.929000	0.002100	0.245400
C51	C5	0.926900	0.890900	0.246200
H91	H9	0.913200	0.870200	0.289700
H101	H10	0.857400	0.831000	0.206000
C61	C6	0.808000	0.015300	0.401200
H111	H11	0.809300	0.943400	0.391100
H121	H12	0.723700	0.993900	0.385500
C71	C7	0.863100	0.688600	0.878400
H131	H13	0.922100	0.667600	0.900400
H141	H14	0.886100	0.723200	0.840200
C81	C8	0.533900	0.342800	0.619100
H151	H15	0.545300	0.365200	0.575600
H161	H16	0.460200	0.267300	0.605600
C91	C9	0.711100	0.328300	0.616900
H171	H17	0.735500	0.395900	0.597000
H181	H18	0.784200	0.335100	0.648400
C101	C10	0.599400	0.235900	0.695800
H191	H19	0.532700	0.228200	0.710600
H201	H20	0.571100	0.163700	0.661400
C111	C11	0.701500	0.255400	0.760400
H211	H21	0.763400	0.251800	0.744800
H221	H22	0.671500	0.193900	0.784800
N71	N7	0.744100	0.005000	0.142000
C121	C12	0.641100	0.594700	0.816100
H231	H23	0.646500	0.654500	0.851100
H241	H24	0.566400	0.522400	0.808000
N81	N8	0.864800	0.088100	0.354700
C131	C13	0.720800	0.496000	0.892700
H251	H25	0.661200	0.496300	0.912200
H261	H26	0.794800	0.522800	0.932600
C141	C14	0.639900	0.631200	0.745500
H271	H27	0.567700	0.635200	0.725300
H281	H28	0.709800	0.708200	0.754400
C151	C15	0.689400	0.596900	0.638100
H291	H29	0.692600	0.537800	0.607700
H301	H30	0.772100	0.660500	0.662300
C161	C16	0.662800	0.887600	0.092000
H311	H31	0.589300	0.852000	0.103700
H321	H32	0.700800	0.841600	0.102900
C171	C17	0.020800	0.100500	0.298400
H331	H33	0.029000	0.170100	0.283500
H341	H34	0.096700	0.102200	0.306300
C181	C18	0.691000	0.145000	0.187700
H351	H35	0.766800	0.219000	0.203700
H361	H36	0.626500	0.162000	0.172900
C191	C19	0.994500	0.099100	0.362100
H371	H37	0.057800	0.170400	0.398200
H381	H38	0.995600	0.033900	0.379200
C201	C20	0.928200	0.022000	0.164800
H391	H39	0.895900	0.947000	0.131900
H401	H40	0.010900	0.071800	0.167000
C211	C21	0.862100	0.071200	0.138100
H411	H41	0.856500	0.071700	0.088600
H421	H42	0.901100	0.151400	0.165900
C221	C22	0.758900	0.186500	0.324600
C231	C23	0.687000	0.079400	0.128500
H431	H43	0.725900	0.132000	0.101100
H441	H44	0.602600	0.028100	0.098500
C241	C24	0.862700	0.193500	0.357600
H451	H45	0.889900	0.233100	0.407800
H461	H46	0.921500	0.243100	0.337500
Gd31	Gd3	0.338140	0.053950	0.404600
Gd41	Gd4	0.180130	0.962260	0.095300
Cu31	Cu3	0.227400	0.997740	0.752590
Cu41	Cu4	0.256410	0.516540	0.249280
Cl31	Cl3	0.060740	0.402930	0.257080
P91	P9	0.130600	0.926700	0.501210
P101	P10	0.361850	0.802710	0.457170
Cl41	Cl4	0.354900	0.195840	0.754350
P111	P11	0.121270	0.196890	0.053910
P121	P12	0.536820	0.910780	0.743680
P131	P13	0.942130	0.116860	0.758070
P141	P14	0.382300	0.129500	0.004920
P151	P15	0.389600	0.346850	0.420420
P161	P16	0.105800	0.658240	0.066100
O251	O25	0.991700	0.133100	0.004200
O261	O26	0.485800	0.829300	0.499500
O271	O27	0.841000	0.048600	0.687200
O281	O28	0.338700	0.220900	0.386700
O291	O29	0.568400	0.939300	0.678440
O301	O30	0.161700	0.124900	0.094300
O311	O31	0.916400	0.080400	0.823600
O321	O32	0.176600	0.789700	0.091600
O331	O33	0.289200	0.025200	0.021100
O341	O34	0.456740	0.775800	0.730600
O351	O35	0.398700	0.246100	0.036300
O361	O36	0.355200	0.899000	0.425800
O371	O37	0.221500	0.018600	0.476000
O381	O38	0.987300	0.251000	0.769900
O391	O39	0.638500	0.956510	0.813400
O401	O40	0.280600	0.765700	0.505100
O411	O41	0.350200	0.355700	0.487500
O421	O42	0.006300	0.915900	0.475000
O431	O43	0.207800	0.259400	0.012000
O441	O44	0.524600	0.425400	0.441200
O451	O45	0.136300	0.608700	0.007400
O461	O46	0.502200	0.132200	0.028000
N91	N9	0.357600	0.455000	0.305900
O471	O47	0.113200	0.806000	0.481500
N101	N10	0.360800	0.665600	0.338600
N111	N11	0.255300	0.421900	0.155900
N121	N12	0.244600	0.627700	0.188400
O481	O48	0.967900	0.614200	0.041400
C251	C25	0.325200	0.628200	0.148700
H471	H47	0.406500	0.660700	0.182300
H481	H48	0.328000	0.677100	0.115400
N131	N13	0.319200	0.904900	0.751400
C261	C26	0.122200	0.591100	0.141400
H491	H49	0.079800	0.507100	0.121800
H501	H50	0.080700	0.606000	0.171200
C271	C27	0.443100	0.975900	0.753300
H511	H51	0.487100	0.035100	0.798700
H521	H52	0.440400	0.016700	0.715800
C281	C28	0.476500	0.566300	0.335200
H531	H53	0.537200	0.552400	0.364200
H541	H54	0.501500	0.595100	0.295900
N141	N14	0.071000	0.997900	0.754600
C291	C29	0.073100	0.109100	0.753800
H551	H55	0.086800	0.129800	0.710300
H561	H56	0.142600	0.169000	0.794000
C301	C30	0.192000	0.984700	0.598800
H571	H57	0.190700	0.056600	0.608900
H581	H58	0.276300	0.006100	0.614500
C311	C31	0.136900	0.311400	0.121600
H591	H59	0.077900	0.332400	0.099600
H601	H60	0.113900	0.276800	0.159800
C321	C32	0.466100	0.657200	0.380900
H611	H61	0.454700	0.634800	0.424400
H621	H62	0.539800	0.732700	0.394400
C331	C33	0.288900	0.671700	0.383100
H631	H63	0.264500	0.604100	0.403000
H641	H64	0.215800	0.664900	0.351600
C341	C34	0.400600	0.764100	0.304200
H651	H65	0.467300	0.771800	0.289400
H661	H66	0.428900	0.836300	0.338600
C351	C35	0.298500	0.744600	0.239600
H671	H67	0.236600	0.748200	0.255200
H681	H68	0.328500	0.806100	0.215200
N151	N15	0.255900	0.995000	0.858000
C361	C36	0.358900	0.405300	0.183900
H691	H69	0.353500	0.345500	0.148900
H701	H70	0.433600	0.477600	0.192000
N161	N16	0.135200	0.911900	0.645300
C371	C37	0.279200	0.504000	0.107300
H711	H71	0.338800	0.503700	0.087800
H721	H72	0.205200	0.477200	0.067400
C381	C38	0.360100	0.368800	0.254500
H731	H73	0.432300	0.364800	0.274700
H741	H74	0.290200	0.291800	0.245600
C391	C39	0.310600	0.403100	0.361900
H751	H75	0.307400	0.462200	0.392300
H761	H76	0.227900	0.339500	0.337700
C401	C40	0.337200	0.112400	0.908000
H771	H77	0.410700	0.148000	0.896300
H781	H78	0.299200	0.158400	0.897100
C411	C41	0.979200	0.899500	0.701600
H791	H79	0.971000	0.829900	0.716500
H801	H80	0.903300	0.897800	0.693700
C421	C42	0.309000	0.855000	0.812300
H811	H81	0.233200	0.781000	0.796300
H821	H82	0.373500	0.838000	0.827100
C431	C43	0.005500	0.900900	0.637900
H831	H83	0.942200	0.829600	0.601800
H841	H84	0.004400	0.966100	0.620800
C441	C44	0.071800	0.978000	0.835200
H851	H85	0.104100	0.053000	0.868100
H861	H86	0.989100	0.928200	0.833000
C451	C45	0.137900	0.928800	0.861900
H871	H87	0.143500	0.928300	0.911400
H881	H88	0.098900	0.848600	0.834100
C461	C46	0.241100	0.813500	0.675400
C471	C47	0.313000	0.920600	0.871500
H891	H89	0.274100	0.868000	0.898900
H901	H90	0.397400	0.971900	0.901500
C481	C48	0.137300	0.806500	0.642400
H911	H91	0.110100	0.766900	0.592200
H921	H92	0.078500	0.756900	0.662500
