data_DOKBUC_freeONLY_PM
_symmetry_space_group_name_H-M	'P1'
_cell_length_a	9.021000
_cell_length_b	13.841000
_cell_length_c	30.183000
_cell_angle_alpha	90.000000
_cell_angle_beta	90.000000
_cell_angle_gamma	90.000000
_symmetry_Int_Tables_number 1

loop_
_symmetry_equiv_pos_as_xyz
'x,y,z'

loop_
_atom_site_label
_atom_site_type_symbol
_atom_site_fract_x
_atom_site_fract_y
_atom_site_fract_z
C11	C1	0.133300	0.673900	0.189960
C21	C2	0.192000	0.678800	0.143170
C31	C3	0.333700	0.650600	0.132480
H11	H1	0.398500	0.632500	0.155000
C41	C4	0.382200	0.648500	0.088850
H21	H2	0.478500	0.629800	0.082000
C51	C5	0.284300	0.674900	0.055670
C61	C6	0.145200	0.706100	0.065540
H31	H3	0.081700	0.725800	0.043000
C71	C7	0.098400	0.708500	0.109120
H41	H4	0.003300	0.730100	0.115800
C81	C8	0.288800	0.582600	0.989680
C91	C9	0.291000	0.583100	0.944190
H51	H5	0.319600	0.638500	0.929000
C101	C10	0.346200	0.830700	0.282360
H61	H6	0.338500	0.839100	0.251900
C111	C11	0.395800	0.898200	0.311190
H71	H7	0.431900	0.959200	0.304200
C121	C12	0.330800	0.770000	0.346220
H81	H8	0.311900	0.727200	0.369300
C131	C13	0.416600	0.901200	0.394730
C141	C14	0.347300	0.868300	0.431910
H91	H9	0.275700	0.820300	0.429600
C151	C15	0.382000	0.905500	0.472750
H101	H10	0.336000	0.880300	0.497800
C161	C16	0.484000	0.979400	0.477610
C171	C17	0.547000	0.012300	0.439870
H111	H11	0.615600	0.062200	0.441800
C181	C18	0.514200	0.975200	0.398360
H121	H12	0.558800	0.000800	0.373200
Fe11	Fe1	0.193640	0.617140	0.285200
N11	N1	0.309200	0.748900	0.304490
N21	N2	0.382600	0.859200	0.352360
O11	O1	0.285300	0.577420	0.851940
O21	O2	0.223700	0.651000	0.219600
O31	O3	0.999400	0.692200	0.196190
O41	O4	0.330100	0.667300	0.011380
O51	O5	0.100900	0.475340	0.271820
C191	C19	0.366700	0.326100	0.189960
C201	C20	0.308000	0.321200	0.143170
C211	C21	0.166300	0.349400	0.132480
H131	H13	0.101500	0.367500	0.155000
C221	C22	0.117800	0.351500	0.088850
H141	H14	0.021500	0.370200	0.082000
C231	C23	0.215700	0.325100	0.055670
C241	C24	0.354800	0.293900	0.065540
H151	H15	0.418300	0.274200	0.043000
C251	C25	0.401600	0.291500	0.109120
H161	H16	0.496700	0.269900	0.115800
C261	C26	0.211200	0.417400	0.989680
C271	C27	0.209000	0.416900	0.944190
H171	H17	0.180400	0.361500	0.929000
C281	C28	0.153800	0.169300	0.282360
H181	H18	0.161500	0.160900	0.251900
C291	C29	0.104200	0.101800	0.311190
H191	H19	0.068100	0.040800	0.304200
C301	C30	0.169200	0.230000	0.346220
H201	H20	0.188100	0.272800	0.369300
C311	C31	0.083400	0.098800	0.394730
C321	C32	0.152700	0.131700	0.431910
H211	H21	0.224300	0.179700	0.429600
C331	C33	0.118000	0.094500	0.472750
H221	H22	0.164000	0.119700	0.497800
C341	C34	0.016000	0.020600	0.477610
C351	C35	0.953000	0.987700	0.439870
H231	H23	0.884400	0.937800	0.441800
C361	C36	0.985800	0.024800	0.398360
H241	H24	0.941200	0.999200	0.373200
Fe21	Fe2	0.306360	0.382860	0.285200
N31	N3	0.190800	0.251100	0.304490
N41	N4	0.117400	0.140800	0.352360
O61	O6	0.214700	0.422580	0.851940
O71	O7	0.276300	0.349000	0.219600
O81	O8	0.500600	0.307800	0.196190
O91	O9	0.169900	0.332700	0.011380
O101	O10	0.399100	0.524660	0.271820
C371	C37	0.866700	0.673900	0.310040
C381	C38	0.808000	0.678800	0.356830
C391	C39	0.666300	0.650600	0.367520
H251	H25	0.601500	0.632500	0.345000
C401	C40	0.617800	0.648500	0.411150
H261	H26	0.521500	0.629800	0.418000
C411	C41	0.715700	0.674900	0.444330
C421	C42	0.854800	0.706100	0.434460
H271	H27	0.918300	0.725800	0.457000
C431	C43	0.901600	0.708500	0.390880
H281	H28	0.996700	0.730100	0.384200
C441	C44	0.711200	0.582600	0.510320
C451	C45	0.709000	0.583100	0.555810
H291	H29	0.680400	0.638500	0.571000
C461	C46	0.653800	0.830700	0.217640
H301	H30	0.661500	0.839100	0.248100
C471	C47	0.604200	0.898200	0.188810
H311	H31	0.568100	0.959200	0.195800
C481	C48	0.669200	0.770000	0.153780
H321	H32	0.688100	0.727200	0.130700
C491	C49	0.583400	0.901200	0.105270
C501	C50	0.652700	0.868300	0.068090
H331	H33	0.724300	0.820300	0.070400
C511	C51	0.618000	0.905500	0.027250
H341	H34	0.664000	0.880300	0.002200
C521	C52	0.516000	0.979400	0.022390
C531	C53	0.453000	0.012300	0.060130
H351	H35	0.384400	0.062200	0.058200
C541	C54	0.485800	0.975200	0.101640
H361	H36	0.441200	0.000800	0.126800
Fe31	Fe3	0.806360	0.617140	0.214800
N51	N5	0.690800	0.748900	0.195510
N61	N6	0.617400	0.859200	0.147640
O111	O11	0.714700	0.577420	0.648060
O121	O12	0.776300	0.651000	0.280400
O131	O13	0.000600	0.692200	0.303810
O141	O14	0.669900	0.667300	0.488620
O151	O15	0.899100	0.475340	0.228180
C551	C55	0.633300	0.326100	0.310040
C561	C56	0.692000	0.321200	0.356830
C571	C57	0.833700	0.349400	0.367520
H371	H37	0.898500	0.367500	0.345000
C581	C58	0.882200	0.351500	0.411150
H381	H38	0.978500	0.370200	0.418000
C591	C59	0.784300	0.325100	0.444330
C601	C60	0.645200	0.293900	0.434460
H391	H39	0.581700	0.274200	0.457000
C611	C61	0.598400	0.291500	0.390880
H401	H40	0.503300	0.269900	0.384200
C621	C62	0.788800	0.417400	0.510320
C631	C63	0.791000	0.416900	0.555810
H411	H41	0.819600	0.361500	0.571000
C641	C64	0.846200	0.169300	0.217640
H421	H42	0.838500	0.160900	0.248100
C651	C65	0.895800	0.101800	0.188810
H431	H43	0.931900	0.040800	0.195800
C661	C66	0.830800	0.230000	0.153780
H441	H44	0.811900	0.272800	0.130700
C671	C67	0.916600	0.098800	0.105270
C681	C68	0.847300	0.131700	0.068090
H451	H45	0.775700	0.179700	0.070400
C691	C69	0.882000	0.094500	0.027250
H461	H46	0.836000	0.119700	0.002200
C701	C70	0.984000	0.020600	0.022390
C711	C71	0.047000	0.987700	0.060130
H471	H47	0.115600	0.937800	0.058200
C721	C72	0.014200	0.024800	0.101640
H481	H48	0.058800	0.999200	0.126800
Fe41	Fe4	0.693640	0.382860	0.214800
N71	N7	0.809200	0.251100	0.195510
N81	N8	0.882600	0.140800	0.147640
O161	O16	0.785300	0.422580	0.648060
O171	O17	0.723700	0.349000	0.280400
O181	O18	0.499400	0.307800	0.303810
O191	O19	0.830100	0.332700	0.488620
O201	O20	0.600900	0.524660	0.228180
C731	C73	0.866700	0.326100	0.810040
C741	C74	0.808000	0.321200	0.856830
C751	C75	0.666300	0.349400	0.867520
H491	H49	0.601500	0.367500	0.845000
C761	C76	0.617800	0.351500	0.911150
H501	H50	0.521500	0.370200	0.918000
C771	C77	0.715700	0.325100	0.944330
C781	C78	0.854800	0.293900	0.934460
H511	H51	0.918300	0.274200	0.957000
C791	C79	0.901600	0.291500	0.890880
H521	H52	0.996700	0.269900	0.884200
C801	C80	0.711200	0.417400	0.010320
C811	C81	0.709000	0.416900	0.055810
H531	H53	0.680400	0.361500	0.071000
C821	C82	0.653800	0.169300	0.717640
H541	H54	0.661500	0.160900	0.748100
C831	C83	0.604200	0.101800	0.688810
H551	H55	0.568100	0.040800	0.695800
C841	C84	0.669200	0.230000	0.653780
H561	H56	0.688100	0.272800	0.630700
C851	C85	0.583400	0.098800	0.605270
C861	C86	0.652700	0.131700	0.568090
H571	H57	0.724300	0.179700	0.570400
C871	C87	0.618000	0.094500	0.527250
H581	H58	0.664000	0.119700	0.502200
C881	C88	0.516000	0.020600	0.522390
C891	C89	0.453000	0.987700	0.560130
H591	H59	0.384400	0.937800	0.558200
C901	C90	0.485800	0.024800	0.601640
H601	H60	0.441200	0.999200	0.626800
Fe51	Fe5	0.806360	0.382860	0.714800
N91	N9	0.690800	0.251100	0.695510
N101	N10	0.617400	0.140800	0.647640
O211	O21	0.714700	0.422580	0.148060
O221	O22	0.776300	0.349000	0.780400
O231	O23	0.000600	0.307800	0.803810
O241	O24	0.669900	0.332700	0.988620
O251	O25	0.899100	0.524660	0.728180
C911	C91	0.633300	0.673900	0.810040
C921	C92	0.692000	0.678800	0.856830
C931	C93	0.833700	0.650600	0.867520
H611	H61	0.898500	0.632500	0.845000
C941	C94	0.882200	0.648500	0.911150
H621	H62	0.978500	0.629800	0.918000
C951	C95	0.784300	0.674900	0.944330
C961	C96	0.645200	0.706100	0.934460
H631	H63	0.581700	0.725800	0.957000
C971	C97	0.598400	0.708500	0.890880
H641	H64	0.503300	0.730100	0.884200
C981	C98	0.788800	0.582600	0.010320
C991	C99	0.791000	0.583100	0.055810
H651	H65	0.819600	0.638500	0.071000
C1001	C100	0.846200	0.830700	0.717640
H661	H66	0.838500	0.839100	0.748100
C1011	C101	0.895800	0.898200	0.688810
H671	H67	0.931900	0.959200	0.695800
C1021	C102	0.830800	0.770000	0.653780
H681	H68	0.811900	0.727200	0.630700
C1031	C103	0.916600	0.901200	0.605270
C1041	C104	0.847300	0.868300	0.568090
H691	H69	0.775700	0.820300	0.570400
C1051	C105	0.882000	0.905500	0.527250
H701	H70	0.836000	0.880300	0.502200
C1061	C106	0.984000	0.979400	0.522390
C1071	C107	0.047000	0.012300	0.560130
H711	H71	0.115600	0.062200	0.558200
C1081	C108	0.014200	0.975200	0.601640
H721	H72	0.058800	0.000800	0.626800
Fe61	Fe6	0.693640	0.617140	0.714800
N111	N11	0.809200	0.748900	0.695510
N121	N12	0.882600	0.859200	0.647640
O261	O26	0.785300	0.577420	0.148060
O271	O27	0.723700	0.651000	0.780400
O281	O28	0.499400	0.692200	0.803810
O291	O29	0.830100	0.667300	0.988620
O301	O30	0.600900	0.475340	0.728180
C1091	C109	0.133300	0.326100	0.689960
C1101	C110	0.192000	0.321200	0.643170
C1111	C111	0.333700	0.349400	0.632480
H731	H73	0.398500	0.367500	0.655000
C1121	C112	0.382200	0.351500	0.588850
H741	H74	0.478500	0.370200	0.582000
C1131	C113	0.284300	0.325100	0.555670
C1141	C114	0.145200	0.293900	0.565540
H751	H75	0.081700	0.274200	0.543000
C1151	C115	0.098400	0.291500	0.609120
H761	H76	0.003300	0.269900	0.615800
C1161	C116	0.288800	0.417400	0.489680
C1171	C117	0.291000	0.416900	0.444190
H771	H77	0.319600	0.361500	0.429000
C1181	C118	0.346200	0.169300	0.782360
H781	H78	0.338500	0.160900	0.751900
C1191	C119	0.395800	0.101800	0.811190
H791	H79	0.431900	0.040800	0.804200
C1201	C120	0.330800	0.230000	0.846220
H801	H80	0.311900	0.272800	0.869300
C1211	C121	0.416600	0.098800	0.894730
C1221	C122	0.347300	0.131700	0.931910
H811	H81	0.275700	0.179700	0.929600
C1231	C123	0.382000	0.094500	0.972750
H821	H82	0.336000	0.119700	0.997800
C1241	C124	0.484000	0.020600	0.977610
C1251	C125	0.547000	0.987700	0.939870
H831	H83	0.615600	0.937800	0.941800
C1261	C126	0.514200	0.024800	0.898360
H841	H84	0.558800	0.999200	0.873200
Fe71	Fe7	0.193640	0.382860	0.785200
N131	N13	0.309200	0.251100	0.804490
N141	N14	0.382600	0.140800	0.852360
O311	O31	0.285300	0.422580	0.351940
O321	O32	0.223700	0.349000	0.719600
O331	O33	0.999400	0.307800	0.696190
O341	O34	0.330100	0.332700	0.511380
O351	O35	0.100900	0.524660	0.771820
C1271	C127	0.366700	0.673900	0.689960
C1281	C128	0.308000	0.678800	0.643170
C1291	C129	0.166300	0.650600	0.632480
H851	H85	0.101500	0.632500	0.655000
C1301	C130	0.117800	0.648500	0.588850
H861	H86	0.021500	0.629800	0.582000
C1311	C131	0.215700	0.674900	0.555670
C1321	C132	0.354800	0.706100	0.565540
H871	H87	0.418300	0.725800	0.543000
C1331	C133	0.401600	0.708500	0.609120
H881	H88	0.496700	0.730100	0.615800
C1341	C134	0.211200	0.582600	0.489680
C1351	C135	0.209000	0.583100	0.444190
H891	H89	0.180400	0.638500	0.429000
C1361	C136	0.153800	0.830700	0.782360
H901	H90	0.161500	0.839100	0.751900
C1371	C137	0.104200	0.898200	0.811190
H911	H91	0.068100	0.959200	0.804200
C1381	C138	0.169200	0.770000	0.846220
H921	H92	0.188100	0.727200	0.869300
C1391	C139	0.083400	0.901200	0.894730
C1401	C140	0.152700	0.868300	0.931910
H931	H93	0.224300	0.820300	0.929600
C1411	C141	0.118000	0.905500	0.972750
H941	H94	0.164000	0.880300	0.997800
C1421	C142	0.016000	0.979400	0.977610
C1431	C143	0.953000	0.012300	0.939870
H951	H95	0.884400	0.062200	0.941800
C1441	C144	0.985800	0.975200	0.898360
H961	H96	0.941200	0.000800	0.873200
Fe81	Fe8	0.306360	0.617140	0.785200
N151	N15	0.190800	0.748900	0.804490
N161	N16	0.117400	0.859200	0.852360
O361	O36	0.214700	0.577420	0.351940
O371	O37	0.276300	0.651000	0.719600
O381	O38	0.500600	0.692200	0.696190
O391	O39	0.169900	0.667300	0.511380
O401	O40	0.399100	0.475340	0.771820
C1451	C145	0.000000	0.435700	0.250000
H971	H97	0.000000	0.368500	0.250000
C1461	C146	0.500000	0.564300	0.250000
H981	H98	0.500000	0.631500	0.250000
C1471	C147	0.000000	0.564300	0.750000
H991	H99	0.000000	0.631500	0.750000
C1481	C148	0.500000	0.435700	0.750000
H1001	H100	0.500000	0.368500	0.750000
C1491	C149	0.250000	0.500000	0.013460
H1011	H101	0.250000	0.500000	0.044300
C1501	C150	0.250000	0.500000	0.870910
C1511	C151	0.250000	0.500000	0.920780
C1521	C152	0.750000	0.500000	0.486540
H1021	H102	0.750000	0.500000	0.455700
C1531	C153	0.750000	0.500000	0.629090
C1541	C154	0.750000	0.500000	0.579220
C1551	C155	0.750000	0.500000	0.986540
H1031	H103	0.750000	0.500000	0.955700
C1561	C156	0.750000	0.500000	0.129090
C1571	C157	0.750000	0.500000	0.079220
C1581	C158	0.250000	0.500000	0.513460
H1041	H104	0.250000	0.500000	0.544300
C1591	C159	0.250000	0.500000	0.370910
C1601	C160	0.250000	0.500000	0.420780
