data_DOLXOR02_freeONLY_PM
_symmetry_space_group_name_H-M	'P1'
_cell_length_a	9.450500
_cell_length_b	9.450500
_cell_length_c	16.436700
_cell_angle_alpha	88.510700
_cell_angle_beta	88.510700
_cell_angle_gamma	83.796300
_symmetry_Int_Tables_number 1

loop_
_symmetry_equiv_pos_as_xyz
'x,y,z'

loop_
_atom_site_label
_atom_site_type_symbol
_atom_site_fract_x
_atom_site_fract_y
_atom_site_fract_z
Cu11	Cu1	0.136060	0.492290	0.502660
Cu21	Cu2	0.507710	0.863940	0.997340
Cu31	Cu3	0.863940	0.507710	0.497340
Cu41	Cu4	0.492290	0.136060	0.002660
Cu51	Cu5	0.397720	0.602280	0.250000
Cu61	Cu6	0.602280	0.397720	0.750000
Cu71	Cu7	0.363820	0.636180	0.750000
Cu81	Cu8	0.636180	0.363820	0.250000
Cu91	Cu9	0.000000	0.000000	0.500000
Cu101	Cu10	0.000000	0.000000	0.000000
H11	H1	0.981400	0.815600	0.647700
H21	H2	0.931900	0.684700	0.757000
H31	H3	0.771800	0.709200	0.785600
H41	H4	0.888200	0.776000	0.833800
H51	H5	0.731100	0.069500	0.717400
H61	H6	0.761000	0.023000	0.808100
H71	H7	0.643900	0.955900	0.760700
H81	H8	0.184400	0.018600	0.852300
H91	H9	0.315300	0.068100	0.743000
H101	H10	0.290800	0.228200	0.714400
H111	H11	0.224000	0.111800	0.666200
H121	H12	0.930500	0.268900	0.782600
H131	H13	0.977000	0.239000	0.691900
H141	H14	0.044100	0.356100	0.739300
H151	H15	0.018600	0.184400	0.352300
H161	H16	0.068100	0.315300	0.243000
H171	H17	0.228200	0.290800	0.214400
H181	H18	0.111800	0.224000	0.166200
H191	H19	0.268900	0.930500	0.282600
H201	H20	0.239000	0.977000	0.191900
H211	H21	0.356100	0.044100	0.239300
H221	H22	0.815600	0.981400	0.147700
H231	H23	0.684700	0.931900	0.257000
H241	H24	0.709200	0.771800	0.285600
H251	H25	0.776000	0.888200	0.333800
H261	H26	0.069500	0.731100	0.217400
H271	H27	0.023000	0.761000	0.308100
H281	H28	0.955900	0.643900	0.260700
C11	C1	0.040760	0.316600	0.510730
C21	C2	0.305520	0.537740	0.340910
C31	C3	0.281710	0.571150	0.660210
C41	C4	0.914790	0.891370	0.661640
C51	C5	0.859700	0.751300	0.780790
C61	C6	0.735300	0.991300	0.756040
C71	C7	0.683400	0.959240	0.989270
C81	C8	0.462260	0.694480	0.159090
C91	C9	0.428850	0.718290	0.839790
C101	C10	0.108630	0.085210	0.838360
C111	C11	0.248700	0.140300	0.719210
C121	C12	0.008700	0.264700	0.743960
C131	C13	0.959240	0.683400	0.489270
C141	C14	0.694480	0.462260	0.659090
C151	C15	0.718290	0.428850	0.339790
C161	C16	0.085210	0.108630	0.338360
C171	C17	0.140300	0.248700	0.219210
C181	C18	0.264700	0.008700	0.243960
C191	C19	0.316600	0.040760	0.010730
C201	C20	0.537740	0.305520	0.840910
C211	C21	0.571150	0.281710	0.160210
C221	C22	0.891370	0.914790	0.161640
C231	C23	0.751300	0.859700	0.280790
C241	C24	0.991300	0.735300	0.256040
N11	N1	0.026040	0.198840	0.513280
N21	N2	0.243260	0.516120	0.399640
N31	N3	0.228390	0.541710	0.602490
N41	N4	0.839990	0.879570	0.728970
N51	N5	0.801160	0.973960	0.986720
N61	N6	0.483880	0.756740	0.100360
N71	N7	0.458290	0.771610	0.897510
N81	N8	0.120430	0.160010	0.771030
N91	N9	0.973960	0.801160	0.486720
N101	N10	0.756740	0.483880	0.600360
N111	N11	0.771610	0.458290	0.397510
N121	N12	0.160010	0.120430	0.271030
N131	N13	0.198840	0.026040	0.013280
N141	N14	0.516120	0.243260	0.899640
N151	N15	0.541710	0.228390	0.102490
N161	N16	0.879570	0.839990	0.228970
O11	O1	0.902730	0.996730	0.615370
O21	O2	0.003270	0.097270	0.884630
O31	O3	0.097270	0.003270	0.384630
O41	O4	0.996730	0.902730	0.115370
