data_DONKUO_freeONLY_PM
_symmetry_space_group_name_H-M	'P1'
_cell_length_a	12.302900
_cell_length_b	17.433600
_cell_length_c	17.492000
_cell_angle_alpha	67.670000
_cell_angle_beta	76.200000
_cell_angle_gamma	71.884000
_symmetry_Int_Tables_number 1

loop_
_symmetry_equiv_pos_as_xyz
'x,y,z'

loop_
_atom_site_label
_atom_site_type_symbol
_atom_site_fract_x
_atom_site_fract_y
_atom_site_fract_z
Mn11	Mn1	0.869460	0.200460	0.645510
Mn21	Mn2	0.857020	0.435050	0.470370
Mn31	Mn3	0.290490	0.090920	0.560760
C11	C1	0.051700	0.541600	0.265200
H11	H1	0.027000	0.573200	0.301400
C21	C2	0.163400	0.531000	0.225000
C31	C3	0.201800	0.485000	0.170800
C41	C4	0.124000	0.450000	0.159600
H21	H2	0.149000	0.418300	0.123500
C51	C5	0.011100	0.458200	0.197800
C61	C6	0.976600	0.505000	0.251400
C71	C7	0.204900	0.632200	0.268400
H31	H3	0.132700	0.668300	0.248300
H41	H4	0.260800	0.666800	0.247700
C81	C8	0.186100	0.603700	0.363100
C91	C9	0.799200	0.594700	0.287800
H51	H5	0.721000	0.598900	0.281600
H61	H6	0.830100	0.634900	0.237900
C101	C10	0.794500	0.621000	0.361600
C111	C11	0.323100	0.476000	0.124100
H71	H7	0.372400	0.476500	0.160300
C121	C12	0.327800	0.554300	0.045400
H81	H8	0.297300	0.605400	0.060200
H91	H9	0.282700	0.555100	0.007200
H101	H10	0.406500	0.551600	0.019500
C131	C13	0.368400	0.391600	0.109300
C141	C14	0.385500	0.317000	0.176600
C151	C15	0.419500	0.237400	0.167200
H111	H11	0.428300	0.188100	0.213800
C161	C16	0.440600	0.231400	0.087400
C171	C17	0.426900	0.305000	0.017600
C181	C18	0.391600	0.382600	0.030900
H121	H12	0.382700	0.432100	0.984600
C191	C19	0.442600	0.084800	0.137800
H131	H13	0.435400	0.045700	0.113200
H141	H14	0.367300	0.104900	0.166400
C201	C20	0.525500	0.037000	0.200900
C211	C21	0.309100	0.273600	0.320100
H151	H15	0.257600	0.257400	0.298100
H161	H16	0.261900	0.306300	0.355700
C221	C22	0.383700	0.194800	0.371400
C231	C23	0.451600	0.294400	0.933200
H171	H17	0.527400	0.254200	0.930800
C241	C24	0.460900	0.376800	0.861400
H181	H18	0.476400	0.366200	0.809400
H191	H19	0.522600	0.396800	0.866300
H201	H20	0.389700	0.419400	0.863300
C251	C25	0.366400	0.254600	0.920700
C261	C26	0.256600	0.257600	0.965200
H211	H21	0.234900	0.283600	0.005900
C271	C27	0.177400	0.223500	0.952000
C281	C28	0.211100	0.186600	0.890500
C291	C29	0.321600	0.179500	0.847000
H221	H22	0.344200	0.151600	0.807700
C301	C30	0.397000	0.213100	0.861800
C311	C31	0.531400	0.197500	0.742900
H231	H23	0.479700	0.242700	0.705900
H241	H24	0.519500	0.143100	0.748500
C321	C32	0.653400	0.200500	0.707300
C331	C33	0.135900	0.163700	0.791500
H251	H25	0.195600	0.117400	0.778000
H261	H26	0.155800	0.217000	0.756100
C341	C34	0.022300	0.163400	0.773800
C351	C35	0.055400	0.231100	0.998200
H271	H27	0.036700	0.176400	0.011000
C361	C36	0.971100	0.298900	0.941300
H281	H28	0.981700	0.286900	0.890500
H291	H29	0.984600	0.354000	0.928900
H301	H30	0.893500	0.298700	0.968600
C371	C37	0.042700	0.244700	0.080500
C381	C38	0.078100	0.175300	0.151000
C391	C39	0.067300	0.186200	0.226300
H311	H31	0.092900	0.140100	0.272300
C401	C40	0.017200	0.267500	0.232900
C411	C41	0.980600	0.338100	0.165500
C421	C42	0.995800	0.324000	0.090800
H321	H32	0.973200	0.370800	0.044400
C431	C43	0.926600	0.423900	0.177900
H331	H33	0.867200	0.414800	0.226800
C441	C44	0.865800	0.491700	0.105500
H341	H34	0.811700	0.469800	0.093300
H351	H35	0.921900	0.506000	0.057200
H361	H36	0.825600	0.541900	0.120400
C451	C45	0.006300	0.216900	0.382400
H371	H37	0.086200	0.189900	0.391300
H381	H38	0.971200	0.174100	0.382600
C461	C46	0.941500	0.254600	0.451400
C471	C47	0.148500	0.025400	0.208900
H391	H39	0.192100	0.036600	0.241300
H401	H40	0.197800	0.978800	0.189800
C481	C48	0.047000	0.996800	0.264600
C491	C49	0.616100	0.415700	0.470500
H411	H41	0.632500	0.366400	0.516100
C501	C50	0.448400	0.371400	0.464100
H421	H42	0.388700	0.395000	0.429000
H431	H43	0.414400	0.366900	0.520600
H441	H44	0.490000	0.315700	0.461400
C511	C51	0.501800	0.499600	0.363800
H451	H45	0.433400	0.501000	0.345600
H461	H46	0.565600	0.496800	0.320100
H471	H47	0.490200	0.550500	0.377100
N11	N1	0.526000	0.426200	0.436100
O11	O1	0.476000	0.155600	0.073300
O21	O2	0.622800	0.047400	0.185400
O31	O3	0.485100	0.987700	0.266700
H481	H48	0.534000	0.963600	0.298500
O41	O4	0.371500	0.326500	0.252900
O51	O5	0.328300	0.146600	0.430400
O61	O6	0.507800	0.208100	0.821500
O71	O7	0.682300	0.209100	0.630700
O81	O8	0.724700	0.193600	0.751100
O91	O9	0.132200	0.154300	0.875600
O101	O10	0.008800	0.195600	0.698300
O111	O11	0.954100	0.132200	0.830100
O121	O12	0.124000	0.098300	0.138900
O131	O13	0.070500	0.934700	0.331000
O141	O14	0.948000	0.034100	0.246000
O151	O15	0.000300	0.284300	0.306000
O161	O16	0.945900	0.203100	0.523300
O171	O17	0.887900	0.330600	0.431100
O181	O18	0.865100	0.512500	0.293100
O191	O19	0.848500	0.567600	0.420300
O201	O20	0.735500	0.693400	0.359200
O211	O21	0.243600	0.565400	0.234500
O221	O22	0.187500	0.530400	0.406200
O231	O23	0.168800	0.660900	0.394500
O241	O24	0.680800	0.463400	0.449300
O251	O25	0.489100	0.180200	0.354800
O261	O26	0.247900	0.021400	0.690700
O271	O27	0.190500	0.215000	0.572800
O281	O28	0.139800	0.061500	0.548100
O291	O29	0.392600	0.967500	0.543100
O301	O30	0.438800	0.107600	0.591200
O311	O31	0.044300	0.404800	0.470100
Mn41	Mn4	0.130540	0.799540	0.354490
Mn51	Mn5	0.142980	0.564950	0.529630
Mn61	Mn6	0.709510	0.909080	0.439240
C521	C52	0.948300	0.458400	0.734800
H491	H49	0.973000	0.426800	0.698600
C531	C53	0.836600	0.469000	0.775000
C541	C54	0.798200	0.515000	0.829200
C551	C55	0.876000	0.550000	0.840400
H501	H50	0.851000	0.581700	0.876500
C561	C56	0.988900	0.541800	0.802200
C571	C57	0.023400	0.495000	0.748600
C581	C58	0.795100	0.367800	0.731600
H511	H51	0.867300	0.331700	0.751700
H521	H52	0.739200	0.333200	0.752300
C591	C59	0.813900	0.396300	0.636900
C601	C60	0.200800	0.405300	0.712200
H531	H53	0.279000	0.401100	0.718400
H541	H54	0.169900	0.365100	0.762100
C611	C61	0.205500	0.379000	0.638400
C621	C62	0.676900	0.524000	0.875900
H551	H55	0.627600	0.523500	0.839700
C631	C63	0.672200	0.445700	0.954600
H561	H56	0.702700	0.394600	0.939800
H571	H57	0.717300	0.444900	0.992800
H581	H58	0.593500	0.448400	0.980500
C641	C64	0.631600	0.608400	0.890700
C651	C65	0.614500	0.683000	0.823400
C661	C66	0.580500	0.762600	0.832800
H591	H59	0.571700	0.811900	0.786200
C671	C67	0.559400	0.768600	0.912600
C681	C68	0.573100	0.695000	0.982400
C691	C69	0.608400	0.617400	0.969100
H601	H60	0.617300	0.567900	0.015400
C701	C70	0.557400	0.915200	0.862200
H611	H61	0.564600	0.954300	0.886800
H621	H62	0.632700	0.895100	0.833600
C711	C71	0.474500	0.963000	0.799100
C721	C72	0.690900	0.726400	0.679900
H631	H63	0.742400	0.742600	0.701900
H641	H64	0.738100	0.693700	0.644300
C731	C73	0.616300	0.805200	0.628600
C741	C74	0.548400	0.705600	0.066800
H651	H65	0.472600	0.745800	0.069200
C751	C75	0.539100	0.623200	0.138600
H661	H66	0.523600	0.633800	0.190600
H671	H67	0.477400	0.603200	0.133700
H681	H68	0.610300	0.580600	0.136700
C761	C76	0.633600	0.745400	0.079300
C771	C77	0.743400	0.742400	0.034800
H691	H69	0.765100	0.716400	0.994100
C781	C78	0.822600	0.776500	0.048000
C791	C79	0.788900	0.813400	0.109500
C801	C80	0.678400	0.820500	0.153000
H701	H70	0.655800	0.848400	0.192300
C811	C81	0.603000	0.786900	0.138200
C821	C82	0.468600	0.802500	0.257100
H711	H71	0.520300	0.757300	0.294100
H721	H72	0.480500	0.856900	0.251500
C831	C83	0.346600	0.799500	0.292700
C841	C84	0.864100	0.836300	0.208500
H731	H73	0.804400	0.882600	0.222000
H741	H74	0.844200	0.783000	0.243900
C851	C85	0.977700	0.836600	0.226200
C861	C86	0.944600	0.768900	0.001800
H751	H75	0.963300	0.823600	0.989000
C871	C87	0.028900	0.701100	0.058700
H761	H76	0.018300	0.713100	0.109500
H771	H77	0.015400	0.646000	0.071100
H781	H78	0.106500	0.701300	0.031400
C881	C88	0.957300	0.755300	0.919500
C891	C89	0.921900	0.824700	0.849000
C901	C90	0.932700	0.813800	0.773700
H791	H79	0.907100	0.859900	0.727700
C911	C91	0.982800	0.732500	0.767100
C921	C92	0.019400	0.661900	0.834500
C931	C93	0.004200	0.676000	0.909200
H801	H80	0.026800	0.629200	0.955600
C941	C94	0.073400	0.576100	0.822100
H811	H81	0.132800	0.585200	0.773200
C951	C95	0.134200	0.508300	0.894500
H821	H82	0.188300	0.530200	0.906700
H831	H83	0.078100	0.494000	0.942800
H841	H84	0.174400	0.458100	0.879600
C961	C96	0.993700	0.783100	0.617600
H851	H85	0.913800	0.810100	0.608700
H861	H86	0.028800	0.825900	0.617400
C971	C97	0.058500	0.745400	0.548600
C981	C98	0.851500	0.974600	0.791100
H871	H87	0.807900	0.963400	0.758700
H881	H88	0.802200	0.021200	0.810200
C991	C99	0.953000	0.003200	0.735400
C1001	C100	0.383900	0.584300	0.529500
H891	H89	0.367500	0.633600	0.483900
C1011	C101	0.551600	0.628600	0.535900
H901	H90	0.611300	0.605000	0.571000
H911	H91	0.585600	0.633100	0.479400
H921	H92	0.510000	0.684300	0.538600
C1021	C102	0.498200	0.500400	0.636200
H931	H93	0.566600	0.499000	0.654400
H941	H94	0.434400	0.503200	0.679900
H951	H95	0.509800	0.449500	0.622900
N21	N2	0.474000	0.573800	0.563900
O321	O32	0.524000	0.844400	0.926700
O331	O33	0.377200	0.952600	0.814600
O341	O34	0.514900	0.012300	0.733300
H961	H96	0.466000	0.036400	0.701500
O351	O35	0.628500	0.673500	0.747100
O361	O36	0.671700	0.853400	0.569600
O371	O37	0.492200	0.791900	0.178500
O381	O38	0.317700	0.790900	0.369300
O391	O39	0.275300	0.806400	0.248900
O401	O40	0.867800	0.845700	0.124400
O411	O41	0.991200	0.804400	0.301700
O421	O42	0.045900	0.867800	0.169900
O431	O43	0.876000	0.901700	0.861100
O441	O44	0.929500	0.065300	0.669000
O451	O45	0.052000	0.965900	0.754000
O461	O46	0.999700	0.715700	0.694000
O471	O47	0.054100	0.796900	0.476700
O481	O48	0.112100	0.669400	0.568900
O491	O49	0.134900	0.487500	0.706900
O501	O50	0.151500	0.432400	0.579700
O511	O51	0.264500	0.306600	0.640800
O521	O52	0.756400	0.434600	0.765500
O531	O53	0.812500	0.469600	0.593800
O541	O54	0.831200	0.339100	0.605500
O551	O55	0.319200	0.536600	0.550700
O561	O56	0.510900	0.819800	0.645200
O571	O57	0.752100	0.978600	0.309300
O581	O58	0.809500	0.785000	0.427200
O591	O59	0.860200	0.938500	0.451900
O601	O60	0.607400	0.032500	0.456900
O611	O61	0.561200	0.892400	0.408800
O621	O62	0.955700	0.595200	0.529900
