data_DONKIC_freeONLY_PM
_symmetry_space_group_name_H-M	'P1'
_cell_length_a	16.719000
_cell_length_b	16.719000
_cell_length_c	24.598000
_cell_angle_alpha	90.000000
_cell_angle_beta	90.000000
_cell_angle_gamma	120.000000
_symmetry_Int_Tables_number 1

loop_
_symmetry_equiv_pos_as_xyz
'x,y,z'

loop_
_atom_site_label
_atom_site_type_symbol
_atom_site_fract_x
_atom_site_fract_y
_atom_site_fract_z
Co11	Co1	0.407880	0.684020	0.749450
Co21	Co2	0.491820	0.254820	0.468620
C11	C1	0.045600	0.828400	0.559500
H11	H1	0.099800	0.831700	0.544000
H21	H2	0.051300	0.832300	0.598400
H31	H3	0.038800	0.878600	0.546100
C21	C2	0.960600	0.736600	0.543600
H41	H4	0.968700	0.687300	0.559400
C31	C3	0.872100	0.725400	0.566200
C41	C4	0.864200	0.791500	0.595140
H51	H5	0.917700	0.847700	0.601200
C51	C5	0.782100	0.780100	0.616000
C61	C6	0.702700	0.695300	0.608450
C71	C7	0.705500	0.625500	0.578300
H61	H6	0.651900	0.569200	0.572500
C81	C8	0.788100	0.641600	0.557500
C91	C9	0.730000	0.529800	0.487100
H71	H7	0.762000	0.533400	0.453600
H81	H8	0.695800	0.562000	0.481500
C101	C10	0.662800	0.429800	0.499700
C111	C11	0.543500	0.595800	0.631700
H91	H9	0.559900	0.550400	0.643500
H101	H10	0.520000	0.580400	0.594800
C121	C12	0.468900	0.590800	0.668170
C131	C13	0.777800	0.858400	0.645700
H111	H11	0.732700	0.830100	0.675100
C141	C14	0.867800	0.928500	0.671300
H121	H12	0.859900	0.975100	0.689200
H131	H13	0.914200	0.956700	0.643600
H141	H14	0.886700	0.898400	0.697300
C151	C15	0.742000	0.906700	0.607800
C161	C16	0.698100	0.950500	0.629300
C171	C17	0.668100	0.998600	0.597700
H151	H15	0.640000	0.028700	0.613600
C181	C18	0.680400	0.001600	0.542200
C191	C19	0.724100	0.956700	0.518200
C201	C20	0.753700	0.911100	0.551900
H161	H16	0.783000	0.881800	0.536400
C211	C21	0.598100	0.881700	0.701800
H171	H17	0.582700	0.823700	0.684300
H181	H18	0.552800	0.898600	0.690800
C221	C22	0.596500	0.870800	0.763600
C231	C23	0.609500	0.092000	0.531200
H191	H19	0.649600	0.133600	0.559200
H201	H20	0.551900	0.047300	0.548200
C241	C24	0.591100	0.145900	0.489200
C251	C25	0.322600	0.758000	0.671200
H211	H21	0.280500	0.742800	0.699500
C261	C26	0.367600	0.812000	0.580300
H221	H22	0.347700	0.837200	0.551700
H231	H23	0.364000	0.755800	0.568100
H241	H24	0.430200	0.855700	0.590000
C271	C27	0.232900	0.809800	0.622200
H251	H25	0.234300	0.835700	0.587200
H261	H26	0.237600	0.852200	0.650100
H271	H27	0.175900	0.752600	0.626400
N11	N1	0.309100	0.793200	0.626800
O11	O1	0.796200	0.575100	0.529050
O21	O2	0.603500	0.387200	0.463520
O31	O3	0.672600	0.398800	0.543920
O41	O4	0.623800	0.684700	0.632000
O51	O5	0.490700	0.652400	0.703540
O61	O6	0.390600	0.522700	0.661840
O71	O7	0.687000	0.950900	0.685650
O81	O8	0.655800	0.930700	0.790560
O91	O9	0.526400	0.800800	0.782770
O101	O10	0.651700	0.045900	0.507110
O111	O11	0.569000	0.203100	0.508520
O121	O12	0.596300	0.134000	0.440700
O131	O13	0.387800	0.743700	0.677720
O141	O14	0.418900	0.307200	0.428710
O151	O15	0.534900	0.232300	0.390360
O161	O16	0.281900	0.561800	0.732000
O171	O17	0.382600	0.120800	0.465900
Co31	Co3	0.315980	0.723860	0.082780
Co41	Co4	0.745180	0.237000	0.801950
C281	C28	0.171600	0.217200	0.892830
H281	H28	0.168300	0.268100	0.877330
H291	H29	0.167700	0.219000	0.931730
H301	H30	0.121400	0.160200	0.879430
C291	C29	0.263400	0.224000	0.876930
H311	H31	0.312700	0.281400	0.892730
C301	C30	0.274600	0.146700	0.899530
C311	C31	0.208500	0.072700	0.928470
H321	H32	0.152300	0.070000	0.934530
C321	C32	0.219900	0.002000	0.949330
C331	C33	0.304700	0.007400	0.941780
C341	C34	0.374500	0.080000	0.911630
H331	H33	0.430800	0.082700	0.905830
C351	C35	0.358400	0.146500	0.890830
C361	C36	0.470200	0.200200	0.820430
H341	H34	0.466600	0.228600	0.786930
H351	H35	0.438000	0.133800	0.814830
C371	C37	0.570200	0.233000	0.833030
C381	C38	0.404200	0.947700	0.965030
H361	H36	0.449600	0.009500	0.976830
H371	H37	0.419600	0.939600	0.928130
C391	C39	0.409200	0.878100	0.001500
C401	C40	0.141600	0.919400	0.979030
H381	H38	0.169900	0.902600	0.008430
C411	C41	0.071500	0.939300	0.004630
H391	H39	0.024900	0.884800	0.022530
H401	H40	0.043300	0.957500	0.976930
H411	H41	0.101600	0.988300	0.030630
C421	C42	0.093300	0.835300	0.941130
C431	C43	0.049500	0.747600	0.962630
C441	C44	0.001400	0.669500	0.931030
H421	H42	0.971300	0.611300	0.946930
C451	C45	0.998400	0.678800	0.875530
C461	C46	0.043300	0.767400	0.851530
C471	C47	0.088900	0.842600	0.885230
H431	H43	0.118200	0.901200	0.869730
C481	C48	0.118300	0.716400	0.035130
H441	H44	0.176300	0.759000	0.017630
H451	H45	0.101400	0.654200	0.024130
C491	C49	0.129200	0.725700	0.096930
C501	C50	0.908000	0.517500	0.864530
H461	H46	0.866400	0.516000	0.892530
H471	H47	0.952700	0.504600	0.881530
C511	C51	0.854100	0.445200	0.822530
C521	C52	0.242000	0.564600	0.004530
H481	H48	0.257200	0.537700	0.032830
C531	C53	0.188000	0.555600	0.913630
H491	H49	0.162800	0.510500	0.885030
H501	H50	0.244200	0.608200	0.901430
H511	H51	0.144300	0.574500	0.923330
C541	C54	0.190200	0.423100	0.955530
H521	H52	0.164300	0.398600	0.920530
H531	H53	0.147800	0.385400	0.983430
H541	H54	0.247400	0.423300	0.959730
N21	N2	0.206800	0.515900	0.960130
O181	O18	0.424900	0.221100	0.862380
O191	O19	0.612800	0.216300	0.796850
O201	O20	0.601200	0.273800	0.877250
O211	O21	0.315300	0.939100	0.965330
O221	O22	0.347600	0.838300	0.036870
O231	O23	0.477300	0.867900	0.995170
O241	O24	0.049100	0.736100	0.018980
O251	O25	0.069300	0.725100	0.123890
O261	O26	0.199200	0.725600	0.116100
O271	O27	0.954100	0.605800	0.840440
O281	O28	0.796900	0.365900	0.841850
O291	O29	0.866000	0.462300	0.774030
O301	O30	0.256300	0.644100	0.011050
O311	O31	0.692800	0.111700	0.762040
O321	O32	0.767700	0.302600	0.723690
O331	O33	0.438200	0.720100	0.065330
O341	O34	0.879200	0.261800	0.799230
Co51	Co5	0.276140	0.592120	0.416120
Co61	Co6	0.763000	0.508180	0.135290
C551	C55	0.782800	0.954400	0.226170
H551	H55	0.731900	0.900200	0.210670
H561	H56	0.781000	0.948700	0.265070
H571	H57	0.839800	0.961200	0.212770
C561	C56	0.776000	0.039400	0.210270
H581	H58	0.718600	0.031300	0.226070
C571	C57	0.853300	0.127900	0.232870
C581	C58	0.927300	0.135800	0.261810
H591	H59	0.930000	0.082300	0.267870
C591	C59	0.998000	0.217900	0.282670
C601	C60	0.992600	0.297300	0.275120
C611	C61	0.920000	0.294500	0.244970
H601	H60	0.917300	0.348100	0.239170
C621	C62	0.853500	0.211900	0.224170
C631	C63	0.799800	0.270000	0.153770
H611	H61	0.771400	0.238000	0.120270
H621	H62	0.866200	0.304200	0.148170
C641	C64	0.767000	0.337200	0.166370
C651	C65	0.052300	0.456500	0.298370
H631	H63	0.990500	0.440100	0.310170
H641	H64	0.060400	0.480000	0.261470
C661	C66	0.121900	0.531100	0.334840
C671	C67	0.080600	0.222200	0.312370
H651	H65	0.097400	0.267300	0.341770
C681	C68	0.060700	0.132200	0.337970
H661	H66	0.115200	0.140100	0.355870
H671	H67	0.042500	0.085800	0.310270
H681	H68	0.011700	0.113300	0.363970
C691	C69	0.164700	0.258000	0.274470
C701	C70	0.252400	0.301900	0.295970
C711	C71	0.330500	0.331900	0.264370
H691	H69	0.388700	0.360000	0.280270
C721	C72	0.321200	0.319600	0.208870
C731	C73	0.232600	0.275900	0.184870
C741	C74	0.157400	0.246300	0.218570
H701	H70	0.098800	0.217000	0.203070
C751	C75	0.283600	0.401900	0.368470
H711	H71	0.241000	0.417300	0.350970
H721	H72	0.345800	0.447200	0.357470
C761	C76	0.274300	0.403500	0.430270
C771	C77	0.482500	0.390500	0.197870
H731	H73	0.484000	0.350400	0.225870
H741	H74	0.495400	0.448100	0.214870
C781	C78	0.554800	0.408900	0.155870
C791	C79	0.435400	0.677400	0.337870
H751	H75	0.462300	0.719500	0.366170
C801	C80	0.444400	0.632400	0.246970
H761	H76	0.489500	0.652300	0.218370
H771	H77	0.391800	0.636000	0.234770
H781	H78	0.425500	0.569800	0.256670
C811	C81	0.576900	0.767100	0.288870
H791	H79	0.601400	0.765700	0.253870
H801	H80	0.614600	0.762400	0.316770
H811	H81	0.576700	0.824100	0.293070
N31	N3	0.484100	0.690900	0.293470
O351	O35	0.778900	0.203800	0.195720
O361	O36	0.783700	0.396500	0.130190
O371	O37	0.726200	0.327400	0.210590
O381	O38	0.060900	0.376200	0.298670
O391	O39	0.161700	0.509300	0.370210
O401	O40	0.132100	0.609400	0.328510
O411	O41	0.263900	0.313000	0.352320
O421	O42	0.274900	0.344200	0.457230
O431	O43	0.274400	0.473600	0.449440
O441	O44	0.394200	0.348300	0.173780
O451	O45	0.634100	0.431000	0.175190
O461	O46	0.537700	0.403700	0.107370
O471	O47	0.355900	0.612200	0.344390
O481	O48	0.888300	0.581100	0.095380
O491	O49	0.697400	0.465100	0.057030
O501	O50	0.279900	0.718100	0.398670
O511	O51	0.738200	0.617400	0.132570
Co71	Co7	0.684020	0.407880	0.250550
Co81	Co8	0.254820	0.491820	0.531380
C821	C82	0.828400	0.045600	0.440500
H821	H82	0.831700	0.099800	0.456000
H831	H83	0.832300	0.051300	0.401600
H841	H84	0.878600	0.038800	0.453900
C831	C83	0.736600	0.960600	0.456400
H851	H85	0.687300	0.968700	0.440600
C841	C84	0.725400	0.872100	0.433800
C851	C85	0.791500	0.864200	0.404860
H861	H86	0.847700	0.917700	0.398800
C861	C86	0.780100	0.782100	0.384000
C871	C87	0.695300	0.702700	0.391550
C881	C88	0.625500	0.705500	0.421700
H871	H87	0.569200	0.651900	0.427500
C891	C89	0.641600	0.788100	0.442500
C901	C90	0.529800	0.730000	0.512900
H881	H88	0.533400	0.762000	0.546400
H891	H89	0.562000	0.695800	0.518500
C911	C91	0.429800	0.662800	0.500300
C921	C92	0.595800	0.543500	0.368300
H901	H90	0.550400	0.559900	0.356500
H911	H91	0.580400	0.520000	0.405200
C931	C93	0.590800	0.468900	0.331830
C941	C94	0.858400	0.777800	0.354300
H921	H92	0.830100	0.732700	0.324900
C951	C95	0.928500	0.867800	0.328700
H931	H93	0.975100	0.859900	0.310800
H941	H94	0.956700	0.914200	0.356400
H951	H95	0.898400	0.886700	0.302700
C961	C96	0.906700	0.742000	0.392200
C971	C97	0.950500	0.698100	0.370700
C981	C98	0.998600	0.668100	0.402300
H961	H96	0.028700	0.640000	0.386400
C991	C99	0.001600	0.680400	0.457800
C1001	C100	0.956700	0.724100	0.481800
C1011	C101	0.911100	0.753700	0.448100
H971	H97	0.881800	0.783000	0.463600
C1021	C102	0.881700	0.598100	0.298200
H981	H98	0.823700	0.582700	0.315700
H991	H99	0.898600	0.552800	0.309200
C1031	C103	0.870800	0.596500	0.236400
C1041	C104	0.092000	0.609500	0.468800
H1001	H100	0.133600	0.649600	0.440800
H1011	H101	0.047300	0.551900	0.451800
C1051	C105	0.145900	0.591100	0.510800
C1061	C106	0.758000	0.322600	0.328800
H1021	H102	0.742800	0.280500	0.300500
C1071	C107	0.812000	0.367600	0.419700
H1031	H103	0.837200	0.347700	0.448300
H1041	H104	0.755800	0.364000	0.431900
H1051	H105	0.855700	0.430200	0.410000
C1081	C108	0.809800	0.232900	0.377800
H1061	H106	0.835700	0.234300	0.412800
H1071	H107	0.852200	0.237600	0.349900
H1081	H108	0.752600	0.175900	0.373600
N41	N4	0.793200	0.309100	0.373200
O521	O52	0.575100	0.796200	0.470950
O531	O53	0.387200	0.603500	0.536480
O541	O54	0.398800	0.672600	0.456080
O551	O55	0.684700	0.623800	0.368000
O561	O56	0.652400	0.490700	0.296460
O571	O57	0.522700	0.390600	0.338160
O581	O58	0.950900	0.687000	0.314350
O591	O59	0.930700	0.655800	0.209440
O601	O60	0.800800	0.526400	0.217230
O611	O61	0.045900	0.651700	0.492890
O621	O62	0.203100	0.569000	0.491480
O631	O63	0.134000	0.596300	0.559300
O641	O64	0.743700	0.387800	0.322280
O651	O65	0.307200	0.418900	0.571290
O661	O66	0.232300	0.534900	0.609640
O671	O67	0.561800	0.281900	0.268000
O681	O68	0.120800	0.382600	0.534100
Co91	Co9	0.723860	0.315980	0.917220
Co101	Co10	0.237000	0.745180	0.198050
C1091	C109	0.217200	0.171600	0.107170
H1091	H109	0.268100	0.168300	0.122670
H1101	H110	0.219000	0.167700	0.068270
H1111	H111	0.160200	0.121400	0.120570
C1101	C110	0.224000	0.263400	0.123070
H1121	H112	0.281400	0.312700	0.107270
C1111	C111	0.146700	0.274600	0.100470
C1121	C112	0.072700	0.208500	0.071530
H1131	H113	0.070000	0.152300	0.065470
C1131	C113	0.002000	0.219900	0.050670
C1141	C114	0.007400	0.304700	0.058220
C1151	C115	0.080000	0.374500	0.088370
H1141	H114	0.082700	0.430800	0.094170
C1161	C116	0.146500	0.358400	0.109170
C1171	C117	0.200200	0.470200	0.179570
H1151	H115	0.228600	0.466600	0.213070
H1161	H116	0.133800	0.438000	0.185170
C1181	C118	0.233000	0.570200	0.166970
C1191	C119	0.947700	0.404200	0.034970
H1171	H117	0.009500	0.449600	0.023170
H1181	H118	0.939600	0.419600	0.071870
C1201	C120	0.878100	0.409200	0.998500
C1211	C121	0.919400	0.141600	0.020970
H1191	H119	0.902600	0.169900	0.991570
C1221	C122	0.939300	0.071500	0.995370
H1201	H120	0.884800	0.024900	0.977470
H1211	H121	0.957500	0.043300	0.023070
H1221	H122	0.988300	0.101600	0.969370
C1231	C123	0.835300	0.093300	0.058870
C1241	C124	0.747600	0.049500	0.037370
C1251	C125	0.669500	0.001400	0.068970
H1231	H123	0.611300	0.971300	0.053070
C1261	C126	0.678800	0.998400	0.124470
C1271	C127	0.767400	0.043300	0.148470
C1281	C128	0.842600	0.088900	0.114770
H1241	H124	0.901200	0.118200	0.130270
C1291	C129	0.716400	0.118300	0.964870
H1251	H125	0.759000	0.176300	0.982370
H1261	H126	0.654200	0.101400	0.975870
C1301	C130	0.725700	0.129200	0.903070
C1311	C131	0.517500	0.908000	0.135470
H1271	H127	0.516000	0.866400	0.107470
H1281	H128	0.504600	0.952700	0.118470
C1321	C132	0.445200	0.854100	0.177470
C1331	C133	0.564600	0.242000	0.995470
H1291	H129	0.537700	0.257200	0.967170
C1341	C134	0.555600	0.188000	0.086370
H1301	H130	0.510500	0.162800	0.114970
H1311	H131	0.608200	0.244200	0.098570
H1321	H132	0.574500	0.144300	0.076670
C1351	C135	0.423100	0.190200	0.044470
H1331	H133	0.398600	0.164300	0.079470
H1341	H134	0.385400	0.147800	0.016570
H1351	H135	0.423300	0.247400	0.040270
N51	N5	0.515900	0.206800	0.039870
O691	O69	0.221100	0.424900	0.137620
O701	O70	0.216300	0.612800	0.203150
O711	O71	0.273800	0.601200	0.122750
O721	O72	0.939100	0.315300	0.034670
O731	O73	0.838300	0.347600	0.963130
O741	O74	0.867900	0.477300	0.004830
O751	O75	0.736100	0.049100	0.981020
O761	O76	0.725100	0.069300	0.876110
O771	O77	0.725600	0.199200	0.883900
O781	O78	0.605800	0.954100	0.159560
O791	O79	0.365900	0.796900	0.158150
O801	O80	0.462300	0.866000	0.225970
O811	O81	0.644100	0.256300	0.988950
O821	O82	0.111700	0.692800	0.237960
O831	O83	0.302600	0.767700	0.276310
O841	O84	0.720100	0.438200	0.934670
O851	O85	0.261800	0.879200	0.200770
Co111	Co11	0.592120	0.276140	0.583880
Co121	Co12	0.508180	0.763000	0.864710
C1361	C136	0.954400	0.782800	0.773830
H1361	H136	0.900200	0.731900	0.789330
H1371	H137	0.948700	0.781000	0.734930
H1381	H138	0.961200	0.839800	0.787230
C1371	C137	0.039400	0.776000	0.789730
H1391	H139	0.031300	0.718600	0.773930
C1381	C138	0.127900	0.853300	0.767130
C1391	C139	0.135800	0.927300	0.738190
H1401	H140	0.082300	0.930000	0.732130
C1401	C140	0.217900	0.998000	0.717330
C1411	C141	0.297300	0.992600	0.724880
C1421	C142	0.294500	0.920000	0.755030
H1411	H141	0.348100	0.917300	0.760830
C1431	C143	0.211900	0.853500	0.775830
C1441	C144	0.270000	0.799800	0.846230
H1421	H142	0.238000	0.771400	0.879730
H1431	H143	0.304200	0.866200	0.851830
C1451	C145	0.337200	0.767000	0.833630
C1461	C146	0.456500	0.052300	0.701630
H1441	H144	0.440100	0.990500	0.689830
H1451	H145	0.480000	0.060400	0.738530
C1471	C147	0.531100	0.121900	0.665160
C1481	C148	0.222200	0.080600	0.687630
H1461	H146	0.267300	0.097400	0.658230
C1491	C149	0.132200	0.060700	0.662030
H1471	H147	0.140100	0.115200	0.644130
H1481	H148	0.085800	0.042500	0.689730
H1491	H149	0.113300	0.011700	0.636030
C1501	C150	0.258000	0.164700	0.725530
C1511	C151	0.301900	0.252400	0.704030
C1521	C152	0.331900	0.330500	0.735630
H1501	H150	0.360000	0.388700	0.719730
C1531	C153	0.319600	0.321200	0.791130
C1541	C154	0.275900	0.232600	0.815130
C1551	C155	0.246300	0.157400	0.781430
H1511	H151	0.217000	0.098800	0.796930
C1561	C156	0.401900	0.283600	0.631530
H1521	H152	0.417300	0.241000	0.649030
H1531	H153	0.447200	0.345800	0.642530
C1571	C157	0.403500	0.274300	0.569730
C1581	C158	0.390500	0.482500	0.802130
H1541	H154	0.350400	0.484000	0.774130
H1551	H155	0.448100	0.495400	0.785130
C1591	C159	0.408900	0.554800	0.844130
C1601	C160	0.677400	0.435400	0.662130
H1561	H156	0.719500	0.462300	0.633830
C1611	C161	0.632400	0.444400	0.753030
H1571	H157	0.652300	0.489500	0.781630
H1581	H158	0.636000	0.391800	0.765230
H1591	H159	0.569800	0.425500	0.743330
C1621	C162	0.767100	0.576900	0.711130
H1601	H160	0.765700	0.601400	0.746130
H1611	H161	0.762400	0.614600	0.683230
H1621	H162	0.824100	0.576700	0.706930
N61	N6	0.690900	0.484100	0.706530
O861	O86	0.203800	0.778900	0.804280
O871	O87	0.396500	0.783700	0.869810
O881	O88	0.327400	0.726200	0.789410
O891	O89	0.376200	0.060900	0.701330
O901	O90	0.509300	0.161700	0.629790
O911	O91	0.609400	0.132100	0.671490
O921	O92	0.313000	0.263900	0.647680
O931	O93	0.344200	0.274900	0.542770
O941	O94	0.473600	0.274400	0.550560
O951	O95	0.348300	0.394200	0.826220
O961	O96	0.431000	0.634100	0.824810
O971	O97	0.403700	0.537700	0.892630
O981	O98	0.612200	0.355900	0.655610
O991	O99	0.581100	0.888300	0.904620
O1001	O100	0.465100	0.697400	0.942970
O1011	O101	0.718100	0.279900	0.601330
O1021	O102	0.617400	0.738200	0.867430
