data_DONNIE_freeONLY_PM
_symmetry_space_group_name_H-M	'P1'
_cell_length_a	17.287000
_cell_length_b	6.727000
_cell_length_c	12.461000
_cell_angle_alpha	90.000000
_cell_angle_beta	90.000000
_cell_angle_gamma	90.000000
_symmetry_Int_Tables_number 1

loop_
_symmetry_equiv_pos_as_xyz
'x,y,z'

loop_
_atom_site_label
_atom_site_type_symbol
_atom_site_fract_x
_atom_site_fract_y
_atom_site_fract_z
O11	O1	0.582100	0.083600	0.900400
C11	C1	0.716400	0.073000	0.780500
H11	H1	0.694100	0.953100	0.801100
O21	O2	0.082100	0.583600	0.400400
C21	C2	0.216400	0.573000	0.280500
H21	H2	0.194100	0.453100	0.301100
O31	O3	0.417900	0.416400	0.900400
C31	C3	0.283600	0.427000	0.780500
H31	H3	0.305900	0.546900	0.801100
O41	O4	0.917900	0.916400	0.400400
C41	C4	0.783600	0.927000	0.280500
H41	H4	0.805900	0.046900	0.301100
O51	O5	0.417900	0.583600	0.099600
C51	C5	0.283600	0.573000	0.219500
H51	H5	0.305900	0.453100	0.198900
O61	O6	0.917900	0.083600	0.599600
C61	C6	0.783600	0.073000	0.719500
H61	H6	0.805900	0.953100	0.698900
O71	O7	0.582100	0.916400	0.099600
C71	C7	0.716400	0.927000	0.219500
H71	H7	0.694100	0.046900	0.198900
O81	O8	0.082100	0.416400	0.599600
C81	C8	0.216400	0.427000	0.719500
H81	H8	0.194100	0.546900	0.698900
O91	O9	0.417900	0.916400	0.099600
C91	C9	0.283600	0.927000	0.219500
H91	H9	0.305900	0.046900	0.198900
O101	O10	0.917900	0.416400	0.599600
C101	C10	0.783600	0.427000	0.719500
H101	H10	0.805900	0.546900	0.698900
O111	O11	0.582100	0.583600	0.099600
C111	C11	0.716400	0.573000	0.219500
H111	H11	0.694100	0.453100	0.198900
O121	O12	0.082100	0.083600	0.599600
C121	C12	0.216400	0.073000	0.719500
H121	H12	0.194100	0.953100	0.698900
O131	O13	0.582100	0.416400	0.900400
C131	C13	0.716400	0.427000	0.780500
H131	H13	0.694100	0.546900	0.801100
O141	O14	0.082100	0.916400	0.400400
C141	C14	0.216400	0.927000	0.280500
H141	H14	0.194100	0.046900	0.301100
O151	O15	0.417900	0.083600	0.900400
C151	C15	0.283600	0.073000	0.780500
H151	H15	0.305900	0.953100	0.801100
O161	O16	0.917900	0.583600	0.400400
C161	C16	0.783600	0.573000	0.280500
H161	H16	0.805900	0.453100	0.301100
Ga11	Ga1	0.500000	0.000000	0.000000
Ga21	Ga2	0.000000	0.500000	0.500000
Ga31	Ga3	0.500000	0.500000	0.000000
Ga41	Ga4	0.000000	0.000000	0.500000
O171	O17	0.500000	0.250000	0.069700
O181	O18	0.000000	0.750000	0.569700
O191	O19	0.500000	0.750000	0.930300
O201	O20	0.000000	0.250000	0.430300
C171	C17	0.682500	0.250000	0.810700
C181	C18	0.609300	0.250000	0.876100
C191	C19	0.182500	0.750000	0.310700
C201	C20	0.109300	0.750000	0.376100
C211	C21	0.317500	0.250000	0.810700
C221	C22	0.390700	0.250000	0.876100
C231	C23	0.817500	0.750000	0.310700
C241	C24	0.890700	0.750000	0.376100
C251	C25	0.317500	0.750000	0.189300
C261	C26	0.390700	0.750000	0.123900
C271	C27	0.817500	0.250000	0.689300
C281	C28	0.890700	0.250000	0.623900
C291	C29	0.682500	0.750000	0.189300
C301	C30	0.609300	0.750000	0.123900
C311	C31	0.182500	0.250000	0.689300
C321	C32	0.109300	0.250000	0.623900
