data_DOPHOH_freeONLY_PM
_symmetry_space_group_name_H-M	'P1'
_cell_length_a	34.172000
_cell_length_b	34.172000
_cell_length_c	34.172000
_cell_angle_alpha	90.000000
_cell_angle_beta	90.000000
_cell_angle_gamma	90.000000
_symmetry_Int_Tables_number 1

loop_
_symmetry_equiv_pos_as_xyz
'x,y,z'

loop_
_atom_site_label
_atom_site_type_symbol
_atom_site_fract_x
_atom_site_fract_y
_atom_site_fract_z
O11	O1	0.146300	0.862200	0.987200
O21	O2	0.195000	0.766100	0.025900
C11	C1	0.400100	0.857700	0.912500
H11	H1	0.407000	0.836300	0.927700
C21	C2	0.117200	0.743200	0.991800
H21	H2	0.122800	0.730400	0.967100
H31	H3	0.128400	0.727400	0.012500
N11	N1	0.306200	0.874500	0.958500
O31	O3	0.213600	0.944400	0.991200
C31	C3	0.367200	0.879900	0.922700
C41	C4	0.120500	0.867700	0.922700
O41	O4	0.266200	0.804700	0.025100
C51	C5	0.131700	0.845300	0.958100
N21	N2	0.125400	0.806500	0.958000
H41	H4	0.114600	0.795400	0.938100
C61	C6	0.137000	0.783500	0.992000
H51	H5	0.129600	0.797600	0.015900
C71	C7	0.243400	0.882700	0.992100
C81	C8	0.087500	0.857400	0.900100
H61	H6	0.072600	0.835700	0.906900
C91	C9	0.181000	0.775500	0.992600
O51	O5	0.362100	0.854200	0.987400
C101	C10	0.275500	0.818600	0.992700
C111	C11	0.245500	0.926400	0.997000
C121	C12	0.345300	0.868500	0.958300
O61	O6	0.275800	0.800700	0.960700
C131	C13	0.073500	0.745400	0.997200
O71	O7	0.056000	0.713600	0.991100
O81	O8	0.199210	0.775800	0.960500
O91	O9	0.277000	0.942100	0.007300
C141	C14	0.283300	0.862500	0.992000
O101	O10	0.058000	0.777000	0.007500
H71	H7	0.295400	0.884000	0.937700
H81	H8	0.230000	0.877600	0.966900
H91	H9	0.227000	0.871800	0.012300
H101	H10	0.297700	0.869800	0.015500
O111	O11	0.146300	0.362200	0.487200
O121	O12	0.195000	0.266100	0.525900
C151	C15	0.400100	0.357700	0.412500
H111	H11	0.407000	0.336300	0.427700
C161	C16	0.117200	0.243200	0.491800
H121	H12	0.122800	0.230400	0.467100
H131	H13	0.128400	0.227400	0.512500
N31	N3	0.306200	0.374500	0.458500
O131	O13	0.213600	0.444400	0.491200
C171	C17	0.367200	0.379900	0.422700
C181	C18	0.120500	0.367700	0.422700
O141	O14	0.266200	0.304700	0.525100
C191	C19	0.131700	0.345300	0.458100
N41	N4	0.125400	0.306500	0.458000
H141	H14	0.114600	0.295400	0.438100
C201	C20	0.137000	0.283500	0.492000
H151	H15	0.129600	0.297600	0.515900
C211	C21	0.243400	0.382700	0.492100
C221	C22	0.087500	0.357400	0.400100
H161	H16	0.072600	0.335700	0.406900
C231	C23	0.181000	0.275500	0.492600
O151	O15	0.362100	0.354200	0.487400
C241	C24	0.275500	0.318600	0.492700
C251	C25	0.245500	0.426400	0.497000
C261	C26	0.345300	0.368500	0.458300
O161	O16	0.275800	0.300700	0.460700
C271	C27	0.073500	0.245400	0.497200
O171	O17	0.056000	0.213600	0.491100
O181	O18	0.199210	0.275800	0.460500
O191	O19	0.277000	0.442100	0.507300
C281	C28	0.283300	0.362500	0.492000
O201	O20	0.058000	0.277000	0.507500
H171	H17	0.295400	0.384000	0.437700
H181	H18	0.230000	0.377600	0.466900
H191	H19	0.227000	0.371800	0.512300
H201	H20	0.297700	0.369800	0.515500
O211	O21	0.646300	0.862200	0.487200
O221	O22	0.695000	0.766100	0.525900
C291	C29	0.900100	0.857700	0.412500
H211	H21	0.907000	0.836300	0.427700
C301	C30	0.617200	0.743200	0.491800
H221	H22	0.622800	0.730400	0.467100
H231	H23	0.628400	0.727400	0.512500
N51	N5	0.806200	0.874500	0.458500
O231	O23	0.713600	0.944400	0.491200
C311	C31	0.867200	0.879900	0.422700
C321	C32	0.620500	0.867700	0.422700
O241	O24	0.766200	0.804700	0.525100
C331	C33	0.631700	0.845300	0.458100
N61	N6	0.625400	0.806500	0.458000
H241	H24	0.614600	0.795400	0.438100
C341	C34	0.637000	0.783500	0.492000
H251	H25	0.629600	0.797600	0.515900
C351	C35	0.743400	0.882700	0.492100
C361	C36	0.587500	0.857400	0.400100
H261	H26	0.572600	0.835700	0.406900
C371	C37	0.681000	0.775500	0.492600
O251	O25	0.862100	0.854200	0.487400
C381	C38	0.775500	0.818600	0.492700
C391	C39	0.745500	0.926400	0.497000
C401	C40	0.845300	0.868500	0.458300
O261	O26	0.775800	0.800700	0.460700
C411	C41	0.573500	0.745400	0.497200
O271	O27	0.556000	0.713600	0.491100
O281	O28	0.699210	0.775800	0.460500
O291	O29	0.777000	0.942100	0.507300
C421	C42	0.783300	0.862500	0.492000
O301	O30	0.558000	0.777000	0.507500
H271	H27	0.795400	0.884000	0.437700
H281	H28	0.730000	0.877600	0.466900
H291	H29	0.727000	0.871800	0.512300
H301	H30	0.797700	0.869800	0.515500
O311	O31	0.646300	0.362200	0.987200
O321	O32	0.695000	0.266100	0.025900
C431	C43	0.900100	0.357700	0.912500
H311	H31	0.907000	0.336300	0.927700
C441	C44	0.617200	0.243200	0.991800
H321	H32	0.622800	0.230400	0.967100
H331	H33	0.628400	0.227400	0.012500
N71	N7	0.806200	0.374500	0.958500
O331	O33	0.713600	0.444400	0.991200
C451	C45	0.867200	0.379900	0.922700
C461	C46	0.620500	0.367700	0.922700
O341	O34	0.766200	0.304700	0.025100
C471	C47	0.631700	0.345300	0.958100
N81	N8	0.625400	0.306500	0.958000
H341	H34	0.614600	0.295400	0.938100
C481	C48	0.637000	0.283500	0.992000
H351	H35	0.629600	0.297600	0.015900
C491	C49	0.743400	0.382700	0.992100
C501	C50	0.587500	0.357400	0.900100
H361	H36	0.572600	0.335700	0.906900
C511	C51	0.681000	0.275500	0.992600
O351	O35	0.862100	0.354200	0.987400
C521	C52	0.775500	0.318600	0.992700
C531	C53	0.745500	0.426400	0.997000
C541	C54	0.845300	0.368500	0.958300
O361	O36	0.775800	0.300700	0.960700
C551	C55	0.573500	0.245400	0.997200
O371	O37	0.556000	0.213600	0.991100
O381	O38	0.699210	0.275800	0.960500
O391	O39	0.777000	0.442100	0.007300
C561	C56	0.783300	0.362500	0.992000
O401	O40	0.558000	0.277000	0.007500
H371	H37	0.795400	0.384000	0.937700
H381	H38	0.730000	0.377600	0.966900
H391	H39	0.727000	0.371800	0.012300
H401	H40	0.797700	0.369800	0.015500
O411	O41	0.853700	0.137800	0.987200
O421	O42	0.805000	0.233900	0.025900
C571	C57	0.599900	0.142300	0.912500
H411	H41	0.593000	0.163700	0.927700
C581	C58	0.882800	0.256800	0.991800
H421	H42	0.877200	0.269600	0.967100
H431	H43	0.871600	0.272600	0.012500
N91	N9	0.693800	0.125500	0.958500
O431	O43	0.786400	0.055600	0.991200
C591	C59	0.632800	0.120100	0.922700
C601	C60	0.879500	0.132300	0.922700
O441	O44	0.733800	0.195300	0.025100
C611	C61	0.868300	0.154700	0.958100
N101	N10	0.874600	0.193500	0.958000
H441	H44	0.885400	0.204600	0.938100
C621	C62	0.863000	0.216500	0.992000
H451	H45	0.870400	0.202400	0.015900
C631	C63	0.756600	0.117300	0.992100
C641	C64	0.912500	0.142600	0.900100
H461	H46	0.927400	0.164300	0.906900
C651	C65	0.819000	0.224500	0.992600
O451	O45	0.637900	0.145800	0.987400
C661	C66	0.724500	0.181400	0.992700
C671	C67	0.754500	0.073600	0.997000
C681	C68	0.654700	0.131500	0.958300
O461	O46	0.724200	0.199300	0.960700
C691	C69	0.926500	0.254600	0.997200
O471	O47	0.944000	0.286400	0.991100
O481	O48	0.800790	0.224200	0.960500
O491	O49	0.723000	0.057900	0.007300
C701	C70	0.716700	0.137500	0.992000
O501	O50	0.942000	0.223000	0.007500
H471	H47	0.704600	0.116000	0.937700
H481	H48	0.770000	0.122400	0.966900
H491	H49	0.773000	0.128200	0.012300
H501	H50	0.702300	0.130200	0.015500
O511	O51	0.853700	0.637800	0.487200
O521	O52	0.805000	0.733900	0.525900
C711	C71	0.599900	0.642300	0.412500
H511	H51	0.593000	0.663700	0.427700
C721	C72	0.882800	0.756800	0.491800
H521	H52	0.877200	0.769600	0.467100
H531	H53	0.871600	0.772600	0.512500
N111	N11	0.693800	0.625500	0.458500
O531	O53	0.786400	0.555600	0.491200
C731	C73	0.632800	0.620100	0.422700
C741	C74	0.879500	0.632300	0.422700
O541	O54	0.733800	0.695300	0.525100
C751	C75	0.868300	0.654700	0.458100
N121	N12	0.874600	0.693500	0.458000
H541	H54	0.885400	0.704600	0.438100
C761	C76	0.863000	0.716500	0.492000
H551	H55	0.870400	0.702400	0.515900
C771	C77	0.756600	0.617300	0.492100
C781	C78	0.912500	0.642600	0.400100
H561	H56	0.927400	0.664300	0.406900
C791	C79	0.819000	0.724500	0.492600
O551	O55	0.637900	0.645800	0.487400
C801	C80	0.724500	0.681400	0.492700
C811	C81	0.754500	0.573600	0.497000
C821	C82	0.654700	0.631500	0.458300
O561	O56	0.724200	0.699300	0.460700
C831	C83	0.926500	0.754600	0.497200
O571	O57	0.944000	0.786400	0.491100
O581	O58	0.800790	0.724200	0.460500
O591	O59	0.723000	0.557900	0.507300
C841	C84	0.716700	0.637500	0.492000
O601	O60	0.942000	0.723000	0.507500
H571	H57	0.704600	0.616000	0.437700
H581	H58	0.770000	0.622400	0.466900
H591	H59	0.773000	0.628200	0.512300
H601	H60	0.702300	0.630200	0.515500
O611	O61	0.353700	0.137800	0.487200
O621	O62	0.305000	0.233900	0.525900
C851	C85	0.099900	0.142300	0.412500
H611	H61	0.093000	0.163700	0.427700
C861	C86	0.382800	0.256800	0.491800
H621	H62	0.377200	0.269600	0.467100
H631	H63	0.371600	0.272600	0.512500
N131	N13	0.193800	0.125500	0.458500
O631	O63	0.286400	0.055600	0.491200
C871	C87	0.132800	0.120100	0.422700
C881	C88	0.379500	0.132300	0.422700
O641	O64	0.233800	0.195300	0.525100
C891	C89	0.368300	0.154700	0.458100
N141	N14	0.374600	0.193500	0.458000
H641	H64	0.385400	0.204600	0.438100
C901	C90	0.363000	0.216500	0.492000
H651	H65	0.370400	0.202400	0.515900
C911	C91	0.256600	0.117300	0.492100
C921	C92	0.412500	0.142600	0.400100
H661	H66	0.427400	0.164300	0.406900
C931	C93	0.319000	0.224500	0.492600
O651	O65	0.137900	0.145800	0.487400
C941	C94	0.224500	0.181400	0.492700
C951	C95	0.254500	0.073600	0.497000
C961	C96	0.154700	0.131500	0.458300
O661	O66	0.224200	0.199300	0.460700
C971	C97	0.426500	0.254600	0.497200
O671	O67	0.444000	0.286400	0.491100
O681	O68	0.300790	0.224200	0.460500
O691	O69	0.223000	0.057900	0.507300
C981	C98	0.216700	0.137500	0.492000
O701	O70	0.442000	0.223000	0.507500
H671	H67	0.204600	0.116000	0.437700
H681	H68	0.270000	0.122400	0.466900
H691	H69	0.273000	0.128200	0.512300
H701	H70	0.202300	0.130200	0.515500
O711	O71	0.353700	0.637800	0.987200
O721	O72	0.305000	0.733900	0.025900
C991	C99	0.099900	0.642300	0.912500
H711	H71	0.093000	0.663700	0.927700
C1001	C100	0.382800	0.756800	0.991800
H721	H72	0.377200	0.769600	0.967100
H731	H73	0.371600	0.772600	0.012500
N151	N15	0.193800	0.625500	0.958500
O731	O73	0.286400	0.555600	0.991200
C1011	C101	0.132800	0.620100	0.922700
C1021	C102	0.379500	0.632300	0.922700
O741	O74	0.233800	0.695300	0.025100
C1031	C103	0.368300	0.654700	0.958100
N161	N16	0.374600	0.693500	0.958000
H741	H74	0.385400	0.704600	0.938100
C1041	C104	0.363000	0.716500	0.992000
H751	H75	0.370400	0.702400	0.015900
C1051	C105	0.256600	0.617300	0.992100
C1061	C106	0.412500	0.642600	0.900100
H761	H76	0.427400	0.664300	0.906900
C1071	C107	0.319000	0.724500	0.992600
O751	O75	0.137900	0.645800	0.987400
C1081	C108	0.224500	0.681400	0.992700
C1091	C109	0.254500	0.573600	0.997000
C1101	C110	0.154700	0.631500	0.958300
O761	O76	0.224200	0.699300	0.960700
C1111	C111	0.426500	0.754600	0.997200
O771	O77	0.444000	0.786400	0.991100
O781	O78	0.300790	0.724200	0.960500
O791	O79	0.223000	0.557900	0.007300
C1121	C112	0.216700	0.637500	0.992000
O801	O80	0.442000	0.723000	0.007500
H771	H77	0.204600	0.616000	0.937700
H781	H78	0.270000	0.622400	0.966900
H791	H79	0.273000	0.628200	0.012300
H801	H80	0.202300	0.630200	0.015500
O811	O81	0.853700	0.862200	0.012800
O821	O82	0.805000	0.766100	0.974100
C1131	C113	0.599900	0.857700	0.087500
H811	H81	0.593000	0.836300	0.072300
C1141	C114	0.882800	0.743200	0.008200
H821	H82	0.877200	0.730400	0.032900
H831	H83	0.871600	0.727400	0.987500
N171	N17	0.693800	0.874500	0.041500
O831	O83	0.786400	0.944400	0.008800
C1151	C115	0.632800	0.879900	0.077300
C1161	C116	0.879500	0.867700	0.077300
O841	O84	0.733800	0.804700	0.974900
C1171	C117	0.868300	0.845300	0.041900
N181	N18	0.874600	0.806500	0.042000
H841	H84	0.885400	0.795400	0.061900
C1181	C118	0.863000	0.783500	0.008000
H851	H85	0.870400	0.797600	0.984100
C1191	C119	0.756600	0.882700	0.007900
C1201	C120	0.912500	0.857400	0.099900
H861	H86	0.927400	0.835700	0.093100
C1211	C121	0.819000	0.775500	0.007400
O851	O85	0.637900	0.854200	0.012600
C1221	C122	0.724500	0.818600	0.007300
C1231	C123	0.754500	0.926400	0.003000
C1241	C124	0.654700	0.868500	0.041700
O861	O86	0.724200	0.800700	0.039300
C1251	C125	0.926500	0.745400	0.002800
O871	O87	0.944000	0.713600	0.008900
O881	O88	0.800790	0.775800	0.039500
O891	O89	0.723000	0.942100	0.992700
C1261	C126	0.716700	0.862500	0.008000
O901	O90	0.942000	0.777000	0.992500
H871	H87	0.704600	0.884000	0.062300
H881	H88	0.770000	0.877600	0.033100
H891	H89	0.773000	0.871800	0.987700
H901	H90	0.702300	0.869800	0.984500
O911	O91	0.853700	0.362200	0.512800
O921	O92	0.805000	0.266100	0.474100
C1271	C127	0.599900	0.357700	0.587500
H911	H91	0.593000	0.336300	0.572300
C1281	C128	0.882800	0.243200	0.508200
H921	H92	0.877200	0.230400	0.532900
H931	H93	0.871600	0.227400	0.487500
N191	N19	0.693800	0.374500	0.541500
O931	O93	0.786400	0.444400	0.508800
C1291	C129	0.632800	0.379900	0.577300
C1301	C130	0.879500	0.367700	0.577300
O941	O94	0.733800	0.304700	0.474900
C1311	C131	0.868300	0.345300	0.541900
N201	N20	0.874600	0.306500	0.542000
H941	H94	0.885400	0.295400	0.561900
C1321	C132	0.863000	0.283500	0.508000
H951	H95	0.870400	0.297600	0.484100
C1331	C133	0.756600	0.382700	0.507900
C1341	C134	0.912500	0.357400	0.599900
H961	H96	0.927400	0.335700	0.593100
C1351	C135	0.819000	0.275500	0.507400
O951	O95	0.637900	0.354200	0.512600
C1361	C136	0.724500	0.318600	0.507300
C1371	C137	0.754500	0.426400	0.503000
C1381	C138	0.654700	0.368500	0.541700
O961	O96	0.724200	0.300700	0.539300
C1391	C139	0.926500	0.245400	0.502800
O971	O97	0.944000	0.213600	0.508900
O981	O98	0.800790	0.275800	0.539500
O991	O99	0.723000	0.442100	0.492700
C1401	C140	0.716700	0.362500	0.508000
O1001	O100	0.942000	0.277000	0.492500
H971	H97	0.704600	0.384000	0.562300
H981	H98	0.770000	0.377600	0.533100
H991	H99	0.773000	0.371800	0.487700
H1001	H100	0.702300	0.369800	0.484500
O1011	O101	0.353700	0.862200	0.512800
O1021	O102	0.305000	0.766100	0.474100
C1411	C141	0.099900	0.857700	0.587500
H1011	H101	0.093000	0.836300	0.572300
C1421	C142	0.382800	0.743200	0.508200
H1021	H102	0.377200	0.730400	0.532900
H1031	H103	0.371600	0.727400	0.487500
N211	N21	0.193800	0.874500	0.541500
O1031	O103	0.286400	0.944400	0.508800
C1431	C143	0.132800	0.879900	0.577300
C1441	C144	0.379500	0.867700	0.577300
O1041	O104	0.233800	0.804700	0.474900
C1451	C145	0.368300	0.845300	0.541900
N221	N22	0.374600	0.806500	0.542000
H1041	H104	0.385400	0.795400	0.561900
C1461	C146	0.363000	0.783500	0.508000
H1051	H105	0.370400	0.797600	0.484100
C1471	C147	0.256600	0.882700	0.507900
C1481	C148	0.412500	0.857400	0.599900
H1061	H106	0.427400	0.835700	0.593100
C1491	C149	0.319000	0.775500	0.507400
O1051	O105	0.137900	0.854200	0.512600
C1501	C150	0.224500	0.818600	0.507300
C1511	C151	0.254500	0.926400	0.503000
C1521	C152	0.154700	0.868500	0.541700
O1061	O106	0.224200	0.800700	0.539300
C1531	C153	0.426500	0.745400	0.502800
O1071	O107	0.444000	0.713600	0.508900
O1081	O108	0.300790	0.775800	0.539500
O1091	O109	0.223000	0.942100	0.492700
C1541	C154	0.216700	0.862500	0.508000
O1101	O110	0.442000	0.777000	0.492500
H1071	H107	0.204600	0.884000	0.562300
H1081	H108	0.270000	0.877600	0.533100
H1091	H109	0.273000	0.871800	0.487700
H1101	H110	0.202300	0.869800	0.484500
O1111	O111	0.353700	0.362200	0.012800
O1121	O112	0.305000	0.266100	0.974100
C1551	C155	0.099900	0.357700	0.087500
H1111	H111	0.093000	0.336300	0.072300
C1561	C156	0.382800	0.243200	0.008200
H1121	H112	0.377200	0.230400	0.032900
H1131	H113	0.371600	0.227400	0.987500
N231	N23	0.193800	0.374500	0.041500
O1131	O113	0.286400	0.444400	0.008800
C1571	C157	0.132800	0.379900	0.077300
C1581	C158	0.379500	0.367700	0.077300
O1141	O114	0.233800	0.304700	0.974900
C1591	C159	0.368300	0.345300	0.041900
N241	N24	0.374600	0.306500	0.042000
H1141	H114	0.385400	0.295400	0.061900
C1601	C160	0.363000	0.283500	0.008000
H1151	H115	0.370400	0.297600	0.984100
C1611	C161	0.256600	0.382700	0.007900
C1621	C162	0.412500	0.357400	0.099900
H1161	H116	0.427400	0.335700	0.093100
C1631	C163	0.319000	0.275500	0.007400
O1151	O115	0.137900	0.354200	0.012600
C1641	C164	0.224500	0.318600	0.007300
C1651	C165	0.254500	0.426400	0.003000
C1661	C166	0.154700	0.368500	0.041700
O1161	O116	0.224200	0.300700	0.039300
C1671	C167	0.426500	0.245400	0.002800
O1171	O117	0.444000	0.213600	0.008900
O1181	O118	0.300790	0.275800	0.039500
O1191	O119	0.223000	0.442100	0.992700
C1681	C168	0.216700	0.362500	0.008000
O1201	O120	0.442000	0.277000	0.992500
H1171	H117	0.204600	0.384000	0.062300
H1181	H118	0.270000	0.377600	0.033100
H1191	H119	0.273000	0.371800	0.987700
H1201	H120	0.202300	0.369800	0.984500
O1211	O121	0.146300	0.137800	0.012800
O1221	O122	0.195000	0.233900	0.974100
C1691	C169	0.400100	0.142300	0.087500
H1211	H121	0.407000	0.163700	0.072300
C1701	C170	0.117200	0.256800	0.008200
H1221	H122	0.122800	0.269600	0.032900
H1231	H123	0.128400	0.272600	0.987500
N251	N25	0.306200	0.125500	0.041500
O1231	O123	0.213600	0.055600	0.008800
C1711	C171	0.367200	0.120100	0.077300
C1721	C172	0.120500	0.132300	0.077300
O1241	O124	0.266200	0.195300	0.974900
C1731	C173	0.131700	0.154700	0.041900
N261	N26	0.125400	0.193500	0.042000
H1241	H124	0.114600	0.204600	0.061900
C1741	C174	0.137000	0.216500	0.008000
H1251	H125	0.129600	0.202400	0.984100
C1751	C175	0.243400	0.117300	0.007900
C1761	C176	0.087500	0.142600	0.099900
H1261	H126	0.072600	0.164300	0.093100
C1771	C177	0.181000	0.224500	0.007400
O1251	O125	0.362100	0.145800	0.012600
C1781	C178	0.275500	0.181400	0.007300
C1791	C179	0.245500	0.073600	0.003000
C1801	C180	0.345300	0.131500	0.041700
O1261	O126	0.275800	0.199300	0.039300
C1811	C181	0.073500	0.254600	0.002800
O1271	O127	0.056000	0.286400	0.008900
O1281	O128	0.199210	0.224200	0.039500
O1291	O129	0.277000	0.057900	0.992700
C1821	C182	0.283300	0.137500	0.008000
O1301	O130	0.058000	0.223000	0.992500
H1271	H127	0.295400	0.116000	0.062300
H1281	H128	0.230000	0.122400	0.033100
H1291	H129	0.227000	0.128200	0.987700
H1301	H130	0.297700	0.130200	0.984500
O1311	O131	0.146300	0.637800	0.512800
O1321	O132	0.195000	0.733900	0.474100
C1831	C183	0.400100	0.642300	0.587500
H1311	H131	0.407000	0.663700	0.572300
C1841	C184	0.117200	0.756800	0.508200
H1321	H132	0.122800	0.769600	0.532900
H1331	H133	0.128400	0.772600	0.487500
N271	N27	0.306200	0.625500	0.541500
O1331	O133	0.213600	0.555600	0.508800
C1851	C185	0.367200	0.620100	0.577300
C1861	C186	0.120500	0.632300	0.577300
O1341	O134	0.266200	0.695300	0.474900
C1871	C187	0.131700	0.654700	0.541900
N281	N28	0.125400	0.693500	0.542000
H1341	H134	0.114600	0.704600	0.561900
C1881	C188	0.137000	0.716500	0.508000
H1351	H135	0.129600	0.702400	0.484100
C1891	C189	0.243400	0.617300	0.507900
C1901	C190	0.087500	0.642600	0.599900
H1361	H136	0.072600	0.664300	0.593100
C1911	C191	0.181000	0.724500	0.507400
O1351	O135	0.362100	0.645800	0.512600
C1921	C192	0.275500	0.681400	0.507300
C1931	C193	0.245500	0.573600	0.503000
C1941	C194	0.345300	0.631500	0.541700
O1361	O136	0.275800	0.699300	0.539300
C1951	C195	0.073500	0.754600	0.502800
O1371	O137	0.056000	0.786400	0.508900
O1381	O138	0.199210	0.724200	0.539500
O1391	O139	0.277000	0.557900	0.492700
C1961	C196	0.283300	0.637500	0.508000
O1401	O140	0.058000	0.723000	0.492500
H1371	H137	0.295400	0.616000	0.562300
H1381	H138	0.230000	0.622400	0.533100
H1391	H139	0.227000	0.628200	0.487700
H1401	H140	0.297700	0.630200	0.484500
O1411	O141	0.646300	0.137800	0.512800
O1421	O142	0.695000	0.233900	0.474100
C1971	C197	0.900100	0.142300	0.587500
H1411	H141	0.907000	0.163700	0.572300
C1981	C198	0.617200	0.256800	0.508200
H1421	H142	0.622800	0.269600	0.532900
H1431	H143	0.628400	0.272600	0.487500
N291	N29	0.806200	0.125500	0.541500
O1431	O143	0.713600	0.055600	0.508800
C1991	C199	0.867200	0.120100	0.577300
C2001	C200	0.620500	0.132300	0.577300
O1441	O144	0.766200	0.195300	0.474900
C2011	C201	0.631700	0.154700	0.541900
N301	N30	0.625400	0.193500	0.542000
H1441	H144	0.614600	0.204600	0.561900
C2021	C202	0.637000	0.216500	0.508000
H1451	H145	0.629600	0.202400	0.484100
C2031	C203	0.743400	0.117300	0.507900
C2041	C204	0.587500	0.142600	0.599900
H1461	H146	0.572600	0.164300	0.593100
C2051	C205	0.681000	0.224500	0.507400
O1451	O145	0.862100	0.145800	0.512600
C2061	C206	0.775500	0.181400	0.507300
C2071	C207	0.745500	0.073600	0.503000
C2081	C208	0.845300	0.131500	0.541700
O1461	O146	0.775800	0.199300	0.539300
C2091	C209	0.573500	0.254600	0.502800
O1471	O147	0.556000	0.286400	0.508900
O1481	O148	0.699210	0.224200	0.539500
O1491	O149	0.777000	0.057900	0.492700
C2101	C210	0.783300	0.137500	0.508000
O1501	O150	0.558000	0.223000	0.492500
H1471	H147	0.795400	0.116000	0.562300
H1481	H148	0.730000	0.122400	0.533100
H1491	H149	0.727000	0.128200	0.487700
H1501	H150	0.797700	0.130200	0.484500
O1511	O151	0.646300	0.637800	0.012800
O1521	O152	0.695000	0.733900	0.974100
C2111	C211	0.900100	0.642300	0.087500
H1511	H151	0.907000	0.663700	0.072300
C2121	C212	0.617200	0.756800	0.008200
H1521	H152	0.622800	0.769600	0.032900
H1531	H153	0.628400	0.772600	0.987500
N311	N31	0.806200	0.625500	0.041500
O1531	O153	0.713600	0.555600	0.008800
C2131	C213	0.867200	0.620100	0.077300
C2141	C214	0.620500	0.632300	0.077300
O1541	O154	0.766200	0.695300	0.974900
C2151	C215	0.631700	0.654700	0.041900
N321	N32	0.625400	0.693500	0.042000
H1541	H154	0.614600	0.704600	0.061900
C2161	C216	0.637000	0.716500	0.008000
H1551	H155	0.629600	0.702400	0.984100
C2171	C217	0.743400	0.617300	0.007900
C2181	C218	0.587500	0.642600	0.099900
H1561	H156	0.572600	0.664300	0.093100
C2191	C219	0.681000	0.724500	0.007400
O1551	O155	0.862100	0.645800	0.012600
C2201	C220	0.775500	0.681400	0.007300
C2211	C221	0.745500	0.573600	0.003000
C2221	C222	0.845300	0.631500	0.041700
O1561	O156	0.775800	0.699300	0.039300
C2231	C223	0.573500	0.754600	0.002800
O1571	O157	0.556000	0.786400	0.008900
O1581	O158	0.699210	0.724200	0.039500
O1591	O159	0.777000	0.557900	0.992700
C2241	C224	0.783300	0.637500	0.008000
O1601	O160	0.558000	0.723000	0.992500
H1571	H157	0.795400	0.616000	0.062300
H1581	H158	0.730000	0.622400	0.033100
H1591	H159	0.727000	0.628200	0.987700
H1601	H160	0.797700	0.630200	0.984500
O1611	O161	0.987200	0.146300	0.862200
O1621	O162	0.025900	0.195000	0.766100
C2251	C225	0.912500	0.400100	0.857700
H1611	H161	0.927700	0.407000	0.836300
C2261	C226	0.991800	0.117200	0.743200
H1621	H162	0.967100	0.122800	0.730400
H1631	H163	0.012500	0.128400	0.727400
N331	N33	0.958500	0.306200	0.874500
O1631	O163	0.991200	0.213600	0.944400
C2271	C227	0.922700	0.367200	0.879900
C2281	C228	0.922700	0.120500	0.867700
O1641	O164	0.025100	0.266200	0.804700
C2291	C229	0.958100	0.131700	0.845300
N341	N34	0.958000	0.125400	0.806500
H1641	H164	0.938100	0.114600	0.795400
C2301	C230	0.992000	0.137000	0.783500
H1651	H165	0.015900	0.129600	0.797600
C2311	C231	0.992100	0.243400	0.882700
C2321	C232	0.900100	0.087500	0.857400
H1661	H166	0.906900	0.072600	0.835700
C2331	C233	0.992600	0.181000	0.775500
O1651	O165	0.987400	0.362100	0.854200
C2341	C234	0.992700	0.275500	0.818600
C2351	C235	0.997000	0.245500	0.926400
C2361	C236	0.958300	0.345300	0.868500
O1661	O166	0.960700	0.275800	0.800700
C2371	C237	0.997200	0.073500	0.745400
O1671	O167	0.991100	0.056000	0.713600
O1681	O168	0.960500	0.199210	0.775800
O1691	O169	0.007300	0.277000	0.942100
C2381	C238	0.992000	0.283300	0.862500
O1701	O170	0.007500	0.058000	0.777000
H1671	H167	0.937700	0.295400	0.884000
H1681	H168	0.966900	0.230000	0.877600
H1691	H169	0.012300	0.227000	0.871800
H1701	H170	0.015500	0.297700	0.869800
O1711	O171	0.987200	0.646300	0.362200
O1721	O172	0.025900	0.695000	0.266100
C2391	C239	0.912500	0.900100	0.357700
H1711	H171	0.927700	0.907000	0.336300
C2401	C240	0.991800	0.617200	0.243200
H1721	H172	0.967100	0.622800	0.230400
H1731	H173	0.012500	0.628400	0.227400
N351	N35	0.958500	0.806200	0.374500
O1731	O173	0.991200	0.713600	0.444400
C2411	C241	0.922700	0.867200	0.379900
C2421	C242	0.922700	0.620500	0.367700
O1741	O174	0.025100	0.766200	0.304700
C2431	C243	0.958100	0.631700	0.345300
N361	N36	0.958000	0.625400	0.306500
H1741	H174	0.938100	0.614600	0.295400
C2441	C244	0.992000	0.637000	0.283500
H1751	H175	0.015900	0.629600	0.297600
C2451	C245	0.992100	0.743400	0.382700
C2461	C246	0.900100	0.587500	0.357400
H1761	H176	0.906900	0.572600	0.335700
C2471	C247	0.992600	0.681000	0.275500
O1751	O175	0.987400	0.862100	0.354200
C2481	C248	0.992700	0.775500	0.318600
C2491	C249	0.997000	0.745500	0.426400
C2501	C250	0.958300	0.845300	0.368500
O1761	O176	0.960700	0.775800	0.300700
C2511	C251	0.997200	0.573500	0.245400
O1771	O177	0.991100	0.556000	0.213600
O1781	O178	0.960500	0.699210	0.275800
O1791	O179	0.007300	0.777000	0.442100
C2521	C252	0.992000	0.783300	0.362500
O1801	O180	0.007500	0.558000	0.277000
H1771	H177	0.937700	0.795400	0.384000
H1781	H178	0.966900	0.730000	0.377600
H1791	H179	0.012300	0.727000	0.371800
H1801	H180	0.015500	0.797700	0.369800
O1811	O181	0.487200	0.146300	0.362200
O1821	O182	0.525900	0.195000	0.266100
C2531	C253	0.412500	0.400100	0.357700
H1811	H181	0.427700	0.407000	0.336300
C2541	C254	0.491800	0.117200	0.243200
H1821	H182	0.467100	0.122800	0.230400
H1831	H183	0.512500	0.128400	0.227400
N371	N37	0.458500	0.306200	0.374500
O1831	O183	0.491200	0.213600	0.444400
C2551	C255	0.422700	0.367200	0.379900
C2561	C256	0.422700	0.120500	0.367700
O1841	O184	0.525100	0.266200	0.304700
C2571	C257	0.458100	0.131700	0.345300
N381	N38	0.458000	0.125400	0.306500
H1841	H184	0.438100	0.114600	0.295400
C2581	C258	0.492000	0.137000	0.283500
H1851	H185	0.515900	0.129600	0.297600
C2591	C259	0.492100	0.243400	0.382700
C2601	C260	0.400100	0.087500	0.357400
H1861	H186	0.406900	0.072600	0.335700
C2611	C261	0.492600	0.181000	0.275500
O1851	O185	0.487400	0.362100	0.354200
C2621	C262	0.492700	0.275500	0.318600
C2631	C263	0.497000	0.245500	0.426400
C2641	C264	0.458300	0.345300	0.368500
O1861	O186	0.460700	0.275800	0.300700
C2651	C265	0.497200	0.073500	0.245400
O1871	O187	0.491100	0.056000	0.213600
O1881	O188	0.460500	0.199210	0.275800
O1891	O189	0.507300	0.277000	0.442100
C2661	C266	0.492000	0.283300	0.362500
O1901	O190	0.507500	0.058000	0.277000
H1871	H187	0.437700	0.295400	0.384000
H1881	H188	0.466900	0.230000	0.377600
H1891	H189	0.512300	0.227000	0.371800
H1901	H190	0.515500	0.297700	0.369800
O1911	O191	0.487200	0.646300	0.862200
O1921	O192	0.525900	0.695000	0.766100
C2671	C267	0.412500	0.900100	0.857700
H1911	H191	0.427700	0.907000	0.836300
C2681	C268	0.491800	0.617200	0.743200
H1921	H192	0.467100	0.622800	0.730400
H1931	H193	0.512500	0.628400	0.727400
N391	N39	0.458500	0.806200	0.874500
O1931	O193	0.491200	0.713600	0.944400
C2691	C269	0.422700	0.867200	0.879900
C2701	C270	0.422700	0.620500	0.867700
O1941	O194	0.525100	0.766200	0.804700
C2711	C271	0.458100	0.631700	0.845300
N401	N40	0.458000	0.625400	0.806500
H1941	H194	0.438100	0.614600	0.795400
C2721	C272	0.492000	0.637000	0.783500
H1951	H195	0.515900	0.629600	0.797600
C2731	C273	0.492100	0.743400	0.882700
C2741	C274	0.400100	0.587500	0.857400
H1961	H196	0.406900	0.572600	0.835700
C2751	C275	0.492600	0.681000	0.775500
O1951	O195	0.487400	0.862100	0.854200
C2761	C276	0.492700	0.775500	0.818600
C2771	C277	0.497000	0.745500	0.926400
C2781	C278	0.458300	0.845300	0.868500
O1961	O196	0.460700	0.775800	0.800700
C2791	C279	0.497200	0.573500	0.745400
O1971	O197	0.491100	0.556000	0.713600
O1981	O198	0.460500	0.699210	0.775800
O1991	O199	0.507300	0.777000	0.942100
C2801	C280	0.492000	0.783300	0.862500
O2001	O200	0.507500	0.558000	0.777000
H1971	H197	0.437700	0.795400	0.884000
H1981	H198	0.466900	0.730000	0.877600
H1991	H199	0.512300	0.727000	0.871800
H2001	H200	0.515500	0.797700	0.869800
O2011	O201	0.987200	0.853700	0.137800
O2021	O202	0.025900	0.805000	0.233900
C2811	C281	0.912500	0.599900	0.142300
H2011	H201	0.927700	0.593000	0.163700
C2821	C282	0.991800	0.882800	0.256800
H2021	H202	0.967100	0.877200	0.269600
H2031	H203	0.012500	0.871600	0.272600
N411	N41	0.958500	0.693800	0.125500
O2031	O203	0.991200	0.786400	0.055600
C2831	C283	0.922700	0.632800	0.120100
C2841	C284	0.922700	0.879500	0.132300
O2041	O204	0.025100	0.733800	0.195300
C2851	C285	0.958100	0.868300	0.154700
N421	N42	0.958000	0.874600	0.193500
H2041	H204	0.938100	0.885400	0.204600
C2861	C286	0.992000	0.863000	0.216500
H2051	H205	0.015900	0.870400	0.202400
C2871	C287	0.992100	0.756600	0.117300
C2881	C288	0.900100	0.912500	0.142600
H2061	H206	0.906900	0.927400	0.164300
C2891	C289	0.992600	0.819000	0.224500
O2051	O205	0.987400	0.637900	0.145800
C2901	C290	0.992700	0.724500	0.181400
C2911	C291	0.997000	0.754500	0.073600
C2921	C292	0.958300	0.654700	0.131500
O2061	O206	0.960700	0.724200	0.199300
C2931	C293	0.997200	0.926500	0.254600
O2071	O207	0.991100	0.944000	0.286400
O2081	O208	0.960500	0.800790	0.224200
O2091	O209	0.007300	0.723000	0.057900
C2941	C294	0.992000	0.716700	0.137500
O2101	O210	0.007500	0.942000	0.223000
H2071	H207	0.937700	0.704600	0.116000
H2081	H208	0.966900	0.770000	0.122400
H2091	H209	0.012300	0.773000	0.128200
H2101	H210	0.015500	0.702300	0.130200
O2111	O211	0.987200	0.353700	0.637800
O2121	O212	0.025900	0.305000	0.733900
C2951	C295	0.912500	0.099900	0.642300
H2111	H211	0.927700	0.093000	0.663700
C2961	C296	0.991800	0.382800	0.756800
H2121	H212	0.967100	0.377200	0.769600
H2131	H213	0.012500	0.371600	0.772600
N431	N43	0.958500	0.193800	0.625500
O2131	O213	0.991200	0.286400	0.555600
C2971	C297	0.922700	0.132800	0.620100
C2981	C298	0.922700	0.379500	0.632300
O2141	O214	0.025100	0.233800	0.695300
C2991	C299	0.958100	0.368300	0.654700
N441	N44	0.958000	0.374600	0.693500
H2141	H214	0.938100	0.385400	0.704600
C3001	C300	0.992000	0.363000	0.716500
H2151	H215	0.015900	0.370400	0.702400
C3011	C301	0.992100	0.256600	0.617300
C3021	C302	0.900100	0.412500	0.642600
H2161	H216	0.906900	0.427400	0.664300
C3031	C303	0.992600	0.319000	0.724500
O2151	O215	0.987400	0.137900	0.645800
C3041	C304	0.992700	0.224500	0.681400
C3051	C305	0.997000	0.254500	0.573600
C3061	C306	0.958300	0.154700	0.631500
O2161	O216	0.960700	0.224200	0.699300
C3071	C307	0.997200	0.426500	0.754600
O2171	O217	0.991100	0.444000	0.786400
O2181	O218	0.960500	0.300790	0.724200
O2191	O219	0.007300	0.223000	0.557900
C3081	C308	0.992000	0.216700	0.637500
O2201	O220	0.007500	0.442000	0.723000
H2171	H217	0.937700	0.204600	0.616000
H2181	H218	0.966900	0.270000	0.622400
H2191	H219	0.012300	0.273000	0.628200
H2201	H220	0.015500	0.202300	0.630200
O2211	O221	0.487200	0.853700	0.637800
O2221	O222	0.525900	0.805000	0.733900
C3091	C309	0.412500	0.599900	0.642300
H2211	H221	0.427700	0.593000	0.663700
C3101	C310	0.491800	0.882800	0.756800
H2221	H222	0.467100	0.877200	0.769600
H2231	H223	0.512500	0.871600	0.772600
N451	N45	0.458500	0.693800	0.625500
O2231	O223	0.491200	0.786400	0.555600
C3111	C311	0.422700	0.632800	0.620100
C3121	C312	0.422700	0.879500	0.632300
O2241	O224	0.525100	0.733800	0.695300
C3131	C313	0.458100	0.868300	0.654700
N461	N46	0.458000	0.874600	0.693500
H2241	H224	0.438100	0.885400	0.704600
C3141	C314	0.492000	0.863000	0.716500
H2251	H225	0.515900	0.870400	0.702400
C3151	C315	0.492100	0.756600	0.617300
C3161	C316	0.400100	0.912500	0.642600
H2261	H226	0.406900	0.927400	0.664300
C3171	C317	0.492600	0.819000	0.724500
O2251	O225	0.487400	0.637900	0.645800
C3181	C318	0.492700	0.724500	0.681400
C3191	C319	0.497000	0.754500	0.573600
C3201	C320	0.458300	0.654700	0.631500
O2261	O226	0.460700	0.724200	0.699300
C3211	C321	0.497200	0.926500	0.754600
O2271	O227	0.491100	0.944000	0.786400
O2281	O228	0.460500	0.800790	0.724200
O2291	O229	0.507300	0.723000	0.557900
C3221	C322	0.492000	0.716700	0.637500
O2301	O230	0.507500	0.942000	0.723000
H2271	H227	0.437700	0.704600	0.616000
H2281	H228	0.466900	0.770000	0.622400
H2291	H229	0.512300	0.773000	0.628200
H2301	H230	0.515500	0.702300	0.630200
O2311	O231	0.487200	0.353700	0.137800
O2321	O232	0.525900	0.305000	0.233900
C3231	C323	0.412500	0.099900	0.142300
H2311	H231	0.427700	0.093000	0.163700
C3241	C324	0.491800	0.382800	0.256800
H2321	H232	0.467100	0.377200	0.269600
H2331	H233	0.512500	0.371600	0.272600
N471	N47	0.458500	0.193800	0.125500
O2331	O233	0.491200	0.286400	0.055600
C3251	C325	0.422700	0.132800	0.120100
C3261	C326	0.422700	0.379500	0.132300
O2341	O234	0.525100	0.233800	0.195300
C3271	C327	0.458100	0.368300	0.154700
N481	N48	0.458000	0.374600	0.193500
H2341	H234	0.438100	0.385400	0.204600
C3281	C328	0.492000	0.363000	0.216500
H2351	H235	0.515900	0.370400	0.202400
C3291	C329	0.492100	0.256600	0.117300
C3301	C330	0.400100	0.412500	0.142600
H2361	H236	0.406900	0.427400	0.164300
C3311	C331	0.492600	0.319000	0.224500
O2351	O235	0.487400	0.137900	0.145800
C3321	C332	0.492700	0.224500	0.181400
C3331	C333	0.497000	0.254500	0.073600
C3341	C334	0.458300	0.154700	0.131500
O2361	O236	0.460700	0.224200	0.199300
C3351	C335	0.497200	0.426500	0.254600
O2371	O237	0.491100	0.444000	0.286400
O2381	O238	0.460500	0.300790	0.224200
O2391	O239	0.507300	0.223000	0.057900
C3361	C336	0.492000	0.216700	0.137500
O2401	O240	0.507500	0.442000	0.223000
H2371	H237	0.437700	0.204600	0.116000
H2381	H238	0.466900	0.270000	0.122400
H2391	H239	0.512300	0.273000	0.128200
H2401	H240	0.515500	0.202300	0.130200
O2411	O241	0.012800	0.853700	0.862200
O2421	O242	0.974100	0.805000	0.766100
C3371	C337	0.087500	0.599900	0.857700
H2411	H241	0.072300	0.593000	0.836300
C3381	C338	0.008200	0.882800	0.743200
H2421	H242	0.032900	0.877200	0.730400
H2431	H243	0.987500	0.871600	0.727400
N491	N49	0.041500	0.693800	0.874500
O2431	O243	0.008800	0.786400	0.944400
C3391	C339	0.077300	0.632800	0.879900
C3401	C340	0.077300	0.879500	0.867700
O2441	O244	0.974900	0.733800	0.804700
C3411	C341	0.041900	0.868300	0.845300
N501	N50	0.042000	0.874600	0.806500
H2441	H244	0.061900	0.885400	0.795400
C3421	C342	0.008000	0.863000	0.783500
H2451	H245	0.984100	0.870400	0.797600
C3431	C343	0.007900	0.756600	0.882700
C3441	C344	0.099900	0.912500	0.857400
H2461	H246	0.093100	0.927400	0.835700
C3451	C345	0.007400	0.819000	0.775500
O2451	O245	0.012600	0.637900	0.854200
C3461	C346	0.007300	0.724500	0.818600
C3471	C347	0.003000	0.754500	0.926400
C3481	C348	0.041700	0.654700	0.868500
O2461	O246	0.039300	0.724200	0.800700
C3491	C349	0.002800	0.926500	0.745400
O2471	O247	0.008900	0.944000	0.713600
O2481	O248	0.039500	0.800790	0.775800
O2491	O249	0.992700	0.723000	0.942100
C3501	C350	0.008000	0.716700	0.862500
O2501	O250	0.992500	0.942000	0.777000
H2471	H247	0.062300	0.704600	0.884000
H2481	H248	0.033100	0.770000	0.877600
H2491	H249	0.987700	0.773000	0.871800
H2501	H250	0.984500	0.702300	0.869800
O2511	O251	0.012800	0.353700	0.362200
O2521	O252	0.974100	0.305000	0.266100
C3511	C351	0.087500	0.099900	0.357700
H2511	H251	0.072300	0.093000	0.336300
C3521	C352	0.008200	0.382800	0.243200
H2521	H252	0.032900	0.377200	0.230400
H2531	H253	0.987500	0.371600	0.227400
N511	N51	0.041500	0.193800	0.374500
O2531	O253	0.008800	0.286400	0.444400
C3531	C353	0.077300	0.132800	0.379900
C3541	C354	0.077300	0.379500	0.367700
O2541	O254	0.974900	0.233800	0.304700
C3551	C355	0.041900	0.368300	0.345300
N521	N52	0.042000	0.374600	0.306500
H2541	H254	0.061900	0.385400	0.295400
C3561	C356	0.008000	0.363000	0.283500
H2551	H255	0.984100	0.370400	0.297600
C3571	C357	0.007900	0.256600	0.382700
C3581	C358	0.099900	0.412500	0.357400
H2561	H256	0.093100	0.427400	0.335700
C3591	C359	0.007400	0.319000	0.275500
O2551	O255	0.012600	0.137900	0.354200
C3601	C360	0.007300	0.224500	0.318600
C3611	C361	0.003000	0.254500	0.426400
C3621	C362	0.041700	0.154700	0.368500
O2561	O256	0.039300	0.224200	0.300700
C3631	C363	0.002800	0.426500	0.245400
O2571	O257	0.008900	0.444000	0.213600
O2581	O258	0.039500	0.300790	0.275800
O2591	O259	0.992700	0.223000	0.442100
C3641	C364	0.008000	0.216700	0.362500
O2601	O260	0.992500	0.442000	0.277000
H2571	H257	0.062300	0.204600	0.384000
H2581	H258	0.033100	0.270000	0.377600
H2591	H259	0.987700	0.273000	0.371800
H2601	H260	0.984500	0.202300	0.369800
O2611	O261	0.512800	0.853700	0.362200
O2621	O262	0.474100	0.805000	0.266100
C3651	C365	0.587500	0.599900	0.357700
H2611	H261	0.572300	0.593000	0.336300
C3661	C366	0.508200	0.882800	0.243200
H2621	H262	0.532900	0.877200	0.230400
H2631	H263	0.487500	0.871600	0.227400
N531	N53	0.541500	0.693800	0.374500
O2631	O263	0.508800	0.786400	0.444400
C3671	C367	0.577300	0.632800	0.379900
C3681	C368	0.577300	0.879500	0.367700
O2641	O264	0.474900	0.733800	0.304700
C3691	C369	0.541900	0.868300	0.345300
N541	N54	0.542000	0.874600	0.306500
H2641	H264	0.561900	0.885400	0.295400
C3701	C370	0.508000	0.863000	0.283500
H2651	H265	0.484100	0.870400	0.297600
C3711	C371	0.507900	0.756600	0.382700
C3721	C372	0.599900	0.912500	0.357400
H2661	H266	0.593100	0.927400	0.335700
C3731	C373	0.507400	0.819000	0.275500
O2651	O265	0.512600	0.637900	0.354200
C3741	C374	0.507300	0.724500	0.318600
C3751	C375	0.503000	0.754500	0.426400
C3761	C376	0.541700	0.654700	0.368500
O2661	O266	0.539300	0.724200	0.300700
C3771	C377	0.502800	0.926500	0.245400
O2671	O267	0.508900	0.944000	0.213600
O2681	O268	0.539500	0.800790	0.275800
O2691	O269	0.492700	0.723000	0.442100
C3781	C378	0.508000	0.716700	0.362500
O2701	O270	0.492500	0.942000	0.277000
H2671	H267	0.562300	0.704600	0.384000
H2681	H268	0.533100	0.770000	0.377600
H2691	H269	0.487700	0.773000	0.371800
H2701	H270	0.484500	0.702300	0.369800
O2711	O271	0.512800	0.353700	0.862200
O2721	O272	0.474100	0.305000	0.766100
C3791	C379	0.587500	0.099900	0.857700
H2711	H271	0.572300	0.093000	0.836300
C3801	C380	0.508200	0.382800	0.743200
H2721	H272	0.532900	0.377200	0.730400
H2731	H273	0.487500	0.371600	0.727400
N551	N55	0.541500	0.193800	0.874500
O2731	O273	0.508800	0.286400	0.944400
C3811	C381	0.577300	0.132800	0.879900
C3821	C382	0.577300	0.379500	0.867700
O2741	O274	0.474900	0.233800	0.804700
C3831	C383	0.541900	0.368300	0.845300
N561	N56	0.542000	0.374600	0.806500
H2741	H274	0.561900	0.385400	0.795400
C3841	C384	0.508000	0.363000	0.783500
H2751	H275	0.484100	0.370400	0.797600
C3851	C385	0.507900	0.256600	0.882700
C3861	C386	0.599900	0.412500	0.857400
H2761	H276	0.593100	0.427400	0.835700
C3871	C387	0.507400	0.319000	0.775500
O2751	O275	0.512600	0.137900	0.854200
C3881	C388	0.507300	0.224500	0.818600
C3891	C389	0.503000	0.254500	0.926400
C3901	C390	0.541700	0.154700	0.868500
O2761	O276	0.539300	0.224200	0.800700
C3911	C391	0.502800	0.426500	0.745400
O2771	O277	0.508900	0.444000	0.713600
O2781	O278	0.539500	0.300790	0.775800
O2791	O279	0.492700	0.223000	0.942100
C3921	C392	0.508000	0.216700	0.862500
O2801	O280	0.492500	0.442000	0.777000
H2771	H277	0.562300	0.204600	0.884000
H2781	H278	0.533100	0.270000	0.877600
H2791	H279	0.487700	0.273000	0.871800
H2801	H280	0.484500	0.202300	0.869800
O2811	O281	0.012800	0.146300	0.137800
O2821	O282	0.974100	0.195000	0.233900
C3931	C393	0.087500	0.400100	0.142300
H2811	H281	0.072300	0.407000	0.163700
C3941	C394	0.008200	0.117200	0.256800
H2821	H282	0.032900	0.122800	0.269600
H2831	H283	0.987500	0.128400	0.272600
N571	N57	0.041500	0.306200	0.125500
O2831	O283	0.008800	0.213600	0.055600
C3951	C395	0.077300	0.367200	0.120100
C3961	C396	0.077300	0.120500	0.132300
O2841	O284	0.974900	0.266200	0.195300
C3971	C397	0.041900	0.131700	0.154700
N581	N58	0.042000	0.125400	0.193500
H2841	H284	0.061900	0.114600	0.204600
C3981	C398	0.008000	0.137000	0.216500
H2851	H285	0.984100	0.129600	0.202400
C3991	C399	0.007900	0.243400	0.117300
C4001	C400	0.099900	0.087500	0.142600
H2861	H286	0.093100	0.072600	0.164300
C4011	C401	0.007400	0.181000	0.224500
O2851	O285	0.012600	0.362100	0.145800
C4021	C402	0.007300	0.275500	0.181400
C4031	C403	0.003000	0.245500	0.073600
C4041	C404	0.041700	0.345300	0.131500
O2861	O286	0.039300	0.275800	0.199300
C4051	C405	0.002800	0.073500	0.254600
O2871	O287	0.008900	0.056000	0.286400
O2881	O288	0.039500	0.199210	0.224200
O2891	O289	0.992700	0.277000	0.057900
C4061	C406	0.008000	0.283300	0.137500
O2901	O290	0.992500	0.058000	0.223000
H2871	H287	0.062300	0.295400	0.116000
H2881	H288	0.033100	0.230000	0.122400
H2891	H289	0.987700	0.227000	0.128200
H2901	H290	0.984500	0.297700	0.130200
O2911	O291	0.012800	0.646300	0.637800
O2921	O292	0.974100	0.695000	0.733900
C4071	C407	0.087500	0.900100	0.642300
H2911	H291	0.072300	0.907000	0.663700
C4081	C408	0.008200	0.617200	0.756800
H2921	H292	0.032900	0.622800	0.769600
H2931	H293	0.987500	0.628400	0.772600
N591	N59	0.041500	0.806200	0.625500
O2931	O293	0.008800	0.713600	0.555600
C4091	C409	0.077300	0.867200	0.620100
C4101	C410	0.077300	0.620500	0.632300
O2941	O294	0.974900	0.766200	0.695300
C4111	C411	0.041900	0.631700	0.654700
N601	N60	0.042000	0.625400	0.693500
H2941	H294	0.061900	0.614600	0.704600
C4121	C412	0.008000	0.637000	0.716500
H2951	H295	0.984100	0.629600	0.702400
C4131	C413	0.007900	0.743400	0.617300
C4141	C414	0.099900	0.587500	0.642600
H2961	H296	0.093100	0.572600	0.664300
C4151	C415	0.007400	0.681000	0.724500
O2951	O295	0.012600	0.862100	0.645800
C4161	C416	0.007300	0.775500	0.681400
C4171	C417	0.003000	0.745500	0.573600
C4181	C418	0.041700	0.845300	0.631500
O2961	O296	0.039300	0.775800	0.699300
C4191	C419	0.002800	0.573500	0.754600
O2971	O297	0.008900	0.556000	0.786400
O2981	O298	0.039500	0.699210	0.724200
O2991	O299	0.992700	0.777000	0.557900
C4201	C420	0.008000	0.783300	0.637500
O3001	O300	0.992500	0.558000	0.723000
H2971	H297	0.062300	0.795400	0.616000
H2981	H298	0.033100	0.730000	0.622400
H2991	H299	0.987700	0.727000	0.628200
H3001	H300	0.984500	0.797700	0.630200
O3011	O301	0.512800	0.146300	0.637800
O3021	O302	0.474100	0.195000	0.733900
C4211	C421	0.587500	0.400100	0.642300
H3011	H301	0.572300	0.407000	0.663700
C4221	C422	0.508200	0.117200	0.756800
H3021	H302	0.532900	0.122800	0.769600
H3031	H303	0.487500	0.128400	0.772600
N611	N61	0.541500	0.306200	0.625500
O3031	O303	0.508800	0.213600	0.555600
C4231	C423	0.577300	0.367200	0.620100
C4241	C424	0.577300	0.120500	0.632300
O3041	O304	0.474900	0.266200	0.695300
C4251	C425	0.541900	0.131700	0.654700
N621	N62	0.542000	0.125400	0.693500
H3041	H304	0.561900	0.114600	0.704600
C4261	C426	0.508000	0.137000	0.716500
H3051	H305	0.484100	0.129600	0.702400
C4271	C427	0.507900	0.243400	0.617300
C4281	C428	0.599900	0.087500	0.642600
H3061	H306	0.593100	0.072600	0.664300
C4291	C429	0.507400	0.181000	0.724500
O3051	O305	0.512600	0.362100	0.645800
C4301	C430	0.507300	0.275500	0.681400
C4311	C431	0.503000	0.245500	0.573600
C4321	C432	0.541700	0.345300	0.631500
O3061	O306	0.539300	0.275800	0.699300
C4331	C433	0.502800	0.073500	0.754600
O3071	O307	0.508900	0.056000	0.786400
O3081	O308	0.539500	0.199210	0.724200
O3091	O309	0.492700	0.277000	0.557900
C4341	C434	0.508000	0.283300	0.637500
O3101	O310	0.492500	0.058000	0.723000
H3071	H307	0.562300	0.295400	0.616000
H3081	H308	0.533100	0.230000	0.622400
H3091	H309	0.487700	0.227000	0.628200
H3101	H310	0.484500	0.297700	0.630200
O3111	O311	0.512800	0.646300	0.137800
O3121	O312	0.474100	0.695000	0.233900
C4351	C435	0.587500	0.900100	0.142300
H3111	H311	0.572300	0.907000	0.163700
C4361	C436	0.508200	0.617200	0.256800
H3121	H312	0.532900	0.622800	0.269600
H3131	H313	0.487500	0.628400	0.272600
N631	N63	0.541500	0.806200	0.125500
O3131	O313	0.508800	0.713600	0.055600
C4371	C437	0.577300	0.867200	0.120100
C4381	C438	0.577300	0.620500	0.132300
O3141	O314	0.474900	0.766200	0.195300
C4391	C439	0.541900	0.631700	0.154700
N641	N64	0.542000	0.625400	0.193500
H3141	H314	0.561900	0.614600	0.204600
C4401	C440	0.508000	0.637000	0.216500
H3151	H315	0.484100	0.629600	0.202400
C4411	C441	0.507900	0.743400	0.117300
C4421	C442	0.599900	0.587500	0.142600
H3161	H316	0.593100	0.572600	0.164300
C4431	C443	0.507400	0.681000	0.224500
O3151	O315	0.512600	0.862100	0.145800
C4441	C444	0.507300	0.775500	0.181400
C4451	C445	0.503000	0.745500	0.073600
C4461	C446	0.541700	0.845300	0.131500
O3161	O316	0.539300	0.775800	0.199300
C4471	C447	0.502800	0.573500	0.254600
O3171	O317	0.508900	0.556000	0.286400
O3181	O318	0.539500	0.699210	0.224200
O3191	O319	0.492700	0.777000	0.057900
C4481	C448	0.508000	0.783300	0.137500
O3201	O320	0.492500	0.558000	0.223000
H3171	H317	0.562300	0.795400	0.116000
H3181	H318	0.533100	0.730000	0.122400
H3191	H319	0.487700	0.727000	0.128200
H3201	H320	0.484500	0.797700	0.130200
O3211	O321	0.862200	0.987200	0.146300
O3221	O322	0.766100	0.025900	0.195000
C4491	C449	0.857700	0.912500	0.400100
H3211	H321	0.836300	0.927700	0.407000
C4501	C450	0.743200	0.991800	0.117200
H3221	H322	0.730400	0.967100	0.122800
H3231	H323	0.727400	0.012500	0.128400
N651	N65	0.874500	0.958500	0.306200
O3231	O323	0.944400	0.991200	0.213600
C4511	C451	0.879900	0.922700	0.367200
C4521	C452	0.867700	0.922700	0.120500
O3241	O324	0.804700	0.025100	0.266200
C4531	C453	0.845300	0.958100	0.131700
N661	N66	0.806500	0.958000	0.125400
H3241	H324	0.795400	0.938100	0.114600
C4541	C454	0.783500	0.992000	0.137000
H3251	H325	0.797600	0.015900	0.129600
C4551	C455	0.882700	0.992100	0.243400
C4561	C456	0.857400	0.900100	0.087500
H3261	H326	0.835700	0.906900	0.072600
C4571	C457	0.775500	0.992600	0.181000
O3251	O325	0.854200	0.987400	0.362100
C4581	C458	0.818600	0.992700	0.275500
C4591	C459	0.926400	0.997000	0.245500
C4601	C460	0.868500	0.958300	0.345300
O3261	O326	0.800700	0.960700	0.275800
C4611	C461	0.745400	0.997200	0.073500
O3271	O327	0.713600	0.991100	0.056000
O3281	O328	0.775800	0.960500	0.199210
O3291	O329	0.942100	0.007300	0.277000
C4621	C462	0.862500	0.992000	0.283300
O3301	O330	0.777000	0.007500	0.058000
H3271	H327	0.884000	0.937700	0.295400
H3281	H328	0.877600	0.966900	0.230000
H3291	H329	0.871800	0.012300	0.227000
H3301	H330	0.869800	0.015500	0.297700
O3311	O331	0.862200	0.487200	0.646300
O3321	O332	0.766100	0.525900	0.695000
C4631	C463	0.857700	0.412500	0.900100
H3311	H331	0.836300	0.427700	0.907000
C4641	C464	0.743200	0.491800	0.617200
H3321	H332	0.730400	0.467100	0.622800
H3331	H333	0.727400	0.512500	0.628400
N671	N67	0.874500	0.458500	0.806200
O3331	O333	0.944400	0.491200	0.713600
C4651	C465	0.879900	0.422700	0.867200
C4661	C466	0.867700	0.422700	0.620500
O3341	O334	0.804700	0.525100	0.766200
C4671	C467	0.845300	0.458100	0.631700
N681	N68	0.806500	0.458000	0.625400
H3341	H334	0.795400	0.438100	0.614600
C4681	C468	0.783500	0.492000	0.637000
H3351	H335	0.797600	0.515900	0.629600
C4691	C469	0.882700	0.492100	0.743400
C4701	C470	0.857400	0.400100	0.587500
H3361	H336	0.835700	0.406900	0.572600
C4711	C471	0.775500	0.492600	0.681000
O3351	O335	0.854200	0.487400	0.862100
C4721	C472	0.818600	0.492700	0.775500
C4731	C473	0.926400	0.497000	0.745500
C4741	C474	0.868500	0.458300	0.845300
O3361	O336	0.800700	0.460700	0.775800
C4751	C475	0.745400	0.497200	0.573500
O3371	O337	0.713600	0.491100	0.556000
O3381	O338	0.775800	0.460500	0.699210
O3391	O339	0.942100	0.507300	0.777000
C4761	C476	0.862500	0.492000	0.783300
O3401	O340	0.777000	0.507500	0.558000
H3371	H337	0.884000	0.437700	0.795400
H3381	H338	0.877600	0.466900	0.730000
H3391	H339	0.871800	0.512300	0.727000
H3401	H340	0.869800	0.515500	0.797700
O3411	O341	0.362200	0.987200	0.646300
O3421	O342	0.266100	0.025900	0.695000
C4771	C477	0.357700	0.912500	0.900100
H3411	H341	0.336300	0.927700	0.907000
C4781	C478	0.243200	0.991800	0.617200
H3421	H342	0.230400	0.967100	0.622800
H3431	H343	0.227400	0.012500	0.628400
N691	N69	0.374500	0.958500	0.806200
O3431	O343	0.444400	0.991200	0.713600
C4791	C479	0.379900	0.922700	0.867200
C4801	C480	0.367700	0.922700	0.620500
O3441	O344	0.304700	0.025100	0.766200
C4811	C481	0.345300	0.958100	0.631700
N701	N70	0.306500	0.958000	0.625400
H3441	H344	0.295400	0.938100	0.614600
C4821	C482	0.283500	0.992000	0.637000
H3451	H345	0.297600	0.015900	0.629600
C4831	C483	0.382700	0.992100	0.743400
C4841	C484	0.357400	0.900100	0.587500
H3461	H346	0.335700	0.906900	0.572600
C4851	C485	0.275500	0.992600	0.681000
O3451	O345	0.354200	0.987400	0.862100
C4861	C486	0.318600	0.992700	0.775500
C4871	C487	0.426400	0.997000	0.745500
C4881	C488	0.368500	0.958300	0.845300
O3461	O346	0.300700	0.960700	0.775800
C4891	C489	0.245400	0.997200	0.573500
O3471	O347	0.213600	0.991100	0.556000
O3481	O348	0.275800	0.960500	0.699210
O3491	O349	0.442100	0.007300	0.777000
C4901	C490	0.362500	0.992000	0.783300
O3501	O350	0.277000	0.007500	0.558000
H3471	H347	0.384000	0.937700	0.795400
H3481	H348	0.377600	0.966900	0.730000
H3491	H349	0.371800	0.012300	0.727000
H3501	H350	0.369800	0.015500	0.797700
O3511	O351	0.362200	0.487200	0.146300
O3521	O352	0.266100	0.525900	0.195000
C4911	C491	0.357700	0.412500	0.400100
H3511	H351	0.336300	0.427700	0.407000
C4921	C492	0.243200	0.491800	0.117200
H3521	H352	0.230400	0.467100	0.122800
H3531	H353	0.227400	0.512500	0.128400
N711	N71	0.374500	0.458500	0.306200
O3531	O353	0.444400	0.491200	0.213600
C4931	C493	0.379900	0.422700	0.367200
C4941	C494	0.367700	0.422700	0.120500
O3541	O354	0.304700	0.525100	0.266200
C4951	C495	0.345300	0.458100	0.131700
N721	N72	0.306500	0.458000	0.125400
H3541	H354	0.295400	0.438100	0.114600
C4961	C496	0.283500	0.492000	0.137000
H3551	H355	0.297600	0.515900	0.129600
C4971	C497	0.382700	0.492100	0.243400
C4981	C498	0.357400	0.400100	0.087500
H3561	H356	0.335700	0.406900	0.072600
C4991	C499	0.275500	0.492600	0.181000
O3551	O355	0.354200	0.487400	0.362100
C5001	C500	0.318600	0.492700	0.275500
C5011	C501	0.426400	0.497000	0.245500
C5021	C502	0.368500	0.458300	0.345300
O3561	O356	0.300700	0.460700	0.275800
C5031	C503	0.245400	0.497200	0.073500
O3571	O357	0.213600	0.491100	0.056000
O3581	O358	0.275800	0.460500	0.199210
O3591	O359	0.442100	0.507300	0.277000
C5041	C504	0.362500	0.492000	0.283300
O3601	O360	0.277000	0.507500	0.058000
H3571	H357	0.384000	0.437700	0.295400
H3581	H358	0.377600	0.466900	0.230000
H3591	H359	0.371800	0.512300	0.227000
H3601	H360	0.369800	0.515500	0.297700
O3611	O361	0.137800	0.987200	0.853700
O3621	O362	0.233900	0.025900	0.805000
C5051	C505	0.142300	0.912500	0.599900
H3611	H361	0.163700	0.927700	0.593000
C5061	C506	0.256800	0.991800	0.882800
H3621	H362	0.269600	0.967100	0.877200
H3631	H363	0.272600	0.012500	0.871600
N731	N73	0.125500	0.958500	0.693800
O3631	O363	0.055600	0.991200	0.786400
C5071	C507	0.120100	0.922700	0.632800
C5081	C508	0.132300	0.922700	0.879500
O3641	O364	0.195300	0.025100	0.733800
C5091	C509	0.154700	0.958100	0.868300
N741	N74	0.193500	0.958000	0.874600
H3641	H364	0.204600	0.938100	0.885400
C5101	C510	0.216500	0.992000	0.863000
H3651	H365	0.202400	0.015900	0.870400
C5111	C511	0.117300	0.992100	0.756600
C5121	C512	0.142600	0.900100	0.912500
H3661	H366	0.164300	0.906900	0.927400
C5131	C513	0.224500	0.992600	0.819000
O3651	O365	0.145800	0.987400	0.637900
C5141	C514	0.181400	0.992700	0.724500
C5151	C515	0.073600	0.997000	0.754500
C5161	C516	0.131500	0.958300	0.654700
O3661	O366	0.199300	0.960700	0.724200
C5171	C517	0.254600	0.997200	0.926500
O3671	O367	0.286400	0.991100	0.944000
O3681	O368	0.224200	0.960500	0.800790
O3691	O369	0.057900	0.007300	0.723000
C5181	C518	0.137500	0.992000	0.716700
O3701	O370	0.223000	0.007500	0.942000
H3671	H367	0.116000	0.937700	0.704600
H3681	H368	0.122400	0.966900	0.770000
H3691	H369	0.128200	0.012300	0.773000
H3701	H370	0.130200	0.015500	0.702300
O3711	O371	0.137800	0.487200	0.353700
O3721	O372	0.233900	0.525900	0.305000
C5191	C519	0.142300	0.412500	0.099900
H3711	H371	0.163700	0.427700	0.093000
C5201	C520	0.256800	0.491800	0.382800
H3721	H372	0.269600	0.467100	0.377200
H3731	H373	0.272600	0.512500	0.371600
N751	N75	0.125500	0.458500	0.193800
O3731	O373	0.055600	0.491200	0.286400
C5211	C521	0.120100	0.422700	0.132800
C5221	C522	0.132300	0.422700	0.379500
O3741	O374	0.195300	0.525100	0.233800
C5231	C523	0.154700	0.458100	0.368300
N761	N76	0.193500	0.458000	0.374600
H3741	H374	0.204600	0.438100	0.385400
C5241	C524	0.216500	0.492000	0.363000
H3751	H375	0.202400	0.515900	0.370400
C5251	C525	0.117300	0.492100	0.256600
C5261	C526	0.142600	0.400100	0.412500
H3761	H376	0.164300	0.406900	0.427400
C5271	C527	0.224500	0.492600	0.319000
O3751	O375	0.145800	0.487400	0.137900
C5281	C528	0.181400	0.492700	0.224500
C5291	C529	0.073600	0.497000	0.254500
C5301	C530	0.131500	0.458300	0.154700
O3761	O376	0.199300	0.460700	0.224200
C5311	C531	0.254600	0.497200	0.426500
O3771	O377	0.286400	0.491100	0.444000
O3781	O378	0.224200	0.460500	0.300790
O3791	O379	0.057900	0.507300	0.223000
C5321	C532	0.137500	0.492000	0.216700
O3801	O380	0.223000	0.507500	0.442000
H3771	H377	0.116000	0.437700	0.204600
H3781	H378	0.122400	0.466900	0.270000
H3791	H379	0.128200	0.512300	0.273000
H3801	H380	0.130200	0.515500	0.202300
O3811	O381	0.637800	0.987200	0.353700
O3821	O382	0.733900	0.025900	0.305000
C5331	C533	0.642300	0.912500	0.099900
H3811	H381	0.663700	0.927700	0.093000
C5341	C534	0.756800	0.991800	0.382800
H3821	H382	0.769600	0.967100	0.377200
H3831	H383	0.772600	0.012500	0.371600
N771	N77	0.625500	0.958500	0.193800
O3831	O383	0.555600	0.991200	0.286400
C5351	C535	0.620100	0.922700	0.132800
C5361	C536	0.632300	0.922700	0.379500
O3841	O384	0.695300	0.025100	0.233800
C5371	C537	0.654700	0.958100	0.368300
N781	N78	0.693500	0.958000	0.374600
H3841	H384	0.704600	0.938100	0.385400
C5381	C538	0.716500	0.992000	0.363000
H3851	H385	0.702400	0.015900	0.370400
C5391	C539	0.617300	0.992100	0.256600
C5401	C540	0.642600	0.900100	0.412500
H3861	H386	0.664300	0.906900	0.427400
C5411	C541	0.724500	0.992600	0.319000
O3851	O385	0.645800	0.987400	0.137900
C5421	C542	0.681400	0.992700	0.224500
C5431	C543	0.573600	0.997000	0.254500
C5441	C544	0.631500	0.958300	0.154700
O3861	O386	0.699300	0.960700	0.224200
C5451	C545	0.754600	0.997200	0.426500
O3871	O387	0.786400	0.991100	0.444000
O3881	O388	0.724200	0.960500	0.300790
O3891	O389	0.557900	0.007300	0.223000
C5461	C546	0.637500	0.992000	0.216700
O3901	O390	0.723000	0.007500	0.442000
H3871	H387	0.616000	0.937700	0.204600
H3881	H388	0.622400	0.966900	0.270000
H3891	H389	0.628200	0.012300	0.273000
H3901	H390	0.630200	0.015500	0.202300
O3911	O391	0.637800	0.487200	0.853700
O3921	O392	0.733900	0.525900	0.805000
C5471	C547	0.642300	0.412500	0.599900
H3911	H391	0.663700	0.427700	0.593000
C5481	C548	0.756800	0.491800	0.882800
H3921	H392	0.769600	0.467100	0.877200
H3931	H393	0.772600	0.512500	0.871600
N791	N79	0.625500	0.458500	0.693800
O3931	O393	0.555600	0.491200	0.786400
C5491	C549	0.620100	0.422700	0.632800
C5501	C550	0.632300	0.422700	0.879500
O3941	O394	0.695300	0.525100	0.733800
C5511	C551	0.654700	0.458100	0.868300
N801	N80	0.693500	0.458000	0.874600
H3941	H394	0.704600	0.438100	0.885400
C5521	C552	0.716500	0.492000	0.863000
H3951	H395	0.702400	0.515900	0.870400
C5531	C553	0.617300	0.492100	0.756600
C5541	C554	0.642600	0.400100	0.912500
H3961	H396	0.664300	0.406900	0.927400
C5551	C555	0.724500	0.492600	0.819000
O3951	O395	0.645800	0.487400	0.637900
C5561	C556	0.681400	0.492700	0.724500
C5571	C557	0.573600	0.497000	0.754500
C5581	C558	0.631500	0.458300	0.654700
O3961	O396	0.699300	0.460700	0.724200
C5591	C559	0.754600	0.497200	0.926500
O3971	O397	0.786400	0.491100	0.944000
O3981	O398	0.724200	0.460500	0.800790
O3991	O399	0.557900	0.507300	0.723000
C5601	C560	0.637500	0.492000	0.716700
O4001	O400	0.723000	0.507500	0.942000
H3971	H397	0.616000	0.437700	0.704600
H3981	H398	0.622400	0.466900	0.770000
H3991	H399	0.628200	0.512300	0.773000
H4001	H400	0.630200	0.515500	0.702300
O4011	O401	0.862200	0.012800	0.853700
O4021	O402	0.766100	0.974100	0.805000
C5611	C561	0.857700	0.087500	0.599900
H4011	H401	0.836300	0.072300	0.593000
C5621	C562	0.743200	0.008200	0.882800
H4021	H402	0.730400	0.032900	0.877200
H4031	H403	0.727400	0.987500	0.871600
N811	N81	0.874500	0.041500	0.693800
O4031	O403	0.944400	0.008800	0.786400
C5631	C563	0.879900	0.077300	0.632800
C5641	C564	0.867700	0.077300	0.879500
O4041	O404	0.804700	0.974900	0.733800
C5651	C565	0.845300	0.041900	0.868300
N821	N82	0.806500	0.042000	0.874600
H4041	H404	0.795400	0.061900	0.885400
C5661	C566	0.783500	0.008000	0.863000
H4051	H405	0.797600	0.984100	0.870400
C5671	C567	0.882700	0.007900	0.756600
C5681	C568	0.857400	0.099900	0.912500
H4061	H406	0.835700	0.093100	0.927400
C5691	C569	0.775500	0.007400	0.819000
O4051	O405	0.854200	0.012600	0.637900
C5701	C570	0.818600	0.007300	0.724500
C5711	C571	0.926400	0.003000	0.754500
C5721	C572	0.868500	0.041700	0.654700
O4061	O406	0.800700	0.039300	0.724200
C5731	C573	0.745400	0.002800	0.926500
O4071	O407	0.713600	0.008900	0.944000
O4081	O408	0.775800	0.039500	0.800790
O4091	O409	0.942100	0.992700	0.723000
C5741	C574	0.862500	0.008000	0.716700
O4101	O410	0.777000	0.992500	0.942000
H4071	H407	0.884000	0.062300	0.704600
H4081	H408	0.877600	0.033100	0.770000
H4091	H409	0.871800	0.987700	0.773000
H4101	H410	0.869800	0.984500	0.702300
O4111	O411	0.862200	0.512800	0.353700
O4121	O412	0.766100	0.474100	0.305000
C5751	C575	0.857700	0.587500	0.099900
H4111	H411	0.836300	0.572300	0.093000
C5761	C576	0.743200	0.508200	0.382800
H4121	H412	0.730400	0.532900	0.377200
H4131	H413	0.727400	0.487500	0.371600
N831	N83	0.874500	0.541500	0.193800
O4131	O413	0.944400	0.508800	0.286400
C5771	C577	0.879900	0.577300	0.132800
C5781	C578	0.867700	0.577300	0.379500
O4141	O414	0.804700	0.474900	0.233800
C5791	C579	0.845300	0.541900	0.368300
N841	N84	0.806500	0.542000	0.374600
H4141	H414	0.795400	0.561900	0.385400
C5801	C580	0.783500	0.508000	0.363000
H4151	H415	0.797600	0.484100	0.370400
C5811	C581	0.882700	0.507900	0.256600
C5821	C582	0.857400	0.599900	0.412500
H4161	H416	0.835700	0.593100	0.427400
C5831	C583	0.775500	0.507400	0.319000
O4151	O415	0.854200	0.512600	0.137900
C5841	C584	0.818600	0.507300	0.224500
C5851	C585	0.926400	0.503000	0.254500
C5861	C586	0.868500	0.541700	0.154700
O4161	O416	0.800700	0.539300	0.224200
C5871	C587	0.745400	0.502800	0.426500
O4171	O417	0.713600	0.508900	0.444000
O4181	O418	0.775800	0.539500	0.300790
O4191	O419	0.942100	0.492700	0.223000
C5881	C588	0.862500	0.508000	0.216700
O4201	O420	0.777000	0.492500	0.442000
H4171	H417	0.884000	0.562300	0.204600
H4181	H418	0.877600	0.533100	0.270000
H4191	H419	0.871800	0.487700	0.273000
H4201	H420	0.869800	0.484500	0.202300
O4211	O421	0.362200	0.012800	0.353700
O4221	O422	0.266100	0.974100	0.305000
C5891	C589	0.357700	0.087500	0.099900
H4211	H421	0.336300	0.072300	0.093000
C5901	C590	0.243200	0.008200	0.382800
H4221	H422	0.230400	0.032900	0.377200
H4231	H423	0.227400	0.987500	0.371600
N851	N85	0.374500	0.041500	0.193800
O4231	O423	0.444400	0.008800	0.286400
C5911	C591	0.379900	0.077300	0.132800
C5921	C592	0.367700	0.077300	0.379500
O4241	O424	0.304700	0.974900	0.233800
C5931	C593	0.345300	0.041900	0.368300
N861	N86	0.306500	0.042000	0.374600
H4241	H424	0.295400	0.061900	0.385400
C5941	C594	0.283500	0.008000	0.363000
H4251	H425	0.297600	0.984100	0.370400
C5951	C595	0.382700	0.007900	0.256600
C5961	C596	0.357400	0.099900	0.412500
H4261	H426	0.335700	0.093100	0.427400
C5971	C597	0.275500	0.007400	0.319000
O4251	O425	0.354200	0.012600	0.137900
C5981	C598	0.318600	0.007300	0.224500
C5991	C599	0.426400	0.003000	0.254500
C6001	C600	0.368500	0.041700	0.154700
O4261	O426	0.300700	0.039300	0.224200
C6011	C601	0.245400	0.002800	0.426500
O4271	O427	0.213600	0.008900	0.444000
O4281	O428	0.275800	0.039500	0.300790
O4291	O429	0.442100	0.992700	0.223000
C6021	C602	0.362500	0.008000	0.216700
O4301	O430	0.277000	0.992500	0.442000
H4271	H427	0.384000	0.062300	0.204600
H4281	H428	0.377600	0.033100	0.270000
H4291	H429	0.371800	0.987700	0.273000
H4301	H430	0.369800	0.984500	0.202300
O4311	O431	0.362200	0.512800	0.853700
O4321	O432	0.266100	0.474100	0.805000
C6031	C603	0.357700	0.587500	0.599900
H4311	H431	0.336300	0.572300	0.593000
C6041	C604	0.243200	0.508200	0.882800
H4321	H432	0.230400	0.532900	0.877200
H4331	H433	0.227400	0.487500	0.871600
N871	N87	0.374500	0.541500	0.693800
O4331	O433	0.444400	0.508800	0.786400
C6051	C605	0.379900	0.577300	0.632800
C6061	C606	0.367700	0.577300	0.879500
O4341	O434	0.304700	0.474900	0.733800
C6071	C607	0.345300	0.541900	0.868300
N881	N88	0.306500	0.542000	0.874600
H4341	H434	0.295400	0.561900	0.885400
C6081	C608	0.283500	0.508000	0.863000
H4351	H435	0.297600	0.484100	0.870400
C6091	C609	0.382700	0.507900	0.756600
C6101	C610	0.357400	0.599900	0.912500
H4361	H436	0.335700	0.593100	0.927400
C6111	C611	0.275500	0.507400	0.819000
O4351	O435	0.354200	0.512600	0.637900
C6121	C612	0.318600	0.507300	0.724500
C6131	C613	0.426400	0.503000	0.754500
C6141	C614	0.368500	0.541700	0.654700
O4361	O436	0.300700	0.539300	0.724200
C6151	C615	0.245400	0.502800	0.926500
O4371	O437	0.213600	0.508900	0.944000
O4381	O438	0.275800	0.539500	0.800790
O4391	O439	0.442100	0.492700	0.723000
C6161	C616	0.362500	0.508000	0.716700
O4401	O440	0.277000	0.492500	0.942000
H4371	H437	0.384000	0.562300	0.704600
H4381	H438	0.377600	0.533100	0.770000
H4391	H439	0.371800	0.487700	0.773000
H4401	H440	0.369800	0.484500	0.702300
O4411	O441	0.137800	0.012800	0.146300
O4421	O442	0.233900	0.974100	0.195000
C6171	C617	0.142300	0.087500	0.400100
H4411	H441	0.163700	0.072300	0.407000
C6181	C618	0.256800	0.008200	0.117200
H4421	H442	0.269600	0.032900	0.122800
H4431	H443	0.272600	0.987500	0.128400
N891	N89	0.125500	0.041500	0.306200
O4431	O443	0.055600	0.008800	0.213600
C6191	C619	0.120100	0.077300	0.367200
C6201	C620	0.132300	0.077300	0.120500
O4441	O444	0.195300	0.974900	0.266200
C6211	C621	0.154700	0.041900	0.131700
N901	N90	0.193500	0.042000	0.125400
H4441	H444	0.204600	0.061900	0.114600
C6221	C622	0.216500	0.008000	0.137000
H4451	H445	0.202400	0.984100	0.129600
C6231	C623	0.117300	0.007900	0.243400
C6241	C624	0.142600	0.099900	0.087500
H4461	H446	0.164300	0.093100	0.072600
C6251	C625	0.224500	0.007400	0.181000
O4451	O445	0.145800	0.012600	0.362100
C6261	C626	0.181400	0.007300	0.275500
C6271	C627	0.073600	0.003000	0.245500
C6281	C628	0.131500	0.041700	0.345300
O4461	O446	0.199300	0.039300	0.275800
C6291	C629	0.254600	0.002800	0.073500
O4471	O447	0.286400	0.008900	0.056000
O4481	O448	0.224200	0.039500	0.199210
O4491	O449	0.057900	0.992700	0.277000
C6301	C630	0.137500	0.008000	0.283300
O4501	O450	0.223000	0.992500	0.058000
H4471	H447	0.116000	0.062300	0.295400
H4481	H448	0.122400	0.033100	0.230000
H4491	H449	0.128200	0.987700	0.227000
H4501	H450	0.130200	0.984500	0.297700
O4511	O451	0.137800	0.512800	0.646300
O4521	O452	0.233900	0.474100	0.695000
C6311	C631	0.142300	0.587500	0.900100
H4511	H451	0.163700	0.572300	0.907000
C6321	C632	0.256800	0.508200	0.617200
H4521	H452	0.269600	0.532900	0.622800
H4531	H453	0.272600	0.487500	0.628400
N911	N91	0.125500	0.541500	0.806200
O4531	O453	0.055600	0.508800	0.713600
C6331	C633	0.120100	0.577300	0.867200
C6341	C634	0.132300	0.577300	0.620500
O4541	O454	0.195300	0.474900	0.766200
C6351	C635	0.154700	0.541900	0.631700
N921	N92	0.193500	0.542000	0.625400
H4541	H454	0.204600	0.561900	0.614600
C6361	C636	0.216500	0.508000	0.637000
H4551	H455	0.202400	0.484100	0.629600
C6371	C637	0.117300	0.507900	0.743400
C6381	C638	0.142600	0.599900	0.587500
H4561	H456	0.164300	0.593100	0.572600
C6391	C639	0.224500	0.507400	0.681000
O4551	O455	0.145800	0.512600	0.862100
C6401	C640	0.181400	0.507300	0.775500
C6411	C641	0.073600	0.503000	0.745500
C6421	C642	0.131500	0.541700	0.845300
O4561	O456	0.199300	0.539300	0.775800
C6431	C643	0.254600	0.502800	0.573500
O4571	O457	0.286400	0.508900	0.556000
O4581	O458	0.224200	0.539500	0.699210
O4591	O459	0.057900	0.492700	0.777000
C6441	C644	0.137500	0.508000	0.783300
O4601	O460	0.223000	0.492500	0.558000
H4571	H457	0.116000	0.562300	0.795400
H4581	H458	0.122400	0.533100	0.730000
H4591	H459	0.128200	0.487700	0.727000
H4601	H460	0.130200	0.484500	0.797700
O4611	O461	0.637800	0.012800	0.646300
O4621	O462	0.733900	0.974100	0.695000
C6451	C645	0.642300	0.087500	0.900100
H4611	H461	0.663700	0.072300	0.907000
C6461	C646	0.756800	0.008200	0.617200
H4621	H462	0.769600	0.032900	0.622800
H4631	H463	0.772600	0.987500	0.628400
N931	N93	0.625500	0.041500	0.806200
O4631	O463	0.555600	0.008800	0.713600
C6471	C647	0.620100	0.077300	0.867200
C6481	C648	0.632300	0.077300	0.620500
O4641	O464	0.695300	0.974900	0.766200
C6491	C649	0.654700	0.041900	0.631700
N941	N94	0.693500	0.042000	0.625400
H4641	H464	0.704600	0.061900	0.614600
C6501	C650	0.716500	0.008000	0.637000
H4651	H465	0.702400	0.984100	0.629600
C6511	C651	0.617300	0.007900	0.743400
C6521	C652	0.642600	0.099900	0.587500
H4661	H466	0.664300	0.093100	0.572600
C6531	C653	0.724500	0.007400	0.681000
O4651	O465	0.645800	0.012600	0.862100
C6541	C654	0.681400	0.007300	0.775500
C6551	C655	0.573600	0.003000	0.745500
C6561	C656	0.631500	0.041700	0.845300
O4661	O466	0.699300	0.039300	0.775800
C6571	C657	0.754600	0.002800	0.573500
O4671	O467	0.786400	0.008900	0.556000
O4681	O468	0.724200	0.039500	0.699210
O4691	O469	0.557900	0.992700	0.777000
C6581	C658	0.637500	0.008000	0.783300
O4701	O470	0.723000	0.992500	0.558000
H4671	H467	0.616000	0.062300	0.795400
H4681	H468	0.622400	0.033100	0.730000
H4691	H469	0.628200	0.987700	0.727000
H4701	H470	0.630200	0.984500	0.797700
O4711	O471	0.637800	0.512800	0.146300
O4721	O472	0.733900	0.474100	0.195000
C6591	C659	0.642300	0.587500	0.400100
H4711	H471	0.663700	0.572300	0.407000
C6601	C660	0.756800	0.508200	0.117200
H4721	H472	0.769600	0.532900	0.122800
H4731	H473	0.772600	0.487500	0.128400
N951	N95	0.625500	0.541500	0.306200
O4731	O473	0.555600	0.508800	0.213600
C6611	C661	0.620100	0.577300	0.367200
C6621	C662	0.632300	0.577300	0.120500
O4741	O474	0.695300	0.474900	0.266200
C6631	C663	0.654700	0.541900	0.131700
N961	N96	0.693500	0.542000	0.125400
H4741	H474	0.704600	0.561900	0.114600
C6641	C664	0.716500	0.508000	0.137000
H4751	H475	0.702400	0.484100	0.129600
C6651	C665	0.617300	0.507900	0.243400
C6661	C666	0.642600	0.599900	0.087500
H4761	H476	0.664300	0.593100	0.072600
C6671	C667	0.724500	0.507400	0.181000
O4751	O475	0.645800	0.512600	0.362100
C6681	C668	0.681400	0.507300	0.275500
C6691	C669	0.573600	0.503000	0.245500
C6701	C670	0.631500	0.541700	0.345300
O4761	O476	0.699300	0.539300	0.275800
C6711	C671	0.754600	0.502800	0.073500
O4771	O477	0.786400	0.508900	0.056000
O4781	O478	0.724200	0.539500	0.199210
O4791	O479	0.557900	0.492700	0.277000
C6721	C672	0.637500	0.508000	0.283300
O4801	O480	0.723000	0.492500	0.058000
H4771	H477	0.616000	0.562300	0.295400
H4781	H478	0.622400	0.533100	0.230000
H4791	H479	0.628200	0.487700	0.227000
H4801	H480	0.630200	0.484500	0.297700
Cu11	Cu1	0.250000	0.750000	0.954730
Cu21	Cu2	0.250000	0.750000	0.031620
O4811	O481	0.250000	0.750000	0.891700
O4821	O482	0.250000	0.750000	0.093500
Cu31	Cu3	0.250000	0.250000	0.454730
Cu41	Cu4	0.250000	0.250000	0.531620
O4831	O483	0.250000	0.250000	0.391700
O4841	O484	0.250000	0.250000	0.593500
Cu51	Cu5	0.750000	0.250000	0.954730
Cu61	Cu6	0.750000	0.250000	0.031620
O4851	O485	0.750000	0.250000	0.891700
O4861	O486	0.750000	0.250000	0.093500
Cu71	Cu7	0.750000	0.750000	0.454730
Cu81	Cu8	0.750000	0.750000	0.531620
O4871	O487	0.750000	0.750000	0.391700
O4881	O488	0.750000	0.750000	0.593500
Cu91	Cu9	0.750000	0.750000	0.045270
Cu101	Cu10	0.750000	0.750000	0.968380
O4891	O489	0.750000	0.750000	0.108300
O4901	O490	0.750000	0.750000	0.906500
Cu111	Cu11	0.750000	0.250000	0.545270
Cu121	Cu12	0.750000	0.250000	0.468380
O4911	O491	0.750000	0.250000	0.608300
O4921	O492	0.750000	0.250000	0.406500
Cu131	Cu13	0.250000	0.250000	0.045270
Cu141	Cu14	0.250000	0.250000	0.968380
O4931	O493	0.250000	0.250000	0.108300
O4941	O494	0.250000	0.250000	0.906500
Cu151	Cu15	0.250000	0.750000	0.545270
Cu161	Cu16	0.250000	0.750000	0.468380
O4951	O495	0.250000	0.750000	0.608300
O4961	O496	0.250000	0.750000	0.406500
Cu171	Cu17	0.954730	0.250000	0.750000
Cu181	Cu18	0.031620	0.250000	0.750000
O4971	O497	0.891700	0.250000	0.750000
O4981	O498	0.093500	0.250000	0.750000
Cu191	Cu19	0.454730	0.250000	0.250000
Cu201	Cu20	0.531620	0.250000	0.250000
O4991	O499	0.391700	0.250000	0.250000
O5001	O500	0.593500	0.250000	0.250000
Cu211	Cu21	0.954730	0.750000	0.250000
Cu221	Cu22	0.031620	0.750000	0.250000
O5011	O501	0.891700	0.750000	0.250000
O5021	O502	0.093500	0.750000	0.250000
Cu231	Cu23	0.454730	0.750000	0.750000
Cu241	Cu24	0.531620	0.750000	0.750000
O5031	O503	0.391700	0.750000	0.750000
O5041	O504	0.593500	0.750000	0.750000
Cu251	Cu25	0.045270	0.750000	0.750000
Cu261	Cu26	0.968380	0.750000	0.750000
O5051	O505	0.108300	0.750000	0.750000
O5061	O506	0.906500	0.750000	0.750000
Cu271	Cu27	0.545270	0.750000	0.250000
Cu281	Cu28	0.468380	0.750000	0.250000
O5071	O507	0.608300	0.750000	0.250000
O5081	O508	0.406500	0.750000	0.250000
Cu291	Cu29	0.045270	0.250000	0.250000
Cu301	Cu30	0.968380	0.250000	0.250000
O5091	O509	0.108300	0.250000	0.250000
O5101	O510	0.906500	0.250000	0.250000
Cu311	Cu31	0.545270	0.250000	0.750000
Cu321	Cu32	0.468380	0.250000	0.750000
O5111	O511	0.608300	0.250000	0.750000
O5121	O512	0.406500	0.250000	0.750000
Cu331	Cu33	0.750000	0.954730	0.250000
Cu341	Cu34	0.750000	0.031620	0.250000
O5131	O513	0.750000	0.891700	0.250000
O5141	O514	0.750000	0.093500	0.250000
Cu351	Cu35	0.750000	0.454730	0.750000
Cu361	Cu36	0.750000	0.531620	0.750000
O5151	O515	0.750000	0.391700	0.750000
O5161	O516	0.750000	0.593500	0.750000
Cu371	Cu37	0.250000	0.954730	0.750000
Cu381	Cu38	0.250000	0.031620	0.750000
O5171	O517	0.250000	0.891700	0.750000
O5181	O518	0.250000	0.093500	0.750000
Cu391	Cu39	0.250000	0.454730	0.250000
Cu401	Cu40	0.250000	0.531620	0.250000
O5191	O519	0.250000	0.391700	0.250000
O5201	O520	0.250000	0.593500	0.250000
Cu411	Cu41	0.750000	0.045270	0.750000
Cu421	Cu42	0.750000	0.968380	0.750000
O5211	O521	0.750000	0.108300	0.750000
O5221	O522	0.750000	0.906500	0.750000
Cu431	Cu43	0.750000	0.545270	0.250000
Cu441	Cu44	0.750000	0.468380	0.250000
O5231	O523	0.750000	0.608300	0.250000
O5241	O524	0.750000	0.406500	0.250000
Cu451	Cu45	0.250000	0.045270	0.250000
Cu461	Cu46	0.250000	0.968380	0.250000
O5251	O525	0.250000	0.108300	0.250000
O5261	O526	0.250000	0.906500	0.250000
Cu471	Cu47	0.250000	0.545270	0.750000
Cu481	Cu48	0.250000	0.468380	0.750000
O5271	O527	0.250000	0.608300	0.750000
O5281	O528	0.250000	0.406500	0.750000
Cu491	Cu49	0.289200	0.000000	0.000000
Cu501	Cu50	0.210950	0.000000	0.000000
O5291	O529	0.150500	0.000000	0.000000
O5301	O530	0.348800	0.000000	0.000000
Cu511	Cu51	0.289200	0.500000	0.500000
Cu521	Cu52	0.210950	0.500000	0.500000
O5311	O531	0.150500	0.500000	0.500000
O5321	O532	0.348800	0.500000	0.500000
Cu531	Cu53	0.789200	0.000000	0.500000
Cu541	Cu54	0.710950	0.000000	0.500000
O5331	O533	0.650500	0.000000	0.500000
O5341	O534	0.848800	0.000000	0.500000
Cu551	Cu55	0.789200	0.500000	0.000000
Cu561	Cu56	0.710950	0.500000	0.000000
O5351	O535	0.650500	0.500000	0.000000
O5361	O536	0.848800	0.500000	0.000000
Cu571	Cu57	0.710800	0.000000	0.000000
Cu581	Cu58	0.789050	0.000000	0.000000
O5371	O537	0.849500	0.000000	0.000000
O5381	O538	0.651200	0.000000	0.000000
Cu591	Cu59	0.710800	0.500000	0.500000
Cu601	Cu60	0.789050	0.500000	0.500000
O5391	O539	0.849500	0.500000	0.500000
O5401	O540	0.651200	0.500000	0.500000
Cu611	Cu61	0.210800	0.000000	0.500000
Cu621	Cu62	0.289050	0.000000	0.500000
O5411	O541	0.349500	0.000000	0.500000
O5421	O542	0.151200	0.000000	0.500000
Cu631	Cu63	0.210800	0.500000	0.000000
Cu641	Cu64	0.289050	0.500000	0.000000
O5431	O543	0.349500	0.500000	0.000000
O5441	O544	0.151200	0.500000	0.000000
Cu651	Cu65	0.000000	0.289200	0.000000
Cu661	Cu66	0.000000	0.210950	0.000000
O5451	O545	0.000000	0.150500	0.000000
O5461	O546	0.000000	0.348800	0.000000
Cu671	Cu67	0.000000	0.789200	0.500000
Cu681	Cu68	0.000000	0.710950	0.500000
O5471	O547	0.000000	0.650500	0.500000
O5481	O548	0.000000	0.848800	0.500000
Cu691	Cu69	0.500000	0.289200	0.500000
Cu701	Cu70	0.500000	0.210950	0.500000
O5491	O549	0.500000	0.150500	0.500000
O5501	O550	0.500000	0.348800	0.500000
Cu711	Cu71	0.500000	0.789200	0.000000
Cu721	Cu72	0.500000	0.710950	0.000000
O5511	O551	0.500000	0.650500	0.000000
O5521	O552	0.500000	0.848800	0.000000
Cu731	Cu73	0.000000	0.710800	0.000000
Cu741	Cu74	0.000000	0.789050	0.000000
O5531	O553	0.000000	0.849500	0.000000
O5541	O554	0.000000	0.651200	0.000000
Cu751	Cu75	0.000000	0.210800	0.500000
Cu761	Cu76	0.000000	0.289050	0.500000
O5551	O555	0.000000	0.349500	0.500000
O5561	O556	0.000000	0.151200	0.500000
Cu771	Cu77	0.500000	0.710800	0.500000
Cu781	Cu78	0.500000	0.789050	0.500000
O5571	O557	0.500000	0.849500	0.500000
O5581	O558	0.500000	0.651200	0.500000
Cu791	Cu79	0.500000	0.210800	0.000000
Cu801	Cu80	0.500000	0.289050	0.000000
O5591	O559	0.500000	0.349500	0.000000
O5601	O560	0.500000	0.151200	0.000000
Cu811	Cu81	0.000000	0.000000	0.289200
Cu821	Cu82	0.000000	0.000000	0.210950
O5611	O561	0.000000	0.000000	0.150500
O5621	O562	0.000000	0.000000	0.348800
Cu831	Cu83	0.000000	0.500000	0.789200
Cu841	Cu84	0.000000	0.500000	0.710950
O5631	O563	0.000000	0.500000	0.650500
O5641	O564	0.000000	0.500000	0.848800
Cu851	Cu85	0.500000	0.000000	0.789200
Cu861	Cu86	0.500000	0.000000	0.710950
O5651	O565	0.500000	0.000000	0.650500
O5661	O566	0.500000	0.000000	0.848800
Cu871	Cu87	0.500000	0.500000	0.289200
Cu881	Cu88	0.500000	0.500000	0.210950
O5671	O567	0.500000	0.500000	0.150500
O5681	O568	0.500000	0.500000	0.348800
Cu891	Cu89	0.000000	0.000000	0.710800
Cu901	Cu90	0.000000	0.000000	0.789050
O5691	O569	0.000000	0.000000	0.849500
O5701	O570	0.000000	0.000000	0.651200
Cu911	Cu91	0.000000	0.500000	0.210800
Cu921	Cu92	0.000000	0.500000	0.289050
O5711	O571	0.000000	0.500000	0.349500
O5721	O572	0.000000	0.500000	0.151200
Cu931	Cu93	0.500000	0.000000	0.210800
Cu941	Cu94	0.500000	0.000000	0.289050
O5731	O573	0.500000	0.000000	0.349500
O5741	O574	0.500000	0.000000	0.151200
Cu951	Cu95	0.500000	0.500000	0.710800
Cu961	Cu96	0.500000	0.500000	0.789050
O5751	O575	0.500000	0.500000	0.849500
O5761	O576	0.500000	0.500000	0.651200
