data_DORFAS_freeONLY_PM
_symmetry_space_group_name_H-M	'P1'
_cell_length_a	12.870800
_cell_length_b	12.870800
_cell_length_c	17.243300
_cell_angle_alpha	90.000000
_cell_angle_beta	90.000000
_cell_angle_gamma	120.000000
_symmetry_Int_Tables_number 1

loop_
_symmetry_equiv_pos_as_xyz
'x,y,z'

loop_
_atom_site_label
_atom_site_type_symbol
_atom_site_fract_x
_atom_site_fract_y
_atom_site_fract_z
O11	O1	0.680800	0.819500	0.010500
O21	O2	0.492300	0.696400	0.984900
O31	O3	0.340200	0.983700	0.199500
O41	O4	0.513500	0.024000	0.245600
C11	C1	0.544600	0.899600	0.012400
C21	C2	0.463100	0.873800	0.085100
C31	C3	0.488700	0.001300	0.106500
H11	H1	0.448000	0.026900	0.069600
C41	C4	0.625400	0.078600	0.095800
H21	H2	0.647600	0.160200	0.082000
H31	H3	0.666900	0.080300	0.143200
C51	C5	0.655100	0.021600	0.033400
H41	H4	0.720500	0.009500	0.049600
H51	H5	0.681200	0.073400	0.988200
C61	C6	0.486100	0.907100	0.938000
H61	H6	0.539700	0.922600	0.895300
H71	H7	0.468200	0.970900	0.942000
H81	H8	0.413200	0.832600	0.929600
C71	C7	0.322300	0.790600	0.065900
H91	H9	0.276400	0.777700	0.112400
H101	H10	0.307600	0.714800	0.045900
H111	H11	0.299000	0.829700	0.028000
C81	C8	0.493300	0.813200	0.149400
H121	H12	0.577000	0.860500	0.161900
H131	H13	0.475700	0.734900	0.132700
H141	H14	0.446400	0.805800	0.194500
C91	C9	0.574600	0.799500	0.001300
C101	C10	0.446000	0.004500	0.189300
O51	O5	0.180500	0.861300	0.343830
O61	O6	0.303600	0.795900	0.318230
O71	O7	0.016300	0.356500	0.532830
O81	O8	0.976000	0.489500	0.578930
C111	C11	0.100400	0.645000	0.345730
C121	C12	0.126200	0.589300	0.418430
C131	C13	0.998700	0.487400	0.439830
H151	H15	0.973100	0.421100	0.402930
C141	C14	0.921400	0.546800	0.429130
H161	H16	0.839800	0.487400	0.415330
H171	H17	0.919700	0.586600	0.476530
C151	C15	0.978400	0.633500	0.366730
H181	H18	0.990500	0.711000	0.382930
H191	H19	0.926600	0.607800	0.321530
C161	C16	0.092900	0.579000	0.271330
H201	H20	0.077400	0.617100	0.228630
H211	H21	0.029100	0.497300	0.275330
H221	H22	0.167400	0.580600	0.262930
C171	C17	0.209400	0.531700	0.399230
H231	H23	0.222300	0.498700	0.445730
H241	H24	0.285200	0.592800	0.379230
H251	H25	0.170300	0.469300	0.361330
C181	C18	0.186800	0.680100	0.482730
H261	H26	0.139500	0.716500	0.495230
H271	H27	0.265100	0.740800	0.466030
H281	H28	0.194200	0.640600	0.527830
C191	C19	0.200500	0.775100	0.334630
C201	C20	0.995500	0.441500	0.522630
O91	O9	0.138700	0.319200	0.677170
O101	O10	0.204100	0.507700	0.651570
O111	O11	0.643500	0.659800	0.866170
O121	O12	0.510500	0.486500	0.912270
C211	C21	0.355000	0.455400	0.679070
C221	C22	0.410700	0.536900	0.751770
C231	C23	0.512600	0.511300	0.773170
H291	H29	0.578900	0.552000	0.736270
C241	C24	0.453200	0.374600	0.762470
H301	H30	0.512600	0.352400	0.748670
H311	H31	0.413400	0.333100	0.809870
C251	C25	0.366500	0.344900	0.700070
H321	H32	0.289000	0.279500	0.716270
H331	H33	0.392200	0.318800	0.654870
C261	C26	0.421000	0.513900	0.604670
H341	H34	0.382900	0.460300	0.561970
H351	H35	0.502700	0.531800	0.608670
H361	H36	0.419400	0.586800	0.596270
C271	C27	0.468300	0.677700	0.732570
H371	H37	0.501300	0.723600	0.779070
H381	H38	0.407200	0.692400	0.712570
H391	H39	0.530700	0.701000	0.694670
C281	C28	0.319900	0.506700	0.816070
H401	H40	0.283500	0.423000	0.828570
H411	H41	0.259200	0.524300	0.799370
H421	H42	0.359400	0.553600	0.861170
C291	C29	0.224900	0.425400	0.667970
C301	C30	0.558500	0.554000	0.855970
O131	O13	0.819500	0.680800	0.989500
O141	O14	0.696400	0.492300	0.015100
O151	O15	0.983700	0.340200	0.800500
O161	O16	0.024000	0.513500	0.754400
C311	C31	0.899600	0.544600	0.987600
C321	C32	0.873800	0.463100	0.914900
C331	C33	0.001300	0.488700	0.893500
H431	H43	0.026900	0.448000	0.930400
C341	C34	0.078600	0.625400	0.904200
H441	H44	0.160200	0.647600	0.918000
H451	H45	0.080300	0.666900	0.856800
C351	C35	0.021600	0.655100	0.966600
H461	H46	0.009500	0.720500	0.950400
H471	H47	0.073400	0.681200	0.011800
C361	C36	0.907100	0.486100	0.062000
H481	H48	0.922600	0.539700	0.104700
H491	H49	0.970900	0.468200	0.058000
H501	H50	0.832600	0.413200	0.070400
C371	C37	0.790600	0.322300	0.934100
H511	H51	0.777700	0.276400	0.887600
H521	H52	0.714800	0.307600	0.954100
H531	H53	0.829700	0.299000	0.972000
C381	C38	0.813200	0.493300	0.850600
H541	H54	0.860500	0.577000	0.838100
H551	H55	0.734900	0.475700	0.867300
H561	H56	0.805800	0.446400	0.805500
C391	C39	0.799500	0.574600	0.998700
C401	C40	0.004500	0.446000	0.810700
O171	O17	0.861300	0.180500	0.656170
O181	O18	0.795900	0.303600	0.681770
O191	O19	0.356500	0.016300	0.467170
O201	O20	0.489500	0.976000	0.421070
C411	C41	0.645000	0.100400	0.654270
C421	C42	0.589300	0.126200	0.581570
C431	C43	0.487400	0.998700	0.560170
H571	H57	0.421100	0.973100	0.597070
C441	C44	0.546800	0.921400	0.570870
H581	H58	0.487400	0.839800	0.584670
H591	H59	0.586600	0.919700	0.523470
C451	C45	0.633500	0.978400	0.633270
H601	H60	0.711000	0.990500	0.617070
H611	H61	0.607800	0.926600	0.678470
C461	C46	0.579000	0.092900	0.728670
H621	H62	0.617100	0.077400	0.771370
H631	H63	0.497300	0.029100	0.724670
H641	H64	0.580600	0.167400	0.737070
C471	C47	0.531700	0.209400	0.600770
H651	H65	0.498700	0.222300	0.554270
H661	H66	0.592800	0.285200	0.620770
H671	H67	0.469300	0.170300	0.638670
C481	C48	0.680100	0.186800	0.517270
H681	H68	0.716500	0.139500	0.504770
H691	H69	0.740800	0.265100	0.533970
H701	H70	0.640600	0.194200	0.472170
C491	C49	0.775100	0.200500	0.665370
C501	C50	0.441500	0.995500	0.477370
O211	O21	0.319200	0.138700	0.322830
O221	O22	0.507700	0.204100	0.348430
O231	O23	0.659800	0.643500	0.133830
O241	O24	0.486500	0.510500	0.087730
C511	C51	0.455400	0.355000	0.320930
C521	C52	0.536900	0.410700	0.248230
C531	C53	0.511300	0.512600	0.226830
H711	H71	0.552000	0.578900	0.263730
C541	C54	0.374600	0.453200	0.237530
H721	H72	0.352400	0.512600	0.251330
H731	H73	0.333100	0.413400	0.190130
C551	C55	0.344900	0.366500	0.299930
H741	H74	0.279500	0.289000	0.283730
H751	H75	0.318800	0.392200	0.345130
C561	C56	0.513900	0.421000	0.395330
H761	H76	0.460300	0.382900	0.438030
H771	H77	0.531800	0.502700	0.391330
H781	H78	0.586800	0.419400	0.403730
C571	C57	0.677700	0.468300	0.267430
H791	H79	0.723600	0.501300	0.220930
H801	H80	0.692400	0.407200	0.287430
H811	H81	0.701000	0.530700	0.305330
C581	C58	0.506700	0.319900	0.183930
H821	H82	0.423000	0.283500	0.171430
H831	H83	0.524300	0.259200	0.200630
H841	H84	0.553600	0.359400	0.138830
C591	C59	0.425400	0.224900	0.332030
C601	C60	0.554000	0.558500	0.144030
In11	In1	0.624700	0.624700	0.000000
In21	In2	0.375300	0.000000	0.333330
In31	In3	0.000000	0.375300	0.666670
