data_DOYBUQ_freeONLY_PM
_symmetry_space_group_name_H-M	'P1'
_cell_length_a	14.652000
_cell_length_b	14.894000
_cell_length_c	29.736000
_cell_angle_alpha	90.000000
_cell_angle_beta	90.000000
_cell_angle_gamma	90.000000
_symmetry_Int_Tables_number 1

loop_
_symmetry_equiv_pos_as_xyz
'x,y,z'

loop_
_atom_site_label
_atom_site_type_symbol
_atom_site_fract_x
_atom_site_fract_y
_atom_site_fract_z
N11	N1	0.257200	0.147400	0.300080
N21	N2	0.258800	0.147700	0.450000
C11	C1	0.264300	0.094100	0.422450
C21	C2	0.263500	0.093600	0.327400
C31	C3	0.046600	0.324200	0.242800
H11	H1	0.077400	0.378500	0.237600
N31	N3	0.257200	0.647400	0.800080
N41	N4	0.258800	0.647700	0.950000
C41	C4	0.264300	0.594100	0.922450
C51	C5	0.263500	0.593600	0.827400
C61	C6	0.046600	0.824200	0.742800
H21	H2	0.077400	0.878500	0.737600
N51	N5	0.757200	0.147400	0.800080
N61	N6	0.758800	0.147700	0.950000
C71	C7	0.764300	0.094100	0.922450
C81	C8	0.763500	0.093600	0.827400
C91	C9	0.546600	0.324200	0.742800
H31	H3	0.577400	0.378500	0.737600
N71	N7	0.757200	0.647400	0.300080
N81	N8	0.758800	0.647700	0.450000
C101	C10	0.764300	0.594100	0.422450
C111	C11	0.763500	0.593600	0.327400
C121	C12	0.546600	0.824200	0.242800
H41	H4	0.577400	0.878500	0.237600
N91	N9	0.742800	0.852600	0.300080
N101	N10	0.741200	0.852300	0.450000
C131	C13	0.735700	0.905900	0.422450
C141	C14	0.736500	0.906400	0.327400
C151	C15	0.953400	0.675800	0.242800
H51	H5	0.922600	0.621500	0.237600
N111	N11	0.742800	0.352600	0.800080
N121	N12	0.741200	0.352300	0.950000
C161	C16	0.735700	0.405900	0.922450
C171	C17	0.736500	0.406400	0.827400
C181	C18	0.953400	0.175800	0.742800
H61	H6	0.922600	0.121500	0.737600
N131	N13	0.242800	0.852600	0.800080
N141	N14	0.241200	0.852300	0.950000
C191	C19	0.235700	0.905900	0.922450
C201	C20	0.236500	0.906400	0.827400
C211	C21	0.453400	0.675800	0.742800
H71	H7	0.422600	0.621500	0.737600
N151	N15	0.242800	0.352600	0.300080
N161	N16	0.241200	0.352300	0.450000
C221	C22	0.235700	0.405900	0.422450
C231	C23	0.236500	0.406400	0.327400
C241	C24	0.453400	0.175800	0.242800
H81	H8	0.422600	0.121500	0.237600
N171	N17	0.742800	0.147400	0.699920
N181	N18	0.741200	0.147700	0.550000
C251	C25	0.735700	0.094100	0.577550
C261	C26	0.736500	0.093600	0.672600
C271	C27	0.953400	0.324200	0.757200
H91	H9	0.922600	0.378500	0.762400
N191	N19	0.742800	0.647400	0.199920
N201	N20	0.741200	0.647700	0.050000
C281	C28	0.735700	0.594100	0.077550
C291	C29	0.736500	0.593600	0.172600
C301	C30	0.953400	0.824200	0.257200
H101	H10	0.922600	0.878500	0.262400
N211	N21	0.242800	0.147400	0.199920
N221	N22	0.241200	0.147700	0.050000
C311	C31	0.235700	0.094100	0.077550
C321	C32	0.236500	0.093600	0.172600
C331	C33	0.453400	0.324200	0.257200
H111	H11	0.422600	0.378500	0.262400
N231	N23	0.242800	0.647400	0.699920
N241	N24	0.241200	0.647700	0.550000
C341	C34	0.235700	0.594100	0.577550
C351	C35	0.236500	0.593600	0.672600
C361	C36	0.453400	0.824200	0.757200
H121	H12	0.422600	0.878500	0.762400
N251	N25	0.257200	0.852600	0.699920
N261	N26	0.258800	0.852300	0.550000
C371	C37	0.264300	0.905900	0.577550
C381	C38	0.263500	0.906400	0.672600
C391	C39	0.046600	0.675800	0.757200
H131	H13	0.077400	0.621500	0.762400
N271	N27	0.257200	0.352600	0.199920
N281	N28	0.258800	0.352300	0.050000
C401	C40	0.264300	0.405900	0.077550
C411	C41	0.263500	0.406400	0.172600
C421	C42	0.046600	0.175800	0.257200
H141	H14	0.077400	0.121500	0.262400
N291	N29	0.757200	0.852600	0.199920
N301	N30	0.758800	0.852300	0.050000
C431	C43	0.764300	0.905900	0.077550
C441	C44	0.763500	0.906400	0.172600
C451	C45	0.546600	0.675800	0.257200
H151	H15	0.577400	0.621500	0.262400
N311	N31	0.757200	0.352600	0.699920
N321	N32	0.758800	0.352300	0.550000
C461	C46	0.764300	0.405900	0.577550
C471	C47	0.763500	0.406400	0.672600
C481	C48	0.546600	0.175800	0.757200
H161	H16	0.577400	0.121500	0.762400
N331	N33	0.742800	0.852600	0.699920
N341	N34	0.741200	0.852300	0.550000
C491	C49	0.735700	0.905900	0.577550
C501	C50	0.736500	0.906400	0.672600
C511	C51	0.953400	0.675800	0.757200
H171	H17	0.922600	0.621500	0.762400
N351	N35	0.742800	0.352600	0.199920
N361	N36	0.741200	0.352300	0.050000
C521	C52	0.735700	0.405900	0.077550
C531	C53	0.736500	0.406400	0.172600
C541	C54	0.953400	0.175800	0.257200
H181	H18	0.922600	0.121500	0.262400
N371	N37	0.242800	0.852600	0.199920
N381	N38	0.241200	0.852300	0.050000
C551	C55	0.235700	0.905900	0.077550
C561	C56	0.236500	0.906400	0.172600
C571	C57	0.453400	0.675800	0.257200
H191	H19	0.422600	0.621500	0.262400
N391	N39	0.242800	0.352600	0.699920
N401	N40	0.241200	0.352300	0.550000
C581	C58	0.235700	0.405900	0.577550
C591	C59	0.236500	0.406400	0.672600
C601	C60	0.453400	0.175800	0.757200
H201	H20	0.422600	0.121500	0.762400
N411	N41	0.257200	0.147400	0.699920
N421	N42	0.258800	0.147700	0.550000
C611	C61	0.264300	0.094100	0.577550
C621	C62	0.263500	0.093600	0.672600
C631	C63	0.046600	0.324200	0.757200
H211	H21	0.077400	0.378500	0.762400
N431	N43	0.257200	0.647400	0.199920
N441	N44	0.258800	0.647700	0.050000
C641	C64	0.264300	0.594100	0.077550
C651	C65	0.263500	0.593600	0.172600
C661	C66	0.046600	0.824200	0.257200
H221	H22	0.077400	0.878500	0.262400
N451	N45	0.757200	0.147400	0.199920
N461	N46	0.758800	0.147700	0.050000
C671	C67	0.764300	0.094100	0.077550
C681	C68	0.763500	0.093600	0.172600
C691	C69	0.546600	0.324200	0.257200
H231	H23	0.577400	0.378500	0.262400
N471	N47	0.757200	0.647400	0.699920
N481	N48	0.758800	0.647700	0.550000
C701	C70	0.764300	0.594100	0.577550
C711	C71	0.763500	0.593600	0.672600
C721	C72	0.546600	0.824200	0.757200
H241	H24	0.577400	0.878500	0.762400
N491	N49	0.257200	0.852600	0.300080
N501	N50	0.258800	0.852300	0.450000
C731	C73	0.264300	0.905900	0.422450
C741	C74	0.263500	0.906400	0.327400
C751	C75	0.046600	0.675800	0.242800
H251	H25	0.077400	0.621500	0.237600
N511	N51	0.257200	0.352600	0.800080
N521	N52	0.258800	0.352300	0.950000
C761	C76	0.264300	0.405900	0.922450
C771	C77	0.263500	0.406400	0.827400
C781	C78	0.046600	0.175800	0.742800
H261	H26	0.077400	0.121500	0.737600
N531	N53	0.757200	0.852600	0.800080
N541	N54	0.758800	0.852300	0.950000
C791	C79	0.764300	0.905900	0.922450
C801	C80	0.763500	0.906400	0.827400
C811	C81	0.546600	0.675800	0.742800
H271	H27	0.577400	0.621500	0.737600
N551	N55	0.757200	0.352600	0.300080
N561	N56	0.758800	0.352300	0.450000
C821	C82	0.764300	0.405900	0.422450
C831	C83	0.763500	0.406400	0.327400
C841	C84	0.546600	0.175800	0.242800
H281	H28	0.577400	0.121500	0.237600
N571	N57	0.742800	0.147400	0.300080
N581	N58	0.741200	0.147700	0.450000
C851	C85	0.735700	0.094100	0.422450
C861	C86	0.736500	0.093600	0.327400
C871	C87	0.953400	0.324200	0.242800
H291	H29	0.922600	0.378500	0.237600
N591	N59	0.742800	0.647400	0.800080
N601	N60	0.741200	0.647700	0.950000
C881	C88	0.735700	0.594100	0.922450
C891	C89	0.736500	0.593600	0.827400
C901	C90	0.953400	0.824200	0.742800
H301	H30	0.922600	0.878500	0.737600
N611	N61	0.242800	0.147400	0.800080
N621	N62	0.241200	0.147700	0.950000
C911	C91	0.235700	0.094100	0.922450
C921	C92	0.236500	0.093600	0.827400
C931	C93	0.453400	0.324200	0.742800
H311	H31	0.422600	0.378500	0.737600
N631	N63	0.242800	0.647400	0.300080
N641	N64	0.241200	0.647700	0.450000
C941	C94	0.235700	0.594100	0.422450
C951	C95	0.236500	0.593600	0.327400
C961	C96	0.453400	0.824200	0.242800
H321	H32	0.422600	0.878500	0.237600
Pt11	Pt1	0.266940	0.000000	0.374990
Pt21	Pt2	0.266940	0.500000	0.874990
Pt31	Pt3	0.766940	0.000000	0.874990
Pt41	Pt4	0.766940	0.500000	0.374990
Pt51	Pt5	0.733060	0.000000	0.374990
Pt61	Pt6	0.733060	0.500000	0.874990
Pt71	Pt7	0.233060	0.000000	0.874990
Pt81	Pt8	0.233060	0.500000	0.374990
Pt91	Pt9	0.733060	0.000000	0.625010
Pt101	Pt10	0.733060	0.500000	0.125010
Pt111	Pt11	0.233060	0.000000	0.125010
Pt121	Pt12	0.233060	0.500000	0.625010
Pt131	Pt13	0.266940	0.000000	0.625010
Pt141	Pt14	0.266940	0.500000	0.125010
Pt151	Pt15	0.766940	0.000000	0.125010
Pt161	Pt16	0.766940	0.500000	0.625010
Fe11	Fe1	0.250000	0.250000	0.500000
Fe21	Fe2	0.250000	0.750000	0.000000
Fe31	Fe3	0.750000	0.750000	0.500000
Fe41	Fe4	0.750000	0.250000	0.000000
Fe51	Fe5	0.750000	0.250000	0.500000
Fe61	Fe6	0.750000	0.750000	0.000000
Fe71	Fe7	0.250000	0.250000	0.000000
Fe81	Fe8	0.250000	0.750000	0.500000
Fe91	Fe9	0.250000	0.250000	0.250000
Fe101	Fe10	0.750000	0.750000	0.250000
Fe111	Fe11	0.750000	0.250000	0.750000
Fe121	Fe12	0.250000	0.750000	0.750000
Fe131	Fe13	0.750000	0.750000	0.750000
Fe141	Fe14	0.750000	0.250000	0.250000
Fe151	Fe15	0.250000	0.750000	0.250000
Fe161	Fe16	0.250000	0.250000	0.750000
N651	N65	0.095100	0.243800	0.500000
C971	C97	0.048200	0.169800	0.500000
C981	C98	0.048200	0.317500	0.500000
H331	H33	0.079300	0.114600	0.500000
H341	H34	0.079300	0.372700	0.500000
N661	N66	0.095100	0.743800	0.000000
C991	C99	0.048200	0.669800	0.000000
C1001	C100	0.048200	0.817500	0.000000
H351	H35	0.079300	0.614600	0.000000
H361	H36	0.079300	0.872700	0.000000
N671	N67	0.595100	0.243800	0.000000
C1011	C101	0.548200	0.169800	0.000000
C1021	C102	0.548200	0.317500	0.000000
H371	H37	0.579300	0.114600	0.000000
H381	H38	0.579300	0.372700	0.000000
N681	N68	0.595100	0.743800	0.500000
C1031	C103	0.548200	0.669800	0.500000
C1041	C104	0.548200	0.817500	0.500000
H391	H39	0.579300	0.614600	0.500000
H401	H40	0.579300	0.872700	0.500000
N691	N69	0.904900	0.756200	0.500000
C1051	C105	0.951800	0.830200	0.500000
C1061	C106	0.951800	0.682500	0.500000
H411	H41	0.920700	0.885400	0.500000
H421	H42	0.920700	0.627300	0.500000
N701	N70	0.904900	0.256200	0.000000
C1071	C107	0.951800	0.330200	0.000000
C1081	C108	0.951800	0.182500	0.000000
H431	H43	0.920700	0.385400	0.000000
H441	H44	0.920700	0.127300	0.000000
N711	N71	0.404900	0.756200	0.000000
C1091	C109	0.451800	0.830200	0.000000
C1101	C110	0.451800	0.682500	0.000000
H451	H45	0.420700	0.885400	0.000000
H461	H46	0.420700	0.627300	0.000000
N721	N72	0.404900	0.256200	0.500000
C1111	C111	0.451800	0.330200	0.500000
C1121	C112	0.451800	0.182500	0.500000
H471	H47	0.420700	0.385400	0.500000
H481	H48	0.420700	0.127300	0.500000
N731	N73	0.904900	0.243800	0.500000
C1131	C113	0.951800	0.169800	0.500000
C1141	C114	0.951800	0.317500	0.500000
H491	H49	0.920700	0.114600	0.500000
H501	H50	0.920700	0.372700	0.500000
N741	N74	0.904900	0.743800	0.000000
C1151	C115	0.951800	0.669800	0.000000
C1161	C116	0.951800	0.817500	0.000000
H511	H51	0.920700	0.614600	0.000000
H521	H52	0.920700	0.872700	0.000000
N751	N75	0.404900	0.243800	0.000000
C1171	C117	0.451800	0.169800	0.000000
C1181	C118	0.451800	0.317500	0.000000
H531	H53	0.420700	0.114600	0.000000
H541	H54	0.420700	0.372700	0.000000
N761	N76	0.404900	0.743800	0.500000
C1191	C119	0.451800	0.669800	0.500000
C1201	C120	0.451800	0.817500	0.500000
H551	H55	0.420700	0.614600	0.500000
H561	H56	0.420700	0.872700	0.500000
N771	N77	0.095100	0.756200	0.500000
C1211	C121	0.048200	0.830200	0.500000
C1221	C122	0.048200	0.682500	0.500000
H571	H57	0.079300	0.885400	0.500000
H581	H58	0.079300	0.627300	0.500000
N781	N78	0.095100	0.256200	0.000000
C1231	C123	0.048200	0.330200	0.000000
C1241	C124	0.048200	0.182500	0.000000
H591	H59	0.079300	0.385400	0.000000
H601	H60	0.079300	0.127300	0.000000
N791	N79	0.595100	0.756200	0.000000
C1251	C125	0.548200	0.830200	0.000000
C1261	C126	0.548200	0.682500	0.000000
H611	H61	0.579300	0.885400	0.000000
H621	H62	0.579300	0.627300	0.000000
N801	N80	0.595100	0.256200	0.500000
C1271	C127	0.548200	0.330200	0.500000
C1281	C128	0.548200	0.182500	0.500000
H631	H63	0.579300	0.385400	0.500000
H641	H64	0.579300	0.127300	0.500000
N811	N81	0.095600	0.250000	0.250000
N821	N82	0.595600	0.250000	0.750000
N831	N83	0.904400	0.750000	0.250000
N841	N84	0.404400	0.750000	0.750000
N851	N85	0.404400	0.250000	0.250000
N861	N86	0.904400	0.250000	0.750000
N871	N87	0.095600	0.750000	0.750000
N881	N88	0.595600	0.750000	0.250000
N891	N89	0.904400	0.750000	0.750000
N901	N90	0.904400	0.250000	0.250000
N911	N91	0.404400	0.750000	0.250000
N921	N92	0.095600	0.250000	0.750000
N931	N93	0.595600	0.250000	0.250000
N941	N94	0.095600	0.750000	0.250000
N951	N95	0.595600	0.750000	0.750000
N961	N96	0.404400	0.250000	0.750000
