data_DUBBEI_freeONLY_PM
_symmetry_space_group_name_H-M	'P1'
_cell_length_a	8.514600
_cell_length_b	16.204900
_cell_length_c	28.547000
_cell_angle_alpha	90.000000
_cell_angle_beta	96.212000
_cell_angle_gamma	90.000000
_symmetry_Int_Tables_number 1

loop_
_symmetry_equiv_pos_as_xyz
'x,y,z'

loop_
_atom_site_label
_atom_site_type_symbol
_atom_site_fract_x
_atom_site_fract_y
_atom_site_fract_z
Er11	Er1	0.821050	0.287640	0.332100
Er21	Er2	0.190010	0.173340	0.171270
Er31	Er3	0.451210	0.191530	0.496080
P11	P1	0.080460	0.268700	0.437040
P21	P2	0.566570	0.251430	0.225420
O11	O1	0.931900	0.261300	0.464200
H11	H1	0.933800	0.273500	0.497900
O21	O2	0.137900	0.361700	0.441800
H21	H2	0.104300	0.400800	0.418300
O31	O3	0.211700	0.214700	0.458760
O41	O4	0.026400	0.250200	0.386370
O51	O5	0.119100	0.286600	0.216840
O61	O6	0.059600	0.128600	0.236510
O71	O7	0.973000	0.328000	0.272930
O81	O8	0.926400	0.170000	0.295830
O91	O9	0.578300	0.138300	0.432040
O101	O10	0.520200	0.298400	0.446750
O111	O11	0.705900	0.173800	0.370270
O121	O12	0.668300	0.332500	0.390010
O131	O13	0.953900	0.414100	0.363990
O141	O14	0.696300	0.411500	0.301360
O151	O15	0.953900	0.553000	0.361190
O161	O16	0.684200	0.548300	0.304170
O171	O17	0.425300	0.197900	0.213180
O181	O18	0.620500	0.254700	0.276510
O191	O19	0.711700	0.224800	0.199630
H31	H3	0.670400	0.233200	0.168400
O201	O20	0.522300	0.342100	0.207310
H41	H4	0.413300	0.338200	0.192500
O211	O21	0.375700	0.190500	0.035490
O221	O22	0.341500	0.345200	0.065220
O231	O23	0.307300	0.142300	0.103910
O241	O24	0.277600	0.296600	0.134070
O251	O25	0.649400	0.249100	0.109010
O261	O26	0.958900	0.217100	0.130720
O271	O27	0.686800	0.259900	0.033600
O281	O28	0.993900	0.221200	0.054750
O291	O29	0.614400	0.077400	0.528690
O301	O30	0.663200	0.943100	0.522800
C11	C1	0.034200	0.273600	0.248990
C21	C2	0.002700	0.183100	0.261600
C31	C3	0.633200	0.190700	0.404300
C41	C4	0.604600	0.282000	0.414670
C51	C5	0.748100	0.480300	0.316100
C61	C6	0.897100	0.482800	0.349900
C71	C7	0.332600	0.199400	0.075500
C81	C8	0.315700	0.288000	0.093080
C91	C9	0.911900	0.225400	0.087700
C101	C10	0.733200	0.246200	0.076300
C111	C11	0.579200	0.007300	0.514750
Er41	Er4	0.178950	0.787640	0.167900
Er51	Er5	0.809990	0.673340	0.328730
Er61	Er6	0.548790	0.691530	0.003920
P31	P3	0.919540	0.768700	0.062960
P41	P4	0.433430	0.751430	0.274580
O311	O31	0.068100	0.761300	0.035800
H51	H5	0.066200	0.773500	0.002100
O321	O32	0.862100	0.861700	0.058200
H61	H6	0.895700	0.900800	0.081700
O331	O33	0.788300	0.714700	0.041240
O341	O34	0.973600	0.750200	0.113630
O351	O35	0.880900	0.786600	0.283160
O361	O36	0.940400	0.628600	0.263490
O371	O37	0.027000	0.828000	0.227070
O381	O38	0.073600	0.670000	0.204170
O391	O39	0.421700	0.638300	0.067960
O401	O40	0.479800	0.798400	0.053250
O411	O41	0.294100	0.673800	0.129730
O421	O42	0.331700	0.832500	0.109990
O431	O43	0.046100	0.914100	0.136010
O441	O44	0.303700	0.911500	0.198640
O451	O45	0.046100	0.053000	0.138810
O461	O46	0.315800	0.048300	0.195830
O471	O47	0.574700	0.697900	0.286820
O481	O48	0.379500	0.754700	0.223490
O491	O49	0.288300	0.724800	0.300370
H71	H7	0.329600	0.733200	0.331600
O501	O50	0.477700	0.842100	0.292690
H81	H8	0.586700	0.838200	0.307500
O511	O51	0.624300	0.690500	0.464510
O521	O52	0.658500	0.845200	0.434780
O531	O53	0.692700	0.642300	0.396090
O541	O54	0.722400	0.796600	0.365930
O551	O55	0.350600	0.749100	0.390990
O561	O56	0.041100	0.717100	0.369280
O571	O57	0.313200	0.759900	0.466400
O581	O58	0.006100	0.721200	0.445250
O591	O59	0.385600	0.577400	0.971310
O601	O60	0.336800	0.443100	0.977200
C121	C12	0.965800	0.773600	0.251010
C131	C13	0.997300	0.683100	0.238400
C141	C14	0.366800	0.690700	0.095700
C151	C15	0.395400	0.782000	0.085330
C161	C16	0.251900	0.980300	0.183900
C171	C17	0.102900	0.982800	0.150100
C181	C18	0.667400	0.699400	0.424500
C191	C19	0.684300	0.788000	0.406920
C201	C20	0.088100	0.725400	0.412300
C211	C21	0.266800	0.746200	0.423700
C221	C22	0.420800	0.507300	0.985250
Er71	Er7	0.178950	0.712360	0.667900
Er81	Er8	0.809990	0.826660	0.828730
Er91	Er9	0.548790	0.808470	0.503920
P51	P5	0.919540	0.731300	0.562960
P61	P6	0.433430	0.748570	0.774580
O611	O61	0.068100	0.738700	0.535800
H91	H9	0.066200	0.726500	0.502100
O621	O62	0.862100	0.638300	0.558200
H101	H10	0.895700	0.599200	0.581700
O631	O63	0.788300	0.785300	0.541240
O641	O64	0.973600	0.749800	0.613630
O651	O65	0.880900	0.713400	0.783160
O661	O66	0.940400	0.871400	0.763490
O671	O67	0.027000	0.672000	0.727070
O681	O68	0.073600	0.830000	0.704170
O691	O69	0.421700	0.861700	0.567960
O701	O70	0.479800	0.701600	0.553250
O711	O71	0.294100	0.826200	0.629730
O721	O72	0.331700	0.667500	0.609990
O731	O73	0.046100	0.585900	0.636010
O741	O74	0.303700	0.588500	0.698640
O751	O75	0.046100	0.447000	0.638810
O761	O76	0.315800	0.451700	0.695830
O771	O77	0.574700	0.802100	0.786820
O781	O78	0.379500	0.745300	0.723490
O791	O79	0.288300	0.775200	0.800370
H111	H11	0.329600	0.766800	0.831600
O801	O80	0.477700	0.657900	0.792690
H121	H12	0.586700	0.661800	0.807500
O811	O81	0.624300	0.809500	0.964510
O821	O82	0.658500	0.654800	0.934780
O831	O83	0.692700	0.857700	0.896090
O841	O84	0.722400	0.703400	0.865930
O851	O85	0.350600	0.750900	0.890990
O861	O86	0.041100	0.782900	0.869280
O871	O87	0.313200	0.740100	0.966400
O881	O88	0.006100	0.778800	0.945250
O891	O89	0.385600	0.922600	0.471310
O901	O90	0.336800	0.056900	0.477200
C231	C23	0.965800	0.726400	0.751010
C241	C24	0.997300	0.816900	0.738400
C251	C25	0.366800	0.809300	0.595700
C261	C26	0.395400	0.718000	0.585330
C271	C27	0.251900	0.519700	0.683900
C281	C28	0.102900	0.517200	0.650100
C291	C29	0.667400	0.800600	0.924500
C301	C30	0.684300	0.712000	0.906920
C311	C31	0.088100	0.774600	0.912300
C321	C32	0.266800	0.753800	0.923700
C331	C33	0.420800	0.992700	0.485250
Er101	Er10	0.821050	0.212360	0.832100
Er111	Er11	0.190010	0.326660	0.671270
Er121	Er12	0.451210	0.308470	0.996080
P71	P7	0.080460	0.231300	0.937040
P81	P8	0.566570	0.248570	0.725420
O911	O91	0.931900	0.238700	0.964200
H131	H13	0.933800	0.226500	0.997900
O921	O92	0.137900	0.138300	0.941800
H141	H14	0.104300	0.099200	0.918300
O931	O93	0.211700	0.285300	0.958760
O941	O94	0.026400	0.249800	0.886370
O951	O95	0.119100	0.213400	0.716840
O961	O96	0.059600	0.371400	0.736510
O971	O97	0.973000	0.172000	0.772930
O981	O98	0.926400	0.330000	0.795830
O991	O99	0.578300	0.361700	0.932040
O1001	O100	0.520200	0.201600	0.946750
O1011	O101	0.705900	0.326200	0.870270
O1021	O102	0.668300	0.167500	0.890010
O1031	O103	0.953900	0.085900	0.863990
O1041	O104	0.696300	0.088500	0.801360
O1051	O105	0.953900	0.947000	0.861190
O1061	O106	0.684200	0.951700	0.804170
O1071	O107	0.425300	0.302100	0.713180
O1081	O108	0.620500	0.245300	0.776510
O1091	O109	0.711700	0.275200	0.699630
H151	H15	0.670400	0.266800	0.668400
O1101	O110	0.522300	0.157900	0.707310
H161	H16	0.413300	0.161800	0.692500
O1111	O111	0.375700	0.309500	0.535490
O1121	O112	0.341500	0.154800	0.565220
O1131	O113	0.307300	0.357700	0.603910
O1141	O114	0.277600	0.203400	0.634070
O1151	O115	0.649400	0.250900	0.609010
O1161	O116	0.958900	0.282900	0.630720
O1171	O117	0.686800	0.240100	0.533600
O1181	O118	0.993900	0.278800	0.554750
O1191	O119	0.614400	0.422600	0.028690
O1201	O120	0.663200	0.556900	0.022800
C341	C34	0.034200	0.226400	0.748990
C351	C35	0.002700	0.316900	0.761600
C361	C36	0.633200	0.309300	0.904300
C371	C37	0.604600	0.218000	0.914670
C381	C38	0.748100	0.019700	0.816100
C391	C39	0.897100	0.017200	0.849900
C401	C40	0.332600	0.300600	0.575500
C411	C41	0.315700	0.212000	0.593080
C421	C42	0.911900	0.274600	0.587700
C431	C43	0.733200	0.253800	0.576300
C441	C44	0.579200	0.492700	0.014750
