data_DUDKEU_freeONLY_PM
_symmetry_space_group_name_H-M	'P1'
_cell_length_a	24.278400
_cell_length_b	13.368400
_cell_length_c	15.910300
_cell_angle_alpha	90.000000
_cell_angle_beta	90.000000
_cell_angle_gamma	90.000000
_symmetry_Int_Tables_number 1

loop_
_symmetry_equiv_pos_as_xyz
'x,y,z'

loop_
_atom_site_label
_atom_site_type_symbol
_atom_site_fract_x
_atom_site_fract_y
_atom_site_fract_z
Co11	Co1	0.550920	0.354770	0.389270
Co21	Co2	0.387200	0.060750	0.613490
Co31	Co3	0.462170	0.245860	0.505050
O11	O1	0.919190	0.179300	0.912300
O21	O2	0.834650	0.051900	0.495600
O31	O3	0.509690	0.169700	0.592700
O41	O4	0.917940	0.110300	0.510600
O51	O5	0.606470	0.301200	0.305100
O61	O6	0.413340	0.312600	0.593600
O71	O7	0.518700	0.126500	0.984600
O81	O8	0.523620	0.203100	0.421100
O91	O9	0.589380	0.089200	0.402800
O101	O10	0.455970	0.088400	0.685400
O111	O11	0.982750	0.133200	0.817200
C11	C1	0.792100	0.121700	0.743100
O121	O12	0.607370	0.137300	0.009700
N11	N1	0.737360	0.123500	0.775200
O131	O13	0.353810	0.197600	0.642900
N21	N2	0.700260	0.125900	0.720100
C21	C2	0.537300	0.122800	0.808800
H11	H1	0.501000	0.121600	0.827800
C31	C3	0.870800	0.088600	0.541600
C41	C4	0.542200	0.114000	0.423500
H21	H2	0.518600	0.064000	0.442200
O141	O14	0.576660	0.496100	0.352200
H31	H3	0.608700	0.492700	0.330100
H41	H4	0.577900	0.534900	0.394900
C51	C5	0.645600	0.124600	0.753300
C61	C6	0.833700	0.134300	0.801500
H51	H5	0.824900	0.143500	0.857800
C71	C7	0.888900	0.133100	0.776400
C81	C8	0.804600	0.105300	0.658600
H61	H6	0.776600	0.094300	0.619800
C91	C9	0.901400	0.118300	0.692100
H71	H7	0.938000	0.116900	0.674800
C101	C10	0.859500	0.105500	0.633200
C111	C11	0.547900	0.124600	0.723400
C121	C12	0.634300	0.121900	0.839200
H81	H8	0.663000	0.119500	0.878000
C131	C13	0.568400	0.129000	0.958100
C141	C14	0.602700	0.127200	0.695600
H91	H9	0.610300	0.130800	0.638400
C151	C15	0.580200	0.122800	0.866400
O151	O15	0.341200	0.004000	0.709800
H101	H10	0.345500	0.932300	0.721600
H111	H11	0.301000	0.009500	0.704300
C161	C16	0.933800	0.149600	0.840300
C171	C17	0.500800	0.128300	0.662200
C181	C18	0.373600	0.283000	0.638300
H121	H12	0.357100	0.331300	0.672000
Co41	Co4	0.949080	0.645230	0.389270
Co51	Co5	0.112800	0.939250	0.613490
Co61	Co6	0.037830	0.754140	0.505050
O161	O16	0.580810	0.820700	0.912300
O171	O17	0.665350	0.948100	0.495600
O181	O18	0.990310	0.830300	0.592700
O191	O19	0.582060	0.889700	0.510600
O201	O20	0.893530	0.698800	0.305100
O211	O21	0.086660	0.687400	0.593600
O221	O22	0.981300	0.873500	0.984600
O231	O23	0.976380	0.796900	0.421100
O241	O24	0.910620	0.910800	0.402800
O251	O25	0.044030	0.911600	0.685400
O261	O26	0.517250	0.866800	0.817200
C191	C19	0.707900	0.878300	0.743100
O271	O27	0.892630	0.862700	0.009700
N31	N3	0.762640	0.876500	0.775200
O281	O28	0.146190	0.802400	0.642900
N41	N4	0.799740	0.874100	0.720100
C201	C20	0.962700	0.877200	0.808800
H131	H13	0.999000	0.878400	0.827800
C211	C21	0.629200	0.911400	0.541600
C221	C22	0.957800	0.886000	0.423500
H141	H14	0.981400	0.936000	0.442200
O291	O29	0.923340	0.503900	0.352200
H151	H15	0.891300	0.507300	0.330100
H161	H16	0.922100	0.465100	0.394900
C231	C23	0.854400	0.875400	0.753300
C241	C24	0.666300	0.865700	0.801500
H171	H17	0.675100	0.856500	0.857800
C251	C25	0.611100	0.866900	0.776400
C261	C26	0.695400	0.894700	0.658600
H181	H18	0.723400	0.905700	0.619800
C271	C27	0.598600	0.881700	0.692100
H191	H19	0.562000	0.883100	0.674800
C281	C28	0.640500	0.894500	0.633200
C291	C29	0.952100	0.875400	0.723400
C301	C30	0.865700	0.878100	0.839200
H201	H20	0.837000	0.880500	0.878000
C311	C31	0.931600	0.871000	0.958100
C321	C32	0.897300	0.872800	0.695600
H211	H21	0.889700	0.869200	0.638400
C331	C33	0.919800	0.877200	0.866400
O301	O30	0.158800	0.996000	0.709800
H221	H22	0.154500	0.067700	0.721600
H231	H23	0.199000	0.990500	0.704300
C341	C34	0.566200	0.850400	0.840300
C351	C35	0.999200	0.871700	0.662200
C361	C36	0.126400	0.717000	0.638300
H241	H24	0.142900	0.668700	0.672000
Co71	Co7	0.949080	0.854770	0.110730
Co81	Co8	0.112800	0.560750	0.886510
Co91	Co9	0.037830	0.745860	0.994950
O311	O31	0.580810	0.679300	0.587700
O321	O32	0.665350	0.551900	0.004400
O331	O33	0.990310	0.669700	0.907300
O341	O34	0.582060	0.610300	0.989400
O351	O35	0.893530	0.801200	0.194900
O361	O36	0.086660	0.812600	0.906400
O371	O37	0.981300	0.626500	0.515400
O381	O38	0.976380	0.703100	0.078900
O391	O39	0.910620	0.589200	0.097200
O401	O40	0.044030	0.588400	0.814600
O411	O41	0.517250	0.633200	0.682800
C371	C37	0.707900	0.621700	0.756900
O421	O42	0.892630	0.637300	0.490300
N51	N5	0.762640	0.623500	0.724800
O431	O43	0.146190	0.697600	0.857100
N61	N6	0.799740	0.625900	0.779900
C381	C38	0.962700	0.622800	0.691200
H251	H25	0.999000	0.621600	0.672200
C391	C39	0.629200	0.588600	0.958400
C401	C40	0.957800	0.614000	0.076500
H261	H26	0.981400	0.564000	0.057800
O441	O44	0.923340	0.996100	0.147800
H271	H27	0.891300	0.992700	0.169900
H281	H28	0.922100	0.034900	0.105100
C411	C41	0.854400	0.624600	0.746700
C421	C42	0.666300	0.634300	0.698500
H291	H29	0.675100	0.643500	0.642200
C431	C43	0.611100	0.633100	0.723600
C441	C44	0.695400	0.605300	0.841400
H301	H30	0.723400	0.594300	0.880200
C451	C45	0.598600	0.618300	0.807900
H311	H31	0.562000	0.616900	0.825200
C461	C46	0.640500	0.605500	0.866800
C471	C47	0.952100	0.624600	0.776600
C481	C48	0.865700	0.621900	0.660800
H321	H32	0.837000	0.619500	0.622000
C491	C49	0.931600	0.629000	0.541900
C501	C50	0.897300	0.627200	0.804400
H331	H33	0.889700	0.630800	0.861600
C511	C51	0.919800	0.622800	0.633600
O451	O45	0.158800	0.504000	0.790200
H341	H34	0.154500	0.432300	0.778400
H351	H35	0.199000	0.509500	0.795700
C521	C52	0.566200	0.649600	0.659700
C531	C53	0.999200	0.628300	0.837800
C541	C54	0.126400	0.783000	0.861700
H361	H36	0.142900	0.831300	0.828000
Co101	Co10	0.550920	0.145230	0.110730
Co111	Co11	0.387200	0.439250	0.886510
Co121	Co12	0.462170	0.254140	0.994950
O461	O46	0.919190	0.320700	0.587700
O471	O47	0.834650	0.448100	0.004400
O481	O48	0.509690	0.330300	0.907300
O491	O49	0.917940	0.389700	0.989400
O501	O50	0.606470	0.198800	0.194900
O511	O51	0.413340	0.187400	0.906400
O521	O52	0.518700	0.373500	0.515400
O531	O53	0.523620	0.296900	0.078900
O541	O54	0.589380	0.410800	0.097200
O551	O55	0.455970	0.411600	0.814600
O561	O56	0.982750	0.366800	0.682800
C551	C55	0.792100	0.378300	0.756900
O571	O57	0.607370	0.362700	0.490300
N71	N7	0.737360	0.376500	0.724800
O581	O58	0.353810	0.302400	0.857100
N81	N8	0.700260	0.374100	0.779900
C561	C56	0.537300	0.377200	0.691200
H371	H37	0.501000	0.378400	0.672200
C571	C57	0.870800	0.411400	0.958400
C581	C58	0.542200	0.386000	0.076500
H381	H38	0.518600	0.436000	0.057800
O591	O59	0.576660	0.003900	0.147800
H391	H39	0.608700	0.007300	0.169900
H401	H40	0.577900	0.965100	0.105100
C591	C59	0.645600	0.375400	0.746700
C601	C60	0.833700	0.365700	0.698500
H411	H41	0.824900	0.356500	0.642200
C611	C61	0.888900	0.366900	0.723600
C621	C62	0.804600	0.394700	0.841400
H421	H42	0.776600	0.405700	0.880200
C631	C63	0.901400	0.381700	0.807900
H431	H43	0.938000	0.383100	0.825200
C641	C64	0.859500	0.394500	0.866800
C651	C65	0.547900	0.375400	0.776600
C661	C66	0.634300	0.378100	0.660800
H441	H44	0.663000	0.380500	0.622000
C671	C67	0.568400	0.371000	0.541900
C681	C68	0.602700	0.372800	0.804400
H451	H45	0.610300	0.369200	0.861600
C691	C69	0.580200	0.377200	0.633600
O601	O60	0.341200	0.496000	0.790200
H461	H46	0.345500	0.567700	0.778400
H471	H47	0.301000	0.490500	0.795700
C701	C70	0.933800	0.350400	0.659700
C711	C71	0.500800	0.371700	0.837800
C721	C72	0.373600	0.217000	0.861700
H481	H48	0.357100	0.168700	0.828000
Co131	Co13	0.449080	0.645230	0.610730
Co141	Co14	0.612800	0.939250	0.386510
Co151	Co15	0.537830	0.754140	0.494950
O611	O61	0.080810	0.820700	0.087700
O621	O62	0.165350	0.948100	0.504400
O631	O63	0.490310	0.830300	0.407300
O641	O64	0.082060	0.889700	0.489400
O651	O65	0.393530	0.698800	0.694900
O661	O66	0.586660	0.687400	0.406400
O671	O67	0.481300	0.873500	0.015400
O681	O68	0.476380	0.796900	0.578900
O691	O69	0.410620	0.910800	0.597200
O701	O70	0.544030	0.911600	0.314600
O711	O71	0.017250	0.866800	0.182800
C731	C73	0.207900	0.878300	0.256900
O721	O72	0.392630	0.862700	0.990300
N91	N9	0.262640	0.876500	0.224800
O731	O73	0.646190	0.802400	0.357100
N101	N10	0.299740	0.874100	0.279900
C741	C74	0.462700	0.877200	0.191200
H491	H49	0.499000	0.878400	0.172200
C751	C75	0.129200	0.911400	0.458400
C761	C76	0.457800	0.886000	0.576500
H501	H50	0.481400	0.936000	0.557800
O741	O74	0.423340	0.503900	0.647800
H511	H51	0.391300	0.507300	0.669900
H521	H52	0.422100	0.465100	0.605100
C771	C77	0.354400	0.875400	0.246700
C781	C78	0.166300	0.865700	0.198500
H531	H53	0.175100	0.856500	0.142200
C791	C79	0.111100	0.866900	0.223600
C801	C80	0.195400	0.894700	0.341400
H541	H54	0.223400	0.905700	0.380200
C811	C81	0.098600	0.881700	0.307900
H551	H55	0.062000	0.883100	0.325200
C821	C82	0.140500	0.894500	0.366800
C831	C83	0.452100	0.875400	0.276600
C841	C84	0.365700	0.878100	0.160800
H561	H56	0.337000	0.880500	0.122000
C851	C85	0.431600	0.871000	0.041900
C861	C86	0.397300	0.872800	0.304400
H571	H57	0.389700	0.869200	0.361600
C871	C87	0.419800	0.877200	0.133600
O751	O75	0.658800	0.996000	0.290200
H581	H58	0.654500	0.067700	0.278400
H591	H59	0.699000	0.990500	0.295700
C881	C88	0.066200	0.850400	0.159700
C891	C89	0.499200	0.871700	0.337800
C901	C90	0.626400	0.717000	0.361700
H601	H60	0.642900	0.668700	0.328000
Co161	Co16	0.050920	0.354770	0.610730
Co171	Co17	0.887200	0.060750	0.386510
Co181	Co18	0.962170	0.245860	0.494950
O761	O76	0.419190	0.179300	0.087700
O771	O77	0.334650	0.051900	0.504400
O781	O78	0.009690	0.169700	0.407300
O791	O79	0.417940	0.110300	0.489400
O801	O80	0.106470	0.301200	0.694900
O811	O81	0.913340	0.312600	0.406400
O821	O82	0.018700	0.126500	0.015400
O831	O83	0.023620	0.203100	0.578900
O841	O84	0.089380	0.089200	0.597200
O851	O85	0.955970	0.088400	0.314600
O861	O86	0.482750	0.133200	0.182800
C911	C91	0.292100	0.121700	0.256900
O871	O87	0.107370	0.137300	0.990300
N111	N11	0.237360	0.123500	0.224800
O881	O88	0.853810	0.197600	0.357100
N121	N12	0.200260	0.125900	0.279900
C921	C92	0.037300	0.122800	0.191200
H611	H61	0.001000	0.121600	0.172200
C931	C93	0.370800	0.088600	0.458400
C941	C94	0.042200	0.114000	0.576500
H621	H62	0.018600	0.064000	0.557800
O891	O89	0.076660	0.496100	0.647800
H631	H63	0.108700	0.492700	0.669900
H641	H64	0.077900	0.534900	0.605100
C951	C95	0.145600	0.124600	0.246700
C961	C96	0.333700	0.134300	0.198500
H651	H65	0.324900	0.143500	0.142200
C971	C97	0.388900	0.133100	0.223600
C981	C98	0.304600	0.105300	0.341400
H661	H66	0.276600	0.094300	0.380200
C991	C99	0.401400	0.118300	0.307900
H671	H67	0.438000	0.116900	0.325200
C1001	C100	0.359500	0.105500	0.366800
C1011	C101	0.047900	0.124600	0.276600
C1021	C102	0.134300	0.121900	0.160800
H681	H68	0.163000	0.119500	0.122000
C1031	C103	0.068400	0.129000	0.041900
C1041	C104	0.102700	0.127200	0.304400
H691	H69	0.110300	0.130800	0.361600
C1051	C105	0.080200	0.122800	0.133600
O901	O90	0.841200	0.004000	0.290200
H701	H70	0.845500	0.932300	0.278400
H711	H71	0.801000	0.009500	0.295700
C1061	C106	0.433800	0.149600	0.159700
C1071	C107	0.000800	0.128300	0.337800
C1081	C108	0.873600	0.283000	0.361700
H721	H72	0.857100	0.331300	0.328000
Co191	Co19	0.050920	0.145230	0.889270
Co201	Co20	0.887200	0.439250	0.113490
Co211	Co21	0.962170	0.254140	0.005050
O911	O91	0.419190	0.320700	0.412300
O921	O92	0.334650	0.448100	0.995600
O931	O93	0.009690	0.330300	0.092700
O941	O94	0.417940	0.389700	0.010600
O951	O95	0.106470	0.198800	0.805100
O961	O96	0.913340	0.187400	0.093600
O971	O97	0.018700	0.373500	0.484600
O981	O98	0.023620	0.296900	0.921100
O991	O99	0.089380	0.410800	0.902800
O1001	O100	0.955970	0.411600	0.185400
O1011	O101	0.482750	0.366800	0.317200
C1091	C109	0.292100	0.378300	0.243100
O1021	O102	0.107370	0.362700	0.509700
N131	N13	0.237360	0.376500	0.275200
O1031	O103	0.853810	0.302400	0.142900
N141	N14	0.200260	0.374100	0.220100
C1101	C110	0.037300	0.377200	0.308800
H731	H73	0.001000	0.378400	0.327800
C1111	C111	0.370800	0.411400	0.041600
C1121	C112	0.042200	0.386000	0.923500
H741	H74	0.018600	0.436000	0.942200
O1041	O104	0.076660	0.003900	0.852200
H751	H75	0.108700	0.007300	0.830100
H761	H76	0.077900	0.965100	0.894900
C1131	C113	0.145600	0.375400	0.253300
C1141	C114	0.333700	0.365700	0.301500
H771	H77	0.324900	0.356500	0.357800
C1151	C115	0.388900	0.366900	0.276400
C1161	C116	0.304600	0.394700	0.158600
H781	H78	0.276600	0.405700	0.119800
C1171	C117	0.401400	0.381700	0.192100
H791	H79	0.438000	0.383100	0.174800
C1181	C118	0.359500	0.394500	0.133200
C1191	C119	0.047900	0.375400	0.223400
C1201	C120	0.134300	0.378100	0.339200
H801	H80	0.163000	0.380500	0.378000
C1211	C121	0.068400	0.371000	0.458100
C1221	C122	0.102700	0.372800	0.195600
H811	H81	0.110300	0.369200	0.138400
C1231	C123	0.080200	0.377200	0.366400
O1051	O105	0.841200	0.496000	0.209800
H821	H82	0.845500	0.567700	0.221600
H831	H83	0.801000	0.490500	0.204300
C1241	C124	0.433800	0.350400	0.340300
C1251	C125	0.000800	0.371700	0.162200
C1261	C126	0.873600	0.217000	0.138300
H841	H84	0.857100	0.168700	0.172000
Co221	Co22	0.449080	0.854770	0.889270
Co231	Co23	0.612800	0.560750	0.113490
Co241	Co24	0.537830	0.745860	0.005050
O1061	O106	0.080810	0.679300	0.412300
O1071	O107	0.165350	0.551900	0.995600
O1081	O108	0.490310	0.669700	0.092700
O1091	O109	0.082060	0.610300	0.010600
O1101	O110	0.393530	0.801200	0.805100
O1111	O111	0.586660	0.812600	0.093600
O1121	O112	0.481300	0.626500	0.484600
O1131	O113	0.476380	0.703100	0.921100
O1141	O114	0.410620	0.589200	0.902800
O1151	O115	0.544030	0.588400	0.185400
O1161	O116	0.017250	0.633200	0.317200
C1271	C127	0.207900	0.621700	0.243100
O1171	O117	0.392630	0.637300	0.509700
N151	N15	0.262640	0.623500	0.275200
O1181	O118	0.646190	0.697600	0.142900
N161	N16	0.299740	0.625900	0.220100
C1281	C128	0.462700	0.622800	0.308800
H851	H85	0.499000	0.621600	0.327800
C1291	C129	0.129200	0.588600	0.041600
C1301	C130	0.457800	0.614000	0.923500
H861	H86	0.481400	0.564000	0.942200
O1191	O119	0.423340	0.996100	0.852200
H871	H87	0.391300	0.992700	0.830100
H881	H88	0.422100	0.034900	0.894900
C1311	C131	0.354400	0.624600	0.253300
C1321	C132	0.166300	0.634300	0.301500
H891	H89	0.175100	0.643500	0.357800
C1331	C133	0.111100	0.633100	0.276400
C1341	C134	0.195400	0.605300	0.158600
H901	H90	0.223400	0.594300	0.119800
C1351	C135	0.098600	0.618300	0.192100
H911	H91	0.062000	0.616900	0.174800
C1361	C136	0.140500	0.605500	0.133200
C1371	C137	0.452100	0.624600	0.223400
C1381	C138	0.365700	0.621900	0.339200
H921	H92	0.337000	0.619500	0.378000
C1391	C139	0.431600	0.629000	0.458100
C1401	C140	0.397300	0.627200	0.195600
H931	H93	0.389700	0.630800	0.138400
C1411	C141	0.419800	0.622800	0.366400
O1201	O120	0.658800	0.504000	0.209800
H941	H94	0.654500	0.432300	0.221600
H951	H95	0.699000	0.509500	0.204300
C1421	C142	0.066200	0.649600	0.340300
C1431	C143	0.499200	0.628300	0.162200
C1441	C144	0.626400	0.783000	0.138300
H961	H96	0.642900	0.831300	0.172000
C1451	C145	0.584100	0.250000	0.250000
H971	H97	0.545800	0.250000	0.250000
C1461	C146	0.915900	0.750000	0.250000
H981	H98	0.954200	0.750000	0.250000
C1471	C147	0.415900	0.750000	0.750000
H991	H99	0.454200	0.750000	0.750000
C1481	C148	0.084100	0.250000	0.750000
H1001	H100	0.045800	0.250000	0.750000
