data_DUFGOB_freeONLY_PM
_symmetry_space_group_name_H-M	'P1'
_cell_length_a	11.734100
_cell_length_b	17.518900
_cell_length_c	20.157900
_cell_angle_alpha	99.510000
_cell_angle_beta	90.000000
_cell_angle_gamma	90.000000
_symmetry_Int_Tables_number 1

loop_
_symmetry_equiv_pos_as_xyz
'x,y,z'

loop_
_atom_site_label
_atom_site_type_symbol
_atom_site_fract_x
_atom_site_fract_y
_atom_site_fract_z
K11	K1	0.311900	0.592280	0.454300
K21	K2	0.450400	0.940200	0.534560
K31	K3	0.260200	0.013200	0.970860
K41	K4	0.811900	0.407720	0.545700
K51	K5	0.950400	0.059800	0.465440
K61	K6	0.760200	0.986800	0.029140
U11	U1	0.447330	0.522830	0.246470
U21	U2	0.366310	0.966760	0.753810
U31	U3	0.947330	0.477170	0.753530
U41	U4	0.866310	0.033240	0.246190
H11	H1	0.220800	0.634500	0.297300
H21	H2	0.067300	0.708200	0.269900
H31	H3	0.044500	0.722400	0.156700
H41	H4	0.164600	0.651000	0.077200
H51	H5	0.305000	0.577700	0.112300
H61	H6	0.201000	0.445100	0.302800
H71	H7	0.035700	0.375600	0.270200
H81	H8	0.005800	0.327800	0.157100
H91	H9	0.148000	0.344800	0.080700
H101	H10	0.310700	0.410200	0.116700
H111	H11	0.485000	0.431700	0.379800
H121	H12	0.499000	0.316400	0.420600
H131	H13	0.518800	0.200500	0.341900
H141	H14	0.522100	0.210000	0.228400
H151	H15	0.506500	0.326800	0.195700
H161	H16	0.718600	0.513300	0.183000
H171	H17	0.909400	0.520300	0.201800
H181	H18	0.972200	0.552200	0.315200
H191	H19	0.838200	0.564700	0.400500
H201	H20	0.647700	0.551100	0.374900
H211	H21	0.533000	0.661800	0.149800
H221	H22	0.556000	0.793800	0.152400
H231	H23	0.545600	0.878100	0.253900
H241	H24	0.512200	0.830300	0.352900
H251	H25	0.489200	0.698300	0.350300
H261	H26	0.093900	0.961500	0.816100
H271	H27	0.902700	0.967000	0.797900
H281	H28	0.839100	0.962700	0.684500
H291	H29	0.977400	0.969900	0.603000
H301	H30	0.165600	0.968700	0.628500
H311	H31	0.296500	0.815400	0.832700
H321	H32	0.274000	0.680600	0.820400
H331	H33	0.278100	0.610100	0.716400
H341	H34	0.292500	0.670400	0.620200
H351	H35	0.313600	0.805200	0.638700
H361	H36	0.579000	0.848100	0.676700
H371	H37	0.746500	0.783600	0.690500
H381	H38	0.808200	0.777400	0.800600
H391	H39	0.693000	0.837000	0.891400
H401	H40	0.536900	0.902100	0.869100
H411	H41	0.591500	0.051700	0.684000
H421	H42	0.756200	0.121400	0.700200
H431	H43	0.810300	0.167000	0.811000
H441	H44	0.703800	0.133700	0.899100
H451	H45	0.542500	0.064900	0.876100
H461	H46	0.317600	0.106900	0.664800
H471	H47	0.304900	0.227600	0.648600
H481	H48	0.318000	0.315000	0.750600
H491	H49	0.315400	0.275700	0.854200
H501	H50	0.314200	0.141600	0.859700
H511	H51	0.720800	0.365500	0.702700
H521	H52	0.567300	0.291800	0.730100
H531	H53	0.544500	0.277600	0.843300
H541	H54	0.664600	0.349000	0.922800
H551	H55	0.805000	0.422300	0.887700
H561	H56	0.701000	0.554900	0.697200
H571	H57	0.535700	0.624400	0.729800
H581	H58	0.505800	0.672200	0.842900
H591	H59	0.648000	0.655200	0.919300
H601	H60	0.810700	0.589800	0.883300
H611	H61	0.985000	0.568300	0.620200
H621	H62	0.999000	0.683600	0.579400
H631	H63	0.018800	0.799500	0.658100
H641	H64	0.022100	0.790000	0.771600
H651	H65	0.006500	0.673200	0.804300
H661	H66	0.218600	0.486700	0.817000
H671	H67	0.409400	0.479700	0.798200
H681	H68	0.472200	0.447800	0.684800
H691	H69	0.338200	0.435300	0.599500
H701	H70	0.147700	0.448900	0.625100
H711	H71	0.033000	0.338200	0.850200
H721	H72	0.056000	0.206200	0.847600
H731	H73	0.045600	0.121900	0.746100
H741	H74	0.012200	0.169700	0.647100
H751	H75	0.989200	0.301700	0.649700
H761	H76	0.593900	0.038500	0.183900
H771	H77	0.402700	0.033000	0.202100
H781	H78	0.339100	0.037300	0.315500
H791	H79	0.477400	0.030100	0.397000
H801	H80	0.665600	0.031300	0.371500
H811	H81	0.796500	0.184600	0.167300
H821	H82	0.774000	0.319400	0.179600
H831	H83	0.778100	0.389900	0.283600
H841	H84	0.792500	0.329600	0.379800
H851	H85	0.813600	0.194800	0.361300
H861	H86	0.079000	0.151900	0.323300
H871	H87	0.246500	0.216400	0.309500
H881	H88	0.308200	0.222600	0.199400
H891	H89	0.193000	0.163000	0.108600
H901	H90	0.036900	0.097900	0.130900
H911	H91	0.091500	0.948300	0.316000
H921	H92	0.256200	0.878600	0.299800
H931	H93	0.310300	0.833000	0.189000
H941	H94	0.203800	0.866300	0.100900
H951	H95	0.042500	0.935100	0.123900
H961	H96	0.817600	0.893100	0.335200
H971	H97	0.804900	0.772400	0.351400
H981	H98	0.818000	0.685000	0.249400
H991	H99	0.815400	0.724300	0.145800
H1001	H100	0.814200	0.858400	0.140300
C11	C1	0.208500	0.638000	0.252300
C21	C2	0.116100	0.683800	0.236600
C31	C3	0.101200	0.690800	0.169600
C41	C4	0.173400	0.649300	0.122800
C51	C5	0.257600	0.605800	0.144400
C61	C6	0.190800	0.423700	0.257900
C71	C7	0.090100	0.382900	0.238300
C81	C8	0.072700	0.353800	0.171400
C91	C9	0.157300	0.364300	0.126200
C101	C10	0.254900	0.403500	0.148000
C111	C11	0.491100	0.385700	0.349500
C121	C12	0.500500	0.317100	0.374600
C131	C13	0.512300	0.248300	0.327800
C141	C14	0.514000	0.254200	0.260600
C151	C15	0.503800	0.324500	0.241500
C161	C16	0.744200	0.523600	0.227200
C171	C17	0.858000	0.528300	0.237400
C181	C18	0.895000	0.546100	0.305100
C191	C19	0.815100	0.554100	0.355700
C201	C20	0.700600	0.546500	0.340200
C211	C21	0.528800	0.695600	0.190500
C221	C22	0.542600	0.774700	0.192100
C231	C23	0.536400	0.825100	0.252900
C241	C24	0.516300	0.796500	0.312200
C251	C25	0.502600	0.717500	0.310600
C261	C26	0.069200	0.964200	0.772700
C271	C27	0.954000	0.965700	0.762500
C281	C28	0.916200	0.965000	0.695400
C291	C29	0.999200	0.967900	0.647000
C301	C30	0.112300	0.967700	0.662500
C311	C31	0.296300	0.785600	0.790000
C321	C32	0.283200	0.704600	0.782900
C331	C33	0.284200	0.663700	0.721500
C341	C34	0.294100	0.698900	0.663400
C351	C35	0.306500	0.779200	0.675200
C361	C36	0.603700	0.846500	0.720200
C371	C37	0.704900	0.806700	0.727700
C381	C38	0.741200	0.803000	0.792900
C391	C39	0.673000	0.839300	0.847100
C401	C40	0.579500	0.877000	0.833100
C411	C41	0.615300	0.069200	0.727900
C421	C42	0.713300	0.110900	0.736500
C431	C43	0.745200	0.136700	0.802000
C441	C44	0.681100	0.117900	0.854700
C451	C45	0.585800	0.076500	0.840400
C461	C46	0.315100	0.144200	0.703400
C471	C47	0.310400	0.213200	0.690900
C481	C48	0.314900	0.262200	0.751600
C491	C49	0.315300	0.239000	0.815100
C501	C50	0.315600	0.159600	0.818800
C511	C51	0.610000	0.611600	0.544300
C521	C52	0.118500	0.818000	0.461600
C531	C53	0.742000	0.820500	0.521000
C541	C54	0.956000	0.181800	0.997400
C551	C55	0.554200	0.176000	0.054000
C561	C56	0.708500	0.362000	0.747700
C571	C57	0.616100	0.316200	0.763400
C581	C58	0.601200	0.309200	0.830400
C591	C59	0.673400	0.350700	0.877200
C601	C60	0.757600	0.394200	0.855600
C611	C61	0.690800	0.576300	0.742100
C621	C62	0.590100	0.617100	0.761700
C631	C63	0.572700	0.646200	0.828600
C641	C64	0.657300	0.635700	0.873800
C651	C65	0.754900	0.596500	0.852000
C661	C66	0.991100	0.614300	0.650500
C671	C67	0.000500	0.682900	0.625400
C681	C68	0.012300	0.751700	0.672200
C691	C69	0.014000	0.745800	0.739400
C701	C70	0.003800	0.675500	0.758500
C711	C71	0.244200	0.476400	0.772800
C721	C72	0.358000	0.471700	0.762600
C731	C73	0.395000	0.453900	0.694900
C741	C74	0.315100	0.445900	0.644300
C751	C75	0.200600	0.453500	0.659800
C761	C76	0.028800	0.304400	0.809500
C771	C77	0.042600	0.225300	0.807900
C781	C78	0.036400	0.174900	0.747100
C791	C79	0.016300	0.203500	0.687800
C801	C80	0.002600	0.282500	0.689400
C811	C81	0.569200	0.035800	0.227300
C821	C82	0.454000	0.034300	0.237500
C831	C83	0.416200	0.035000	0.304600
C841	C84	0.499200	0.032100	0.353000
C851	C85	0.612300	0.032300	0.337500
C861	C86	0.796300	0.214400	0.210000
C871	C87	0.783200	0.295400	0.217100
C881	C88	0.784200	0.336300	0.278500
C891	C89	0.794100	0.301100	0.336600
C901	C90	0.806500	0.220800	0.324800
C911	C91	0.103700	0.153500	0.279800
C921	C92	0.204900	0.193300	0.272300
C931	C93	0.241200	0.197000	0.207100
C941	C94	0.173000	0.160700	0.152900
C951	C95	0.079500	0.123000	0.166900
C961	C96	0.115300	0.930800	0.272100
C971	C97	0.213300	0.889100	0.263500
C981	C98	0.245200	0.863300	0.198000
C991	C99	0.181100	0.882100	0.145300
C1001	C100	0.085800	0.923500	0.159600
C1011	C101	0.815100	0.855800	0.296600
C1021	C102	0.810400	0.786800	0.309100
C1031	C103	0.814900	0.737800	0.248400
C1041	C104	0.815300	0.761000	0.184900
C1051	C105	0.815600	0.840400	0.181200
C1061	C106	0.110000	0.388400	0.455700
C1071	C107	0.618500	0.182000	0.538400
C1081	C108	0.242000	0.179500	0.479000
C1091	C109	0.456000	0.818200	0.002600
C1101	C110	0.054200	0.824000	0.946000
S11	S1	0.576200	0.507100	0.530670
S21	S2	0.263800	0.787300	0.457100
S31	S3	0.725900	0.920350	0.511680
S41	S4	0.991200	0.095500	0.962600
S51	S5	0.451000	0.218500	0.016200
S61	S6	0.076200	0.492900	0.469330
S71	S7	0.763800	0.212700	0.542900
S81	S8	0.225900	0.079650	0.488320
S91	S9	0.491200	0.904500	0.037400
S101	S10	0.951000	0.781500	0.983800
N11	N1	0.276200	0.601100	0.208800
N21	N2	0.272600	0.432500	0.213400
N31	N3	0.490300	0.389000	0.283300
N41	N4	0.664000	0.532800	0.277100
N51	N5	0.149400	0.966300	0.726000
N61	N6	0.308300	0.819400	0.736700
N71	N7	0.541400	0.881400	0.769400
N81	N8	0.549300	0.051000	0.778400
N91	N9	0.317900	0.111900	0.760300
N101	N10	0.508800	0.667000	0.249800
N111	N11	0.776200	0.398900	0.791200
N121	N12	0.772600	0.567500	0.786600
N131	N13	0.990300	0.611000	0.716700
N141	N14	0.164000	0.467200	0.722900
N151	N15	0.649400	0.033700	0.274000
N161	N16	0.808300	0.180600	0.263300
N171	N17	0.041400	0.118600	0.230600
N181	N18	0.049300	0.949000	0.221600
N191	N19	0.817900	0.888100	0.239700
N201	N20	0.008800	0.333000	0.750200
O11	O1	0.401500	0.551600	0.335100
O21	O2	0.492800	0.495300	0.159700
O31	O3	0.396200	0.957300	0.664100
O41	O4	0.333000	0.975100	0.844100
O51	O5	0.456700	0.507200	0.514800
O61	O6	0.645500	0.473200	0.475100
O71	O7	0.608600	0.483700	0.594100
O81	O8	0.270100	0.727100	0.400400
O91	O9	0.317000	0.787000	0.519800
O101	O10	0.321800	0.852800	0.432800
O111	O11	0.643400	0.920000	0.458900
O121	O12	0.686900	0.954000	0.576000
O131	O13	0.841500	0.940300	0.496000
O141	O14	0.039900	0.056000	0.015300
O151	O15	0.055600	0.092800	0.904900
O161	O16	0.885100	0.056300	0.947800
O171	O17	0.397700	0.144700	0.988200
O181	O18	0.515500	0.253500	0.967100
O191	O19	0.399600	0.269000	0.064700
O201	O20	0.901500	0.448400	0.664900
O211	O21	0.992800	0.504700	0.840300
O221	O22	0.896200	0.042700	0.335900
O231	O23	0.833000	0.024900	0.155900
O241	O24	0.956700	0.492800	0.485200
O251	O25	0.145500	0.526800	0.524900
O261	O26	0.108600	0.516300	0.405900
O271	O27	0.770100	0.272900	0.599600
O281	O28	0.817000	0.213000	0.480200
O291	O29	0.821800	0.147200	0.567200
O301	O30	0.143400	0.080000	0.541100
O311	O31	0.186900	0.046000	0.424000
O321	O32	0.341500	0.059700	0.504000
O331	O33	0.539900	0.944000	0.984700
O341	O34	0.555600	0.907200	0.095100
O351	O35	0.385100	0.943700	0.052200
O361	O36	0.897700	0.855300	0.011800
O371	O37	0.015500	0.746500	0.032900
O381	O38	0.899600	0.731000	0.935300
F11	F1	0.576500	0.639400	0.489900
F21	F2	0.555500	0.648600	0.596300
F31	F3	0.720200	0.622300	0.553600
F41	F4	0.064800	0.773800	0.485800
F51	F5	0.081800	0.843000	0.411400
F61	F6	0.121000	0.885300	0.510400
F71	F7	0.817700	0.811000	0.567600
F81	F8	0.782000	0.776800	0.466200
F91	F9	0.641000	0.793800	0.540400
F101	F10	0.893900	0.184900	0.051600
F111	F11	0.037600	0.226200	0.017900
F121	F12	0.891600	0.224700	0.952200
F131	F13	0.625200	0.234300	0.083900
F141	F14	0.515900	0.140600	0.106000
F151	F15	0.620700	0.121400	0.016000
F161	F16	0.076500	0.360600	0.510100
F171	F17	0.055500	0.351400	0.403700
F181	F18	0.220200	0.377700	0.446400
F191	F19	0.564800	0.226200	0.514200
F201	F20	0.581800	0.157000	0.588600
F211	F21	0.621000	0.114700	0.489600
F221	F22	0.317700	0.189000	0.432400
F231	F23	0.282000	0.223200	0.533800
F241	F24	0.141000	0.206200	0.459600
F251	F25	0.393900	0.815100	0.948400
F261	F26	0.537600	0.773800	0.982100
F271	F27	0.391600	0.775300	0.047800
F281	F28	0.125200	0.765700	0.916100
F291	F29	0.015900	0.859400	0.894000
F301	F30	0.120700	0.878600	0.984000
