data_DUFKAS_freeONLY_PM
_symmetry_space_group_name_H-M	'P1'
_cell_length_a	46.072000
_cell_length_b	35.831000
_cell_length_c	28.608000
_cell_angle_alpha	90.000000
_cell_angle_beta	90.000000
_cell_angle_gamma	90.000000
_symmetry_Int_Tables_number 1

loop_
_symmetry_equiv_pos_as_xyz
'x,y,z'

loop_
_atom_site_label
_atom_site_type_symbol
_atom_site_fract_x
_atom_site_fract_y
_atom_site_fract_z
Ce11	Ce1	0.169350	0.115220	0.235850
C11	C1	0.192800	0.140000	0.958300
C21	C2	0.192300	0.172000	0.932200
H11	H1	0.196800	0.194600	0.946400
C31	C3	0.184900	0.171500	0.884500
C41	C4	0.177600	0.137600	0.863700
H21	H2	0.172500	0.136800	0.832300
C51	C5	0.178000	0.105000	0.890100
C61	C6	0.185900	0.106500	0.936000
H31	H3	0.186700	0.084400	0.953000
C71	C7	0.201100	0.140800	0.007700
C81	C8	0.224100	0.162800	0.023100
H41	H4	0.234500	0.177100	0.001700
C91	C9	0.231900	0.163700	0.070700
H51	H5	0.247500	0.178200	0.080300
C101	C10	0.216700	0.143600	0.102800
C111	C11	0.194900	0.121100	0.088800
H61	H6	0.185600	0.106000	0.110600
C121	C12	0.186000	0.120000	0.042000
H71	H7	0.170100	0.105600	0.033500
C131	C13	0.183200	0.207900	0.857300
C141	C14	0.204800	0.233100	0.860900
H81	H8	0.220900	0.228500	0.879500
C151	C15	0.202200	0.266700	0.835800
H91	H9	0.216800	0.284400	0.838800
C161	C16	0.179100	0.274400	0.807000
C171	C17	0.157800	0.248700	0.804600
H101	H10	0.141300	0.253500	0.786800
C181	C18	0.160300	0.214900	0.828400
H111	H11	0.146000	0.196800	0.824500
C191	C19	0.172700	0.067700	0.867000
C201	C20	0.184300	0.061500	0.823200
H121	H12	0.193900	0.080800	0.808000
C211	C21	0.181900	0.026400	0.800400
H131	H13	0.189500	0.022800	0.770600
C221	C22	0.168200	0.997700	0.823700
C231	C23	0.155800	0.005200	0.867500
H141	H14	0.145500	0.986600	0.882900
C241	C24	0.158700	0.039700	0.888000
H151	H15	0.150700	0.043700	0.917400
C251	C25	0.224800	0.146200	0.152700
C261	C26	0.178600	0.310800	0.781400
C271	C27	0.168500	0.959600	0.803600
C281	C28	0.223600	0.073700	0.353900
C291	C29	0.250200	0.058500	0.346100
H161	H16	0.258400	0.060400	0.316500
C301	C30	0.265800	0.039900	0.381600
H171	H17	0.283800	0.029200	0.375600
C311	C31	0.253500	0.038100	0.425300
C321	C32	0.226600	0.053800	0.433300
H181	H18	0.218400	0.052000	0.462900
C331	C33	0.211700	0.071800	0.398800
H191	H19	0.193800	0.082700	0.405000
C341	C34	0.270400	0.018400	0.464100
C351	C35	0.299500	0.018000	0.465500
H201	H20	0.309800	0.030500	0.442300
C361	C36	0.362300	0.029300	0.482000
H211	H21	0.352400	0.049500	0.469300
C371	C37	0.390900	0.029700	0.482100
H221	H22	0.400400	0.050400	0.469900
C381	C38	0.206500	0.092700	0.316300
C391	C39	0.123400	0.144300	0.152400
C401	C40	0.090200	0.088700	0.136600
C411	C41	0.098300	0.137700	0.073600
C421	C42	0.099400	0.124600	0.253900
C431	C43	0.052000	0.136900	0.297000
C441	C44	0.074800	0.188100	0.247300
N11	N1	0.104100	0.123400	0.120700
N21	N2	0.075100	0.149900	0.265000
O11	O1	0.211300	0.129000	0.185000
O21	O2	0.246800	0.165400	0.163000
O31	O3	0.157900	0.933200	0.827200
O41	O4	0.178100	0.954200	0.762800
O51	O5	0.152200	0.324300	0.776800
O61	O6	0.199400	0.327200	0.768000
O71	O7	0.220900	0.100300	0.277300
O81	O8	0.180600	0.098900	0.320200
O91	O9	0.453300	0.972000	0.516900
O101	O10	0.144900	0.158200	0.173500
O111	O11	0.116100	0.097900	0.262300
O121	O12	0.231000	0.275500	0.236800
O131	O13	0.465200	0.919200	0.597500
O141	O14	0.462500	0.889000	0.515600
Ce21	Ce2	0.669350	0.615220	0.235850
C451	C45	0.692800	0.640000	0.958300
C461	C46	0.692300	0.672000	0.932200
H231	H23	0.696800	0.694600	0.946400
C471	C47	0.684900	0.671500	0.884500
C481	C48	0.677600	0.637600	0.863700
H241	H24	0.672500	0.636800	0.832300
C491	C49	0.678000	0.605000	0.890100
C501	C50	0.685900	0.606500	0.936000
H251	H25	0.686700	0.584400	0.953000
C511	C51	0.701100	0.640800	0.007700
C521	C52	0.724100	0.662800	0.023100
H261	H26	0.734500	0.677100	0.001700
C531	C53	0.731900	0.663700	0.070700
H271	H27	0.747500	0.678200	0.080300
C541	C54	0.716700	0.643600	0.102800
C551	C55	0.694900	0.621100	0.088800
H281	H28	0.685600	0.606000	0.110600
C561	C56	0.686000	0.620000	0.042000
H291	H29	0.670100	0.605600	0.033500
C571	C57	0.683200	0.707900	0.857300
C581	C58	0.704800	0.733100	0.860900
H301	H30	0.720900	0.728500	0.879500
C591	C59	0.702200	0.766700	0.835800
H311	H31	0.716800	0.784400	0.838800
C601	C60	0.679100	0.774400	0.807000
C611	C61	0.657800	0.748700	0.804600
H321	H32	0.641300	0.753500	0.786800
C621	C62	0.660300	0.714900	0.828400
H331	H33	0.646000	0.696800	0.824500
C631	C63	0.672700	0.567700	0.867000
C641	C64	0.684300	0.561500	0.823200
H341	H34	0.693900	0.580800	0.808000
C651	C65	0.681900	0.526400	0.800400
H351	H35	0.689500	0.522800	0.770600
C661	C66	0.668200	0.497700	0.823700
C671	C67	0.655800	0.505200	0.867500
H361	H36	0.645500	0.486600	0.882900
C681	C68	0.658700	0.539700	0.888000
H371	H37	0.650700	0.543700	0.917400
C691	C69	0.724800	0.646200	0.152700
C701	C70	0.678600	0.810800	0.781400
C711	C71	0.668500	0.459600	0.803600
C721	C72	0.723600	0.573700	0.353900
C731	C73	0.750200	0.558500	0.346100
H381	H38	0.758400	0.560400	0.316500
C741	C74	0.765800	0.539900	0.381600
H391	H39	0.783800	0.529200	0.375600
C751	C75	0.753500	0.538100	0.425300
C761	C76	0.726600	0.553800	0.433300
H401	H40	0.718400	0.552000	0.462900
C771	C77	0.711700	0.571800	0.398800
H411	H41	0.693800	0.582700	0.405000
C781	C78	0.770400	0.518400	0.464100
C791	C79	0.799500	0.518000	0.465500
H421	H42	0.809800	0.530500	0.442300
C801	C80	0.862300	0.529300	0.482000
H431	H43	0.852400	0.549500	0.469300
C811	C81	0.890900	0.529700	0.482100
H441	H44	0.900400	0.550400	0.469900
C821	C82	0.706500	0.592700	0.316300
C831	C83	0.623400	0.644300	0.152400
C841	C84	0.590200	0.588700	0.136600
C851	C85	0.598300	0.637700	0.073600
C861	C86	0.599400	0.624600	0.253900
C871	C87	0.552000	0.636900	0.297000
C881	C88	0.574800	0.688100	0.247300
N31	N3	0.604100	0.623400	0.120700
N41	N4	0.575100	0.649900	0.265000
O151	O15	0.711300	0.629000	0.185000
O161	O16	0.746800	0.665400	0.163000
O171	O17	0.657900	0.433200	0.827200
O181	O18	0.678100	0.454200	0.762800
O191	O19	0.652200	0.824300	0.776800
O201	O20	0.699400	0.827200	0.768000
O211	O21	0.720900	0.600300	0.277300
O221	O22	0.680600	0.598900	0.320200
O231	O23	0.953300	0.472000	0.516900
O241	O24	0.644900	0.658200	0.173500
O251	O25	0.616100	0.597900	0.262300
O261	O26	0.731000	0.775500	0.236800
O271	O27	0.965200	0.419200	0.597500
O281	O28	0.962500	0.389000	0.515600
Ce31	Ce3	0.830650	0.384780	0.735850
C891	C89	0.807200	0.360000	0.458300
C901	C90	0.807700	0.328000	0.432200
H451	H45	0.803200	0.305400	0.446400
C911	C91	0.815100	0.328500	0.384500
C921	C92	0.822400	0.362400	0.363700
H461	H46	0.827500	0.363200	0.332300
C931	C93	0.822000	0.395000	0.390100
C941	C94	0.814100	0.393500	0.436000
H471	H47	0.813300	0.415600	0.453000
C951	C95	0.798900	0.359200	0.507700
C961	C96	0.775900	0.337200	0.523100
H481	H48	0.765500	0.322900	0.501700
C971	C97	0.768100	0.336300	0.570700
H491	H49	0.752500	0.321800	0.580300
C981	C98	0.783300	0.356400	0.602800
C991	C99	0.805100	0.378900	0.588800
H501	H50	0.814400	0.394000	0.610600
C1001	C100	0.814000	0.380000	0.542000
H511	H51	0.829900	0.394400	0.533500
C1011	C101	0.816800	0.292100	0.357300
C1021	C102	0.795200	0.266900	0.360900
H521	H52	0.779100	0.271500	0.379500
C1031	C103	0.797800	0.233300	0.335800
H531	H53	0.783200	0.215600	0.338800
C1041	C104	0.820900	0.225600	0.307000
C1051	C105	0.842200	0.251300	0.304600
H541	H54	0.858700	0.246500	0.286800
C1061	C106	0.839700	0.285100	0.328400
H551	H55	0.854000	0.303200	0.324500
C1071	C107	0.827300	0.432300	0.367000
C1081	C108	0.815700	0.438500	0.323200
H561	H56	0.806100	0.419200	0.308000
C1091	C109	0.818100	0.473600	0.300400
H571	H57	0.810500	0.477200	0.270600
C1101	C110	0.831800	0.502300	0.323700
C1111	C111	0.844200	0.494800	0.367500
H581	H58	0.854500	0.513400	0.382900
C1121	C112	0.841300	0.460300	0.388000
H591	H59	0.849300	0.456300	0.417400
C1131	C113	0.775200	0.353800	0.652700
C1141	C114	0.821400	0.189200	0.281400
C1151	C115	0.831500	0.540400	0.303600
C1161	C116	0.776400	0.426300	0.853900
C1171	C117	0.749800	0.441500	0.846100
H601	H60	0.741600	0.439600	0.816500
C1181	C118	0.734200	0.460100	0.881600
H611	H61	0.716200	0.470800	0.875600
C1191	C119	0.746500	0.461900	0.925300
C1201	C120	0.773400	0.446200	0.933300
H621	H62	0.781600	0.448000	0.962900
C1211	C121	0.788300	0.428200	0.898800
H631	H63	0.806200	0.417300	0.905000
C1221	C122	0.729600	0.481600	0.964100
C1231	C123	0.700500	0.482000	0.965500
H641	H64	0.690200	0.469500	0.942300
C1241	C124	0.637700	0.470700	0.982000
H651	H65	0.647600	0.450500	0.969300
C1251	C125	0.609100	0.470300	0.982100
H661	H66	0.599600	0.449600	0.969900
C1261	C126	0.793500	0.407300	0.816300
C1271	C127	0.876600	0.355700	0.652400
C1281	C128	0.909800	0.411300	0.636600
C1291	C129	0.901700	0.362300	0.573600
C1301	C130	0.900600	0.375400	0.753900
C1311	C131	0.948000	0.363100	0.797000
C1321	C132	0.925200	0.311900	0.747300
N51	N5	0.895900	0.376600	0.620700
N61	N6	0.924900	0.350100	0.765000
O291	O29	0.788700	0.371000	0.685000
O301	O30	0.753200	0.334600	0.663000
O311	O31	0.842100	0.566800	0.327200
O321	O32	0.821900	0.545800	0.262800
O331	O33	0.847800	0.175700	0.276800
O341	O34	0.800600	0.172800	0.268000
O351	O35	0.779100	0.399700	0.777300
O361	O36	0.819400	0.401100	0.820200
O371	O37	0.546700	0.528000	0.016900
O381	O38	0.855100	0.341800	0.673500
O391	O39	0.883900	0.402100	0.762300
O401	O40	0.769000	0.224500	0.736800
O411	O41	0.534800	0.580800	0.097500
O421	O42	0.537500	0.611000	0.015600
Ce41	Ce4	0.330650	0.884780	0.735850
C1331	C133	0.307200	0.860000	0.458300
C1341	C134	0.307700	0.828000	0.432200
H671	H67	0.303200	0.805400	0.446400
C1351	C135	0.315100	0.828500	0.384500
C1361	C136	0.322400	0.862400	0.363700
H681	H68	0.327500	0.863200	0.332300
C1371	C137	0.322000	0.895000	0.390100
C1381	C138	0.314100	0.893500	0.436000
H691	H69	0.313300	0.915600	0.453000
C1391	C139	0.298900	0.859200	0.507700
C1401	C140	0.275900	0.837200	0.523100
H701	H70	0.265500	0.822900	0.501700
C1411	C141	0.268100	0.836300	0.570700
H711	H71	0.252500	0.821800	0.580300
C1421	C142	0.283300	0.856400	0.602800
C1431	C143	0.305100	0.878900	0.588800
H721	H72	0.314400	0.894000	0.610600
C1441	C144	0.314000	0.880000	0.542000
H731	H73	0.329900	0.894400	0.533500
C1451	C145	0.316800	0.792100	0.357300
C1461	C146	0.295200	0.766900	0.360900
H741	H74	0.279100	0.771500	0.379500
C1471	C147	0.297800	0.733300	0.335800
H751	H75	0.283200	0.715600	0.338800
C1481	C148	0.320900	0.725600	0.307000
C1491	C149	0.342200	0.751300	0.304600
H761	H76	0.358700	0.746500	0.286800
C1501	C150	0.339700	0.785100	0.328400
H771	H77	0.354000	0.803200	0.324500
C1511	C151	0.327300	0.932300	0.367000
C1521	C152	0.315700	0.938500	0.323200
H781	H78	0.306100	0.919200	0.308000
C1531	C153	0.318100	0.973600	0.300400
H791	H79	0.310500	0.977200	0.270600
C1541	C154	0.331800	0.002300	0.323700
C1551	C155	0.344200	0.994800	0.367500
H801	H80	0.354500	0.013400	0.382900
C1561	C156	0.341300	0.960300	0.388000
H811	H81	0.349300	0.956300	0.417400
C1571	C157	0.275200	0.853800	0.652700
C1581	C158	0.321400	0.689200	0.281400
C1591	C159	0.331500	0.040400	0.303600
C1601	C160	0.276400	0.926300	0.853900
C1611	C161	0.249800	0.941500	0.846100
H821	H82	0.241600	0.939600	0.816500
C1621	C162	0.234200	0.960100	0.881600
H831	H83	0.216200	0.970800	0.875600
C1631	C163	0.246500	0.961900	0.925300
C1641	C164	0.273400	0.946200	0.933300
H841	H84	0.281600	0.948000	0.962900
C1651	C165	0.288300	0.928200	0.898800
H851	H85	0.306200	0.917300	0.905000
C1661	C166	0.229600	0.981600	0.964100
C1671	C167	0.200500	0.982000	0.965500
H861	H86	0.190200	0.969500	0.942300
C1681	C168	0.137700	0.970700	0.982000
H871	H87	0.147600	0.950500	0.969300
C1691	C169	0.109100	0.970300	0.982100
H881	H88	0.099600	0.949600	0.969900
C1701	C170	0.293500	0.907300	0.816300
C1711	C171	0.376600	0.855700	0.652400
C1721	C172	0.409800	0.911300	0.636600
C1731	C173	0.401700	0.862300	0.573600
C1741	C174	0.400600	0.875400	0.753900
C1751	C175	0.448000	0.863100	0.797000
C1761	C176	0.425200	0.811900	0.747300
N71	N7	0.395900	0.876600	0.620700
N81	N8	0.424900	0.850100	0.765000
O431	O43	0.288700	0.871000	0.685000
O441	O44	0.253200	0.834600	0.663000
O451	O45	0.342100	0.066800	0.327200
O461	O46	0.321900	0.045800	0.262800
O471	O47	0.347800	0.675700	0.276800
O481	O48	0.300600	0.672800	0.268000
O491	O49	0.279100	0.899700	0.777300
O501	O50	0.319400	0.901100	0.820200
O511	O51	0.046700	0.028000	0.016900
O521	O52	0.355100	0.841800	0.673500
O531	O53	0.383900	0.902100	0.762300
O541	O54	0.269000	0.724500	0.736800
O551	O55	0.034800	0.080800	0.097500
O561	O56	0.037500	0.111000	0.015600
Ce51	Ce5	0.830650	0.615220	0.264150
C1771	C177	0.807200	0.640000	0.541700
C1781	C178	0.807700	0.672000	0.567800
H891	H89	0.803200	0.694600	0.553600
C1791	C179	0.815100	0.671500	0.615500
C1801	C180	0.822400	0.637600	0.636300
H901	H90	0.827500	0.636800	0.667700
C1811	C181	0.822000	0.605000	0.609900
C1821	C182	0.814100	0.606500	0.564000
H911	H91	0.813300	0.584400	0.547000
C1831	C183	0.798900	0.640800	0.492300
C1841	C184	0.775900	0.662800	0.476900
H921	H92	0.765500	0.677100	0.498300
C1851	C185	0.768100	0.663700	0.429300
H931	H93	0.752500	0.678200	0.419700
C1861	C186	0.783300	0.643600	0.397200
C1871	C187	0.805100	0.621100	0.411200
H941	H94	0.814400	0.606000	0.389400
C1881	C188	0.814000	0.620000	0.458000
H951	H95	0.829900	0.605600	0.466500
C1891	C189	0.816800	0.707900	0.642700
C1901	C190	0.795200	0.733100	0.639100
H961	H96	0.779100	0.728500	0.620500
C1911	C191	0.797800	0.766700	0.664200
H971	H97	0.783200	0.784400	0.661200
C1921	C192	0.820900	0.774400	0.693000
C1931	C193	0.842200	0.748700	0.695400
H981	H98	0.858700	0.753500	0.713200
C1941	C194	0.839700	0.714900	0.671600
H991	H99	0.854000	0.696800	0.675500
C1951	C195	0.827300	0.567700	0.633000
C1961	C196	0.815700	0.561500	0.676800
H1001	H100	0.806100	0.580800	0.692000
C1971	C197	0.818100	0.526400	0.699600
H1011	H101	0.810500	0.522800	0.729400
C1981	C198	0.831800	0.497700	0.676300
C1991	C199	0.844200	0.505200	0.632500
H1021	H102	0.854500	0.486600	0.617100
C2001	C200	0.841300	0.539700	0.612000
H1031	H103	0.849300	0.543700	0.582600
C2011	C201	0.775200	0.646200	0.347300
C2021	C202	0.821400	0.810800	0.718600
C2031	C203	0.831500	0.459600	0.696400
C2041	C204	0.776400	0.573700	0.146100
C2051	C205	0.749800	0.558500	0.153900
H1041	H104	0.741600	0.560400	0.183500
C2061	C206	0.734200	0.539900	0.118400
H1051	H105	0.716200	0.529200	0.124400
C2071	C207	0.746500	0.538100	0.074700
C2081	C208	0.773400	0.553800	0.066700
H1061	H106	0.781600	0.552000	0.037100
C2091	C209	0.788300	0.571800	0.101200
H1071	H107	0.806200	0.582700	0.095000
C2101	C210	0.729600	0.518400	0.035900
C2111	C211	0.700500	0.518000	0.034500
H1081	H108	0.690200	0.530500	0.057700
C2121	C212	0.637700	0.529300	0.018000
H1091	H109	0.647600	0.549500	0.030700
C2131	C213	0.609100	0.529700	0.017900
H1101	H110	0.599600	0.550400	0.030100
C2141	C214	0.793500	0.592700	0.183700
C2151	C215	0.876600	0.644300	0.347600
C2161	C216	0.909800	0.588700	0.363400
C2171	C217	0.901700	0.637700	0.426400
C2181	C218	0.900600	0.624600	0.246100
C2191	C219	0.948000	0.636900	0.203000
C2201	C220	0.925200	0.688100	0.252700
N91	N9	0.895900	0.623400	0.379300
N101	N10	0.924900	0.649900	0.235000
O571	O57	0.788700	0.629000	0.315000
O581	O58	0.753200	0.665400	0.337000
O591	O59	0.842100	0.433200	0.672800
O601	O60	0.821900	0.454200	0.737200
O611	O61	0.847800	0.824300	0.723200
O621	O62	0.800600	0.827200	0.732000
O631	O63	0.779100	0.600300	0.222700
O641	O64	0.819400	0.598900	0.179800
O651	O65	0.546700	0.472000	0.983100
O661	O66	0.855100	0.658200	0.326500
O671	O67	0.883900	0.597900	0.237700
O681	O68	0.769000	0.775500	0.263200
O691	O69	0.534800	0.419200	0.902500
O701	O70	0.537500	0.389000	0.984400
Ce61	Ce6	0.330650	0.115220	0.264150
C2211	C221	0.307200	0.140000	0.541700
C2221	C222	0.307700	0.172000	0.567800
H1111	H111	0.303200	0.194600	0.553600
C2231	C223	0.315100	0.171500	0.615500
C2241	C224	0.322400	0.137600	0.636300
H1121	H112	0.327500	0.136800	0.667700
C2251	C225	0.322000	0.105000	0.609900
C2261	C226	0.314100	0.106500	0.564000
H1131	H113	0.313300	0.084400	0.547000
C2271	C227	0.298900	0.140800	0.492300
C2281	C228	0.275900	0.162800	0.476900
H1141	H114	0.265500	0.177100	0.498300
C2291	C229	0.268100	0.163700	0.429300
H1151	H115	0.252500	0.178200	0.419700
C2301	C230	0.283300	0.143600	0.397200
C2311	C231	0.305100	0.121100	0.411200
H1161	H116	0.314400	0.106000	0.389400
C2321	C232	0.314000	0.120000	0.458000
H1171	H117	0.329900	0.105600	0.466500
C2331	C233	0.316800	0.207900	0.642700
C2341	C234	0.295200	0.233100	0.639100
H1181	H118	0.279100	0.228500	0.620500
C2351	C235	0.297800	0.266700	0.664200
H1191	H119	0.283200	0.284400	0.661200
C2361	C236	0.320900	0.274400	0.693000
C2371	C237	0.342200	0.248700	0.695400
H1201	H120	0.358700	0.253500	0.713200
C2381	C238	0.339700	0.214900	0.671600
H1211	H121	0.354000	0.196800	0.675500
C2391	C239	0.327300	0.067700	0.633000
C2401	C240	0.315700	0.061500	0.676800
H1221	H122	0.306100	0.080800	0.692000
C2411	C241	0.318100	0.026400	0.699600
H1231	H123	0.310500	0.022800	0.729400
C2421	C242	0.331800	0.997700	0.676300
C2431	C243	0.344200	0.005200	0.632500
H1241	H124	0.354500	0.986600	0.617100
C2441	C244	0.341300	0.039700	0.612000
H1251	H125	0.349300	0.043700	0.582600
C2451	C245	0.275200	0.146200	0.347300
C2461	C246	0.321400	0.310800	0.718600
C2471	C247	0.331500	0.959600	0.696400
C2481	C248	0.276400	0.073700	0.146100
C2491	C249	0.249800	0.058500	0.153900
H1261	H126	0.241600	0.060400	0.183500
C2501	C250	0.234200	0.039900	0.118400
H1271	H127	0.216200	0.029200	0.124400
C2511	C251	0.246500	0.038100	0.074700
C2521	C252	0.273400	0.053800	0.066700
H1281	H128	0.281600	0.052000	0.037100
C2531	C253	0.288300	0.071800	0.101200
H1291	H129	0.306200	0.082700	0.095000
C2541	C254	0.229600	0.018400	0.035900
C2551	C255	0.200500	0.018000	0.034500
H1301	H130	0.190200	0.030500	0.057700
C2561	C256	0.137700	0.029300	0.018000
H1311	H131	0.147600	0.049500	0.030700
C2571	C257	0.109100	0.029700	0.017900
H1321	H132	0.099600	0.050400	0.030100
C2581	C258	0.293500	0.092700	0.183700
C2591	C259	0.376600	0.144300	0.347600
C2601	C260	0.409800	0.088700	0.363400
C2611	C261	0.401700	0.137700	0.426400
C2621	C262	0.400600	0.124600	0.246100
C2631	C263	0.448000	0.136900	0.203000
C2641	C264	0.425200	0.188100	0.252700
N111	N11	0.395900	0.123400	0.379300
N121	N12	0.424900	0.149900	0.235000
O711	O71	0.288700	0.129000	0.315000
O721	O72	0.253200	0.165400	0.337000
O731	O73	0.342100	0.933200	0.672800
O741	O74	0.321900	0.954200	0.737200
O751	O75	0.347800	0.324300	0.723200
O761	O76	0.300600	0.327200	0.732000
O771	O77	0.279100	0.100300	0.222700
O781	O78	0.319400	0.098900	0.179800
O791	O79	0.046700	0.972000	0.983100
O801	O80	0.355100	0.158200	0.326500
O811	O81	0.383900	0.097900	0.237700
O821	O82	0.269000	0.275500	0.263200
O831	O83	0.034800	0.919200	0.902500
O841	O84	0.037500	0.889000	0.984400
Ce71	Ce7	0.169350	0.884780	0.764150
C2651	C265	0.192800	0.860000	0.041700
C2661	C266	0.192300	0.828000	0.067800
H1331	H133	0.196800	0.805400	0.053600
C2671	C267	0.184900	0.828500	0.115500
C2681	C268	0.177600	0.862400	0.136300
H1341	H134	0.172500	0.863200	0.167700
C2691	C269	0.178000	0.895000	0.109900
C2701	C270	0.185900	0.893500	0.064000
H1351	H135	0.186700	0.915600	0.047000
C2711	C271	0.201100	0.859200	0.992300
C2721	C272	0.224100	0.837200	0.976900
H1361	H136	0.234500	0.822900	0.998300
C2731	C273	0.231900	0.836300	0.929300
H1371	H137	0.247500	0.821800	0.919700
C2741	C274	0.216700	0.856400	0.897200
C2751	C275	0.194900	0.878900	0.911200
H1381	H138	0.185600	0.894000	0.889400
C2761	C276	0.186000	0.880000	0.958000
H1391	H139	0.170100	0.894400	0.966500
C2771	C277	0.183200	0.792100	0.142700
C2781	C278	0.204800	0.766900	0.139100
H1401	H140	0.220900	0.771500	0.120500
C2791	C279	0.202200	0.733300	0.164200
H1411	H141	0.216800	0.715600	0.161200
C2801	C280	0.179100	0.725600	0.193000
C2811	C281	0.157800	0.751300	0.195400
H1421	H142	0.141300	0.746500	0.213200
C2821	C282	0.160300	0.785100	0.171600
H1431	H143	0.146000	0.803200	0.175500
C2831	C283	0.172700	0.932300	0.133000
C2841	C284	0.184300	0.938500	0.176800
H1441	H144	0.193900	0.919200	0.192000
C2851	C285	0.181900	0.973600	0.199600
H1451	H145	0.189500	0.977200	0.229400
C2861	C286	0.168200	0.002300	0.176300
C2871	C287	0.155800	0.994800	0.132500
H1461	H146	0.145500	0.013400	0.117100
C2881	C288	0.158700	0.960300	0.112000
H1471	H147	0.150700	0.956300	0.082600
C2891	C289	0.224800	0.853800	0.847300
C2901	C290	0.178600	0.689200	0.218600
C2911	C291	0.168500	0.040400	0.196400
C2921	C292	0.223600	0.926300	0.646100
C2931	C293	0.250200	0.941500	0.653900
H1481	H148	0.258400	0.939600	0.683500
C2941	C294	0.265800	0.960100	0.618400
H1491	H149	0.283800	0.970800	0.624400
C2951	C295	0.253500	0.961900	0.574700
C2961	C296	0.226600	0.946200	0.566700
H1501	H150	0.218400	0.948000	0.537100
C2971	C297	0.211700	0.928200	0.601200
H1511	H151	0.193800	0.917300	0.595000
C2981	C298	0.270400	0.981600	0.535900
C2991	C299	0.299500	0.982000	0.534500
H1521	H152	0.309800	0.969500	0.557700
C3001	C300	0.362300	0.970700	0.518000
H1531	H153	0.352400	0.950500	0.530700
C3011	C301	0.390900	0.970300	0.517900
H1541	H154	0.400400	0.949600	0.530100
C3021	C302	0.206500	0.907300	0.683700
C3031	C303	0.123400	0.855700	0.847600
C3041	C304	0.090200	0.911300	0.863400
C3051	C305	0.098300	0.862300	0.926400
C3061	C306	0.099400	0.875400	0.746100
C3071	C307	0.052000	0.863100	0.703000
C3081	C308	0.074800	0.811900	0.752700
N131	N13	0.104100	0.876600	0.879300
N141	N14	0.075100	0.850100	0.735000
O851	O85	0.211300	0.871000	0.815000
O861	O86	0.246800	0.834600	0.837000
O871	O87	0.157900	0.066800	0.172800
O881	O88	0.178100	0.045800	0.237200
O891	O89	0.152200	0.675700	0.223200
O901	O90	0.199400	0.672800	0.232000
O911	O91	0.220900	0.899700	0.722700
O921	O92	0.180600	0.901100	0.679800
O931	O93	0.453300	0.028000	0.483100
O941	O94	0.144900	0.841800	0.826500
O951	O95	0.116100	0.902100	0.737700
O961	O96	0.231000	0.724500	0.763200
O971	O97	0.465200	0.080800	0.402500
O981	O98	0.462500	0.111000	0.484400
Ce81	Ce8	0.669350	0.384780	0.764150
C3091	C309	0.692800	0.360000	0.041700
C3101	C310	0.692300	0.328000	0.067800
H1551	H155	0.696800	0.305400	0.053600
C3111	C311	0.684900	0.328500	0.115500
C3121	C312	0.677600	0.362400	0.136300
H1561	H156	0.672500	0.363200	0.167700
C3131	C313	0.678000	0.395000	0.109900
C3141	C314	0.685900	0.393500	0.064000
H1571	H157	0.686700	0.415600	0.047000
C3151	C315	0.701100	0.359200	0.992300
C3161	C316	0.724100	0.337200	0.976900
H1581	H158	0.734500	0.322900	0.998300
C3171	C317	0.731900	0.336300	0.929300
H1591	H159	0.747500	0.321800	0.919700
C3181	C318	0.716700	0.356400	0.897200
C3191	C319	0.694900	0.378900	0.911200
H1601	H160	0.685600	0.394000	0.889400
C3201	C320	0.686000	0.380000	0.958000
H1611	H161	0.670100	0.394400	0.966500
C3211	C321	0.683200	0.292100	0.142700
C3221	C322	0.704800	0.266900	0.139100
H1621	H162	0.720900	0.271500	0.120500
C3231	C323	0.702200	0.233300	0.164200
H1631	H163	0.716800	0.215600	0.161200
C3241	C324	0.679100	0.225600	0.193000
C3251	C325	0.657800	0.251300	0.195400
H1641	H164	0.641300	0.246500	0.213200
C3261	C326	0.660300	0.285100	0.171600
H1651	H165	0.646000	0.303200	0.175500
C3271	C327	0.672700	0.432300	0.133000
C3281	C328	0.684300	0.438500	0.176800
H1661	H166	0.693900	0.419200	0.192000
C3291	C329	0.681900	0.473600	0.199600
H1671	H167	0.689500	0.477200	0.229400
C3301	C330	0.668200	0.502300	0.176300
C3311	C331	0.655800	0.494800	0.132500
H1681	H168	0.645500	0.513400	0.117100
C3321	C332	0.658700	0.460300	0.112000
H1691	H169	0.650700	0.456300	0.082600
C3331	C333	0.724800	0.353800	0.847300
C3341	C334	0.678600	0.189200	0.218600
C3351	C335	0.668500	0.540400	0.196400
C3361	C336	0.723600	0.426300	0.646100
C3371	C337	0.750200	0.441500	0.653900
H1701	H170	0.758400	0.439600	0.683500
C3381	C338	0.765800	0.460100	0.618400
H1711	H171	0.783800	0.470800	0.624400
C3391	C339	0.753500	0.461900	0.574700
C3401	C340	0.726600	0.446200	0.566700
H1721	H172	0.718400	0.448000	0.537100
C3411	C341	0.711700	0.428200	0.601200
H1731	H173	0.693800	0.417300	0.595000
C3421	C342	0.770400	0.481600	0.535900
C3431	C343	0.799500	0.482000	0.534500
H1741	H174	0.809800	0.469500	0.557700
C3441	C344	0.862300	0.470700	0.518000
H1751	H175	0.852400	0.450500	0.530700
C3451	C345	0.890900	0.470300	0.517900
H1761	H176	0.900400	0.449600	0.530100
C3461	C346	0.706500	0.407300	0.683700
C3471	C347	0.623400	0.355700	0.847600
C3481	C348	0.590200	0.411300	0.863400
C3491	C349	0.598300	0.362300	0.926400
C3501	C350	0.599400	0.375400	0.746100
C3511	C351	0.552000	0.363100	0.703000
C3521	C352	0.574800	0.311900	0.752700
N151	N15	0.604100	0.376600	0.879300
N161	N16	0.575100	0.350100	0.735000
O991	O99	0.711300	0.371000	0.815000
O1001	O100	0.746800	0.334600	0.837000
O1011	O101	0.657900	0.566800	0.172800
O1021	O102	0.678100	0.545800	0.237200
O1031	O103	0.652200	0.175700	0.223200
O1041	O104	0.699400	0.172800	0.232000
O1051	O105	0.720900	0.399700	0.722700
O1061	O106	0.680600	0.401100	0.679800
O1071	O107	0.953300	0.528000	0.483100
O1081	O108	0.644900	0.341800	0.826500
O1091	O109	0.616100	0.402100	0.737700
O1101	O110	0.731000	0.224500	0.763200
O1111	O111	0.965200	0.580800	0.402500
O1121	O112	0.962500	0.611000	0.484400
Ce91	Ce9	0.830650	0.884780	0.764150
C3531	C353	0.807200	0.860000	0.041700
C3541	C354	0.807700	0.828000	0.067800
H1771	H177	0.803200	0.805400	0.053600
C3551	C355	0.815100	0.828500	0.115500
C3561	C356	0.822400	0.862400	0.136300
H1781	H178	0.827500	0.863200	0.167700
C3571	C357	0.822000	0.895000	0.109900
C3581	C358	0.814100	0.893500	0.064000
H1791	H179	0.813300	0.915600	0.047000
C3591	C359	0.798900	0.859200	0.992300
C3601	C360	0.775900	0.837200	0.976900
H1801	H180	0.765500	0.822900	0.998300
C3611	C361	0.768100	0.836300	0.929300
H1811	H181	0.752500	0.821800	0.919700
C3621	C362	0.783300	0.856400	0.897200
C3631	C363	0.805100	0.878900	0.911200
H1821	H182	0.814400	0.894000	0.889400
C3641	C364	0.814000	0.880000	0.958000
H1831	H183	0.829900	0.894400	0.966500
C3651	C365	0.816800	0.792100	0.142700
C3661	C366	0.795200	0.766900	0.139100
H1841	H184	0.779100	0.771500	0.120500
C3671	C367	0.797800	0.733300	0.164200
H1851	H185	0.783200	0.715600	0.161200
C3681	C368	0.820900	0.725600	0.193000
C3691	C369	0.842200	0.751300	0.195400
H1861	H186	0.858700	0.746500	0.213200
C3701	C370	0.839700	0.785100	0.171600
H1871	H187	0.854000	0.803200	0.175500
C3711	C371	0.827300	0.932300	0.133000
C3721	C372	0.815700	0.938500	0.176800
H1881	H188	0.806100	0.919200	0.192000
C3731	C373	0.818100	0.973600	0.199600
H1891	H189	0.810500	0.977200	0.229400
C3741	C374	0.831800	0.002300	0.176300
C3751	C375	0.844200	0.994800	0.132500
H1901	H190	0.854500	0.013400	0.117100
C3761	C376	0.841300	0.960300	0.112000
H1911	H191	0.849300	0.956300	0.082600
C3771	C377	0.775200	0.853800	0.847300
C3781	C378	0.821400	0.689200	0.218600
C3791	C379	0.831500	0.040400	0.196400
C3801	C380	0.776400	0.926300	0.646100
C3811	C381	0.749800	0.941500	0.653900
H1921	H192	0.741600	0.939600	0.683500
C3821	C382	0.734200	0.960100	0.618400
H1931	H193	0.716200	0.970800	0.624400
C3831	C383	0.746500	0.961900	0.574700
C3841	C384	0.773400	0.946200	0.566700
H1941	H194	0.781600	0.948000	0.537100
C3851	C385	0.788300	0.928200	0.601200
H1951	H195	0.806200	0.917300	0.595000
C3861	C386	0.729600	0.981600	0.535900
C3871	C387	0.700500	0.982000	0.534500
H1961	H196	0.690200	0.969500	0.557700
C3881	C388	0.637700	0.970700	0.518000
H1971	H197	0.647600	0.950500	0.530700
C3891	C389	0.609100	0.970300	0.517900
H1981	H198	0.599600	0.949600	0.530100
C3901	C390	0.793500	0.907300	0.683700
C3911	C391	0.876600	0.855700	0.847600
C3921	C392	0.909800	0.911300	0.863400
C3931	C393	0.901700	0.862300	0.926400
C3941	C394	0.900600	0.875400	0.746100
C3951	C395	0.948000	0.863100	0.703000
C3961	C396	0.925200	0.811900	0.752700
N171	N17	0.895900	0.876600	0.879300
N181	N18	0.924900	0.850100	0.735000
O1131	O113	0.788700	0.871000	0.815000
O1141	O114	0.753200	0.834600	0.837000
O1151	O115	0.842100	0.066800	0.172800
O1161	O116	0.821900	0.045800	0.237200
O1171	O117	0.847800	0.675700	0.223200
O1181	O118	0.800600	0.672800	0.232000
O1191	O119	0.779100	0.899700	0.722700
O1201	O120	0.819400	0.901100	0.679800
O1211	O121	0.546700	0.028000	0.483100
O1221	O122	0.855100	0.841800	0.826500
O1231	O123	0.883900	0.902100	0.737700
O1241	O124	0.769000	0.724500	0.763200
O1251	O125	0.534800	0.080800	0.402500
O1261	O126	0.537500	0.111000	0.484400
Ce101	Ce10	0.330650	0.384780	0.764150
C3971	C397	0.307200	0.360000	0.041700
C3981	C398	0.307700	0.328000	0.067800
H1991	H199	0.303200	0.305400	0.053600
C3991	C399	0.315100	0.328500	0.115500
C4001	C400	0.322400	0.362400	0.136300
H2001	H200	0.327500	0.363200	0.167700
C4011	C401	0.322000	0.395000	0.109900
C4021	C402	0.314100	0.393500	0.064000
H2011	H201	0.313300	0.415600	0.047000
C4031	C403	0.298900	0.359200	0.992300
C4041	C404	0.275900	0.337200	0.976900
H2021	H202	0.265500	0.322900	0.998300
C4051	C405	0.268100	0.336300	0.929300
H2031	H203	0.252500	0.321800	0.919700
C4061	C406	0.283300	0.356400	0.897200
C4071	C407	0.305100	0.378900	0.911200
H2041	H204	0.314400	0.394000	0.889400
C4081	C408	0.314000	0.380000	0.958000
H2051	H205	0.329900	0.394400	0.966500
C4091	C409	0.316800	0.292100	0.142700
C4101	C410	0.295200	0.266900	0.139100
H2061	H206	0.279100	0.271500	0.120500
C4111	C411	0.297800	0.233300	0.164200
H2071	H207	0.283200	0.215600	0.161200
C4121	C412	0.320900	0.225600	0.193000
C4131	C413	0.342200	0.251300	0.195400
H2081	H208	0.358700	0.246500	0.213200
C4141	C414	0.339700	0.285100	0.171600
H2091	H209	0.354000	0.303200	0.175500
C4151	C415	0.327300	0.432300	0.133000
C4161	C416	0.315700	0.438500	0.176800
H2101	H210	0.306100	0.419200	0.192000
C4171	C417	0.318100	0.473600	0.199600
H2111	H211	0.310500	0.477200	0.229400
C4181	C418	0.331800	0.502300	0.176300
C4191	C419	0.344200	0.494800	0.132500
H2121	H212	0.354500	0.513400	0.117100
C4201	C420	0.341300	0.460300	0.112000
H2131	H213	0.349300	0.456300	0.082600
C4211	C421	0.275200	0.353800	0.847300
C4221	C422	0.321400	0.189200	0.218600
C4231	C423	0.331500	0.540400	0.196400
C4241	C424	0.276400	0.426300	0.646100
C4251	C425	0.249800	0.441500	0.653900
H2141	H214	0.241600	0.439600	0.683500
C4261	C426	0.234200	0.460100	0.618400
H2151	H215	0.216200	0.470800	0.624400
C4271	C427	0.246500	0.461900	0.574700
C4281	C428	0.273400	0.446200	0.566700
H2161	H216	0.281600	0.448000	0.537100
C4291	C429	0.288300	0.428200	0.601200
H2171	H217	0.306200	0.417300	0.595000
C4301	C430	0.229600	0.481600	0.535900
C4311	C431	0.200500	0.482000	0.534500
H2181	H218	0.190200	0.469500	0.557700
C4321	C432	0.137700	0.470700	0.518000
H2191	H219	0.147600	0.450500	0.530700
C4331	C433	0.109100	0.470300	0.517900
H2201	H220	0.099600	0.449600	0.530100
C4341	C434	0.293500	0.407300	0.683700
C4351	C435	0.376600	0.355700	0.847600
C4361	C436	0.409800	0.411300	0.863400
C4371	C437	0.401700	0.362300	0.926400
C4381	C438	0.400600	0.375400	0.746100
C4391	C439	0.448000	0.363100	0.703000
C4401	C440	0.425200	0.311900	0.752700
N191	N19	0.395900	0.376600	0.879300
N201	N20	0.424900	0.350100	0.735000
O1271	O127	0.288700	0.371000	0.815000
O1281	O128	0.253200	0.334600	0.837000
O1291	O129	0.342100	0.566800	0.172800
O1301	O130	0.321900	0.545800	0.237200
O1311	O131	0.347800	0.175700	0.223200
O1321	O132	0.300600	0.172800	0.232000
O1331	O133	0.279100	0.399700	0.722700
O1341	O134	0.319400	0.401100	0.679800
O1351	O135	0.046700	0.528000	0.483100
O1361	O136	0.355100	0.341800	0.826500
O1371	O137	0.383900	0.402100	0.737700
O1381	O138	0.269000	0.224500	0.763200
O1391	O139	0.034800	0.580800	0.402500
O1401	O140	0.037500	0.611000	0.484400
Ce111	Ce11	0.169350	0.615220	0.264150
C4411	C441	0.192800	0.640000	0.541700
C4421	C442	0.192300	0.672000	0.567800
H2211	H221	0.196800	0.694600	0.553600
C4431	C443	0.184900	0.671500	0.615500
C4441	C444	0.177600	0.637600	0.636300
H2221	H222	0.172500	0.636800	0.667700
C4451	C445	0.178000	0.605000	0.609900
C4461	C446	0.185900	0.606500	0.564000
H2231	H223	0.186700	0.584400	0.547000
C4471	C447	0.201100	0.640800	0.492300
C4481	C448	0.224100	0.662800	0.476900
H2241	H224	0.234500	0.677100	0.498300
C4491	C449	0.231900	0.663700	0.429300
H2251	H225	0.247500	0.678200	0.419700
C4501	C450	0.216700	0.643600	0.397200
C4511	C451	0.194900	0.621100	0.411200
H2261	H226	0.185600	0.606000	0.389400
C4521	C452	0.186000	0.620000	0.458000
H2271	H227	0.170100	0.605600	0.466500
C4531	C453	0.183200	0.707900	0.642700
C4541	C454	0.204800	0.733100	0.639100
H2281	H228	0.220900	0.728500	0.620500
C4551	C455	0.202200	0.766700	0.664200
H2291	H229	0.216800	0.784400	0.661200
C4561	C456	0.179100	0.774400	0.693000
C4571	C457	0.157800	0.748700	0.695400
H2301	H230	0.141300	0.753500	0.713200
C4581	C458	0.160300	0.714900	0.671600
H2311	H231	0.146000	0.696800	0.675500
C4591	C459	0.172700	0.567700	0.633000
C4601	C460	0.184300	0.561500	0.676800
H2321	H232	0.193900	0.580800	0.692000
C4611	C461	0.181900	0.526400	0.699600
H2331	H233	0.189500	0.522800	0.729400
C4621	C462	0.168200	0.497700	0.676300
C4631	C463	0.155800	0.505200	0.632500
H2341	H234	0.145500	0.486600	0.617100
C4641	C464	0.158700	0.539700	0.612000
H2351	H235	0.150700	0.543700	0.582600
C4651	C465	0.224800	0.646200	0.347300
C4661	C466	0.178600	0.810800	0.718600
C4671	C467	0.168500	0.459600	0.696400
C4681	C468	0.223600	0.573700	0.146100
C4691	C469	0.250200	0.558500	0.153900
H2361	H236	0.258400	0.560400	0.183500
C4701	C470	0.265800	0.539900	0.118400
H2371	H237	0.283800	0.529200	0.124400
C4711	C471	0.253500	0.538100	0.074700
C4721	C472	0.226600	0.553800	0.066700
H2381	H238	0.218400	0.552000	0.037100
C4731	C473	0.211700	0.571800	0.101200
H2391	H239	0.193800	0.582700	0.095000
C4741	C474	0.270400	0.518400	0.035900
C4751	C475	0.299500	0.518000	0.034500
H2401	H240	0.309800	0.530500	0.057700
C4761	C476	0.362300	0.529300	0.018000
H2411	H241	0.352400	0.549500	0.030700
C4771	C477	0.390900	0.529700	0.017900
H2421	H242	0.400400	0.550400	0.030100
C4781	C478	0.206500	0.592700	0.183700
C4791	C479	0.123400	0.644300	0.347600
C4801	C480	0.090200	0.588700	0.363400
C4811	C481	0.098300	0.637700	0.426400
C4821	C482	0.099400	0.624600	0.246100
C4831	C483	0.052000	0.636900	0.203000
C4841	C484	0.074800	0.688100	0.252700
N211	N21	0.104100	0.623400	0.379300
N221	N22	0.075100	0.649900	0.235000
O1411	O141	0.211300	0.629000	0.315000
O1421	O142	0.246800	0.665400	0.337000
O1431	O143	0.157900	0.433200	0.672800
O1441	O144	0.178100	0.454200	0.737200
O1451	O145	0.152200	0.824300	0.723200
O1461	O146	0.199400	0.827200	0.732000
O1471	O147	0.220900	0.600300	0.222700
O1481	O148	0.180600	0.598900	0.179800
O1491	O149	0.453300	0.472000	0.983100
O1501	O150	0.144900	0.658200	0.326500
O1511	O151	0.116100	0.597900	0.237700
O1521	O152	0.231000	0.775500	0.263200
O1531	O153	0.465200	0.419200	0.902500
O1541	O154	0.462500	0.389000	0.984400
Ce121	Ce12	0.669350	0.115220	0.264150
C4851	C485	0.692800	0.140000	0.541700
C4861	C486	0.692300	0.172000	0.567800
H2431	H243	0.696800	0.194600	0.553600
C4871	C487	0.684900	0.171500	0.615500
C4881	C488	0.677600	0.137600	0.636300
H2441	H244	0.672500	0.136800	0.667700
C4891	C489	0.678000	0.105000	0.609900
C4901	C490	0.685900	0.106500	0.564000
H2451	H245	0.686700	0.084400	0.547000
C4911	C491	0.701100	0.140800	0.492300
C4921	C492	0.724100	0.162800	0.476900
H2461	H246	0.734500	0.177100	0.498300
C4931	C493	0.731900	0.163700	0.429300
H2471	H247	0.747500	0.178200	0.419700
C4941	C494	0.716700	0.143600	0.397200
C4951	C495	0.694900	0.121100	0.411200
H2481	H248	0.685600	0.106000	0.389400
C4961	C496	0.686000	0.120000	0.458000
H2491	H249	0.670100	0.105600	0.466500
C4971	C497	0.683200	0.207900	0.642700
C4981	C498	0.704800	0.233100	0.639100
H2501	H250	0.720900	0.228500	0.620500
C4991	C499	0.702200	0.266700	0.664200
H2511	H251	0.716800	0.284400	0.661200
C5001	C500	0.679100	0.274400	0.693000
C5011	C501	0.657800	0.248700	0.695400
H2521	H252	0.641300	0.253500	0.713200
C5021	C502	0.660300	0.214900	0.671600
H2531	H253	0.646000	0.196800	0.675500
C5031	C503	0.672700	0.067700	0.633000
C5041	C504	0.684300	0.061500	0.676800
H2541	H254	0.693900	0.080800	0.692000
C5051	C505	0.681900	0.026400	0.699600
H2551	H255	0.689500	0.022800	0.729400
C5061	C506	0.668200	0.997700	0.676300
C5071	C507	0.655800	0.005200	0.632500
H2561	H256	0.645500	0.986600	0.617100
C5081	C508	0.658700	0.039700	0.612000
H2571	H257	0.650700	0.043700	0.582600
C5091	C509	0.724800	0.146200	0.347300
C5101	C510	0.678600	0.310800	0.718600
C5111	C511	0.668500	0.959600	0.696400
C5121	C512	0.723600	0.073700	0.146100
C5131	C513	0.750200	0.058500	0.153900
H2581	H258	0.758400	0.060400	0.183500
C5141	C514	0.765800	0.039900	0.118400
H2591	H259	0.783800	0.029200	0.124400
C5151	C515	0.753500	0.038100	0.074700
C5161	C516	0.726600	0.053800	0.066700
H2601	H260	0.718400	0.052000	0.037100
C5171	C517	0.711700	0.071800	0.101200
H2611	H261	0.693800	0.082700	0.095000
C5181	C518	0.770400	0.018400	0.035900
C5191	C519	0.799500	0.018000	0.034500
H2621	H262	0.809800	0.030500	0.057700
C5201	C520	0.862300	0.029300	0.018000
H2631	H263	0.852400	0.049500	0.030700
C5211	C521	0.890900	0.029700	0.017900
H2641	H264	0.900400	0.050400	0.030100
C5221	C522	0.706500	0.092700	0.183700
C5231	C523	0.623400	0.144300	0.347600
C5241	C524	0.590200	0.088700	0.363400
C5251	C525	0.598300	0.137700	0.426400
C5261	C526	0.599400	0.124600	0.246100
C5271	C527	0.552000	0.136900	0.203000
C5281	C528	0.574800	0.188100	0.252700
N231	N23	0.604100	0.123400	0.379300
N241	N24	0.575100	0.149900	0.235000
O1551	O155	0.711300	0.129000	0.315000
O1561	O156	0.746800	0.165400	0.337000
O1571	O157	0.657900	0.933200	0.672800
O1581	O158	0.678100	0.954200	0.737200
O1591	O159	0.652200	0.324300	0.723200
O1601	O160	0.699400	0.327200	0.732000
O1611	O161	0.720900	0.100300	0.222700
O1621	O162	0.680600	0.098900	0.179800
O1631	O163	0.953300	0.972000	0.983100
O1641	O164	0.644900	0.158200	0.326500
O1651	O165	0.616100	0.097900	0.237700
O1661	O166	0.731000	0.275500	0.263200
O1671	O167	0.965200	0.919200	0.902500
O1681	O168	0.962500	0.889000	0.984400
Ce131	Ce13	0.169350	0.384780	0.735850
C5291	C529	0.192800	0.360000	0.458300
C5301	C530	0.192300	0.328000	0.432200
H2651	H265	0.196800	0.305400	0.446400
C5311	C531	0.184900	0.328500	0.384500
C5321	C532	0.177600	0.362400	0.363700
H2661	H266	0.172500	0.363200	0.332300
C5331	C533	0.178000	0.395000	0.390100
C5341	C534	0.185900	0.393500	0.436000
H2671	H267	0.186700	0.415600	0.453000
C5351	C535	0.201100	0.359200	0.507700
C5361	C536	0.224100	0.337200	0.523100
H2681	H268	0.234500	0.322900	0.501700
C5371	C537	0.231900	0.336300	0.570700
H2691	H269	0.247500	0.321800	0.580300
C5381	C538	0.216700	0.356400	0.602800
C5391	C539	0.194900	0.378900	0.588800
H2701	H270	0.185600	0.394000	0.610600
C5401	C540	0.186000	0.380000	0.542000
H2711	H271	0.170100	0.394400	0.533500
C5411	C541	0.183200	0.292100	0.357300
C5421	C542	0.204800	0.266900	0.360900
H2721	H272	0.220900	0.271500	0.379500
C5431	C543	0.202200	0.233300	0.335800
H2731	H273	0.216800	0.215600	0.338800
C5441	C544	0.179100	0.225600	0.307000
C5451	C545	0.157800	0.251300	0.304600
H2741	H274	0.141300	0.246500	0.286800
C5461	C546	0.160300	0.285100	0.328400
H2751	H275	0.146000	0.303200	0.324500
C5471	C547	0.172700	0.432300	0.367000
C5481	C548	0.184300	0.438500	0.323200
H2761	H276	0.193900	0.419200	0.308000
C5491	C549	0.181900	0.473600	0.300400
H2771	H277	0.189500	0.477200	0.270600
C5501	C550	0.168200	0.502300	0.323700
C5511	C551	0.155800	0.494800	0.367500
H2781	H278	0.145500	0.513400	0.382900
C5521	C552	0.158700	0.460300	0.388000
H2791	H279	0.150700	0.456300	0.417400
C5531	C553	0.224800	0.353800	0.652700
C5541	C554	0.178600	0.189200	0.281400
C5551	C555	0.168500	0.540400	0.303600
C5561	C556	0.223600	0.426300	0.853900
C5571	C557	0.250200	0.441500	0.846100
H2801	H280	0.258400	0.439600	0.816500
C5581	C558	0.265800	0.460100	0.881600
H2811	H281	0.283800	0.470800	0.875600
C5591	C559	0.253500	0.461900	0.925300
C5601	C560	0.226600	0.446200	0.933300
H2821	H282	0.218400	0.448000	0.962900
C5611	C561	0.211700	0.428200	0.898800
H2831	H283	0.193800	0.417300	0.905000
C5621	C562	0.270400	0.481600	0.964100
C5631	C563	0.299500	0.482000	0.965500
H2841	H284	0.309800	0.469500	0.942300
C5641	C564	0.362300	0.470700	0.982000
H2851	H285	0.352400	0.450500	0.969300
C5651	C565	0.390900	0.470300	0.982100
H2861	H286	0.400400	0.449600	0.969900
C5661	C566	0.206500	0.407300	0.816300
C5671	C567	0.123400	0.355700	0.652400
C5681	C568	0.090200	0.411300	0.636600
C5691	C569	0.098300	0.362300	0.573600
C5701	C570	0.099400	0.375400	0.753900
C5711	C571	0.052000	0.363100	0.797000
C5721	C572	0.074800	0.311900	0.747300
N251	N25	0.104100	0.376600	0.620700
N261	N26	0.075100	0.350100	0.765000
O1691	O169	0.211300	0.371000	0.685000
O1701	O170	0.246800	0.334600	0.663000
O1711	O171	0.157900	0.566800	0.327200
O1721	O172	0.178100	0.545800	0.262800
O1731	O173	0.152200	0.175700	0.276800
O1741	O174	0.199400	0.172800	0.268000
O1751	O175	0.220900	0.399700	0.777300
O1761	O176	0.180600	0.401100	0.820200
O1771	O177	0.453300	0.528000	0.016900
O1781	O178	0.144900	0.341800	0.673500
O1791	O179	0.116100	0.402100	0.762300
O1801	O180	0.231000	0.224500	0.736800
O1811	O181	0.465200	0.580800	0.097500
O1821	O182	0.462500	0.611000	0.015600
Ce141	Ce14	0.669350	0.884780	0.735850
C5731	C573	0.692800	0.860000	0.458300
C5741	C574	0.692300	0.828000	0.432200
H2871	H287	0.696800	0.805400	0.446400
C5751	C575	0.684900	0.828500	0.384500
C5761	C576	0.677600	0.862400	0.363700
H2881	H288	0.672500	0.863200	0.332300
C5771	C577	0.678000	0.895000	0.390100
C5781	C578	0.685900	0.893500	0.436000
H2891	H289	0.686700	0.915600	0.453000
C5791	C579	0.701100	0.859200	0.507700
C5801	C580	0.724100	0.837200	0.523100
H2901	H290	0.734500	0.822900	0.501700
C5811	C581	0.731900	0.836300	0.570700
H2911	H291	0.747500	0.821800	0.580300
C5821	C582	0.716700	0.856400	0.602800
C5831	C583	0.694900	0.878900	0.588800
H2921	H292	0.685600	0.894000	0.610600
C5841	C584	0.686000	0.880000	0.542000
H2931	H293	0.670100	0.894400	0.533500
C5851	C585	0.683200	0.792100	0.357300
C5861	C586	0.704800	0.766900	0.360900
H2941	H294	0.720900	0.771500	0.379500
C5871	C587	0.702200	0.733300	0.335800
H2951	H295	0.716800	0.715600	0.338800
C5881	C588	0.679100	0.725600	0.307000
C5891	C589	0.657800	0.751300	0.304600
H2961	H296	0.641300	0.746500	0.286800
C5901	C590	0.660300	0.785100	0.328400
H2971	H297	0.646000	0.803200	0.324500
C5911	C591	0.672700	0.932300	0.367000
C5921	C592	0.684300	0.938500	0.323200
H2981	H298	0.693900	0.919200	0.308000
C5931	C593	0.681900	0.973600	0.300400
H2991	H299	0.689500	0.977200	0.270600
C5941	C594	0.668200	0.002300	0.323700
C5951	C595	0.655800	0.994800	0.367500
H3001	H300	0.645500	0.013400	0.382900
C5961	C596	0.658700	0.960300	0.388000
H3011	H301	0.650700	0.956300	0.417400
C5971	C597	0.724800	0.853800	0.652700
C5981	C598	0.678600	0.689200	0.281400
C5991	C599	0.668500	0.040400	0.303600
C6001	C600	0.723600	0.926300	0.853900
C6011	C601	0.750200	0.941500	0.846100
H3021	H302	0.758400	0.939600	0.816500
C6021	C602	0.765800	0.960100	0.881600
H3031	H303	0.783800	0.970800	0.875600
C6031	C603	0.753500	0.961900	0.925300
C6041	C604	0.726600	0.946200	0.933300
H3041	H304	0.718400	0.948000	0.962900
C6051	C605	0.711700	0.928200	0.898800
H3051	H305	0.693800	0.917300	0.905000
C6061	C606	0.770400	0.981600	0.964100
C6071	C607	0.799500	0.982000	0.965500
H3061	H306	0.809800	0.969500	0.942300
C6081	C608	0.862300	0.970700	0.982000
H3071	H307	0.852400	0.950500	0.969300
C6091	C609	0.890900	0.970300	0.982100
H3081	H308	0.900400	0.949600	0.969900
C6101	C610	0.706500	0.907300	0.816300
C6111	C611	0.623400	0.855700	0.652400
C6121	C612	0.590200	0.911300	0.636600
C6131	C613	0.598300	0.862300	0.573600
C6141	C614	0.599400	0.875400	0.753900
C6151	C615	0.552000	0.863100	0.797000
C6161	C616	0.574800	0.811900	0.747300
N271	N27	0.604100	0.876600	0.620700
N281	N28	0.575100	0.850100	0.765000
O1831	O183	0.711300	0.871000	0.685000
O1841	O184	0.746800	0.834600	0.663000
O1851	O185	0.657900	0.066800	0.327200
O1861	O186	0.678100	0.045800	0.262800
O1871	O187	0.652200	0.675700	0.276800
O1881	O188	0.699400	0.672800	0.268000
O1891	O189	0.720900	0.899700	0.777300
O1901	O190	0.680600	0.901100	0.820200
O1911	O191	0.953300	0.028000	0.016900
O1921	O192	0.644900	0.841800	0.673500
O1931	O193	0.616100	0.902100	0.762300
O1941	O194	0.731000	0.724500	0.736800
O1951	O195	0.965200	0.080800	0.097500
O1961	O196	0.962500	0.111000	0.015600
Ce151	Ce15	0.830650	0.115220	0.235850
C6171	C617	0.807200	0.140000	0.958300
C6181	C618	0.807700	0.172000	0.932200
H3091	H309	0.803200	0.194600	0.946400
C6191	C619	0.815100	0.171500	0.884500
C6201	C620	0.822400	0.137600	0.863700
H3101	H310	0.827500	0.136800	0.832300
C6211	C621	0.822000	0.105000	0.890100
C6221	C622	0.814100	0.106500	0.936000
H3111	H311	0.813300	0.084400	0.953000
C6231	C623	0.798900	0.140800	0.007700
C6241	C624	0.775900	0.162800	0.023100
H3121	H312	0.765500	0.177100	0.001700
C6251	C625	0.768100	0.163700	0.070700
H3131	H313	0.752500	0.178200	0.080300
C6261	C626	0.783300	0.143600	0.102800
C6271	C627	0.805100	0.121100	0.088800
H3141	H314	0.814400	0.106000	0.110600
C6281	C628	0.814000	0.120000	0.042000
H3151	H315	0.829900	0.105600	0.033500
C6291	C629	0.816800	0.207900	0.857300
C6301	C630	0.795200	0.233100	0.860900
H3161	H316	0.779100	0.228500	0.879500
C6311	C631	0.797800	0.266700	0.835800
H3171	H317	0.783200	0.284400	0.838800
C6321	C632	0.820900	0.274400	0.807000
C6331	C633	0.842200	0.248700	0.804600
H3181	H318	0.858700	0.253500	0.786800
C6341	C634	0.839700	0.214900	0.828400
H3191	H319	0.854000	0.196800	0.824500
C6351	C635	0.827300	0.067700	0.867000
C6361	C636	0.815700	0.061500	0.823200
H3201	H320	0.806100	0.080800	0.808000
C6371	C637	0.818100	0.026400	0.800400
H3211	H321	0.810500	0.022800	0.770600
C6381	C638	0.831800	0.997700	0.823700
C6391	C639	0.844200	0.005200	0.867500
H3221	H322	0.854500	0.986600	0.882900
C6401	C640	0.841300	0.039700	0.888000
H3231	H323	0.849300	0.043700	0.917400
C6411	C641	0.775200	0.146200	0.152700
C6421	C642	0.821400	0.310800	0.781400
C6431	C643	0.831500	0.959600	0.803600
C6441	C644	0.776400	0.073700	0.353900
C6451	C645	0.749800	0.058500	0.346100
H3241	H324	0.741600	0.060400	0.316500
C6461	C646	0.734200	0.039900	0.381600
H3251	H325	0.716200	0.029200	0.375600
C6471	C647	0.746500	0.038100	0.425300
C6481	C648	0.773400	0.053800	0.433300
H3261	H326	0.781600	0.052000	0.462900
C6491	C649	0.788300	0.071800	0.398800
H3271	H327	0.806200	0.082700	0.405000
C6501	C650	0.729600	0.018400	0.464100
C6511	C651	0.700500	0.018000	0.465500
H3281	H328	0.690200	0.030500	0.442300
C6521	C652	0.637700	0.029300	0.482000
H3291	H329	0.647600	0.049500	0.469300
C6531	C653	0.609100	0.029700	0.482100
H3301	H330	0.599600	0.050400	0.469900
C6541	C654	0.793500	0.092700	0.316300
C6551	C655	0.876600	0.144300	0.152400
C6561	C656	0.909800	0.088700	0.136600
C6571	C657	0.901700	0.137700	0.073600
C6581	C658	0.900600	0.124600	0.253900
C6591	C659	0.948000	0.136900	0.297000
C6601	C660	0.925200	0.188100	0.247300
N291	N29	0.895900	0.123400	0.120700
N301	N30	0.924900	0.149900	0.265000
O1971	O197	0.788700	0.129000	0.185000
O1981	O198	0.753200	0.165400	0.163000
O1991	O199	0.842100	0.933200	0.827200
O2001	O200	0.821900	0.954200	0.762800
O2011	O201	0.847800	0.324300	0.776800
O2021	O202	0.800600	0.327200	0.768000
O2031	O203	0.779100	0.100300	0.277300
O2041	O204	0.819400	0.098900	0.320200
O2051	O205	0.546700	0.972000	0.516900
O2061	O206	0.855100	0.158200	0.173500
O2071	O207	0.883900	0.097900	0.262300
O2081	O208	0.769000	0.275500	0.236800
O2091	O209	0.534800	0.919200	0.597500
O2101	O210	0.537500	0.889000	0.515600
Ce161	Ce16	0.330650	0.615220	0.235850
C6611	C661	0.307200	0.640000	0.958300
C6621	C662	0.307700	0.672000	0.932200
H3311	H331	0.303200	0.694600	0.946400
C6631	C663	0.315100	0.671500	0.884500
C6641	C664	0.322400	0.637600	0.863700
H3321	H332	0.327500	0.636800	0.832300
C6651	C665	0.322000	0.605000	0.890100
C6661	C666	0.314100	0.606500	0.936000
H3331	H333	0.313300	0.584400	0.953000
C6671	C667	0.298900	0.640800	0.007700
C6681	C668	0.275900	0.662800	0.023100
H3341	H334	0.265500	0.677100	0.001700
C6691	C669	0.268100	0.663700	0.070700
H3351	H335	0.252500	0.678200	0.080300
C6701	C670	0.283300	0.643600	0.102800
C6711	C671	0.305100	0.621100	0.088800
H3361	H336	0.314400	0.606000	0.110600
C6721	C672	0.314000	0.620000	0.042000
H3371	H337	0.329900	0.605600	0.033500
C6731	C673	0.316800	0.707900	0.857300
C6741	C674	0.295200	0.733100	0.860900
H3381	H338	0.279100	0.728500	0.879500
C6751	C675	0.297800	0.766700	0.835800
H3391	H339	0.283200	0.784400	0.838800
C6761	C676	0.320900	0.774400	0.807000
C6771	C677	0.342200	0.748700	0.804600
H3401	H340	0.358700	0.753500	0.786800
C6781	C678	0.339700	0.714900	0.828400
H3411	H341	0.354000	0.696800	0.824500
C6791	C679	0.327300	0.567700	0.867000
C6801	C680	0.315700	0.561500	0.823200
H3421	H342	0.306100	0.580800	0.808000
C6811	C681	0.318100	0.526400	0.800400
H3431	H343	0.310500	0.522800	0.770600
C6821	C682	0.331800	0.497700	0.823700
C6831	C683	0.344200	0.505200	0.867500
H3441	H344	0.354500	0.486600	0.882900
C6841	C684	0.341300	0.539700	0.888000
H3451	H345	0.349300	0.543700	0.917400
C6851	C685	0.275200	0.646200	0.152700
C6861	C686	0.321400	0.810800	0.781400
C6871	C687	0.331500	0.459600	0.803600
C6881	C688	0.276400	0.573700	0.353900
C6891	C689	0.249800	0.558500	0.346100
H3461	H346	0.241600	0.560400	0.316500
C6901	C690	0.234200	0.539900	0.381600
H3471	H347	0.216200	0.529200	0.375600
C6911	C691	0.246500	0.538100	0.425300
C6921	C692	0.273400	0.553800	0.433300
H3481	H348	0.281600	0.552000	0.462900
C6931	C693	0.288300	0.571800	0.398800
H3491	H349	0.306200	0.582700	0.405000
C6941	C694	0.229600	0.518400	0.464100
C6951	C695	0.200500	0.518000	0.465500
H3501	H350	0.190200	0.530500	0.442300
C6961	C696	0.137700	0.529300	0.482000
H3511	H351	0.147600	0.549500	0.469300
C6971	C697	0.109100	0.529700	0.482100
H3521	H352	0.099600	0.550400	0.469900
C6981	C698	0.293500	0.592700	0.316300
C6991	C699	0.376600	0.644300	0.152400
C7001	C700	0.409800	0.588700	0.136600
C7011	C701	0.401700	0.637700	0.073600
C7021	C702	0.400600	0.624600	0.253900
C7031	C703	0.448000	0.636900	0.297000
C7041	C704	0.425200	0.688100	0.247300
N311	N31	0.395900	0.623400	0.120700
N321	N32	0.424900	0.649900	0.265000
O2111	O211	0.288700	0.629000	0.185000
O2121	O212	0.253200	0.665400	0.163000
O2131	O213	0.342100	0.433200	0.827200
O2141	O214	0.321900	0.454200	0.762800
O2151	O215	0.347800	0.824300	0.776800
O2161	O216	0.300600	0.827200	0.768000
O2171	O217	0.279100	0.600300	0.277300
O2181	O218	0.319400	0.598900	0.320200
O2191	O219	0.046700	0.472000	0.516900
O2201	O220	0.355100	0.658200	0.173500
O2211	O221	0.383900	0.597900	0.262300
O2221	O222	0.269000	0.775500	0.236800
O2231	O223	0.034800	0.419200	0.597500
O2241	O224	0.037500	0.389000	0.515600
Ce171	Ce17	0.250000	0.154030	0.250000
N331	N33	0.250000	0.255500	0.250000
O2251	O225	0.250000	0.222200	0.250000
Ce181	Ce18	0.750000	0.345970	0.750000
N341	N34	0.750000	0.244500	0.750000
O2261	O226	0.750000	0.277800	0.750000
Ce191	Ce19	0.750000	0.654030	0.250000
N351	N35	0.750000	0.755500	0.250000
O2271	O227	0.750000	0.722200	0.250000
Ce201	Ce20	0.250000	0.845970	0.750000
N361	N36	0.250000	0.744500	0.750000
O2281	O228	0.250000	0.777800	0.750000
Ce211	Ce21	0.750000	0.845970	0.750000
N371	N37	0.750000	0.744500	0.750000
O2291	O229	0.750000	0.777800	0.750000
Ce221	Ce22	0.250000	0.654030	0.250000
N381	N38	0.250000	0.755500	0.250000
O2301	O230	0.250000	0.722200	0.250000
Ce231	Ce23	0.250000	0.345970	0.750000
N391	N39	0.250000	0.244500	0.750000
O2311	O231	0.250000	0.277800	0.750000
Ce241	Ce24	0.750000	0.154030	0.250000
N401	N40	0.750000	0.255500	0.250000
O2321	O232	0.750000	0.222200	0.250000
Ce251	Ce25	0.500000	0.944900	0.529400
O2331	O233	0.500000	0.017300	0.560000
Ce261	Ce26	0.000000	0.444900	0.529400
O2341	O234	0.000000	0.517300	0.560000
Ce271	Ce27	0.500000	0.555100	0.029400
O2351	O235	0.500000	0.482700	0.060000
Ce281	Ce28	0.000000	0.055100	0.029400
O2361	O236	0.000000	0.982700	0.060000
Ce291	Ce29	0.500000	0.444900	0.970600
O2371	O237	0.500000	0.517300	0.940000
Ce301	Ce30	0.000000	0.944900	0.970600
O2381	O238	0.000000	0.017300	0.940000
Ce311	Ce31	0.500000	0.055100	0.470600
O2391	O239	0.500000	0.982700	0.440000
Ce321	Ce32	0.000000	0.555100	0.470600
O2401	O240	0.000000	0.482700	0.440000
C7051	C705	0.255200	0.000000	0.500000
H3531	H353	0.235000	0.000000	0.500000
C7061	C706	0.314700	0.000000	0.500000
C7071	C707	0.346600	0.000000	0.500000
C7081	C708	0.407500	0.000000	0.500000
C7091	C709	0.440600	0.000000	0.500000
C7101	C710	0.755200	0.500000	0.500000
H3541	H354	0.735000	0.500000	0.500000
C7111	C711	0.814700	0.500000	0.500000
C7121	C712	0.846600	0.500000	0.500000
C7131	C713	0.907500	0.500000	0.500000
C7141	C714	0.940600	0.500000	0.500000
C7151	C715	0.744800	0.500000	0.000000
H3551	H355	0.765000	0.500000	0.000000
C7161	C716	0.685300	0.500000	0.000000
C7171	C717	0.653400	0.500000	0.000000
C7181	C718	0.592500	0.500000	0.000000
C7191	C719	0.559400	0.500000	0.000000
C7201	C720	0.244800	0.000000	0.000000
H3561	H356	0.265000	0.000000	0.000000
C7211	C721	0.185300	0.000000	0.000000
C7221	C722	0.153400	0.000000	0.000000
C7231	C723	0.092500	0.000000	0.000000
C7241	C724	0.059400	0.000000	0.000000
C7251	C725	0.744800	0.000000	0.500000
H3571	H357	0.765000	0.000000	0.500000
C7261	C726	0.685300	0.000000	0.500000
C7271	C727	0.653400	0.000000	0.500000
C7281	C728	0.592500	0.000000	0.500000
C7291	C729	0.559400	0.000000	0.500000
C7301	C730	0.244800	0.500000	0.500000
H3581	H358	0.265000	0.500000	0.500000
C7311	C731	0.185300	0.500000	0.500000
C7321	C732	0.153400	0.500000	0.500000
C7331	C733	0.092500	0.500000	0.500000
C7341	C734	0.059400	0.500000	0.500000
C7351	C735	0.255200	0.500000	0.000000
H3591	H359	0.235000	0.500000	0.000000
C7361	C736	0.314700	0.500000	0.000000
C7371	C737	0.346600	0.500000	0.000000
C7381	C738	0.407500	0.500000	0.000000
C7391	C739	0.440600	0.500000	0.000000
C7401	C740	0.755200	0.000000	0.000000
H3601	H360	0.735000	0.000000	0.000000
C7411	C741	0.814700	0.000000	0.000000
C7421	C742	0.846600	0.000000	0.000000
C7431	C743	0.907500	0.000000	0.000000
C7441	C744	0.940600	0.000000	0.000000
