data_DUKDOD01_freeONLY_PM
_symmetry_space_group_name_H-M	'P1'
_cell_length_a	16.210700
_cell_length_b	14.978100
_cell_length_c	7.957300
_cell_angle_alpha	90.000000
_cell_angle_beta	92.069000
_cell_angle_gamma	90.000000
_symmetry_Int_Tables_number 1

loop_
_symmetry_equiv_pos_as_xyz
'x,y,z'

loop_
_atom_site_label
_atom_site_type_symbol
_atom_site_fract_x
_atom_site_fract_y
_atom_site_fract_z
Ag11	Ag1	0.026980	0.259290	0.399790
Ho11	Ho1	0.545220	0.383740	0.949870
C11	C1	0.867000	0.328100	0.540600
H11	H1	0.893900	0.382100	0.524500
C21	C2	0.788700	0.329000	0.605300
H21	H2	0.764000	0.382800	0.633500
C31	C3	0.747300	0.248600	0.627800
C41	C4	0.787100	0.170200	0.585500
H31	H3	0.761200	0.115400	0.599100
C51	C5	0.865600	0.174200	0.522800
H41	H4	0.891800	0.121200	0.495200
C61	C6	0.662400	0.249100	0.697700
C71	C7	0.211900	0.252800	0.294000
H51	H5	0.209300	0.192900	0.323800
C81	C8	0.285800	0.286900	0.243000
H61	H6	0.332300	0.250600	0.238700
C91	C9	0.290000	0.376500	0.198000
C101	C10	0.219600	0.427400	0.206100
H71	H7	0.220700	0.487500	0.177200
C111	C11	0.147600	0.388700	0.257200
H81	H8	0.100200	0.423600	0.260500
C121	C12	0.368300	0.418700	0.139600
C131	C13	0.430900	0.458300	0.713600
C141	C14	0.364700	0.493200	0.596100
H91	H9	0.327300	0.445700	0.565300
H101	H10	0.335100	0.539900	0.650500
H111	H11	0.389100	0.516400	0.497100
N11	N1	0.905210	0.251700	0.500300
N21	N2	0.143300	0.302900	0.302300
O11	O1	0.641090	0.315440	0.781100
O21	O2	0.617120	0.181100	0.668500
O31	O3	0.425210	0.366970	0.095800
O41	O4	0.370960	0.502960	0.141300
O51	O5	0.451360	0.502660	0.843000
O61	O6	0.465930	0.384750	0.687500
O71	O7	0.501410	0.231550	0.923700
H121	H12	0.485000	0.199000	0.997000
H131	H13	0.520000	0.199000	0.853000
Ag21	Ag2	0.973020	0.759290	0.100210
Ho21	Ho2	0.454780	0.883740	0.550130
C151	C15	0.133000	0.828100	0.959400
H141	H14	0.106100	0.882100	0.975500
C161	C16	0.211300	0.829000	0.894700
H151	H15	0.236000	0.882800	0.866500
C171	C17	0.252700	0.748600	0.872200
C181	C18	0.212900	0.670200	0.914500
H161	H16	0.238800	0.615400	0.900900
C191	C19	0.134400	0.674200	0.977200
H171	H17	0.108200	0.621200	0.004800
C201	C20	0.337600	0.749100	0.802300
C211	C21	0.788100	0.752800	0.206000
H181	H18	0.790700	0.692900	0.176200
C221	C22	0.714200	0.786900	0.257000
H191	H19	0.667700	0.750600	0.261300
C231	C23	0.710000	0.876500	0.302000
C241	C24	0.780400	0.927400	0.293900
H201	H20	0.779300	0.987500	0.322800
C251	C25	0.852400	0.888700	0.242800
H211	H21	0.899800	0.923600	0.239500
C261	C26	0.631700	0.918700	0.360400
C271	C27	0.569100	0.958300	0.786400
C281	C28	0.635300	0.993200	0.903900
H221	H22	0.672700	0.945700	0.934700
H231	H23	0.664900	0.039900	0.849500
H241	H24	0.610900	0.016400	0.002900
N31	N3	0.094790	0.751700	0.999700
N41	N4	0.856700	0.802900	0.197700
O81	O8	0.358910	0.815440	0.718900
O91	O9	0.382880	0.681100	0.831500
O101	O10	0.574790	0.866970	0.404200
O111	O11	0.629040	0.002960	0.358700
O121	O12	0.548640	0.002660	0.657000
O131	O13	0.534070	0.884750	0.812500
O141	O14	0.498590	0.731550	0.576300
H251	H25	0.515000	0.699000	0.503000
H261	H26	0.480000	0.699000	0.647000
Ag31	Ag3	0.973020	0.740710	0.600210
Ho31	Ho3	0.454780	0.616260	0.050130
C291	C29	0.133000	0.671900	0.459400
H271	H27	0.106100	0.617900	0.475500
C301	C30	0.211300	0.671000	0.394700
H281	H28	0.236000	0.617200	0.366500
C311	C31	0.252700	0.751400	0.372200
C321	C32	0.212900	0.829800	0.414500
H291	H29	0.238800	0.884600	0.400900
C331	C33	0.134400	0.825800	0.477200
H301	H30	0.108200	0.878800	0.504800
C341	C34	0.337600	0.750900	0.302300
C351	C35	0.788100	0.747200	0.706000
H311	H31	0.790700	0.807100	0.676200
C361	C36	0.714200	0.713100	0.757000
H321	H32	0.667700	0.749400	0.761300
C371	C37	0.710000	0.623500	0.802000
C381	C38	0.780400	0.572600	0.793900
H331	H33	0.779300	0.512500	0.822800
C391	C39	0.852400	0.611300	0.742800
H341	H34	0.899800	0.576400	0.739500
C401	C40	0.631700	0.581300	0.860400
C411	C41	0.569100	0.541700	0.286400
C421	C42	0.635300	0.506800	0.403900
H351	H35	0.672700	0.554300	0.434700
H361	H36	0.664900	0.460100	0.349500
H371	H37	0.610900	0.483600	0.502900
N51	N5	0.094790	0.748300	0.499700
N61	N6	0.856700	0.697100	0.697700
O151	O15	0.358910	0.684560	0.218900
O161	O16	0.382880	0.818900	0.331500
O171	O17	0.574790	0.633030	0.904200
O181	O18	0.629040	0.497040	0.858700
O191	O19	0.548640	0.497340	0.157000
O201	O20	0.534070	0.615250	0.312500
O211	O21	0.498590	0.768450	0.076300
H381	H38	0.515000	0.801000	0.003000
H391	H39	0.480000	0.801000	0.147000
Ag41	Ag4	0.026980	0.240710	0.899790
Ho41	Ho4	0.545220	0.116260	0.449870
C431	C43	0.867000	0.171900	0.040600
H401	H40	0.893900	0.117900	0.024500
C441	C44	0.788700	0.171000	0.105300
H411	H41	0.764000	0.117200	0.133500
C451	C45	0.747300	0.251400	0.127800
C461	C46	0.787100	0.329800	0.085500
H421	H42	0.761200	0.384600	0.099100
C471	C47	0.865600	0.325800	0.022800
H431	H43	0.891800	0.378800	0.995200
C481	C48	0.662400	0.250900	0.197700
C491	C49	0.211900	0.247200	0.794000
H441	H44	0.209300	0.307100	0.823800
C501	C50	0.285800	0.213100	0.743000
H451	H45	0.332300	0.249400	0.738700
C511	C51	0.290000	0.123500	0.698000
C521	C52	0.219600	0.072600	0.706100
H461	H46	0.220700	0.012500	0.677200
C531	C53	0.147600	0.111300	0.757200
H471	H47	0.100200	0.076400	0.760500
C541	C54	0.368300	0.081300	0.639600
C551	C55	0.430900	0.041700	0.213600
C561	C56	0.364700	0.006800	0.096100
H481	H48	0.327300	0.054300	0.065300
H491	H49	0.335100	0.960100	0.150500
H501	H50	0.389100	0.983600	0.997100
N71	N7	0.905210	0.248300	0.000300
N81	N8	0.143300	0.197100	0.802300
O221	O22	0.641090	0.184560	0.281100
O231	O23	0.617120	0.318900	0.168500
O241	O24	0.425210	0.133030	0.595800
O251	O25	0.370960	0.997040	0.641300
O261	O26	0.451360	0.997340	0.343000
O271	O27	0.465930	0.115250	0.187500
O281	O28	0.501410	0.268450	0.423700
H511	H51	0.485000	0.301000	0.497000
H521	H52	0.520000	0.301000	0.353000
