data_DUKMON_freeONLY_PM
_symmetry_space_group_name_H-M	'P1'
_cell_length_a	9.685900
_cell_length_b	16.914000
_cell_length_c	18.412000
_cell_angle_alpha	90.000000
_cell_angle_beta	115.160000
_cell_angle_gamma	90.000000
_symmetry_Int_Tables_number 1

loop_
_symmetry_equiv_pos_as_xyz
'x,y,z'

loop_
_atom_site_label
_atom_site_type_symbol
_atom_site_fract_x
_atom_site_fract_y
_atom_site_fract_z
Co11	Co1	0.576400	0.292220	0.707330
O11	O1	0.828300	0.348300	0.699000
O21	O2	0.626200	0.286000	0.613300
O31	O3	0.543400	0.244800	0.333400
O41	O4	0.722100	0.277800	0.295000
O51	O5	0.120600	0.421000	0.542700
N11	N1	0.549600	0.404000	0.738400
N21	N2	0.460800	0.498400	0.788300
N31	N3	0.363400	0.246900	0.646400
N41	N4	0.162600	0.197000	0.547200
C11	C1	0.751900	0.321900	0.630600
C21	C2	0.803200	0.332200	0.565200
C31	C3	0.716200	0.302400	0.489200
H11	H1	0.626100	0.275600	0.479100
C41	C4	0.762400	0.312300	0.428200
C51	C5	0.898000	0.352700	0.443400
H21	H2	0.929500	0.359900	0.402700
C61	C6	0.985100	0.381900	0.519900
C71	C7	0.936700	0.372200	0.580500
H31	H3	0.994500	0.392600	0.631300
C81	C8	0.668600	0.276400	0.347300
C91	C9	0.186700	0.427300	0.486200
H41	H4	0.121700	0.458600	0.440200
H51	H5	0.199500	0.375300	0.467700
C101	C10	0.338900	0.466900	0.529800
H61	H6	0.401100	0.435100	0.576100
H71	H7	0.323600	0.517900	0.549200
C111	C11	0.423900	0.478600	0.477600
H81	H8	0.360600	0.508900	0.430400
H91	H9	0.442800	0.427400	0.459700
C121	C12	0.250400	0.233200	0.671500
H101	H10	0.257700	0.244000	0.722600
C131	C13	0.305000	0.224400	0.570300
H111	H11	0.355800	0.227200	0.537300
C141	C14	0.128200	0.202200	0.611200
H121	H12	0.037300	0.187100	0.612800
C151	C15	0.066500	0.160300	0.469500
H131	H13	0.119600	0.160800	0.435200
H141	H14	0.972700	0.190200	0.443100
C161	C16	0.030400	0.077000	0.482600
C171	C17	0.140400	0.019000	0.504500
H151	H15	0.236800	0.031200	0.508300
C181	C18	0.889700	0.056600	0.479000
H161	H16	0.813700	0.094900	0.465100
C191	C19	0.440000	0.425700	0.758300
H171	H17	0.357500	0.393800	0.752100
C201	C20	0.642000	0.468300	0.755300
H181	H18	0.729100	0.471600	0.746200
C211	C21	0.590400	0.526100	0.786900
H191	H19	0.634900	0.575400	0.804300
C221	C22	0.374400	0.534700	0.828400
H201	H20	0.270000	0.515800	0.803500
H211	H21	0.372400	0.591600	0.821000
C231	C23	0.441700	0.516500	0.917600
C241	C24	0.488300	0.440800	0.946600
H221	H22	0.480300	0.400500	0.910700
C251	C25	0.453900	0.576100	0.972700
H231	H23	0.422800	0.627200	0.954700
Co21	Co2	0.423600	0.792220	0.792670
O61	O6	0.171700	0.848300	0.801000
O71	O7	0.373800	0.786000	0.886700
O81	O8	0.456600	0.744800	0.166600
O91	O9	0.277900	0.777800	0.205000
O101	O10	0.879400	0.921000	0.957300
N51	N5	0.450400	0.904000	0.761600
N61	N6	0.539200	0.998400	0.711700
N71	N7	0.636600	0.746900	0.853600
N81	N8	0.837400	0.697000	0.952800
C261	C26	0.248100	0.821900	0.869400
C271	C27	0.196800	0.832200	0.934800
C281	C28	0.283800	0.802400	0.010800
H241	H24	0.373900	0.775600	0.020900
C291	C29	0.237600	0.812300	0.071800
C301	C30	0.102000	0.852700	0.056600
H251	H25	0.070500	0.859900	0.097300
C311	C31	0.014900	0.881900	0.980100
C321	C32	0.063300	0.872200	0.919500
H261	H26	0.005500	0.892600	0.868700
C331	C33	0.331400	0.776400	0.152700
C341	C34	0.813300	0.927300	0.013800
H271	H27	0.878300	0.958600	0.059800
H281	H28	0.800500	0.875300	0.032300
C351	C35	0.661100	0.966900	0.970200
H291	H29	0.598900	0.935100	0.923900
H301	H30	0.676400	0.017900	0.950800
C361	C36	0.576100	0.978600	0.022400
H311	H31	0.639400	0.008900	0.069600
H321	H32	0.557200	0.927400	0.040300
C371	C37	0.749600	0.733200	0.828500
H331	H33	0.742300	0.744000	0.777400
C381	C38	0.695000	0.724400	0.929700
H341	H34	0.644200	0.727200	0.962700
C391	C39	0.871800	0.702200	0.888800
H351	H35	0.962700	0.687100	0.887200
C401	C40	0.933500	0.660300	0.030500
H361	H36	0.880400	0.660800	0.064800
H371	H37	0.027300	0.690200	0.056900
C411	C41	0.969600	0.577000	0.017400
C421	C42	0.859600	0.519000	0.995500
H381	H38	0.763200	0.531200	0.991700
C431	C43	0.110300	0.556600	0.021000
H391	H39	0.186300	0.594900	0.034900
C441	C44	0.560000	0.925700	0.741700
H401	H40	0.642500	0.893800	0.747900
C451	C45	0.358000	0.968300	0.744700
H411	H41	0.270900	0.971600	0.753800
C461	C46	0.409600	0.026100	0.713100
H421	H42	0.365100	0.075400	0.695700
C471	C47	0.625600	0.034700	0.671600
H431	H43	0.730000	0.015800	0.696500
H441	H44	0.627600	0.091600	0.679000
C481	C48	0.558300	0.016500	0.582400
C491	C49	0.511700	0.940800	0.553400
H451	H45	0.519700	0.900500	0.589300
C501	C50	0.546100	0.076100	0.527300
H461	H46	0.577200	0.127200	0.545300
Co31	Co3	0.423600	0.707780	0.292670
O111	O11	0.171700	0.651700	0.301000
O121	O12	0.373800	0.714000	0.386700
O131	O13	0.456600	0.755200	0.666600
O141	O14	0.277900	0.722200	0.705000
O151	O15	0.879400	0.579000	0.457300
N91	N9	0.450400	0.596000	0.261600
N101	N10	0.539200	0.501600	0.211700
N111	N11	0.636600	0.753100	0.353600
N121	N12	0.837400	0.803000	0.452800
C511	C51	0.248100	0.678100	0.369400
C521	C52	0.196800	0.667800	0.434800
C531	C53	0.283800	0.697600	0.510800
H471	H47	0.373900	0.724400	0.520900
C541	C54	0.237600	0.687700	0.571800
C551	C55	0.102000	0.647300	0.556600
H481	H48	0.070500	0.640100	0.597300
C561	C56	0.014900	0.618100	0.480100
C571	C57	0.063300	0.627800	0.419500
H491	H49	0.005500	0.607400	0.368700
C581	C58	0.331400	0.723600	0.652700
C591	C59	0.813300	0.572700	0.513800
H501	H50	0.878300	0.541400	0.559800
H511	H51	0.800500	0.624700	0.532300
C601	C60	0.661100	0.533100	0.470200
H521	H52	0.598900	0.564900	0.423900
H531	H53	0.676400	0.482100	0.450800
C611	C61	0.576100	0.521400	0.522400
H541	H54	0.639400	0.491100	0.569600
H551	H55	0.557200	0.572600	0.540300
C621	C62	0.749600	0.766800	0.328500
H561	H56	0.742300	0.756000	0.277400
C631	C63	0.695000	0.775600	0.429700
H571	H57	0.644200	0.772800	0.462700
C641	C64	0.871800	0.797800	0.388800
H581	H58	0.962700	0.812900	0.387200
C651	C65	0.933500	0.839700	0.530500
H591	H59	0.880400	0.839200	0.564800
H601	H60	0.027300	0.809800	0.556900
C661	C66	0.969600	0.923000	0.517400
C671	C67	0.859600	0.981000	0.495500
H611	H61	0.763200	0.968800	0.491700
C681	C68	0.110300	0.943400	0.521000
H621	H62	0.186300	0.905100	0.534900
C691	C69	0.560000	0.574300	0.241700
H631	H63	0.642500	0.606200	0.247900
C701	C70	0.358000	0.531700	0.244700
H641	H64	0.270900	0.528400	0.253800
C711	C71	0.409600	0.473900	0.213100
H651	H65	0.365100	0.424600	0.195700
C721	C72	0.625600	0.465300	0.171600
H661	H66	0.730000	0.484200	0.196500
H671	H67	0.627600	0.408400	0.179000
C731	C73	0.558300	0.483500	0.082400
C741	C74	0.511700	0.559200	0.053400
H681	H68	0.519700	0.599500	0.089300
C751	C75	0.546100	0.423900	0.027300
H691	H69	0.577200	0.372800	0.045300
Co41	Co4	0.576400	0.207780	0.207330
O161	O16	0.828300	0.151700	0.199000
O171	O17	0.626200	0.214000	0.113300
O181	O18	0.543400	0.255200	0.833400
O191	O19	0.722100	0.222200	0.795000
O201	O20	0.120600	0.079000	0.042700
N131	N13	0.549600	0.096000	0.238400
N141	N14	0.460800	0.001600	0.288300
N151	N15	0.363400	0.253100	0.146400
N161	N16	0.162600	0.303000	0.047200
C761	C76	0.751900	0.178100	0.130600
C771	C77	0.803200	0.167800	0.065200
C781	C78	0.716200	0.197600	0.989200
H701	H70	0.626100	0.224400	0.979100
C791	C79	0.762400	0.187700	0.928200
C801	C80	0.898000	0.147300	0.943400
H711	H71	0.929500	0.140100	0.902700
C811	C81	0.985100	0.118100	0.019900
C821	C82	0.936700	0.127800	0.080500
H721	H72	0.994500	0.107400	0.131300
C831	C83	0.668600	0.223600	0.847300
C841	C84	0.186700	0.072700	0.986200
H731	H73	0.121700	0.041400	0.940200
H741	H74	0.199500	0.124700	0.967700
C851	C85	0.338900	0.033100	0.029800
H751	H75	0.401100	0.064900	0.076100
H761	H76	0.323600	0.982100	0.049200
C861	C86	0.423900	0.021400	0.977600
H771	H77	0.360600	0.991100	0.930400
H781	H78	0.442800	0.072600	0.959700
C871	C87	0.250400	0.266800	0.171500
H791	H79	0.257700	0.256000	0.222600
C881	C88	0.305000	0.275600	0.070300
H801	H80	0.355800	0.272800	0.037300
C891	C89	0.128200	0.297800	0.111200
H811	H81	0.037300	0.312900	0.112800
C901	C90	0.066500	0.339700	0.969500
H821	H82	0.119600	0.339200	0.935200
H831	H83	0.972700	0.309800	0.943100
C911	C91	0.030400	0.423000	0.982600
C921	C92	0.140400	0.481000	0.004500
H841	H84	0.236800	0.468800	0.008300
C931	C93	0.889700	0.443400	0.979000
H851	H85	0.813700	0.405100	0.965100
C941	C94	0.440000	0.074300	0.258300
H861	H86	0.357500	0.106200	0.252100
C951	C95	0.642000	0.031700	0.255300
H871	H87	0.729100	0.028400	0.246200
C961	C96	0.590400	0.973900	0.286900
H881	H88	0.634900	0.924600	0.304300
C971	C97	0.374400	0.965300	0.328400
H891	H89	0.270000	0.984200	0.303500
H901	H90	0.372400	0.908400	0.321000
C981	C98	0.441700	0.983500	0.417600
C991	C99	0.488300	0.059200	0.446600
H911	H91	0.480300	0.099500	0.410700
C1001	C100	0.453900	0.923900	0.472700
H921	H92	0.422800	0.872800	0.454700
