data_DUKYOZ_freeONLY_PM
_symmetry_space_group_name_H-M	'P1'
_cell_length_a	15.215900
_cell_length_b	9.061100
_cell_length_c	7.753300
_cell_angle_alpha	90.000000
_cell_angle_beta	90.000000
_cell_angle_gamma	90.000000
_symmetry_Int_Tables_number 1

loop_
_symmetry_equiv_pos_as_xyz
'x,y,z'

loop_
_atom_site_label
_atom_site_type_symbol
_atom_site_fract_x
_atom_site_fract_y
_atom_site_fract_z
C11	C1	0.543170	0.539950	0.480510
C21	C2	0.618040	0.470730	0.417230
H11	H1	0.614530	0.372810	0.373980
C31	C3	0.698050	0.544770	0.417230
H21	H2	0.749220	0.497460	0.373980
C41	C4	0.703180	0.688040	0.480510
C51	C5	0.628310	0.757260	0.543800
H31	H3	0.631820	0.855180	0.587050
C61	C6	0.548300	0.683220	0.543800
H41	H4	0.497130	0.730530	0.587050
C71	C7	0.789150	0.767600	0.480510
C81	C8	0.819610	0.857560	0.607570
C91	C9	0.772860	0.894220	0.772010
H51	H5	0.814740	0.914710	0.859670
H61	H6	0.736650	0.978350	0.754770
H71	H7	0.737480	0.812900	0.806060
N11	N1	0.900000	0.908360	0.559040
N21	N2	0.919220	0.849810	0.401990
C101	C10	0.850710	0.762820	0.353460
C111	C11	0.844200	0.676860	0.189020
H81	H8	0.781310	0.617040	0.185690
H91	H9	0.847740	0.752850	0.078600
H101	H10	0.898750	0.597440	0.181790
C121	C12	0.456830	0.460050	0.480510
C131	C13	0.381960	0.529270	0.417230
H111	H11	0.385470	0.627190	0.373980
C141	C14	0.301950	0.455230	0.417230
H121	H12	0.250780	0.502540	0.373980
C151	C15	0.296820	0.311960	0.480510
C161	C16	0.371690	0.242740	0.543800
H131	H13	0.368180	0.144820	0.587050
C171	C17	0.451700	0.316780	0.543800
H141	H14	0.502870	0.269470	0.587050
C181	C18	0.210850	0.232400	0.480510
C191	C19	0.180390	0.142440	0.607570
C201	C20	0.227140	0.105780	0.772010
H151	H15	0.185260	0.085290	0.859670
H161	H16	0.263350	0.021650	0.754770
H171	H17	0.262520	0.187100	0.806060
N31	N3	0.100000	0.091640	0.559040
N41	N4	0.080780	0.150190	0.401990
C211	C21	0.149290	0.237180	0.353460
C221	C22	0.155800	0.323140	0.189020
H181	H18	0.218690	0.382960	0.185690
H191	H19	0.152260	0.247150	0.078600
H201	H20	0.101250	0.402560	0.181790
C231	C23	0.543170	0.460050	0.980510
C241	C24	0.618040	0.529270	0.917230
H211	H21	0.614530	0.627190	0.873980
C251	C25	0.698050	0.455230	0.917230
H221	H22	0.749220	0.502540	0.873980
C261	C26	0.703180	0.311960	0.980510
C271	C27	0.628310	0.242740	0.043800
H231	H23	0.631820	0.144820	0.087050
C281	C28	0.548300	0.316780	0.043800
H241	H24	0.497130	0.269470	0.087050
C291	C29	0.789150	0.232400	0.980510
C301	C30	0.819610	0.142440	0.107570
C311	C31	0.772860	0.105780	0.272010
H251	H25	0.814740	0.085290	0.359670
H261	H26	0.736650	0.021650	0.254770
H271	H27	0.737480	0.187100	0.306060
N51	N5	0.900000	0.091640	0.059040
N61	N6	0.919220	0.150190	0.901990
C321	C32	0.850710	0.237180	0.853460
C331	C33	0.844200	0.323140	0.689020
H281	H28	0.781310	0.382960	0.685690
H291	H29	0.847740	0.247150	0.578600
H301	H30	0.898750	0.402560	0.681790
C341	C34	0.456830	0.539950	0.980510
C351	C35	0.381960	0.470730	0.917230
H311	H31	0.385470	0.372810	0.873980
C361	C36	0.301950	0.544770	0.917230
H321	H32	0.250780	0.497460	0.873980
C371	C37	0.296820	0.688040	0.980510
C381	C38	0.371690	0.757260	0.043800
H331	H33	0.368180	0.855180	0.087050
C391	C39	0.451700	0.683220	0.043800
H341	H34	0.502870	0.730530	0.087050
C401	C40	0.210850	0.767600	0.980510
C411	C41	0.180390	0.857560	0.107570
C421	C42	0.227140	0.894220	0.272010
H351	H35	0.185260	0.914710	0.359670
H361	H36	0.263350	0.978350	0.254770
H371	H37	0.262520	0.812900	0.306060
N71	N7	0.100000	0.908360	0.059040
N81	N8	0.080780	0.849810	0.901990
C431	C43	0.149290	0.762820	0.853460
C441	C44	0.155800	0.676860	0.689020
H381	H38	0.218690	0.617040	0.685690
H391	H39	0.152260	0.752850	0.578600
H401	H40	0.101250	0.597440	0.681790
Cd11	Cd1	0.000000	0.000000	0.250000
Cd21	Cd2	0.000000	0.000000	0.750000
