data_DUMXIU_freeONLY_PM
_symmetry_space_group_name_H-M	'P1'
_cell_length_a	10.129800
_cell_length_b	17.093400
_cell_length_c	11.084600
_cell_angle_alpha	90.000000
_cell_angle_beta	108.696000
_cell_angle_gamma	90.000000
_symmetry_Int_Tables_number 1

loop_
_symmetry_equiv_pos_as_xyz
'x,y,z'

loop_
_atom_site_label
_atom_site_type_symbol
_atom_site_fract_x
_atom_site_fract_y
_atom_site_fract_z
Dy11	Dy1	0.008930	0.004050	0.683180
O11	O1	0.226200	0.984440	0.654000
O21	O2	0.849500	0.912640	0.718300
O31	O3	0.204200	0.024210	0.890900
O41	O4	0.322500	0.926670	0.999300
N11	N1	0.224800	0.951840	0.911500
O51	O5	0.136500	0.905920	0.836500
O61	O6	0.065800	0.139860	0.671000
O71	O7	0.209300	0.951720	0.452500
O81	O8	0.024800	0.084840	0.482500
N21	N2	0.712000	0.921340	0.685300
C11	C1	0.427900	0.941640	0.613200
C21	C2	0.489400	0.902920	0.534800
H11	H1	0.434100	0.883700	0.456400
C31	C3	0.631100	0.892720	0.572000
H21	H2	0.671500	0.866200	0.519400
N31	N3	0.944900	0.368490	0.379400
C41	C4	0.274600	0.959890	0.569700
O91	O9	0.912900	0.439290	0.327200
C51	C5	0.655700	0.957460	0.764700
H31	H3	0.712900	0.975900	0.842900
C61	C6	0.888100	0.304130	0.312400
H41	H4	0.827300	0.309200	0.229800
C71	C7	0.514200	0.967140	0.730800
H51	H5	0.475700	0.991000	0.787100
C81	C8	0.919600	0.231510	0.365300
H61	H6	0.881900	0.187300	0.317900
C91	C9	0.036300	0.145070	0.552000
C101	C10	0.060900	0.291110	0.557500
H71	H7	0.117600	0.287600	0.641900
C111	C11	0.030100	0.362980	0.500600
H81	H8	0.068000	0.408000	0.545700
C121	C12	0.007800	0.223590	0.489900
Dy21	Dy2	0.991070	0.504050	0.816820
O101	O10	0.773800	0.484440	0.846000
O111	O11	0.150500	0.412640	0.781700
O121	O12	0.795800	0.524210	0.609100
O131	O13	0.677500	0.426670	0.500700
N41	N4	0.775200	0.451840	0.588500
O141	O14	0.863500	0.405920	0.663500
O151	O15	0.934200	0.639860	0.829000
O161	O16	0.790700	0.451720	0.047500
O171	O17	0.975200	0.584840	0.017500
N51	N5	0.288000	0.421340	0.814700
C131	C13	0.572100	0.441640	0.886800
C141	C14	0.510600	0.402920	0.965200
H91	H9	0.565900	0.383700	0.043600
C151	C15	0.368900	0.392720	0.928000
H101	H10	0.328500	0.366200	0.980600
N61	N6	0.055100	0.868490	0.120600
C161	C16	0.725400	0.459890	0.930300
O181	O18	0.087100	0.939290	0.172800
C171	C17	0.344300	0.457460	0.735300
H111	H11	0.287100	0.475900	0.657100
C181	C18	0.111900	0.804130	0.187600
H121	H12	0.172700	0.809200	0.270200
C191	C19	0.485800	0.467140	0.769200
H131	H13	0.524300	0.491000	0.712900
C201	C20	0.080400	0.731510	0.134700
H141	H14	0.118100	0.687300	0.182100
C211	C21	0.963700	0.645070	0.948000
C221	C22	0.939100	0.791110	0.942500
H151	H15	0.882400	0.787600	0.858100
C231	C23	0.969900	0.862980	0.999400
H161	H16	0.932000	0.908000	0.954300
C241	C24	0.992200	0.723590	0.010100
Dy31	Dy3	0.991070	0.995950	0.316820
O191	O19	0.773800	0.015560	0.346000
O201	O20	0.150500	0.087360	0.281700
O211	O21	0.795800	0.975790	0.109100
O221	O22	0.677500	0.073330	0.000700
N71	N7	0.775200	0.048160	0.088500
O231	O23	0.863500	0.094080	0.163500
O241	O24	0.934200	0.860140	0.329000
O251	O25	0.790700	0.048280	0.547500
O261	O26	0.975200	0.915160	0.517500
N81	N8	0.288000	0.078660	0.314700
C251	C25	0.572100	0.058360	0.386800
C261	C26	0.510600	0.097080	0.465200
H171	H17	0.565900	0.116300	0.543600
C271	C27	0.368900	0.107280	0.428000
H181	H18	0.328500	0.133800	0.480600
N91	N9	0.055100	0.631510	0.620600
C281	C28	0.725400	0.040110	0.430300
O271	O27	0.087100	0.560710	0.672800
C291	C29	0.344300	0.042540	0.235300
H191	H19	0.287100	0.024100	0.157100
C301	C30	0.111900	0.695870	0.687600
H201	H20	0.172700	0.690800	0.770200
C311	C31	0.485800	0.032860	0.269200
H211	H21	0.524300	0.009000	0.212900
C321	C32	0.080400	0.768490	0.634700
H221	H22	0.118100	0.812700	0.682100
C331	C33	0.963700	0.854930	0.448000
C341	C34	0.939100	0.708890	0.442500
H231	H23	0.882400	0.712400	0.358100
C351	C35	0.969900	0.637020	0.499400
H241	H24	0.932000	0.592000	0.454300
C361	C36	0.992200	0.776410	0.510100
Dy41	Dy4	0.008930	0.495950	0.183180
O281	O28	0.226200	0.515560	0.154000
O291	O29	0.849500	0.587360	0.218300
O301	O30	0.204200	0.475790	0.390900
O311	O31	0.322500	0.573330	0.499300
N101	N10	0.224800	0.548160	0.411500
O321	O32	0.136500	0.594080	0.336500
O331	O33	0.065800	0.360140	0.171000
O341	O34	0.209300	0.548280	0.952500
O351	O35	0.024800	0.415160	0.982500
N111	N11	0.712000	0.578660	0.185300
C371	C37	0.427900	0.558360	0.113200
C381	C38	0.489400	0.597080	0.034800
H251	H25	0.434100	0.616300	0.956400
C391	C39	0.631100	0.607280	0.072000
H261	H26	0.671500	0.633800	0.019400
N121	N12	0.944900	0.131510	0.879400
C401	C40	0.274600	0.540110	0.069700
O361	O36	0.912900	0.060710	0.827200
C411	C41	0.655700	0.542540	0.264700
H271	H27	0.712900	0.524100	0.342900
C421	C42	0.888100	0.195870	0.812400
H281	H28	0.827300	0.190800	0.729800
C431	C43	0.514200	0.532860	0.230800
H291	H29	0.475700	0.509000	0.287100
C441	C44	0.919600	0.268490	0.865300
H301	H30	0.881900	0.312700	0.817900
C451	C45	0.036300	0.354930	0.052000
C461	C46	0.060900	0.208890	0.057500
H311	H31	0.117600	0.212400	0.141900
C471	C47	0.030100	0.137020	0.000600
H321	H32	0.068000	0.092000	0.045700
C481	C48	0.007800	0.276410	0.989900
