data_DUNJON_freeONLY_PM
_symmetry_space_group_name_H-M	'P1'
_cell_length_a	29.325000
_cell_length_b	13.413000
_cell_length_c	36.016000
_cell_angle_alpha	90.000000
_cell_angle_beta	90.000000
_cell_angle_gamma	90.000000
_symmetry_Int_Tables_number 1

loop_
_symmetry_equiv_pos_as_xyz
'x,y,z'

loop_
_atom_site_label
_atom_site_type_symbol
_atom_site_fract_x
_atom_site_fract_y
_atom_site_fract_z
W11	W1	0.543140	0.673410	0.350500
W21	W2	0.469420	0.702930	0.423970
W31	W3	0.421760	0.450860	0.410280
W41	W4	0.494120	0.252330	0.408790
W51	W5	0.619180	0.451870	0.348140
W61	W6	0.660960	0.520400	0.435050
W71	W7	0.584370	0.735920	0.437350
W81	W8	0.617760	0.287770	0.423600
W91	W9	0.494560	0.422020	0.335840
Co11	Co1	0.586520	0.424100	0.504720
Co21	Co2	0.521050	0.613940	0.507060
P11	P1	0.541030	0.491700	0.426480
O11	O1	0.505400	0.430800	0.405300
O21	O2	0.589000	0.454800	0.414800
O31	O3	0.533900	0.480100	0.468600
O41	O4	0.536600	0.602100	0.414400
O51	O5	0.494500	0.271100	0.458300
O61	O6	0.432800	0.314200	0.408500
O71	O7	0.493000	0.292000	0.355900
O81	O8	0.364100	0.461500	0.408600
O91	O9	0.479800	0.128000	0.403300
O101	O10	0.559400	0.246600	0.405900
O111	O11	0.438200	0.590900	0.405700
O121	O12	0.598100	0.306100	0.469800
O131	O13	0.648800	0.176100	0.425500
O141	O14	0.628700	0.326400	0.369800
O151	O15	0.566000	0.539600	0.539900
O161	O16	0.571900	0.685600	0.481400
O171	O17	0.636800	0.506700	0.479500
O181	O18	0.611500	0.846000	0.447900
O191	O19	0.521200	0.784000	0.435600
O201	O20	0.579300	0.750200	0.381900
O211	O21	0.632800	0.647700	0.426500
O221	O22	0.426600	0.790100	0.427400
O231	O23	0.469900	0.650100	0.470800
O241	O24	0.490300	0.724400	0.373000
O251	O25	0.592900	0.583700	0.345000
O261	O26	0.559500	0.407600	0.335100
O271	O27	0.663600	0.508500	0.379200
O281	O28	0.544200	0.745000	0.310500
O291	O29	0.480700	0.398900	0.289800
O301	O30	0.647600	0.441300	0.307200
O311	O31	0.437200	0.448200	0.357500
O321	O32	0.668300	0.376100	0.431300
O331	O33	0.504100	0.559000	0.337100
O341	O34	0.717700	0.554900	0.442100
Co31	Co3	0.530130	0.823390	0.261490
C11	C1	0.700700	0.689100	0.171100
C21	C2	0.729800	0.679900	0.113900
C31	C3	0.775800	0.688800	0.163100
C41	C4	0.722500	0.675300	0.072800
C51	C5	0.822500	0.693900	0.181100
C61	C6	0.826500	0.710300	0.218500
H11	H1	0.801000	0.722200	0.233200
C71	C7	0.860700	0.677100	0.159500
H21	H2	0.858600	0.670000	0.133900
C81	C8	0.902000	0.671200	0.177800
H31	H3	0.927500	0.653600	0.163900
C91	C9	0.302600	0.927400	0.388400
C101	C10	0.270400	0.944900	0.332500
C111	C11	0.345800	0.942000	0.338500
C121	C12	0.392500	0.940900	0.320300
C131	C13	0.429900	0.927600	0.342000
H41	H4	0.428400	0.932100	0.367700
C141	C14	0.471100	0.906300	0.323200
H51	H5	0.497000	0.894300	0.337400
C151	C15	0.297700	0.913300	0.429300
C161	C16	0.255800	0.906600	0.446200
H61	H6	0.229200	0.911500	0.432300
C171	C17	0.228700	0.951200	0.308200
C181	C18	0.185100	0.944300	0.323500
H71	H7	0.181600	0.937000	0.349000
C191	C19	0.147600	0.948100	0.301300
H81	H8	0.118800	0.944600	0.312000
C201	C20	0.438200	0.924700	0.266400
H91	H9	0.440500	0.926400	0.240700
C211	C21	0.869300	0.708500	0.233400
H101	H10	0.872400	0.721300	0.258700
C221	C22	0.659300	0.696500	0.194500
C231	C23	0.615800	0.696200	0.178400
H111	H11	0.612000	0.681400	0.153300
C241	C24	0.395100	0.945900	0.282800
H121	H12	0.369800	0.962400	0.268400
C251	C25	0.579600	0.717800	0.200100
H131	H13	0.550800	0.717800	0.189400
C261	C26	0.232800	0.961900	0.270400
H141	H14	0.261300	0.966900	0.259300
C271	C27	0.254000	0.892400	0.483700
H151	H15	0.225400	0.884200	0.494400
C281	C28	0.663200	0.708900	0.232000
H161	H16	0.691400	0.702500	0.243600
C291	C29	0.624800	0.730900	0.252300
H171	H17	0.627600	0.740300	0.277800
C301	C30	0.757000	0.646400	0.049800
H181	H18	0.785300	0.629300	0.059500
C311	C31	0.749600	0.643000	0.012800
H191	H19	0.773600	0.623500	0.997600
C321	C32	0.680900	0.696700	0.057200
H201	H20	0.656000	0.713700	0.071800
C331	C33	0.677500	0.692300	0.019900
H211	H21	0.649600	0.709500	0.009400
C341	C34	0.335800	0.907900	0.451100
H221	H22	0.364700	0.913700	0.440700
C351	C35	0.330200	0.893400	0.489300
H231	H23	0.356300	0.885900	0.503700
C361	C36	0.194400	0.965000	0.249600
H241	H24	0.197600	0.973100	0.224100
N11	N1	0.475200	0.902600	0.286000
N21	N2	0.290600	0.889600	0.506100
N31	N3	0.264000	0.933400	0.368500
N41	N4	0.344100	0.933500	0.375100
N51	N5	0.310000	0.951700	0.315800
N61	N6	0.693300	0.681500	0.134700
N71	N7	0.741100	0.694100	0.186500
N81	N8	0.772600	0.685000	0.126500
N91	N9	0.907800	0.689100	0.213500
N101	N10	0.151500	0.957100	0.263500
N111	N11	0.582900	0.739300	0.236300
N121	N12	0.710700	0.665400	0.997000
O351	O35	0.484000	0.712300	0.246200
Co41	Co4	0.284320	0.890350	0.565230
O361	O36	0.255700	0.750200	0.569400
O371	O37	0.278200	0.904600	0.622600
O381	O38	0.311800	0.032700	0.565800
O391	O39	0.636000	0.360600	0.541100
O401	O40	0.575300	0.935400	0.278100
W101	W10	0.956860	0.326590	0.850500
W111	W11	0.030580	0.297070	0.923970
W121	W12	0.078240	0.549140	0.910280
W131	W13	0.005880	0.747670	0.908790
W141	W14	0.880820	0.548130	0.848140
W151	W15	0.839040	0.479600	0.935050
W161	W16	0.915630	0.264080	0.937350
W171	W17	0.882240	0.712230	0.923600
W181	W18	0.005440	0.577980	0.835840
Co51	Co5	0.913480	0.575900	0.004720
Co61	Co6	0.978950	0.386060	0.007060
P21	P2	0.958970	0.508300	0.926480
O411	O41	0.994600	0.569200	0.905300
O421	O42	0.911000	0.545200	0.914800
O431	O43	0.966100	0.519900	0.968600
O441	O44	0.963400	0.397900	0.914400
O451	O45	0.005500	0.728900	0.958300
O461	O46	0.067200	0.685800	0.908500
O471	O47	0.007000	0.708000	0.855900
O481	O48	0.135900	0.538500	0.908600
O491	O49	0.020200	0.872000	0.903300
O501	O50	0.940600	0.753400	0.905900
O511	O51	0.061800	0.409100	0.905700
O521	O52	0.901900	0.693900	0.969800
O531	O53	0.851200	0.823900	0.925500
O541	O54	0.871300	0.673600	0.869800
O551	O55	0.934000	0.460400	0.039900
O561	O56	0.928100	0.314400	0.981400
O571	O57	0.863200	0.493300	0.979500
O581	O58	0.888500	0.154000	0.947900
O591	O59	0.978800	0.216000	0.935600
O601	O60	0.920700	0.249800	0.881900
O611	O61	0.867200	0.352300	0.926500
O621	O62	0.073400	0.209900	0.927400
O631	O63	0.030100	0.349900	0.970800
O641	O64	0.009700	0.275600	0.873000
O651	O65	0.907100	0.416300	0.845000
O661	O66	0.940500	0.592400	0.835100
O671	O67	0.836400	0.491500	0.879200
O681	O68	0.955800	0.255000	0.810500
O691	O69	0.019300	0.601100	0.789800
O701	O70	0.852400	0.558700	0.807200
O711	O71	0.062800	0.551800	0.857500
O721	O72	0.831700	0.623900	0.931300
O731	O73	0.995900	0.441000	0.837100
O741	O74	0.782300	0.445100	0.942100
Co71	Co7	0.969870	0.176610	0.761490
C371	C37	0.799300	0.310900	0.671100
C381	C38	0.770200	0.320100	0.613900
C391	C39	0.724200	0.311200	0.663100
C401	C40	0.777500	0.324700	0.572800
C411	C41	0.677500	0.306100	0.681100
C421	C42	0.673500	0.289700	0.718500
H251	H25	0.699000	0.277800	0.733200
C431	C43	0.639300	0.322900	0.659500
H261	H26	0.641400	0.330000	0.633900
C441	C44	0.598000	0.328800	0.677800
H271	H27	0.572500	0.346400	0.663900
C451	C45	0.197400	0.072600	0.888400
C461	C46	0.229600	0.055100	0.832500
C471	C47	0.154200	0.058000	0.838500
C481	C48	0.107500	0.059100	0.820300
C491	C49	0.070100	0.072400	0.842000
H281	H28	0.071600	0.067900	0.867700
C501	C50	0.028900	0.093700	0.823200
H291	H29	0.003000	0.105700	0.837400
C511	C51	0.202300	0.086700	0.929300
C521	C52	0.244200	0.093400	0.946200
H301	H30	0.270800	0.088500	0.932300
C531	C53	0.271300	0.048800	0.808200
C541	C54	0.314900	0.055700	0.823500
H311	H31	0.318400	0.063000	0.849000
C551	C55	0.352400	0.051900	0.801300
H321	H32	0.381200	0.055400	0.812000
C561	C56	0.061800	0.075300	0.766400
H331	H33	0.059500	0.073600	0.740700
C571	C57	0.630700	0.291500	0.733400
H341	H34	0.627600	0.278700	0.758700
C581	C58	0.840700	0.303500	0.694500
C591	C59	0.884200	0.303800	0.678400
H351	H35	0.888000	0.318600	0.653300
C601	C60	0.104900	0.054100	0.782800
H361	H36	0.130200	0.037600	0.768400
C611	C61	0.920400	0.282200	0.700100
H371	H37	0.949200	0.282200	0.689400
C621	C62	0.267200	0.038100	0.770400
H381	H38	0.238700	0.033100	0.759300
C631	C63	0.246000	0.107600	0.983700
H391	H39	0.274600	0.115800	0.994400
C641	C64	0.836800	0.291100	0.732000
H401	H40	0.808600	0.297500	0.743600
C651	C65	0.875200	0.269100	0.752300
H411	H41	0.872400	0.259700	0.777800
C661	C66	0.743000	0.353600	0.549800
H421	H42	0.714700	0.370700	0.559500
C671	C67	0.750400	0.357000	0.512800
H431	H43	0.726400	0.376500	0.497600
C681	C68	0.819100	0.303300	0.557200
H441	H44	0.844000	0.286300	0.571800
C691	C69	0.822500	0.307700	0.519900
H451	H45	0.850400	0.290500	0.509400
C701	C70	0.164200	0.092100	0.951100
H461	H46	0.135300	0.086300	0.940700
C711	C71	0.169800	0.106600	0.989300
H471	H47	0.143700	0.114100	0.003700
C721	C72	0.305600	0.035000	0.749600
H481	H48	0.302400	0.026900	0.724100
N131	N13	0.024800	0.097400	0.786000
N141	N14	0.209400	0.110400	0.006100
N151	N15	0.236000	0.066600	0.868500
N161	N16	0.155900	0.066500	0.875100
N171	N17	0.190000	0.048300	0.815800
N181	N18	0.806700	0.318500	0.634700
N191	N19	0.758900	0.305900	0.686500
N201	N20	0.727400	0.315000	0.626500
N211	N21	0.592200	0.310900	0.713500
N221	N22	0.348500	0.042900	0.763500
N231	N23	0.917100	0.260700	0.736300
N241	N24	0.789300	0.334600	0.497000
O751	O75	0.016000	0.287700	0.746200
Co81	Co8	0.215680	0.109650	0.065230
O761	O76	0.244300	0.249800	0.069400
O771	O77	0.221800	0.095400	0.122600
O781	O78	0.188200	0.967300	0.065800
O791	O79	0.864000	0.639400	0.041100
O801	O80	0.924700	0.064600	0.778100
W191	W19	0.456860	0.173410	0.149500
W201	W20	0.530580	0.202930	0.076030
W211	W21	0.578240	0.950860	0.089720
W221	W22	0.505880	0.752330	0.091210
W231	W23	0.380820	0.951870	0.151860
W241	W24	0.339040	0.020400	0.064950
W251	W25	0.415630	0.235920	0.062650
W261	W26	0.382240	0.787770	0.076400
W271	W27	0.505440	0.922020	0.164160
Co91	Co9	0.413480	0.924100	0.995280
Co101	Co10	0.478950	0.113940	0.992940
P31	P3	0.458970	0.991700	0.073520
O811	O81	0.494600	0.930800	0.094700
O821	O82	0.411000	0.954800	0.085200
O831	O83	0.466100	0.980100	0.031400
O841	O84	0.463400	0.102100	0.085600
O851	O85	0.505500	0.771100	0.041700
O861	O86	0.567200	0.814200	0.091500
O871	O87	0.507000	0.792000	0.144100
O881	O88	0.635900	0.961500	0.091400
O891	O89	0.520200	0.628000	0.096700
O901	O90	0.440600	0.746600	0.094100
O911	O91	0.561800	0.090900	0.094300
O921	O92	0.401900	0.806100	0.030200
O931	O93	0.351200	0.676100	0.074500
O941	O94	0.371300	0.826400	0.130200
O951	O95	0.434000	0.039600	0.960100
O961	O96	0.428100	0.185600	0.018600
O971	O97	0.363200	0.006700	0.020500
O981	O98	0.388500	0.346000	0.052100
O991	O99	0.478800	0.284000	0.064400
O1001	O100	0.420700	0.250200	0.118100
O1011	O101	0.367200	0.147700	0.073500
O1021	O102	0.573400	0.290100	0.072600
O1031	O103	0.530100	0.150100	0.029200
O1041	O104	0.509700	0.224400	0.127000
O1051	O105	0.407100	0.083700	0.155000
O1061	O106	0.440500	0.907600	0.164900
O1071	O107	0.336400	0.008500	0.120800
O1081	O108	0.455800	0.245000	0.189500
O1091	O109	0.519300	0.898900	0.210200
O1101	O110	0.352400	0.941300	0.192800
O1111	O111	0.562800	0.948200	0.142500
O1121	O112	0.331700	0.876100	0.068700
O1131	O113	0.495900	0.059000	0.162900
O1141	O114	0.282300	0.054900	0.057900
Co111	Co11	0.469870	0.323390	0.238510
C731	C73	0.299300	0.189100	0.328900
C741	C74	0.270200	0.179900	0.386100
C751	C75	0.224200	0.188800	0.336900
C761	C76	0.277500	0.175300	0.427200
C771	C77	0.177500	0.193900	0.318900
C781	C78	0.173500	0.210300	0.281500
H491	H49	0.199000	0.222200	0.266800
C791	C79	0.139300	0.177100	0.340500
H501	H50	0.141400	0.170000	0.366100
C801	C80	0.098000	0.171200	0.322200
H511	H51	0.072500	0.153600	0.336100
C811	C81	0.697400	0.427400	0.111600
C821	C82	0.729600	0.444900	0.167500
C831	C83	0.654200	0.442000	0.161500
C841	C84	0.607500	0.440900	0.179700
C851	C85	0.570100	0.427600	0.158000
H521	H52	0.571600	0.432100	0.132300
C861	C86	0.528900	0.406300	0.176800
H531	H53	0.503000	0.394300	0.162600
C871	C87	0.702300	0.413300	0.070700
C881	C88	0.744200	0.406600	0.053800
H541	H54	0.770800	0.411500	0.067700
C891	C89	0.771300	0.451200	0.191800
C901	C90	0.814900	0.444300	0.176500
H551	H55	0.818400	0.437000	0.151000
C911	C91	0.852400	0.448100	0.198700
H561	H56	0.881200	0.444600	0.188000
C921	C92	0.561800	0.424700	0.233600
H571	H57	0.559500	0.426400	0.259300
C931	C93	0.130700	0.208500	0.266600
H581	H58	0.127600	0.221300	0.241300
C941	C94	0.340700	0.196500	0.305500
C951	C95	0.384200	0.196200	0.321600
H591	H59	0.388000	0.181400	0.346700
C961	C96	0.604900	0.445900	0.217200
H601	H60	0.630200	0.462400	0.231600
C971	C97	0.420400	0.217800	0.299900
H611	H61	0.449200	0.217800	0.310600
C981	C98	0.767200	0.461900	0.229600
H621	H62	0.738700	0.466900	0.240700
C991	C99	0.746000	0.392400	0.016300
H631	H63	0.774600	0.384200	0.005600
C1001	C100	0.336800	0.208900	0.268000
H641	H64	0.308600	0.202500	0.256400
C1011	C101	0.375200	0.230900	0.247700
H651	H65	0.372400	0.240300	0.222200
C1021	C102	0.243000	0.146400	0.450200
H661	H66	0.214700	0.129300	0.440500
C1031	C103	0.250400	0.143000	0.487200
H671	H67	0.226400	0.123500	0.502400
C1041	C104	0.319100	0.196700	0.442800
H681	H68	0.344000	0.213700	0.428200
C1051	C105	0.322500	0.192300	0.480100
H691	H69	0.350400	0.209500	0.490600
C1061	C106	0.664200	0.407900	0.048900
H701	H70	0.635300	0.413700	0.059300
C1071	C107	0.669800	0.393400	0.010700
H711	H71	0.643700	0.385900	0.996300
C1081	C108	0.805600	0.465000	0.250400
H721	H72	0.802400	0.473100	0.275900
N251	N25	0.524800	0.402600	0.214000
N261	N26	0.709400	0.389600	0.993900
N271	N27	0.736000	0.433400	0.131500
N281	N28	0.655900	0.433500	0.124900
N291	N29	0.690000	0.451700	0.184200
N301	N30	0.306700	0.181500	0.365300
N311	N31	0.258900	0.194100	0.313500
N321	N32	0.227400	0.185000	0.373500
N331	N33	0.092200	0.189100	0.286500
N341	N34	0.848500	0.457100	0.236500
N351	N35	0.417100	0.239300	0.263700
N361	N36	0.289300	0.165400	0.503000
O1151	O115	0.516000	0.212300	0.253800
Co121	Co12	0.715680	0.390350	0.934770
O1161	O116	0.744300	0.250200	0.930600
O1171	O117	0.721800	0.404600	0.877400
O1181	O118	0.688200	0.532700	0.934200
O1191	O119	0.364000	0.860600	0.958900
O1201	O120	0.424700	0.435400	0.221900
W281	W28	0.043140	0.826590	0.649500
W291	W29	0.969420	0.797070	0.576030
W301	W30	0.921760	0.049140	0.589720
W311	W31	0.994120	0.247670	0.591210
W321	W32	0.119180	0.048130	0.651860
W331	W33	0.160960	0.979600	0.564950
W341	W34	0.084370	0.764080	0.562650
W351	W35	0.117760	0.212230	0.576400
W361	W36	0.994560	0.077980	0.664160
Co131	Co13	0.086520	0.075900	0.495280
Co141	Co14	0.021050	0.886060	0.492940
P41	P4	0.041030	0.008300	0.573520
O1211	O121	0.005400	0.069200	0.594700
O1221	O122	0.089000	0.045200	0.585200
O1231	O123	0.033900	0.019900	0.531400
O1241	O124	0.036600	0.897900	0.585600
O1251	O125	0.994500	0.228900	0.541700
O1261	O126	0.932800	0.185800	0.591500
O1271	O127	0.993000	0.208000	0.644100
O1281	O128	0.864100	0.038500	0.591400
O1291	O129	0.979800	0.372000	0.596700
O1301	O130	0.059400	0.253400	0.594100
O1311	O131	0.938200	0.909100	0.594300
O1321	O132	0.098100	0.193900	0.530200
O1331	O133	0.148800	0.323900	0.574500
O1341	O134	0.128700	0.173600	0.630200
O1351	O135	0.066000	0.960400	0.460100
O1361	O136	0.071900	0.814400	0.518600
O1371	O137	0.136800	0.993300	0.520500
O1381	O138	0.111500	0.654000	0.552100
O1391	O139	0.021200	0.716000	0.564400
O1401	O140	0.079300	0.749800	0.618100
O1411	O141	0.132800	0.852300	0.573500
O1421	O142	0.926600	0.709900	0.572600
O1431	O143	0.969900	0.849900	0.529200
O1441	O144	0.990300	0.775600	0.627000
O1451	O145	0.092900	0.916300	0.655000
O1461	O146	0.059500	0.092400	0.664900
O1471	O147	0.163600	0.991500	0.620800
O1481	O148	0.044200	0.755000	0.689500
O1491	O149	0.980700	0.101100	0.710200
O1501	O150	0.147600	0.058700	0.692800
O1511	O151	0.937200	0.051800	0.642500
O1521	O152	0.168300	0.123900	0.568700
O1531	O153	0.004100	0.941000	0.662900
O1541	O154	0.217700	0.945100	0.557900
Co151	Co15	0.030130	0.676610	0.738510
C1091	C109	0.200700	0.810900	0.828900
C1101	C110	0.229800	0.820100	0.886100
C1111	C111	0.275800	0.811200	0.836900
C1121	C112	0.222500	0.824700	0.927200
C1131	C113	0.322500	0.806100	0.818900
C1141	C114	0.326500	0.789700	0.781500
H731	H73	0.301000	0.777800	0.766800
C1151	C115	0.360700	0.822900	0.840500
H741	H74	0.358600	0.830000	0.866100
C1161	C116	0.402000	0.828800	0.822200
H751	H75	0.427500	0.846400	0.836100
C1171	C117	0.802600	0.572600	0.611600
C1181	C118	0.770400	0.555100	0.667500
C1191	C119	0.845800	0.558000	0.661500
C1201	C120	0.892500	0.559100	0.679700
C1211	C121	0.929900	0.572400	0.658000
H761	H76	0.928400	0.567900	0.632300
C1221	C122	0.971100	0.593700	0.676800
H771	H77	0.997000	0.605700	0.662600
C1231	C123	0.797700	0.586700	0.570700
C1241	C124	0.755800	0.593400	0.553800
H781	H78	0.729200	0.588500	0.567700
C1251	C125	0.728700	0.548800	0.691800
C1261	C126	0.685100	0.555700	0.676500
H791	H79	0.681600	0.563000	0.651000
C1271	C127	0.647600	0.551900	0.698700
H801	H80	0.618800	0.555400	0.688000
C1281	C128	0.938200	0.575300	0.733600
H811	H81	0.940500	0.573600	0.759300
C1291	C129	0.369300	0.791500	0.766600
H821	H82	0.372400	0.778700	0.741300
C1301	C130	0.159300	0.803500	0.805500
C1311	C131	0.115800	0.803800	0.821600
H831	H83	0.112000	0.818600	0.846700
C1321	C132	0.895100	0.554100	0.717200
H841	H84	0.869800	0.537600	0.731600
C1331	C133	0.079600	0.782200	0.799900
H851	H85	0.050800	0.782200	0.810600
C1341	C134	0.732800	0.538100	0.729600
H861	H86	0.761300	0.533100	0.740700
C1351	C135	0.754000	0.607600	0.516300
H871	H87	0.725400	0.615800	0.505600
C1361	C136	0.163200	0.791100	0.768000
H881	H88	0.191400	0.797500	0.756400
C1371	C137	0.124800	0.769100	0.747700
H891	H89	0.127600	0.759700	0.722200
C1381	C138	0.257000	0.853600	0.950200
H901	H90	0.285300	0.870700	0.940500
C1391	C139	0.249600	0.857000	0.987200
H911	H91	0.273600	0.876500	0.002400
C1401	C140	0.180900	0.803300	0.942800
H921	H92	0.156000	0.786300	0.928200
C1411	C141	0.177500	0.807700	0.980100
H931	H93	0.149600	0.790500	0.990600
C1421	C142	0.835800	0.592100	0.548900
H941	H94	0.864700	0.586300	0.559300
C1431	C143	0.830200	0.606600	0.510700
H951	H95	0.856300	0.614100	0.496300
C1441	C144	0.694400	0.535000	0.750400
H961	H96	0.697600	0.526900	0.775900
N371	N37	0.975200	0.597400	0.714000
N381	N38	0.790600	0.610400	0.493900
N391	N39	0.764000	0.566600	0.631500
N401	N40	0.844100	0.566500	0.624900
N411	N41	0.810000	0.548300	0.684200
N421	N42	0.193300	0.818500	0.865300
N431	N43	0.241100	0.805900	0.813500
N441	N44	0.272600	0.815000	0.873500
N451	N45	0.407800	0.810900	0.786500
N461	N46	0.651500	0.542900	0.736500
N471	N47	0.082900	0.760700	0.763700
N481	N48	0.210700	0.834600	0.003000
O1551	O155	0.984000	0.787700	0.753800
Co161	Co16	0.784320	0.609650	0.434770
O1561	O156	0.755700	0.749800	0.430600
O1571	O157	0.778200	0.595400	0.377400
O1581	O158	0.811800	0.467300	0.434200
O1591	O159	0.136000	0.139400	0.458900
O1601	O160	0.075300	0.564600	0.721900
W371	W37	0.456860	0.326590	0.649500
W381	W38	0.530580	0.297070	0.576030
W391	W39	0.578240	0.549140	0.589720
W401	W40	0.505880	0.747670	0.591210
W411	W41	0.380820	0.548130	0.651860
W421	W42	0.339040	0.479600	0.564950
W431	W43	0.415630	0.264080	0.562650
W441	W44	0.382240	0.712230	0.576400
W451	W45	0.505440	0.577980	0.664160
Co171	Co17	0.413480	0.575900	0.495280
Co181	Co18	0.478950	0.386060	0.492940
P51	P5	0.458970	0.508300	0.573520
O1611	O161	0.494600	0.569200	0.594700
O1621	O162	0.411000	0.545200	0.585200
O1631	O163	0.466100	0.519900	0.531400
O1641	O164	0.463400	0.397900	0.585600
O1651	O165	0.505500	0.728900	0.541700
O1661	O166	0.567200	0.685800	0.591500
O1671	O167	0.507000	0.708000	0.644100
O1681	O168	0.635900	0.538500	0.591400
O1691	O169	0.520200	0.872000	0.596700
O1701	O170	0.440600	0.753400	0.594100
O1711	O171	0.561800	0.409100	0.594300
O1721	O172	0.401900	0.693900	0.530200
O1731	O173	0.351200	0.823900	0.574500
O1741	O174	0.371300	0.673600	0.630200
O1751	O175	0.434000	0.460400	0.460100
O1761	O176	0.428100	0.314400	0.518600
O1771	O177	0.363200	0.493300	0.520500
O1781	O178	0.388500	0.154000	0.552100
O1791	O179	0.478800	0.216000	0.564400
O1801	O180	0.420700	0.249800	0.618100
O1811	O181	0.367200	0.352300	0.573500
O1821	O182	0.573400	0.209900	0.572600
O1831	O183	0.530100	0.349900	0.529200
O1841	O184	0.509700	0.275600	0.627000
O1851	O185	0.407100	0.416300	0.655000
O1861	O186	0.440500	0.592400	0.664900
O1871	O187	0.336400	0.491500	0.620800
O1881	O188	0.455800	0.255000	0.689500
O1891	O189	0.519300	0.601100	0.710200
O1901	O190	0.352400	0.558700	0.692800
O1911	O191	0.562800	0.551800	0.642500
O1921	O192	0.331700	0.623900	0.568700
O1931	O193	0.495900	0.441000	0.662900
O1941	O194	0.282300	0.445100	0.557900
Co191	Co19	0.469870	0.176610	0.738510
C1451	C145	0.299300	0.310900	0.828900
C1461	C146	0.270200	0.320100	0.886100
C1471	C147	0.224200	0.311200	0.836900
C1481	C148	0.277500	0.324700	0.927200
C1491	C149	0.177500	0.306100	0.818900
C1501	C150	0.173500	0.289700	0.781500
H971	H97	0.199000	0.277800	0.766800
C1511	C151	0.139300	0.322900	0.840500
H981	H98	0.141400	0.330000	0.866100
C1521	C152	0.098000	0.328800	0.822200
H991	H99	0.072500	0.346400	0.836100
C1531	C153	0.697400	0.072600	0.611600
C1541	C154	0.729600	0.055100	0.667500
C1551	C155	0.654200	0.058000	0.661500
C1561	C156	0.607500	0.059100	0.679700
C1571	C157	0.570100	0.072400	0.658000
H1001	H100	0.571600	0.067900	0.632300
C1581	C158	0.528900	0.093700	0.676800
H1011	H101	0.503000	0.105700	0.662600
C1591	C159	0.702300	0.086700	0.570700
C1601	C160	0.744200	0.093400	0.553800
H1021	H102	0.770800	0.088500	0.567700
C1611	C161	0.771300	0.048800	0.691800
C1621	C162	0.814900	0.055700	0.676500
H1031	H103	0.818400	0.063000	0.651000
C1631	C163	0.852400	0.051900	0.698700
H1041	H104	0.881200	0.055400	0.688000
C1641	C164	0.561800	0.075300	0.733600
H1051	H105	0.559500	0.073600	0.759300
C1651	C165	0.130700	0.291500	0.766600
H1061	H106	0.127600	0.278700	0.741300
C1661	C166	0.340700	0.303500	0.805500
C1671	C167	0.384200	0.303800	0.821600
H1071	H107	0.388000	0.318600	0.846700
C1681	C168	0.604900	0.054100	0.717200
H1081	H108	0.630200	0.037600	0.731600
C1691	C169	0.420400	0.282200	0.799900
H1091	H109	0.449200	0.282200	0.810600
C1701	C170	0.767200	0.038100	0.729600
H1101	H110	0.738700	0.033100	0.740700
C1711	C171	0.746000	0.107600	0.516300
H1111	H111	0.774600	0.115800	0.505600
C1721	C172	0.336800	0.291100	0.768000
H1121	H112	0.308600	0.297500	0.756400
C1731	C173	0.375200	0.269100	0.747700
H1131	H113	0.372400	0.259700	0.722200
C1741	C174	0.243000	0.353600	0.950200
H1141	H114	0.214700	0.370700	0.940500
C1751	C175	0.250400	0.357000	0.987200
H1151	H115	0.226400	0.376500	0.002400
C1761	C176	0.319100	0.303300	0.942800
H1161	H116	0.344000	0.286300	0.928200
C1771	C177	0.322500	0.307700	0.980100
H1171	H117	0.350400	0.290500	0.990600
C1781	C178	0.664200	0.092100	0.548900
H1181	H118	0.635300	0.086300	0.559300
C1791	C179	0.669800	0.106600	0.510700
H1191	H119	0.643700	0.114100	0.496300
C1801	C180	0.805600	0.035000	0.750400
H1201	H120	0.802400	0.026900	0.775900
N491	N49	0.524800	0.097400	0.714000
N501	N50	0.709400	0.110400	0.493900
N511	N51	0.736000	0.066600	0.631500
N521	N52	0.655900	0.066500	0.624900
N531	N53	0.690000	0.048300	0.684200
N541	N54	0.306700	0.318500	0.865300
N551	N55	0.258900	0.305900	0.813500
N561	N56	0.227400	0.315000	0.873500
N571	N57	0.092200	0.310900	0.786500
N581	N58	0.848500	0.042900	0.736500
N591	N59	0.417100	0.260700	0.763700
N601	N60	0.289300	0.334600	0.003000
O1951	O195	0.516000	0.287700	0.753800
Co201	Co20	0.715680	0.109650	0.434770
O1961	O196	0.744300	0.249800	0.430600
O1971	O197	0.721800	0.095400	0.377400
O1981	O198	0.688200	0.967300	0.434200
O1991	O199	0.364000	0.639400	0.458900
O2001	O200	0.424700	0.064600	0.721900
W461	W46	0.043140	0.673410	0.149500
W471	W47	0.969420	0.702930	0.076030
W481	W48	0.921760	0.450860	0.089720
W491	W49	0.994120	0.252330	0.091210
W501	W50	0.119180	0.451870	0.151860
W511	W51	0.160960	0.520400	0.064950
W521	W52	0.084370	0.735920	0.062650
W531	W53	0.117760	0.287770	0.076400
W541	W54	0.994560	0.422020	0.164160
Co211	Co21	0.086520	0.424100	0.995280
Co221	Co22	0.021050	0.613940	0.992940
P61	P6	0.041030	0.491700	0.073520
O2011	O201	0.005400	0.430800	0.094700
O2021	O202	0.089000	0.454800	0.085200
O2031	O203	0.033900	0.480100	0.031400
O2041	O204	0.036600	0.602100	0.085600
O2051	O205	0.994500	0.271100	0.041700
O2061	O206	0.932800	0.314200	0.091500
O2071	O207	0.993000	0.292000	0.144100
O2081	O208	0.864100	0.461500	0.091400
O2091	O209	0.979800	0.128000	0.096700
O2101	O210	0.059400	0.246600	0.094100
O2111	O211	0.938200	0.590900	0.094300
O2121	O212	0.098100	0.306100	0.030200
O2131	O213	0.148800	0.176100	0.074500
O2141	O214	0.128700	0.326400	0.130200
O2151	O215	0.066000	0.539600	0.960100
O2161	O216	0.071900	0.685600	0.018600
O2171	O217	0.136800	0.506700	0.020500
O2181	O218	0.111500	0.846000	0.052100
O2191	O219	0.021200	0.784000	0.064400
O2201	O220	0.079300	0.750200	0.118100
O2211	O221	0.132800	0.647700	0.073500
O2221	O222	0.926600	0.790100	0.072600
O2231	O223	0.969900	0.650100	0.029200
O2241	O224	0.990300	0.724400	0.127000
O2251	O225	0.092900	0.583700	0.155000
O2261	O226	0.059500	0.407600	0.164900
O2271	O227	0.163600	0.508500	0.120800
O2281	O228	0.044200	0.745000	0.189500
O2291	O229	0.980700	0.398900	0.210200
O2301	O230	0.147600	0.441300	0.192800
O2311	O231	0.937200	0.448200	0.142500
O2321	O232	0.168300	0.376100	0.068700
O2331	O233	0.004100	0.559000	0.162900
O2341	O234	0.217700	0.554900	0.057900
Co231	Co23	0.030130	0.823390	0.238510
C1811	C181	0.200700	0.689100	0.328900
C1821	C182	0.229800	0.679900	0.386100
C1831	C183	0.275800	0.688800	0.336900
C1841	C184	0.222500	0.675300	0.427200
C1851	C185	0.322500	0.693900	0.318900
C1861	C186	0.326500	0.710300	0.281500
H1211	H121	0.301000	0.722200	0.266800
C1871	C187	0.360700	0.677100	0.340500
H1221	H122	0.358600	0.670000	0.366100
C1881	C188	0.402000	0.671200	0.322200
H1231	H123	0.427500	0.653600	0.336100
C1891	C189	0.802600	0.927400	0.111600
C1901	C190	0.770400	0.944900	0.167500
C1911	C191	0.845800	0.942000	0.161500
C1921	C192	0.892500	0.940900	0.179700
C1931	C193	0.929900	0.927600	0.158000
H1241	H124	0.928400	0.932100	0.132300
C1941	C194	0.971100	0.906300	0.176800
H1251	H125	0.997000	0.894300	0.162600
C1951	C195	0.797700	0.913300	0.070700
C1961	C196	0.755800	0.906600	0.053800
H1261	H126	0.729200	0.911500	0.067700
C1971	C197	0.728700	0.951200	0.191800
C1981	C198	0.685100	0.944300	0.176500
H1271	H127	0.681600	0.937000	0.151000
C1991	C199	0.647600	0.948100	0.198700
H1281	H128	0.618800	0.944600	0.188000
C2001	C200	0.938200	0.924700	0.233600
H1291	H129	0.940500	0.926400	0.259300
C2011	C201	0.369300	0.708500	0.266600
H1301	H130	0.372400	0.721300	0.241300
C2021	C202	0.159300	0.696500	0.305500
C2031	C203	0.115800	0.696200	0.321600
H1311	H131	0.112000	0.681400	0.346700
C2041	C204	0.895100	0.945900	0.217200
H1321	H132	0.869800	0.962400	0.231600
C2051	C205	0.079600	0.717800	0.299900
H1331	H133	0.050800	0.717800	0.310600
C2061	C206	0.732800	0.961900	0.229600
H1341	H134	0.761300	0.966900	0.240700
C2071	C207	0.754000	0.892400	0.016300
H1351	H135	0.725400	0.884200	0.005600
C2081	C208	0.163200	0.708900	0.268000
H1361	H136	0.191400	0.702500	0.256400
C2091	C209	0.124800	0.730900	0.247700
H1371	H137	0.127600	0.740300	0.222200
C2101	C210	0.257000	0.646400	0.450200
H1381	H138	0.285300	0.629300	0.440500
C2111	C211	0.249600	0.643000	0.487200
H1391	H139	0.273600	0.623500	0.502400
C2121	C212	0.180900	0.696700	0.442800
H1401	H140	0.156000	0.713700	0.428200
C2131	C213	0.177500	0.692300	0.480100
H1411	H141	0.149600	0.709500	0.490600
C2141	C214	0.835800	0.907900	0.048900
H1421	H142	0.864700	0.913700	0.059300
C2151	C215	0.830200	0.893400	0.010700
H1431	H143	0.856300	0.885900	0.996300
C2161	C216	0.694400	0.965000	0.250400
H1441	H144	0.697600	0.973100	0.275900
N611	N61	0.975200	0.902600	0.214000
N621	N62	0.790600	0.889600	0.993900
N631	N63	0.764000	0.933400	0.131500
N641	N64	0.844100	0.933500	0.124900
N651	N65	0.810000	0.951700	0.184200
N661	N66	0.193300	0.681500	0.365300
N671	N67	0.241100	0.694100	0.313500
N681	N68	0.272600	0.685000	0.373500
N691	N69	0.407800	0.689100	0.286500
N701	N70	0.651500	0.957100	0.236500
N711	N71	0.082900	0.739300	0.263700
N721	N72	0.210700	0.665400	0.503000
O2351	O235	0.984000	0.712300	0.253800
Co241	Co24	0.784320	0.890350	0.934770
O2361	O236	0.755700	0.750200	0.930600
O2371	O237	0.778200	0.904600	0.877400
O2381	O238	0.811800	0.032700	0.934200
O2391	O239	0.136000	0.360600	0.958900
O2401	O240	0.075300	0.935400	0.221900
W551	W55	0.543140	0.826590	0.850500
W561	W56	0.469420	0.797070	0.923970
W571	W57	0.421760	0.049140	0.910280
W581	W58	0.494120	0.247670	0.908790
W591	W59	0.619180	0.048130	0.848140
W601	W60	0.660960	0.979600	0.935050
W611	W61	0.584370	0.764080	0.937350
W621	W62	0.617760	0.212230	0.923600
W631	W63	0.494560	0.077980	0.835840
Co251	Co25	0.586520	0.075900	0.004720
Co261	Co26	0.521050	0.886060	0.007060
P71	P7	0.541030	0.008300	0.926480
O2411	O241	0.505400	0.069200	0.905300
O2421	O242	0.589000	0.045200	0.914800
O2431	O243	0.533900	0.019900	0.968600
O2441	O244	0.536600	0.897900	0.914400
O2451	O245	0.494500	0.228900	0.958300
O2461	O246	0.432800	0.185800	0.908500
O2471	O247	0.493000	0.208000	0.855900
O2481	O248	0.364100	0.038500	0.908600
O2491	O249	0.479800	0.372000	0.903300
O2501	O250	0.559400	0.253400	0.905900
O2511	O251	0.438200	0.909100	0.905700
O2521	O252	0.598100	0.193900	0.969800
O2531	O253	0.648800	0.323900	0.925500
O2541	O254	0.628700	0.173600	0.869800
O2551	O255	0.566000	0.960400	0.039900
O2561	O256	0.571900	0.814400	0.981400
O2571	O257	0.636800	0.993300	0.979500
O2581	O258	0.611500	0.654000	0.947900
O2591	O259	0.521200	0.716000	0.935600
O2601	O260	0.579300	0.749800	0.881900
O2611	O261	0.632800	0.852300	0.926500
O2621	O262	0.426600	0.709900	0.927400
O2631	O263	0.469900	0.849900	0.970800
O2641	O264	0.490300	0.775600	0.873000
O2651	O265	0.592900	0.916300	0.845000
O2661	O266	0.559500	0.092400	0.835100
O2671	O267	0.663600	0.991500	0.879200
O2681	O268	0.544200	0.755000	0.810500
O2691	O269	0.480700	0.101100	0.789800
O2701	O270	0.647600	0.058700	0.807200
O2711	O271	0.437200	0.051800	0.857500
O2721	O272	0.668300	0.123900	0.931300
O2731	O273	0.504100	0.941000	0.837100
O2741	O274	0.717700	0.945100	0.942100
Co271	Co27	0.530130	0.676610	0.761490
C2171	C217	0.700700	0.810900	0.671100
C2181	C218	0.729800	0.820100	0.613900
C2191	C219	0.775800	0.811200	0.663100
C2201	C220	0.722500	0.824700	0.572800
C2211	C221	0.822500	0.806100	0.681100
C2221	C222	0.826500	0.789700	0.718500
H1451	H145	0.801000	0.777800	0.733200
C2231	C223	0.860700	0.822900	0.659500
H1461	H146	0.858600	0.830000	0.633900
C2241	C224	0.902000	0.828800	0.677800
H1471	H147	0.927500	0.846400	0.663900
C2251	C225	0.302600	0.572600	0.888400
C2261	C226	0.270400	0.555100	0.832500
C2271	C227	0.345800	0.558000	0.838500
C2281	C228	0.392500	0.559100	0.820300
C2291	C229	0.429900	0.572400	0.842000
H1481	H148	0.428400	0.567900	0.867700
C2301	C230	0.471100	0.593700	0.823200
H1491	H149	0.497000	0.605700	0.837400
C2311	C231	0.297700	0.586700	0.929300
C2321	C232	0.255800	0.593400	0.946200
H1501	H150	0.229200	0.588500	0.932300
C2331	C233	0.228700	0.548800	0.808200
C2341	C234	0.185100	0.555700	0.823500
H1511	H151	0.181600	0.563000	0.849000
C2351	C235	0.147600	0.551900	0.801300
H1521	H152	0.118800	0.555400	0.812000
C2361	C236	0.438200	0.575300	0.766400
H1531	H153	0.440500	0.573600	0.740700
C2371	C237	0.869300	0.791500	0.733400
H1541	H154	0.872400	0.778700	0.758700
C2381	C238	0.659300	0.803500	0.694500
C2391	C239	0.615800	0.803800	0.678400
H1551	H155	0.612000	0.818600	0.653300
C2401	C240	0.395100	0.554100	0.782800
H1561	H156	0.369800	0.537600	0.768400
C2411	C241	0.579600	0.782200	0.700100
H1571	H157	0.550800	0.782200	0.689400
C2421	C242	0.232800	0.538100	0.770400
H1581	H158	0.261300	0.533100	0.759300
C2431	C243	0.254000	0.607600	0.983700
H1591	H159	0.225400	0.615800	0.994400
C2441	C244	0.663200	0.791100	0.732000
H1601	H160	0.691400	0.797500	0.743600
C2451	C245	0.624800	0.769100	0.752300
H1611	H161	0.627600	0.759700	0.777800
C2461	C246	0.757000	0.853600	0.549800
H1621	H162	0.785300	0.870700	0.559500
C2471	C247	0.749600	0.857000	0.512800
H1631	H163	0.773600	0.876500	0.497600
C2481	C248	0.680900	0.803300	0.557200
H1641	H164	0.656000	0.786300	0.571800
C2491	C249	0.677500	0.807700	0.519900
H1651	H165	0.649600	0.790500	0.509400
C2501	C250	0.335800	0.592100	0.951100
H1661	H166	0.364700	0.586300	0.940700
C2511	C251	0.330200	0.606600	0.989300
H1671	H167	0.356300	0.614100	0.003700
C2521	C252	0.194400	0.535000	0.749600
H1681	H168	0.197600	0.526900	0.724100
N731	N73	0.475200	0.597400	0.786000
N741	N74	0.290600	0.610400	0.006100
N751	N75	0.264000	0.566600	0.868500
N761	N76	0.344100	0.566500	0.875100
N771	N77	0.310000	0.548300	0.815800
N781	N78	0.693300	0.818500	0.634700
N791	N79	0.741100	0.805900	0.686500
N801	N80	0.772600	0.815000	0.626500
N811	N81	0.907800	0.810900	0.713500
N821	N82	0.151500	0.542900	0.763500
N831	N83	0.582900	0.760700	0.736300
N841	N84	0.710700	0.834600	0.497000
O2751	O275	0.484000	0.787700	0.746200
Co281	Co28	0.284320	0.609650	0.065230
O2761	O276	0.255700	0.749800	0.069400
O2771	O277	0.278200	0.595400	0.122600
O2781	O278	0.311800	0.467300	0.065800
O2791	O279	0.636000	0.139400	0.041100
O2801	O280	0.575300	0.564600	0.778100
W641	W64	0.956860	0.173410	0.350500
W651	W65	0.030580	0.202930	0.423970
W661	W66	0.078240	0.950860	0.410280
W671	W67	0.005880	0.752330	0.408790
W681	W68	0.880820	0.951870	0.348140
W691	W69	0.839040	0.020400	0.435050
W701	W70	0.915630	0.235920	0.437350
W711	W71	0.882240	0.787770	0.423600
W721	W72	0.005440	0.922020	0.335840
Co291	Co29	0.913480	0.924100	0.504720
Co301	Co30	0.978950	0.113940	0.507060
P81	P8	0.958970	0.991700	0.426480
O2811	O281	0.994600	0.930800	0.405300
O2821	O282	0.911000	0.954800	0.414800
O2831	O283	0.966100	0.980100	0.468600
O2841	O284	0.963400	0.102100	0.414400
O2851	O285	0.005500	0.771100	0.458300
O2861	O286	0.067200	0.814200	0.408500
O2871	O287	0.007000	0.792000	0.355900
O2881	O288	0.135900	0.961500	0.408600
O2891	O289	0.020200	0.628000	0.403300
O2901	O290	0.940600	0.746600	0.405900
O2911	O291	0.061800	0.090900	0.405700
O2921	O292	0.901900	0.806100	0.469800
O2931	O293	0.851200	0.676100	0.425500
O2941	O294	0.871300	0.826400	0.369800
O2951	O295	0.934000	0.039600	0.539900
O2961	O296	0.928100	0.185600	0.481400
O2971	O297	0.863200	0.006700	0.479500
O2981	O298	0.888500	0.346000	0.447900
O2991	O299	0.978800	0.284000	0.435600
O3001	O300	0.920700	0.250200	0.381900
O3011	O301	0.867200	0.147700	0.426500
O3021	O302	0.073400	0.290100	0.427400
O3031	O303	0.030100	0.150100	0.470800
O3041	O304	0.009700	0.224400	0.373000
O3051	O305	0.907100	0.083700	0.345000
O3061	O306	0.940500	0.907600	0.335100
O3071	O307	0.836400	0.008500	0.379200
O3081	O308	0.955800	0.245000	0.310500
O3091	O309	0.019300	0.898900	0.289800
O3101	O310	0.852400	0.941300	0.307200
O3111	O311	0.062800	0.948200	0.357500
O3121	O312	0.831700	0.876100	0.431300
O3131	O313	0.995900	0.059000	0.337100
O3141	O314	0.782300	0.054900	0.442100
Co311	Co31	0.969870	0.323390	0.261490
C2531	C253	0.799300	0.189100	0.171100
C2541	C254	0.770200	0.179900	0.113900
C2551	C255	0.724200	0.188800	0.163100
C2561	C256	0.777500	0.175300	0.072800
C2571	C257	0.677500	0.193900	0.181100
C2581	C258	0.673500	0.210300	0.218500
H1691	H169	0.699000	0.222200	0.233200
C2591	C259	0.639300	0.177100	0.159500
H1701	H170	0.641400	0.170000	0.133900
C2601	C260	0.598000	0.171200	0.177800
H1711	H171	0.572500	0.153600	0.163900
C2611	C261	0.197400	0.427400	0.388400
C2621	C262	0.229600	0.444900	0.332500
C2631	C263	0.154200	0.442000	0.338500
C2641	C264	0.107500	0.440900	0.320300
C2651	C265	0.070100	0.427600	0.342000
H1721	H172	0.071600	0.432100	0.367700
C2661	C266	0.028900	0.406300	0.323200
H1731	H173	0.003000	0.394300	0.337400
C2671	C267	0.202300	0.413300	0.429300
C2681	C268	0.244200	0.406600	0.446200
H1741	H174	0.270800	0.411500	0.432300
C2691	C269	0.271300	0.451200	0.308200
C2701	C270	0.314900	0.444300	0.323500
H1751	H175	0.318400	0.437000	0.349000
C2711	C271	0.352400	0.448100	0.301300
H1761	H176	0.381200	0.444600	0.312000
C2721	C272	0.061800	0.424700	0.266400
H1771	H177	0.059500	0.426400	0.240700
C2731	C273	0.630700	0.208500	0.233400
H1781	H178	0.627600	0.221300	0.258700
C2741	C274	0.840700	0.196500	0.194500
C2751	C275	0.884200	0.196200	0.178400
H1791	H179	0.888000	0.181400	0.153300
C2761	C276	0.104900	0.445900	0.282800
H1801	H180	0.130200	0.462400	0.268400
C2771	C277	0.920400	0.217800	0.200100
H1811	H181	0.949200	0.217800	0.189400
C2781	C278	0.267200	0.461900	0.270400
H1821	H182	0.238700	0.466900	0.259300
C2791	C279	0.246000	0.392400	0.483700
H1831	H183	0.274600	0.384200	0.494400
C2801	C280	0.836800	0.208900	0.232000
H1841	H184	0.808600	0.202500	0.243600
C2811	C281	0.875200	0.230900	0.252300
H1851	H185	0.872400	0.240300	0.277800
C2821	C282	0.743000	0.146400	0.049800
H1861	H186	0.714700	0.129300	0.059500
C2831	C283	0.750400	0.143000	0.012800
H1871	H187	0.726400	0.123500	0.997600
C2841	C284	0.819100	0.196700	0.057200
H1881	H188	0.844000	0.213700	0.071800
C2851	C285	0.822500	0.192300	0.019900
H1891	H189	0.850400	0.209500	0.009400
C2861	C286	0.164200	0.407900	0.451100
H1901	H190	0.135300	0.413700	0.440700
C2871	C287	0.169800	0.393400	0.489300
H1911	H191	0.143700	0.385900	0.503700
C2881	C288	0.305600	0.465000	0.249600
H1921	H192	0.302400	0.473100	0.224100
N851	N85	0.024800	0.402600	0.286000
N861	N86	0.209400	0.389600	0.506100
N871	N87	0.236000	0.433400	0.368500
N881	N88	0.155900	0.433500	0.375100
N891	N89	0.190000	0.451700	0.315800
N901	N90	0.806700	0.181500	0.134700
N911	N91	0.758900	0.194100	0.186500
N921	N92	0.727400	0.185000	0.126500
N931	N93	0.592200	0.189100	0.213500
N941	N94	0.348500	0.457100	0.263500
N951	N95	0.917100	0.239300	0.236300
N961	N96	0.789300	0.165400	0.997000
O3151	O315	0.016000	0.212300	0.246200
Co321	Co32	0.215680	0.390350	0.565230
O3161	O316	0.244300	0.250200	0.569400
O3171	O317	0.221800	0.404600	0.622600
O3181	O318	0.188200	0.532700	0.565800
O3191	O319	0.864000	0.860600	0.541100
O3201	O320	0.924700	0.435400	0.278100
