data_DUNXUH12_freeONLY_PM
_symmetry_space_group_name_H-M	'P1'
_cell_length_a	11.220800
_cell_length_b	11.757500
_cell_length_c	16.201400
_cell_angle_alpha	90.000000
_cell_angle_beta	129.170000
_cell_angle_gamma	90.000000
_symmetry_Int_Tables_number 1

loop_
_symmetry_equiv_pos_as_xyz
'x,y,z'

loop_
_atom_site_label
_atom_site_type_symbol
_atom_site_fract_x
_atom_site_fract_y
_atom_site_fract_z
C11	C1	0.141390	0.897860	0.768110
C21	C2	0.082620	0.809640	0.695430
H11	H1	0.977100	0.789600	0.653500
C31	C3	0.179330	0.750220	0.684090
C41	C4	0.117350	0.652600	0.608290
C51	C5	0.333240	0.781110	0.744560
H21	H2	0.398800	0.741100	0.736400
C61	C6	0.391370	0.870560	0.817010
C71	C7	0.296080	0.928700	0.829790
H31	H3	0.335800	0.988800	0.880000
C81	C8	0.556290	0.904260	0.880830
O11	O1	0.062570	0.929620	0.885800
O21	O2	0.865430	0.945930	0.695870
O31	O3	0.062700	0.091710	0.794650
O41	O4	0.213560	0.579730	0.625380
O51	O5	0.974950	0.649720	0.533410
O61	O6	0.641570	0.852060	0.868770
O71	O7	0.607410	0.985910	0.945720
S11	S1	0.021660	0.973780	0.785140
Zn11	Zn1	0.176580	0.027170	0.017630
C91	C9	0.858610	0.397860	0.731890
C101	C10	0.917380	0.309640	0.804570
H41	H4	0.022900	0.289600	0.846500
C111	C11	0.820670	0.250220	0.815910
C121	C12	0.882650	0.152600	0.891710
C131	C13	0.666760	0.281110	0.755440
H51	H5	0.601200	0.241100	0.763600
C141	C14	0.608630	0.370560	0.682990
C151	C15	0.703920	0.428700	0.670210
H61	H6	0.664200	0.488800	0.620000
C161	C16	0.443710	0.404260	0.619170
O81	O8	0.937430	0.429620	0.614200
O91	O9	0.134570	0.445930	0.804130
O101	O10	0.937300	0.591710	0.705350
O111	O11	0.786440	0.079730	0.874620
O121	O12	0.025050	0.149720	0.966590
O131	O13	0.358430	0.352060	0.631230
O141	O14	0.392590	0.485910	0.554280
S21	S2	0.978340	0.473780	0.714860
Zn21	Zn2	0.823420	0.527170	0.482370
C171	C17	0.858610	0.102140	0.231890
C181	C18	0.917380	0.190360	0.304570
H71	H7	0.022900	0.210400	0.346500
C191	C19	0.820670	0.249780	0.315910
C201	C20	0.882650	0.347400	0.391710
C211	C21	0.666760	0.218890	0.255440
H81	H8	0.601200	0.258900	0.263600
C221	C22	0.608630	0.129440	0.182990
C231	C23	0.703920	0.071300	0.170210
H91	H9	0.664200	0.011200	0.120000
C241	C24	0.443710	0.095740	0.119170
O151	O15	0.937430	0.070380	0.114200
O161	O16	0.134570	0.054070	0.304130
O171	O17	0.937300	0.908290	0.205350
O181	O18	0.786440	0.420270	0.374620
O191	O19	0.025050	0.350280	0.466590
O201	O20	0.358430	0.147940	0.131230
O211	O21	0.392590	0.014090	0.054280
S31	S3	0.978340	0.026220	0.214860
Zn31	Zn3	0.823420	0.972830	0.982370
C251	C25	0.141390	0.602140	0.268110
C261	C26	0.082620	0.690360	0.195430
H101	H10	0.977100	0.710400	0.153500
C271	C27	0.179330	0.749780	0.184090
C281	C28	0.117350	0.847400	0.108290
C291	C29	0.333240	0.718890	0.244560
H111	H11	0.398800	0.758900	0.236400
C301	C30	0.391370	0.629440	0.317010
C311	C31	0.296080	0.571300	0.329790
H121	H12	0.335800	0.511200	0.380000
C321	C32	0.556290	0.595740	0.380830
O221	O22	0.062570	0.570380	0.385800
O231	O23	0.865430	0.554070	0.195870
O241	O24	0.062700	0.408290	0.294650
O251	O25	0.213560	0.920270	0.125380
O261	O26	0.974950	0.850280	0.033410
O271	O27	0.641570	0.647940	0.368770
O281	O28	0.607410	0.514090	0.445720
S41	S4	0.021660	0.526220	0.285140
Zn41	Zn4	0.176580	0.472830	0.517630
