data_DUNXUH06_freeONLY_PM
_symmetry_space_group_name_H-M	'P1'
_cell_length_a	11.265500
_cell_length_b	11.996200
_cell_length_c	12.501900
_cell_angle_alpha	90.000000
_cell_angle_beta	94.294000
_cell_angle_gamma	90.000000
_symmetry_Int_Tables_number 1

loop_
_symmetry_equiv_pos_as_xyz
'x,y,z'

loop_
_atom_site_label
_atom_site_type_symbol
_atom_site_fract_x
_atom_site_fract_y
_atom_site_fract_z
Zn11	Zn1	0.159340	0.525780	0.481530
S11	S1	0.761970	0.533720	0.284560
C11	C1	0.425070	0.633560	0.316540
C21	C2	0.412090	0.722080	0.245320
H11	H1	0.340100	0.760200	0.237400
C31	C3	0.505620	0.754490	0.185610
C41	C4	0.612770	0.696960	0.196780
H21	H2	0.675400	0.717600	0.156600
C51	C5	0.625870	0.608790	0.268120
C61	C6	0.533170	0.577490	0.328800
H31	H3	0.543400	0.519100	0.377600
C71	C7	0.323600	0.598400	0.378990
C81	C8	0.492010	0.851350	0.110100
O11	O1	0.226450	0.647190	0.366150
O21	O2	0.337140	0.518750	0.443920
O31	O3	0.560360	0.855630	0.035670
O41	O4	0.411810	0.921240	0.126430
O51	O5	0.818640	0.572610	0.388300
O61	O6	0.730540	0.418340	0.288200
O71	O7	0.830520	0.565100	0.197390
Zn21	Zn2	0.340660	0.025780	0.018470
S21	S2	0.738030	0.033720	0.215440
C91	C9	0.074930	0.133560	0.183460
C101	C10	0.087910	0.222080	0.254680
H41	H4	0.159900	0.260200	0.262600
C111	C11	0.994380	0.254490	0.314390
C121	C12	0.887230	0.196960	0.303220
H51	H5	0.824600	0.217600	0.343400
C131	C13	0.874130	0.108790	0.231880
C141	C14	0.966830	0.077490	0.171200
H61	H6	0.956600	0.019100	0.122400
C151	C15	0.176400	0.098400	0.121010
C161	C16	0.007990	0.351350	0.389900
O81	O8	0.273550	0.147190	0.133850
O91	O9	0.162860	0.018750	0.056080
O101	O10	0.939640	0.355630	0.464330
O111	O11	0.088190	0.421240	0.373570
O121	O12	0.681360	0.072610	0.111700
O131	O13	0.769460	0.918340	0.211800
O141	O14	0.669480	0.065100	0.302610
Zn31	Zn3	0.840660	0.474220	0.518470
S31	S3	0.238030	0.466280	0.715440
C171	C17	0.574930	0.366440	0.683460
C181	C18	0.587910	0.277920	0.754680
H71	H7	0.659900	0.239800	0.762600
C191	C19	0.494380	0.245510	0.814390
C201	C20	0.387230	0.303040	0.803220
H81	H8	0.324600	0.282400	0.843400
C211	C21	0.374130	0.391210	0.731880
C221	C22	0.466830	0.422510	0.671200
H91	H9	0.456600	0.480900	0.622400
C231	C23	0.676400	0.401600	0.621010
C241	C24	0.507990	0.148650	0.889900
O151	O15	0.773550	0.352810	0.633850
O161	O16	0.662860	0.481250	0.556080
O171	O17	0.439640	0.144370	0.964330
O181	O18	0.588190	0.078760	0.873570
O191	O19	0.181360	0.427390	0.611700
O201	O20	0.269460	0.581660	0.711800
O211	O21	0.169480	0.434900	0.802610
Zn41	Zn4	0.659340	0.974220	0.981530
S41	S4	0.261970	0.966280	0.784560
C251	C25	0.925070	0.866440	0.816540
C261	C26	0.912090	0.777920	0.745320
H101	H10	0.840100	0.739800	0.737400
C271	C27	0.005620	0.745510	0.685610
C281	C28	0.112770	0.803040	0.696780
H111	H11	0.175400	0.782400	0.656600
C291	C29	0.125870	0.891210	0.768120
C301	C30	0.033170	0.922510	0.828800
H121	H12	0.043400	0.980900	0.877600
C311	C31	0.823600	0.901600	0.878990
C321	C32	0.992010	0.648650	0.610100
O221	O22	0.726450	0.852810	0.866150
O231	O23	0.837140	0.981250	0.943920
O241	O24	0.060360	0.644370	0.535670
O251	O25	0.911810	0.578760	0.626430
O261	O26	0.318640	0.927390	0.888300
O271	O27	0.230540	0.081660	0.788200
O281	O28	0.330520	0.934900	0.697390
