data_DUNXUH02_freeONLY_PM
_symmetry_space_group_name_H-M	'P1'
_cell_length_a	11.289600
_cell_length_b	12.104900
_cell_length_c	16.157900
_cell_angle_alpha	90.000000
_cell_angle_beta	129.914000
_cell_angle_gamma	90.000000
_symmetry_Int_Tables_number 1

loop_
_symmetry_equiv_pos_as_xyz
'x,y,z'

loop_
_atom_site_label
_atom_site_type_symbol
_atom_site_fract_x
_atom_site_fract_y
_atom_site_fract_z
Zn11	Zn1	0.821320	0.024710	0.480980
S11	S1	0.977150	0.962440	0.715840
O11	O1	0.927200	0.925440	0.610720
O21	O2	0.133100	0.929600	0.802650
O31	O3	0.944600	0.076200	0.714600
O41	O4	0.394600	0.980060	0.557630
O51	O5	0.362100	0.854150	0.635320
O61	O6	0.784100	0.578510	0.872540
O71	O7	0.023940	0.641340	0.962610
C11	C1	0.857600	0.887580	0.731800
C21	C2	0.704900	0.920090	0.671840
H11	H1	0.666800	0.978900	0.623900
C31	C3	0.609300	0.864610	0.683690
C41	C4	0.445300	0.900800	0.621900
C51	C5	0.666900	0.775970	0.754120
H21	H2	0.602700	0.738300	0.761800
C61	C6	0.819300	0.742860	0.813310
C71	C7	0.916200	0.799830	0.802780
H31	H3	0.019000	0.779100	0.843000
C81	C8	0.881200	0.647050	0.888540
Zn21	Zn2	0.178680	0.524710	0.019020
S21	S2	0.022850	0.462440	0.784160
O81	O8	0.072800	0.425440	0.889280
O91	O9	0.866900	0.429600	0.697350
O101	O10	0.055400	0.576200	0.785400
O111	O11	0.605400	0.480060	0.942370
O121	O12	0.637900	0.354150	0.864680
O131	O13	0.215900	0.078510	0.627460
O141	O14	0.976060	0.141340	0.537390
C91	C9	0.142400	0.387580	0.768200
C101	C10	0.295100	0.420090	0.828160
H41	H4	0.333200	0.478900	0.876100
C111	C11	0.390700	0.364610	0.816310
C121	C12	0.554700	0.400800	0.878100
C131	C13	0.333100	0.275970	0.745880
H51	H5	0.397300	0.238300	0.738200
C141	C14	0.180700	0.242860	0.686690
C151	C15	0.083800	0.299830	0.697220
H61	H6	0.981000	0.279100	0.657000
C161	C16	0.118800	0.147050	0.611460
Zn31	Zn3	0.178680	0.975290	0.519020
S31	S3	0.022850	0.037560	0.284160
O151	O15	0.072800	0.074560	0.389280
O161	O16	0.866900	0.070400	0.197350
O171	O17	0.055400	0.923800	0.285400
O181	O18	0.605400	0.019940	0.442370
O191	O19	0.637900	0.145850	0.364680
O201	O20	0.215900	0.421490	0.127460
O211	O21	0.976060	0.358660	0.037390
C171	C17	0.142400	0.112420	0.268200
C181	C18	0.295100	0.079910	0.328160
H71	H7	0.333200	0.021100	0.376100
C191	C19	0.390700	0.135390	0.316310
C201	C20	0.554700	0.099200	0.378100
C211	C21	0.333100	0.224030	0.245880
H81	H8	0.397300	0.261700	0.238200
C221	C22	0.180700	0.257140	0.186690
C231	C23	0.083800	0.200170	0.197220
H91	H9	0.981000	0.220900	0.157000
C241	C24	0.118800	0.352950	0.111460
Zn41	Zn4	0.821320	0.475290	0.980980
S41	S4	0.977150	0.537560	0.215840
O221	O22	0.927200	0.574560	0.110720
O231	O23	0.133100	0.570400	0.302650
O241	O24	0.944600	0.423800	0.214600
O251	O25	0.394600	0.519940	0.057630
O261	O26	0.362100	0.645850	0.135320
O271	O27	0.784100	0.921490	0.372540
O281	O28	0.023940	0.858660	0.462610
C251	C25	0.857600	0.612420	0.231800
C261	C26	0.704900	0.579910	0.171840
H101	H10	0.666800	0.521100	0.123900
C271	C27	0.609300	0.635390	0.183690
C281	C28	0.445300	0.599200	0.121900
C291	C29	0.666900	0.724030	0.254120
H111	H11	0.602700	0.761700	0.261800
C301	C30	0.819300	0.757140	0.313310
C311	C31	0.916200	0.700170	0.302780
H121	H12	0.019000	0.720900	0.343000
C321	C32	0.881200	0.852950	0.388540
