data_DUQSAK_freeONLY_PM
_symmetry_space_group_name_H-M	'P1'
_cell_length_a	18.560000
_cell_length_b	20.499000
_cell_length_c	20.761000
_cell_angle_alpha	90.000000
_cell_angle_beta	90.000000
_cell_angle_gamma	90.000000
_symmetry_Int_Tables_number 1

loop_
_symmetry_equiv_pos_as_xyz
'x,y,z'

loop_
_atom_site_label
_atom_site_type_symbol
_atom_site_fract_x
_atom_site_fract_y
_atom_site_fract_z
Cd11	Cd1	0.619520	0.029880	0.750060
O11	O1	0.722430	0.097730	0.754240
O21	O2	0.617230	0.147100	0.748190
O31	O3	0.897600	0.400350	0.737400
O41	O4	0.796200	0.449210	0.760300
O51	O5	0.623900	0.030900	0.866320
O61	O6	0.520700	0.008600	0.822060
O71	O7	0.533560	0.024550	0.671390
O81	O8	0.640200	0.026800	0.626490
C11	C1	0.685300	0.148100	0.751800
C21	C2	0.722200	0.213500	0.750900
C31	C3	0.723900	0.250500	0.694000
C41	C4	0.693800	0.226300	0.634900
H11	H1	0.674200	0.184600	0.633300
C51	C5	0.693900	0.264500	0.581200
H21	H2	0.674800	0.248200	0.543000
C61	C6	0.722900	0.328800	0.582600
H31	H3	0.719900	0.355100	0.546300
C71	C7	0.754500	0.351500	0.636700
H41	H4	0.774000	0.393300	0.636800
C81	C8	0.758600	0.312600	0.693800
C91	C9	0.793500	0.334700	0.750000
C101	C10	0.790600	0.298000	0.807100
C111	C11	0.822700	0.321500	0.865700
H51	H5	0.846900	0.361300	0.865900
C121	C12	0.818000	0.286100	0.920500
H61	H6	0.837900	0.302000	0.958500
C131	C13	0.782600	0.224700	0.920200
H71	H7	0.780900	0.200200	0.957800
C141	C14	0.751600	0.201200	0.866500
H81	H8	0.728000	0.161100	0.867800
C151	C15	0.754200	0.236600	0.808100
C161	C16	0.832600	0.399300	0.748900
C171	C17	0.558800	0.016800	0.870100
C181	C18	0.526600	0.008000	0.936900
C191	C19	0.501100	0.946600	0.956200
C201	C20	0.501100	0.891200	0.914600
H91	H9	0.517900	0.895900	0.872700
C211	C21	0.477600	0.832400	0.933900
H101	H10	0.476700	0.797600	0.905200
C221	C22	0.454200	0.823600	0.998400
H111	H11	0.440000	0.782400	0.012200
C231	C23	0.452100	0.874600	0.040500
H121	H12	0.435900	0.868000	0.082400
C241	C24	0.525400	0.062100	0.979100
C251	C25	0.573900	0.022000	0.623200
C261	C26	0.536800	0.011100	0.558800
C271	C27	0.540900	0.949400	0.528900
C281	C28	0.580100	0.896700	0.556900
H131	H13	0.604100	0.903000	0.595800
C291	C29	0.582800	0.837600	0.527500
H141	H14	0.608000	0.803600	0.546800
C301	C30	0.547600	0.827000	0.467800
H151	H15	0.551400	0.786600	0.447700
C311	C31	0.508700	0.875000	0.439900
H161	H16	0.484800	0.866900	0.401300
C321	C32	0.496500	0.061700	0.531100
Cd21	Cd2	0.119520	0.470120	0.249940
O91	O9	0.222430	0.402270	0.245760
O101	O10	0.117230	0.352900	0.251810
O111	O11	0.397600	0.099650	0.262600
O121	O12	0.296200	0.050790	0.239700
O131	O13	0.123900	0.469100	0.133680
O141	O14	0.020700	0.491400	0.177940
O151	O15	0.033560	0.475450	0.328610
O161	O16	0.140200	0.473200	0.373510
C331	C33	0.185300	0.351900	0.248200
C341	C34	0.222200	0.286500	0.249100
C351	C35	0.223900	0.249500	0.306000
C361	C36	0.193800	0.273700	0.365100
H171	H17	0.174200	0.315400	0.366700
C371	C37	0.193900	0.235500	0.418800
H181	H18	0.174800	0.251800	0.457000
C381	C38	0.222900	0.171200	0.417400
H191	H19	0.219900	0.144900	0.453700
C391	C39	0.254500	0.148500	0.363300
H201	H20	0.274000	0.106700	0.363200
C401	C40	0.258600	0.187400	0.306200
C411	C41	0.293500	0.165300	0.250000
C421	C42	0.290600	0.202000	0.192900
C431	C43	0.322700	0.178500	0.134300
H211	H21	0.346900	0.138700	0.134100
C441	C44	0.318000	0.213900	0.079500
H221	H22	0.337900	0.198000	0.041500
C451	C45	0.282600	0.275300	0.079800
H231	H23	0.280900	0.299800	0.042200
C461	C46	0.251600	0.298800	0.133500
H241	H24	0.228000	0.338900	0.132200
C471	C47	0.254200	0.263400	0.191900
C481	C48	0.332600	0.100700	0.251100
C491	C49	0.058800	0.483200	0.129900
C501	C50	0.026600	0.492000	0.063100
C511	C51	0.001100	0.553400	0.043800
C521	C52	0.001100	0.608800	0.085400
H251	H25	0.017900	0.604100	0.127300
C531	C53	0.977600	0.667600	0.066100
H261	H26	0.976700	0.702400	0.094800
C541	C54	0.954200	0.676400	0.001600
H271	H27	0.940000	0.717600	0.987800
C551	C55	0.952100	0.625400	0.959500
H281	H28	0.935900	0.632000	0.917600
C561	C56	0.025400	0.437900	0.020900
C571	C57	0.073900	0.478000	0.376800
C581	C58	0.036800	0.488900	0.441200
C591	C59	0.040900	0.550600	0.471100
C601	C60	0.080100	0.603300	0.443100
H291	H29	0.104100	0.597000	0.404200
C611	C61	0.082800	0.662400	0.472500
H301	H30	0.108000	0.696400	0.453200
C621	C62	0.047600	0.673000	0.532200
H311	H31	0.051400	0.713400	0.552300
C631	C63	0.008700	0.625000	0.560100
H321	H32	0.984800	0.633100	0.598700
C641	C64	0.996500	0.438300	0.468900
Cd31	Cd3	0.380480	0.970120	0.249940
O171	O17	0.277570	0.902270	0.245760
O181	O18	0.382770	0.852900	0.251810
O191	O19	0.102400	0.599650	0.262600
O201	O20	0.203800	0.550790	0.239700
O211	O21	0.376100	0.969100	0.133680
O221	O22	0.479300	0.991400	0.177940
O231	O23	0.466440	0.975450	0.328610
O241	O24	0.359800	0.973200	0.373510
C651	C65	0.314700	0.851900	0.248200
C661	C66	0.277800	0.786500	0.249100
C671	C67	0.276100	0.749500	0.306000
C681	C68	0.306200	0.773700	0.365100
H331	H33	0.325800	0.815400	0.366700
C691	C69	0.306100	0.735500	0.418800
H341	H34	0.325200	0.751800	0.457000
C701	C70	0.277100	0.671200	0.417400
H351	H35	0.280100	0.644900	0.453700
C711	C71	0.245500	0.648500	0.363300
H361	H36	0.226000	0.606700	0.363200
C721	C72	0.241400	0.687400	0.306200
C731	C73	0.206500	0.665300	0.250000
C741	C74	0.209400	0.702000	0.192900
C751	C75	0.177300	0.678500	0.134300
H371	H37	0.153100	0.638700	0.134100
C761	C76	0.182000	0.713900	0.079500
H381	H38	0.162100	0.698000	0.041500
C771	C77	0.217400	0.775300	0.079800
H391	H39	0.219100	0.799800	0.042200
C781	C78	0.248400	0.798800	0.133500
H401	H40	0.272000	0.838900	0.132200
C791	C79	0.245800	0.763400	0.191900
C801	C80	0.167400	0.600700	0.251100
C811	C81	0.441200	0.983200	0.129900
C821	C82	0.473400	0.992000	0.063100
C831	C83	0.498900	0.053400	0.043800
C841	C84	0.498900	0.108800	0.085400
H411	H41	0.482100	0.104100	0.127300
C851	C85	0.522400	0.167600	0.066100
H421	H42	0.523300	0.202400	0.094800
C861	C86	0.545800	0.176400	0.001600
H431	H43	0.560000	0.217600	0.987800
C871	C87	0.547900	0.125400	0.959500
H441	H44	0.564100	0.132000	0.917600
C881	C88	0.474600	0.937900	0.020900
C891	C89	0.426100	0.978000	0.376800
C901	C90	0.463200	0.988900	0.441200
C911	C91	0.459100	0.050600	0.471100
C921	C92	0.419900	0.103300	0.443100
H451	H45	0.395900	0.097000	0.404200
C931	C93	0.417200	0.162400	0.472500
H461	H46	0.392000	0.196400	0.453200
C941	C94	0.452400	0.173000	0.532200
H471	H47	0.448600	0.213400	0.552300
C951	C95	0.491300	0.125000	0.560100
H481	H48	0.515200	0.133100	0.598700
C961	C96	0.503500	0.938300	0.468900
Cd41	Cd4	0.880480	0.529880	0.750060
O251	O25	0.777570	0.597730	0.754240
O261	O26	0.882770	0.647100	0.748190
O271	O27	0.602400	0.900350	0.737400
O281	O28	0.703800	0.949210	0.760300
O291	O29	0.876100	0.530900	0.866320
O301	O30	0.979300	0.508600	0.822060
O311	O31	0.966440	0.524550	0.671390
O321	O32	0.859800	0.526800	0.626490
C971	C97	0.814700	0.648100	0.751800
C981	C98	0.777800	0.713500	0.750900
C991	C99	0.776100	0.750500	0.694000
C1001	C100	0.806200	0.726300	0.634900
H491	H49	0.825800	0.684600	0.633300
C1011	C101	0.806100	0.764500	0.581200
H501	H50	0.825200	0.748200	0.543000
C1021	C102	0.777100	0.828800	0.582600
H511	H51	0.780100	0.855100	0.546300
C1031	C103	0.745500	0.851500	0.636700
H521	H52	0.726000	0.893300	0.636800
C1041	C104	0.741400	0.812600	0.693800
C1051	C105	0.706500	0.834700	0.750000
C1061	C106	0.709400	0.798000	0.807100
C1071	C107	0.677300	0.821500	0.865700
H531	H53	0.653100	0.861300	0.865900
C1081	C108	0.682000	0.786100	0.920500
H541	H54	0.662100	0.802000	0.958500
C1091	C109	0.717400	0.724700	0.920200
H551	H55	0.719100	0.700200	0.957800
C1101	C110	0.748400	0.701200	0.866500
H561	H56	0.772000	0.661100	0.867800
C1111	C111	0.745800	0.736600	0.808100
C1121	C112	0.667400	0.899300	0.748900
C1131	C113	0.941200	0.516800	0.870100
C1141	C114	0.973400	0.508000	0.936900
C1151	C115	0.998900	0.446600	0.956200
C1161	C116	0.998900	0.391200	0.914600
H571	H57	0.982100	0.395900	0.872700
C1171	C117	0.022400	0.332400	0.933900
H581	H58	0.023300	0.297600	0.905200
C1181	C118	0.045800	0.323600	0.998400
H591	H59	0.060000	0.282400	0.012200
C1191	C119	0.047900	0.374600	0.040500
H601	H60	0.064100	0.368000	0.082400
C1201	C120	0.974600	0.562100	0.979100
C1211	C121	0.926100	0.522000	0.623200
C1221	C122	0.963200	0.511100	0.558800
C1231	C123	0.959100	0.449400	0.528900
C1241	C124	0.919900	0.396700	0.556900
H611	H61	0.895900	0.403000	0.595800
C1251	C125	0.917200	0.337600	0.527500
H621	H62	0.892000	0.303600	0.546800
C1261	C126	0.952400	0.327000	0.467800
H631	H63	0.948600	0.286600	0.447700
C1271	C127	0.991300	0.375000	0.439900
H641	H64	0.015200	0.366900	0.401300
C1281	C128	0.003500	0.561700	0.531100
Cd51	Cd5	0.880480	0.970120	0.250060
O331	O33	0.777570	0.902270	0.254240
O341	O34	0.882770	0.852900	0.248190
O351	O35	0.602400	0.599650	0.237400
O361	O36	0.703800	0.550790	0.260300
O371	O37	0.876100	0.969100	0.366320
O381	O38	0.979300	0.991400	0.322060
O391	O39	0.966440	0.975450	0.171390
O401	O40	0.859800	0.973200	0.126490
C1291	C129	0.814700	0.851900	0.251800
C1301	C130	0.777800	0.786500	0.250900
C1311	C131	0.776100	0.749500	0.194000
C1321	C132	0.806200	0.773700	0.134900
H651	H65	0.825800	0.815400	0.133300
C1331	C133	0.806100	0.735500	0.081200
H661	H66	0.825200	0.751800	0.043000
C1341	C134	0.777100	0.671200	0.082600
H671	H67	0.780100	0.644900	0.046300
C1351	C135	0.745500	0.648500	0.136700
H681	H68	0.726000	0.606700	0.136800
C1361	C136	0.741400	0.687400	0.193800
C1371	C137	0.706500	0.665300	0.250000
C1381	C138	0.709400	0.702000	0.307100
C1391	C139	0.677300	0.678500	0.365700
H691	H69	0.653100	0.638700	0.365900
C1401	C140	0.682000	0.713900	0.420500
H701	H70	0.662100	0.698000	0.458500
C1411	C141	0.717400	0.775300	0.420200
H711	H71	0.719100	0.799800	0.457800
C1421	C142	0.748400	0.798800	0.366500
H721	H72	0.772000	0.838900	0.367800
C1431	C143	0.745800	0.763400	0.308100
C1441	C144	0.667400	0.600700	0.248900
C1451	C145	0.941200	0.983200	0.370100
C1461	C146	0.973400	0.992000	0.436900
C1471	C147	0.998900	0.053400	0.456200
C1481	C148	0.998900	0.108800	0.414600
H731	H73	0.982100	0.104100	0.372700
C1491	C149	0.022400	0.167600	0.433900
H741	H74	0.023300	0.202400	0.405200
C1501	C150	0.045800	0.176400	0.498400
H751	H75	0.060000	0.217600	0.512200
C1511	C151	0.047900	0.125400	0.540500
H761	H76	0.064100	0.132000	0.582400
C1521	C152	0.974600	0.937900	0.479100
C1531	C153	0.926100	0.978000	0.123200
C1541	C154	0.963200	0.988900	0.058800
C1551	C155	0.959100	0.050600	0.028900
C1561	C156	0.919900	0.103300	0.056900
H771	H77	0.895900	0.097000	0.095800
C1571	C157	0.917200	0.162400	0.027500
H781	H78	0.892000	0.196400	0.046800
C1581	C158	0.952400	0.173000	0.967800
H791	H79	0.948600	0.213400	0.947700
C1591	C159	0.991300	0.125000	0.939900
H801	H80	0.015200	0.133100	0.901300
C1601	C160	0.003500	0.938300	0.031100
Cd61	Cd6	0.380480	0.529880	0.749940
O411	O41	0.277570	0.597730	0.745760
O421	O42	0.382770	0.647100	0.751810
O431	O43	0.102400	0.900350	0.762600
O441	O44	0.203800	0.949210	0.739700
O451	O45	0.376100	0.530900	0.633680
O461	O46	0.479300	0.508600	0.677940
O471	O47	0.466440	0.524550	0.828610
O481	O48	0.359800	0.526800	0.873510
C1611	C161	0.314700	0.648100	0.748200
C1621	C162	0.277800	0.713500	0.749100
C1631	C163	0.276100	0.750500	0.806000
C1641	C164	0.306200	0.726300	0.865100
H811	H81	0.325800	0.684600	0.866700
C1651	C165	0.306100	0.764500	0.918800
H821	H82	0.325200	0.748200	0.957000
C1661	C166	0.277100	0.828800	0.917400
H831	H83	0.280100	0.855100	0.953700
C1671	C167	0.245500	0.851500	0.863300
H841	H84	0.226000	0.893300	0.863200
C1681	C168	0.241400	0.812600	0.806200
C1691	C169	0.206500	0.834700	0.750000
C1701	C170	0.209400	0.798000	0.692900
C1711	C171	0.177300	0.821500	0.634300
H851	H85	0.153100	0.861300	0.634100
C1721	C172	0.182000	0.786100	0.579500
H861	H86	0.162100	0.802000	0.541500
C1731	C173	0.217400	0.724700	0.579800
H871	H87	0.219100	0.700200	0.542200
C1741	C174	0.248400	0.701200	0.633500
H881	H88	0.272000	0.661100	0.632200
C1751	C175	0.245800	0.736600	0.691900
C1761	C176	0.167400	0.899300	0.751100
C1771	C177	0.441200	0.516800	0.629900
C1781	C178	0.473400	0.508000	0.563100
C1791	C179	0.498900	0.446600	0.543800
C1801	C180	0.498900	0.391200	0.585400
H891	H89	0.482100	0.395900	0.627300
C1811	C181	0.522400	0.332400	0.566100
H901	H90	0.523300	0.297600	0.594800
C1821	C182	0.545800	0.323600	0.501600
H911	H91	0.560000	0.282400	0.487800
C1831	C183	0.547900	0.374600	0.459500
H921	H92	0.564100	0.368000	0.417600
C1841	C184	0.474600	0.562100	0.520900
C1851	C185	0.426100	0.522000	0.876800
C1861	C186	0.463200	0.511100	0.941200
C1871	C187	0.459100	0.449400	0.971100
C1881	C188	0.419900	0.396700	0.943100
H931	H93	0.395900	0.403000	0.904200
C1891	C189	0.417200	0.337600	0.972500
H941	H94	0.392000	0.303600	0.953200
C1901	C190	0.452400	0.327000	0.032200
H951	H95	0.448600	0.286600	0.052300
C1911	C191	0.491300	0.375000	0.060100
H961	H96	0.515200	0.366900	0.098700
C1921	C192	0.503500	0.561700	0.968900
Cd71	Cd7	0.119520	0.029880	0.749940
O491	O49	0.222430	0.097730	0.745760
O501	O50	0.117230	0.147100	0.751810
O511	O51	0.397600	0.400350	0.762600
O521	O52	0.296200	0.449210	0.739700
O531	O53	0.123900	0.030900	0.633680
O541	O54	0.020700	0.008600	0.677940
O551	O55	0.033560	0.024550	0.828610
O561	O56	0.140200	0.026800	0.873510
C1931	C193	0.185300	0.148100	0.748200
C1941	C194	0.222200	0.213500	0.749100
C1951	C195	0.223900	0.250500	0.806000
C1961	C196	0.193800	0.226300	0.865100
H971	H97	0.174200	0.184600	0.866700
C1971	C197	0.193900	0.264500	0.918800
H981	H98	0.174800	0.248200	0.957000
C1981	C198	0.222900	0.328800	0.917400
H991	H99	0.219900	0.355100	0.953700
C1991	C199	0.254500	0.351500	0.863300
H1001	H100	0.274000	0.393300	0.863200
C2001	C200	0.258600	0.312600	0.806200
C2011	C201	0.293500	0.334700	0.750000
C2021	C202	0.290600	0.298000	0.692900
C2031	C203	0.322700	0.321500	0.634300
H1011	H101	0.346900	0.361300	0.634100
C2041	C204	0.318000	0.286100	0.579500
H1021	H102	0.337900	0.302000	0.541500
C2051	C205	0.282600	0.224700	0.579800
H1031	H103	0.280900	0.200200	0.542200
C2061	C206	0.251600	0.201200	0.633500
H1041	H104	0.228000	0.161100	0.632200
C2071	C207	0.254200	0.236600	0.691900
C2081	C208	0.332600	0.399300	0.751100
C2091	C209	0.058800	0.016800	0.629900
C2101	C210	0.026600	0.008000	0.563100
C2111	C211	0.001100	0.946600	0.543800
C2121	C212	0.001100	0.891200	0.585400
H1051	H105	0.017900	0.895900	0.627300
C2131	C213	0.977600	0.832400	0.566100
H1061	H106	0.976700	0.797600	0.594800
C2141	C214	0.954200	0.823600	0.501600
H1071	H107	0.940000	0.782400	0.487800
C2151	C215	0.952100	0.874600	0.459500
H1081	H108	0.935900	0.868000	0.417600
C2161	C216	0.025400	0.062100	0.520900
C2171	C217	0.073900	0.022000	0.876800
C2181	C218	0.036800	0.011100	0.941200
C2191	C219	0.040900	0.949400	0.971100
C2201	C220	0.080100	0.896700	0.943100
H1091	H109	0.104100	0.903000	0.904200
C2211	C221	0.082800	0.837600	0.972500
H1101	H110	0.108000	0.803600	0.953200
C2221	C222	0.047600	0.827000	0.032200
H1111	H111	0.051400	0.786600	0.052300
C2231	C223	0.008700	0.875000	0.060100
H1121	H112	0.984800	0.866900	0.098700
C2241	C224	0.996500	0.061700	0.968900
Cd81	Cd8	0.619520	0.470120	0.250060
O571	O57	0.722430	0.402270	0.254240
O581	O58	0.617230	0.352900	0.248190
O591	O59	0.897600	0.099650	0.237400
O601	O60	0.796200	0.050790	0.260300
O611	O61	0.623900	0.469100	0.366320
O621	O62	0.520700	0.491400	0.322060
O631	O63	0.533560	0.475450	0.171390
O641	O64	0.640200	0.473200	0.126490
C2251	C225	0.685300	0.351900	0.251800
C2261	C226	0.722200	0.286500	0.250900
C2271	C227	0.723900	0.249500	0.194000
C2281	C228	0.693800	0.273700	0.134900
H1131	H113	0.674200	0.315400	0.133300
C2291	C229	0.693900	0.235500	0.081200
H1141	H114	0.674800	0.251800	0.043000
C2301	C230	0.722900	0.171200	0.082600
H1151	H115	0.719900	0.144900	0.046300
C2311	C231	0.754500	0.148500	0.136700
H1161	H116	0.774000	0.106700	0.136800
C2321	C232	0.758600	0.187400	0.193800
C2331	C233	0.793500	0.165300	0.250000
C2341	C234	0.790600	0.202000	0.307100
C2351	C235	0.822700	0.178500	0.365700
H1171	H117	0.846900	0.138700	0.365900
C2361	C236	0.818000	0.213900	0.420500
H1181	H118	0.837900	0.198000	0.458500
C2371	C237	0.782600	0.275300	0.420200
H1191	H119	0.780900	0.299800	0.457800
C2381	C238	0.751600	0.298800	0.366500
H1201	H120	0.728000	0.338900	0.367800
C2391	C239	0.754200	0.263400	0.308100
C2401	C240	0.832600	0.100700	0.248900
C2411	C241	0.558800	0.483200	0.370100
C2421	C242	0.526600	0.492000	0.436900
C2431	C243	0.501100	0.553400	0.456200
C2441	C244	0.501100	0.608800	0.414600
H1211	H121	0.517900	0.604100	0.372700
C2451	C245	0.477600	0.667600	0.433900
H1221	H122	0.476700	0.702400	0.405200
C2461	C246	0.454200	0.676400	0.498400
H1231	H123	0.440000	0.717600	0.512200
C2471	C247	0.452100	0.625400	0.540500
H1241	H124	0.435900	0.632000	0.582400
C2481	C248	0.525400	0.437900	0.479100
C2491	C249	0.573900	0.478000	0.123200
C2501	C250	0.536800	0.488900	0.058800
C2511	C251	0.540900	0.550600	0.028900
C2521	C252	0.580100	0.603300	0.056900
H1251	H125	0.604100	0.597000	0.095800
C2531	C253	0.582800	0.662400	0.027500
H1261	H126	0.608000	0.696400	0.046800
C2541	C254	0.547600	0.673000	0.967800
H1271	H127	0.551400	0.713400	0.947700
C2551	C255	0.508700	0.625000	0.939900
H1281	H128	0.484800	0.633100	0.901300
C2561	C256	0.496500	0.438300	0.031100
