data_DUTKAG_freeONLY_PM
_symmetry_space_group_name_H-M	'P1'
_cell_length_a	20.658000
_cell_length_b	20.658000
_cell_length_c	13.775000
_cell_angle_alpha	90.000000
_cell_angle_beta	90.000000
_cell_angle_gamma	120.000000
_symmetry_Int_Tables_number 1

loop_
_symmetry_equiv_pos_as_xyz
'x,y,z'

loop_
_atom_site_label
_atom_site_type_symbol
_atom_site_fract_x
_atom_site_fract_y
_atom_site_fract_z
H11	H1	0.320100	0.564000	0.119900
H21	H2	0.320800	0.565800	0.279900
H31	H3	0.986770	0.897330	0.453230
H41	H4	0.987470	0.899130	0.613230
H51	H5	0.653430	0.230670	0.786570
H61	H6	0.654130	0.232470	0.946570
H71	H7	0.436000	0.756100	0.119900
H81	H8	0.434200	0.755000	0.279900
H91	H9	0.102670	0.089430	0.453230
H101	H10	0.100870	0.088330	0.613230
H111	H11	0.769330	0.422770	0.786570
H121	H12	0.767530	0.421670	0.946570
H131	H13	0.243900	0.679900	0.119900
H141	H14	0.245000	0.679200	0.279900
H151	H15	0.910570	0.013230	0.453230
H161	H16	0.911670	0.012530	0.613230
H171	H17	0.577230	0.346570	0.786570
H181	H18	0.578330	0.345870	0.946570
H191	H19	0.436000	0.679900	0.119900
H201	H20	0.434200	0.679200	0.279900
H211	H21	0.102670	0.013230	0.453230
H221	H22	0.100870	0.012530	0.613230
H231	H23	0.769330	0.346570	0.786570
H241	H24	0.767530	0.345870	0.946570
H251	H25	0.243900	0.564000	0.119900
H261	H26	0.245000	0.565800	0.279900
H271	H27	0.910570	0.897330	0.453230
H281	H28	0.911670	0.899130	0.613230
H291	H29	0.577230	0.230670	0.786570
H301	H30	0.578330	0.232470	0.946570
H311	H31	0.320100	0.756100	0.119900
H321	H32	0.320800	0.755000	0.279900
H331	H33	0.986770	0.089430	0.453230
H341	H34	0.987470	0.088330	0.613230
H351	H35	0.653430	0.422770	0.786570
H361	H36	0.654130	0.421670	0.946570
F11	F1	0.453600	0.907200	0.710900
N11	N1	0.617900	0.235800	0.452600
N21	N2	0.622450	0.244900	0.551700
N31	N3	0.587950	0.175900	0.591600
N41	N4	0.582400	0.164800	0.428500
C11	C1	0.563000	0.126000	0.514100
C21	C2	0.522350	0.044700	0.524300
C31	C3	0.504700	0.009400	0.613300
H371	H37	0.518800	0.037600	0.670000
C41	C4	0.466450	0.932900	0.618500
C51	C5	0.441600	0.883200	0.539300
C61	C6	0.461250	0.922500	0.451300
H381	H38	0.447400	0.894800	0.394100
C71	C7	0.500150	0.000300	0.443500
H391	H39	0.511150	0.022300	0.382400
C81	C8	0.403900	0.807800	0.544400
C91	C9	0.295000	0.590000	0.143400
C101	C10	0.296100	0.592200	0.256300
O11	O1	0.384900	0.769800	0.615000
O21	O2	0.385700	0.771400	0.469500
F21	F2	0.120270	0.240530	0.044230
N51	N5	0.284570	0.569130	0.785930
N61	N6	0.289120	0.578230	0.885030
N71	N7	0.254620	0.509230	0.924930
N81	N8	0.249070	0.498130	0.761830
C111	C11	0.229670	0.459330	0.847430
C121	C12	0.189020	0.378030	0.857630
C131	C13	0.171370	0.342730	0.946630
H401	H40	0.185470	0.370930	0.003330
C141	C14	0.133120	0.266230	0.951830
C151	C15	0.108270	0.216530	0.872630
C161	C16	0.127920	0.255830	0.784630
H411	H41	0.114070	0.228130	0.727430
C171	C17	0.166820	0.333630	0.776830
H421	H42	0.177820	0.355630	0.715730
C181	C18	0.070570	0.141130	0.877730
C191	C19	0.961670	0.923330	0.476730
C201	C20	0.962770	0.925530	0.589630
O31	O3	0.051570	0.103130	0.948330
O41	O4	0.052370	0.104730	0.802830
F31	F3	0.786930	0.573870	0.377570
N91	N9	0.951230	0.902470	0.119270
N101	N10	0.955780	0.911570	0.218370
N111	N11	0.921280	0.842570	0.258270
N121	N12	0.915730	0.831470	0.095170
C211	C21	0.896330	0.792670	0.180770
C221	C22	0.855680	0.711370	0.190970
C231	C23	0.838030	0.676070	0.279970
H431	H43	0.852130	0.704270	0.336670
C241	C24	0.799780	0.599570	0.285170
C251	C25	0.774930	0.549870	0.205970
C261	C26	0.794580	0.589170	0.117970
H441	H44	0.780730	0.561470	0.060770
C271	C27	0.833480	0.666970	0.110170
H451	H45	0.844480	0.688970	0.049070
C281	C28	0.737230	0.474470	0.211070
C291	C29	0.628330	0.256670	0.810070
C301	C30	0.629430	0.258870	0.922970
O51	O5	0.718230	0.436470	0.281670
O61	O6	0.719030	0.438070	0.136170
F41	F4	0.092800	0.546400	0.710900
N131	N13	0.764200	0.382100	0.452600
N141	N14	0.755100	0.377550	0.551700
N151	N15	0.824100	0.412050	0.591600
N161	N16	0.835200	0.417600	0.428500
C311	C31	0.874000	0.437000	0.514100
C321	C32	0.955300	0.477650	0.524300
C331	C33	0.990600	0.495300	0.613300
H461	H46	0.962400	0.481200	0.670000
C341	C34	0.067100	0.533550	0.618500
C351	C35	0.116800	0.558400	0.539300
C361	C36	0.077500	0.538750	0.451300
H471	H47	0.105200	0.552600	0.394100
C371	C37	0.999700	0.499850	0.443500
H481	H48	0.977700	0.488850	0.382400
C381	C38	0.192200	0.596100	0.544400
C391	C39	0.410000	0.705000	0.143400
C401	C40	0.407800	0.703900	0.256300
O71	O7	0.230200	0.615100	0.615000
O81	O8	0.228600	0.614300	0.469500
F51	F5	0.759470	0.879730	0.044230
N171	N17	0.430870	0.715430	0.785930
N181	N18	0.421770	0.710880	0.885030
N191	N19	0.490770	0.745380	0.924930
N201	N20	0.501870	0.750930	0.761830
C411	C41	0.540670	0.770330	0.847430
C421	C42	0.621970	0.810980	0.857630
C431	C43	0.657270	0.828630	0.946630
H491	H49	0.629070	0.814530	0.003330
C441	C44	0.733770	0.866880	0.951830
C451	C45	0.783470	0.891730	0.872630
C461	C46	0.744170	0.872080	0.784630
H501	H50	0.771870	0.885930	0.727430
C471	C47	0.666370	0.833180	0.776830
H511	H51	0.644370	0.822180	0.715730
C481	C48	0.858870	0.929430	0.877730
C491	C49	0.076670	0.038330	0.476730
C501	C50	0.074470	0.037230	0.589630
O91	O9	0.896870	0.948430	0.948330
O101	O10	0.895270	0.947630	0.802830
F61	F6	0.426130	0.213070	0.377570
N211	N21	0.097530	0.048770	0.119270
N221	N22	0.088430	0.044220	0.218370
N231	N23	0.157430	0.078720	0.258270
N241	N24	0.168530	0.084270	0.095170
C511	C51	0.207330	0.103670	0.180770
C521	C52	0.288630	0.144320	0.190970
C531	C53	0.323930	0.161970	0.279970
H521	H52	0.295730	0.147870	0.336670
C541	C54	0.400430	0.200220	0.285170
C551	C55	0.450130	0.225070	0.205970
C561	C56	0.410830	0.205420	0.117970
H531	H53	0.438530	0.219270	0.060770
C571	C57	0.333030	0.166520	0.110170
H541	H54	0.311030	0.155520	0.049070
C581	C58	0.525530	0.262770	0.211070
C591	C59	0.743330	0.371670	0.810070
C601	C60	0.741130	0.370570	0.922970
O111	O11	0.563530	0.281770	0.281670
O121	O12	0.561930	0.280970	0.136170
F71	F7	0.453600	0.546400	0.710900
N251	N25	0.617900	0.382100	0.452600
N261	N26	0.622450	0.377550	0.551700
N271	N27	0.587950	0.412050	0.591600
N281	N28	0.582400	0.417600	0.428500
C611	C61	0.563000	0.437000	0.514100
C621	C62	0.522350	0.477650	0.524300
C631	C63	0.504700	0.495300	0.613300
H551	H55	0.518800	0.481200	0.670000
C641	C64	0.466450	0.533550	0.618500
C651	C65	0.441600	0.558400	0.539300
C661	C66	0.461250	0.538750	0.451300
H561	H56	0.447400	0.552600	0.394100
C671	C67	0.500150	0.499850	0.443500
H571	H57	0.511150	0.488850	0.382400
C681	C68	0.403900	0.596100	0.544400
C691	C69	0.295000	0.705000	0.143400
C701	C70	0.296100	0.703900	0.256300
O131	O13	0.384900	0.615100	0.615000
O141	O14	0.385700	0.614300	0.469500
F81	F8	0.120270	0.879730	0.044230
N291	N29	0.284570	0.715430	0.785930
N301	N30	0.289120	0.710880	0.885030
N311	N31	0.254620	0.745380	0.924930
N321	N32	0.249070	0.750930	0.761830
C711	C71	0.229670	0.770330	0.847430
C721	C72	0.189020	0.810980	0.857630
C731	C73	0.171370	0.828630	0.946630
H581	H58	0.185470	0.814530	0.003330
C741	C74	0.133120	0.866880	0.951830
C751	C75	0.108270	0.891730	0.872630
C761	C76	0.127920	0.872080	0.784630
H591	H59	0.114070	0.885930	0.727430
C771	C77	0.166820	0.833180	0.776830
H601	H60	0.177820	0.822180	0.715730
C781	C78	0.070570	0.929430	0.877730
C791	C79	0.961670	0.038330	0.476730
C801	C80	0.962770	0.037230	0.589630
O151	O15	0.051570	0.948430	0.948330
O161	O16	0.052370	0.947630	0.802830
F91	F9	0.786930	0.213070	0.377570
N331	N33	0.951230	0.048770	0.119270
N341	N34	0.955780	0.044220	0.218370
N351	N35	0.921280	0.078720	0.258270
N361	N36	0.915730	0.084270	0.095170
C811	C81	0.896330	0.103670	0.180770
C821	C82	0.855680	0.144320	0.190970
C831	C83	0.838030	0.161970	0.279970
H611	H61	0.852130	0.147870	0.336670
C841	C84	0.799780	0.200220	0.285170
C851	C85	0.774930	0.225070	0.205970
C861	C86	0.794580	0.205420	0.117970
H621	H62	0.780730	0.219270	0.060770
C871	C87	0.833480	0.166520	0.110170
H631	H63	0.844480	0.155520	0.049070
C881	C88	0.737230	0.262770	0.211070
C891	C89	0.628330	0.371670	0.810070
C901	C90	0.629430	0.370570	0.922970
O171	O17	0.718230	0.281770	0.281670
O181	O18	0.719030	0.280970	0.136170
Zn11	Zn1	0.666670	0.333330	0.363260
Zn21	Zn2	0.666670	0.333330	0.623430
Zn31	Zn3	0.333330	0.666670	0.696590
Zn41	Zn4	0.333330	0.666670	0.956760
Zn51	Zn5	0.000000	0.000000	0.029930
Zn61	Zn6	0.000000	0.000000	0.290100
Zn71	Zn7	0.333330	0.666670	0.436500
N371	N37	0.333330	0.666670	0.109200
N381	N38	0.333330	0.666670	0.296600
Zn81	Zn8	0.000000	0.000000	0.769830
N391	N39	0.000000	0.000000	0.442530
N401	N40	0.000000	0.000000	0.629930
Zn91	Zn9	0.666670	0.333330	0.103170
N411	N41	0.666670	0.333330	0.775870
N421	N42	0.666670	0.333330	0.963270
