data_DUVNIS_charged_PM
_symmetry_space_group_name_H-M	'P1'
_cell_length_a	17.780000
_cell_length_b	24.580000
_cell_length_c	39.386000
_cell_angle_alpha	90.000000
_cell_angle_beta	90.000000
_cell_angle_gamma	111.203000
_symmetry_Int_Tables_number 1

loop_
_symmetry_equiv_pos_as_xyz
'x,y,z'

loop_
_atom_site_label
_atom_site_type_symbol
_atom_site_fract_x
_atom_site_fract_y
_atom_site_fract_z
Co11	Co1	0.978170	0.740980	0.061530
Co21	Co2	0.776680	0.660880	0.072180
Co31	Co3	0.554910	0.899220	0.129910
Co41	Co4	0.390270	0.921640	0.156260
Co51	Co5	0.521830	0.259020	0.061530
Co61	Co6	0.723320	0.339120	0.072180
Co71	Co7	0.945090	0.100780	0.129910
Co81	Co8	0.109730	0.078360	0.156260
Co91	Co9	0.237190	0.259020	0.438470
Co101	Co10	0.115800	0.339120	0.427820
Co111	Co11	0.655690	0.100780	0.370090
Co121	Co12	0.468630	0.078360	0.343740
Co131	Co13	0.262810	0.740980	0.438470
Co141	Co14	0.384200	0.660880	0.427820
Co151	Co15	0.844310	0.899220	0.370090
Co161	Co16	0.031370	0.921640	0.343740
Co171	Co17	0.021830	0.259020	0.938470
Co181	Co18	0.223320	0.339120	0.927820
Co191	Co19	0.445090	0.100780	0.870090
Co201	Co20	0.609730	0.078360	0.843740
Co211	Co21	0.478170	0.740980	0.938470
Co221	Co22	0.276680	0.660880	0.927820
Co231	Co23	0.054910	0.899220	0.870090
Co241	Co24	0.890270	0.921640	0.843740
Co251	Co25	0.762810	0.740980	0.561530
Co261	Co26	0.884200	0.660880	0.572180
Co271	Co27	0.344310	0.899220	0.629910
Co281	Co28	0.531370	0.921640	0.656260
Co291	Co29	0.737190	0.259020	0.561530
Co301	Co30	0.615800	0.339120	0.572180
Co311	Co31	0.155690	0.100780	0.629910
Co321	Co32	0.968630	0.078360	0.656260
Co331	Co33	0.059760	0.619520	0.250000
Co341	Co34	0.971500	0.443000	0.250000
Co351	Co35	0.440240	0.380480	0.250000
Co361	Co36	0.528500	0.557000	0.250000
Co371	Co37	0.940240	0.380480	0.750000
Co381	Co38	0.028500	0.557000	0.750000
Co391	Co39	0.559760	0.619520	0.750000
Co401	Co40	0.471500	0.443000	0.750000
H11	H1	0.992100	0.623400	0.157200
H21	H2	0.846600	0.545000	0.079600
H31	H3	0.736000	0.804400	0.116000
H41	H4	0.204900	0.719600	0.004400
H51	H5	0.871700	0.450400	0.159100
H61	H6	0.428700	0.806000	0.040300
H71	H7	0.645500	0.678400	0.109400
H81	H8	0.830300	0.970000	0.149700
H91	H9	0.504800	0.745400	0.190400
H101	H10	0.240900	0.835600	0.080700
H111	H11	0.332300	0.620600	0.241800
H121	H12	0.975700	0.885800	0.120600
H131	H13	0.288800	0.759800	0.206600
H141	H14	0.524700	0.749800	0.115100
H151	H15	0.474200	0.683000	0.119100
H161	H16	0.559400	0.709800	0.136000
H171	H17	0.480300	0.669200	0.050100
H181	H18	0.518400	0.737600	0.051200
H191	H19	0.566600	0.701800	0.035000
H201	H20	0.507900	0.376600	0.157200
H211	H21	0.653400	0.455000	0.079600
H221	H22	0.764000	0.195600	0.116000
H231	H23	0.295100	0.280400	0.004400
H241	H24	0.628300	0.549600	0.159100
H251	H25	0.071300	0.194000	0.040300
H261	H26	0.854500	0.321600	0.109400
H271	H27	0.669700	0.030000	0.149700
H281	H28	0.995200	0.254600	0.190400
H291	H29	0.259100	0.164400	0.080700
H301	H30	0.167700	0.379400	0.241800
H311	H31	0.524300	0.114200	0.120600
H321	H32	0.211200	0.240200	0.206600
H331	H33	0.975300	0.250200	0.115100
H341	H34	0.025800	0.317000	0.119100
H351	H35	0.940600	0.290200	0.136000
H361	H36	0.019700	0.330800	0.050100
H371	H37	0.981600	0.262400	0.051200
H381	H38	0.933400	0.298200	0.035000
H391	H39	0.368700	0.376600	0.342800
H401	H40	0.301600	0.455000	0.420400
H411	H41	0.931600	0.195600	0.384000
H421	H42	0.485300	0.280400	0.495600
H431	H43	0.421300	0.549600	0.340900
H441	H44	0.622700	0.194000	0.459700
H451	H45	0.967100	0.321600	0.390600
H461	H46	0.860300	0.030000	0.350300
H471	H47	0.759400	0.254600	0.309600
H481	H48	0.405300	0.164400	0.419300
H491	H49	0.711700	0.379400	0.258200
H501	H50	0.089900	0.114200	0.379400
H511	H51	0.529000	0.240200	0.293400
H521	H52	0.774900	0.250200	0.384900
H531	H53	0.791200	0.317000	0.380900
H541	H54	0.849600	0.290200	0.364000
H551	H55	0.811100	0.330800	0.449900
H561	H56	0.780800	0.262400	0.448800
H571	H57	0.864800	0.298200	0.465000
H581	H58	0.131300	0.623400	0.342800
H591	H59	0.198400	0.545000	0.420400
H601	H60	0.568400	0.804400	0.384000
H611	H61	0.014700	0.719600	0.495600
H621	H62	0.078700	0.450400	0.340900
H631	H63	0.877300	0.806000	0.459700
H641	H64	0.532900	0.678400	0.390600
H651	H65	0.639700	0.970000	0.350300
H661	H66	0.740600	0.745400	0.309600
H671	H67	0.094700	0.835600	0.419300
H681	H68	0.788300	0.620600	0.258200
H691	H69	0.410100	0.885800	0.379400
H701	H70	0.971000	0.759800	0.293400
H711	H71	0.725100	0.749800	0.384900
H721	H72	0.708800	0.683000	0.380900
H731	H73	0.650400	0.709800	0.364000
H741	H74	0.688900	0.669200	0.449900
H751	H75	0.719200	0.737600	0.448800
H761	H76	0.635200	0.701800	0.465000
H771	H77	0.007900	0.376600	0.842800
H781	H78	0.153400	0.455000	0.920400
H791	H79	0.264000	0.195600	0.884000
H801	H80	0.795100	0.280400	0.995600
H811	H81	0.128300	0.549600	0.840900
H821	H82	0.571300	0.194000	0.959700
H831	H83	0.354500	0.321600	0.890600
H841	H84	0.169700	0.030000	0.850300
H851	H85	0.495200	0.254600	0.809600
H861	H86	0.759100	0.164400	0.919300
H871	H87	0.667700	0.379400	0.758200
H881	H88	0.024300	0.114200	0.879400
H891	H89	0.711200	0.240200	0.793400
H901	H90	0.475300	0.250200	0.884900
H911	H91	0.525800	0.317000	0.880900
H921	H92	0.440600	0.290200	0.864000
H931	H93	0.519700	0.330800	0.949900
H941	H94	0.481600	0.262400	0.948800
H951	H95	0.433400	0.298200	0.965000
H961	H96	0.492100	0.623400	0.842800
H971	H97	0.346600	0.545000	0.920400
H981	H98	0.236000	0.804400	0.884000
H991	H99	0.704900	0.719600	0.995600
H1001	H100	0.371700	0.450400	0.840900
H1011	H101	0.928700	0.806000	0.959700
H1021	H102	0.145500	0.678400	0.890600
H1031	H103	0.330300	0.970000	0.850300
H1041	H104	0.004800	0.745400	0.809600
H1051	H105	0.740900	0.835600	0.919300
H1061	H106	0.832300	0.620600	0.758200
H1071	H107	0.475700	0.885800	0.879400
H1081	H108	0.788800	0.759800	0.793400
H1091	H109	0.024700	0.749800	0.884900
H1101	H110	0.974200	0.683000	0.880900
H1111	H111	0.059400	0.709800	0.864000
H1121	H112	0.980300	0.669200	0.949900
H1131	H113	0.018400	0.737600	0.948800
H1141	H114	0.066600	0.701800	0.965000
H1151	H115	0.631300	0.623400	0.657200
H1161	H116	0.698400	0.545000	0.579600
H1171	H117	0.068400	0.804400	0.616000
H1181	H118	0.514700	0.719600	0.504400
H1191	H119	0.578700	0.450400	0.659100
H1201	H120	0.377300	0.806000	0.540300
H1211	H121	0.032900	0.678400	0.609400
H1221	H122	0.139700	0.970000	0.649700
H1231	H123	0.240600	0.745400	0.690400
H1241	H124	0.594700	0.835600	0.580700
H1251	H125	0.288300	0.620600	0.741800
H1261	H126	0.910100	0.885800	0.620600
H1271	H127	0.471000	0.759800	0.706600
H1281	H128	0.225100	0.749800	0.615100
H1291	H129	0.208800	0.683000	0.619100
H1301	H130	0.150400	0.709800	0.636000
H1311	H131	0.188900	0.669200	0.550100
H1321	H132	0.219200	0.737600	0.551200
H1331	H133	0.135200	0.701800	0.535000
H1341	H134	0.868700	0.376600	0.657200
H1351	H135	0.801600	0.455000	0.579600
H1361	H136	0.431600	0.195600	0.616000
H1371	H137	0.985300	0.280400	0.504400
H1381	H138	0.921300	0.549600	0.659100
H1391	H139	0.122700	0.194000	0.540300
H1401	H140	0.467100	0.321600	0.609400
H1411	H141	0.360300	0.030000	0.649700
H1421	H142	0.259400	0.254600	0.690400
H1431	H143	0.905300	0.164400	0.580700
H1441	H144	0.211700	0.379400	0.741800
H1451	H145	0.589900	0.114200	0.620600
H1461	H146	0.029000	0.240200	0.706600
H1471	H147	0.274900	0.250200	0.615100
H1481	H148	0.291200	0.317000	0.619100
H1491	H149	0.349600	0.290200	0.636000
H1501	H150	0.311100	0.330800	0.550100
H1511	H151	0.280800	0.262400	0.551200
H1521	H152	0.364800	0.298200	0.535000
C11	C1	0.119680	0.762360	0.045500
C21	C2	0.941200	0.651400	0.098640
C31	C3	0.955750	0.589900	0.147260
C41	C4	0.868910	0.542820	0.100720
C51	C5	0.322570	0.758740	0.017680
C61	C6	0.798550	0.434100	0.099430
C71	C7	0.915000	0.936000	0.136420
C81	C8	0.780690	0.837380	0.121080
C91	C9	0.858090	0.836780	0.116140
C101	C10	0.687820	0.889040	0.135400
C111	C11	0.239440	0.746680	0.019190
C121	C12	0.209580	0.658160	0.236920
C131	C13	0.988160	0.988320	0.143120
C141	C14	0.884680	0.486160	0.148220
C151	C15	0.373460	0.797920	0.041000
C161	C16	0.920510	0.593620	0.116600
C171	C17	0.626920	0.681840	0.087760
C181	C18	0.975200	0.532000	0.197320
C191	C19	0.208110	0.775220	0.042870
C201	C20	0.937130	0.536460	0.163470
C211	C21	0.851390	0.489380	0.116600
C221	C22	0.837090	0.936780	0.141360
C231	C23	0.452800	0.730600	0.199270
C241	C24	0.341810	0.824620	0.065180
C251	C25	0.260950	0.815300	0.065470
C261	C26	0.395230	0.864060	0.091980
C271	C27	0.354490	0.731580	0.989820
C281	C28	0.349240	0.655480	0.229650
C291	C29	0.769720	0.887040	0.133590
C301	C30	0.924070	0.886140	0.123900
C311	C31	0.868440	0.784680	0.100450
C321	C32	0.322920	0.738840	0.208700
C331	C33	0.428830	0.819260	0.176920
C341	C34	0.401960	0.761720	0.195260
C351	C35	0.426770	0.676940	0.216460
C361	C36	0.482250	0.643300	0.220160
C371	C37	0.296290	0.684980	0.225080
C381	C38	0.527580	0.711560	0.116700
C391	C39	0.529600	0.702200	0.052700
C401	C40	0.095600	0.838600	0.153100
C411	C41	0.225800	0.871000	0.180400
C421	C42	0.101600	0.786200	0.202300
C431	C43	0.693800	0.978200	0.076100
C441	C44	0.380320	0.237640	0.045500
C451	C45	0.558800	0.348600	0.098640
C461	C46	0.544250	0.410100	0.147260
C471	C47	0.631090	0.457180	0.100720
C481	C48	0.177430	0.241260	0.017680
C491	C49	0.701450	0.565900	0.099430
C501	C50	0.585000	0.064000	0.136420
C511	C51	0.719310	0.162620	0.121080
C521	C52	0.641910	0.163220	0.116140
C531	C53	0.812180	0.110960	0.135400
C541	C54	0.260560	0.253320	0.019190
C551	C55	0.290420	0.341840	0.236920
C561	C56	0.511840	0.011680	0.143120
C571	C57	0.615320	0.513840	0.148220
C581	C58	0.126540	0.202080	0.041000
C591	C59	0.579490	0.406380	0.116600
C601	C60	0.873080	0.318160	0.087760
C611	C61	0.524800	0.468000	0.197320
C621	C62	0.291890	0.224780	0.042870
C631	C63	0.562870	0.463540	0.163470
C641	C64	0.648610	0.510620	0.116600
C651	C65	0.662910	0.063220	0.141360
C661	C66	0.047200	0.269400	0.199270
C671	C67	0.158190	0.175380	0.065180
C681	C68	0.239050	0.184700	0.065470
C691	C69	0.104770	0.135940	0.091980
C701	C70	0.145510	0.268420	0.989820
C711	C71	0.150760	0.344520	0.229650
C721	C72	0.730280	0.112960	0.133590
C731	C73	0.575930	0.113860	0.123900
C741	C74	0.631560	0.215320	0.100450
C751	C75	0.177080	0.261160	0.208700
C761	C76	0.071170	0.180740	0.176920
C771	C77	0.098040	0.238280	0.195260
C781	C78	0.073230	0.323060	0.216460
C791	C79	0.017750	0.356700	0.220160
C801	C80	0.203710	0.315020	0.225080
C811	C81	0.972420	0.288440	0.116700
C821	C82	0.970400	0.297800	0.052700
C831	C83	0.404400	0.161400	0.153100
C841	C84	0.274200	0.129000	0.180400
C851	C85	0.398400	0.213800	0.202300
C861	C86	0.806200	0.021800	0.076100
C871	C87	0.357320	0.237640	0.454500
C881	C88	0.289800	0.348600	0.401360
C891	C89	0.365850	0.410100	0.352740
C901	C90	0.326090	0.457180	0.399280
C911	C91	0.563830	0.241260	0.482320
C921	C92	0.364450	0.565900	0.400570
C931	C93	0.979000	0.064000	0.363580
C941	C94	0.943310	0.162620	0.378920
C951	C95	0.021310	0.163220	0.383860
C961	C96	0.798780	0.110960	0.364600
C971	C97	0.492760	0.253320	0.480810
C981	C98	0.551420	0.341840	0.263080
C991	C99	0.999840	0.011680	0.356880
C1001	C100	0.398520	0.513840	0.351780
C1011	C101	0.575540	0.202080	0.459000
C1021	C102	0.326890	0.406380	0.383400
C1031	C103	0.945080	0.318160	0.412240
C1041	C104	0.443200	0.468000	0.302680
C1051	C105	0.432890	0.224780	0.457130
C1061	C106	0.400670	0.463540	0.336530
C1071	C107	0.362010	0.510620	0.383400
C1081	C108	0.900310	0.063220	0.358640
C1091	C109	0.722200	0.269400	0.300730
C1101	C110	0.517190	0.175380	0.434820
C1111	C111	0.445650	0.184700	0.434530
C1121	C112	0.531170	0.135940	0.408020
C1131	C113	0.622910	0.268420	0.510180
C1141	C114	0.693760	0.344520	0.270350
C1151	C115	0.882680	0.112960	0.366410
C1161	C116	0.037930	0.113860	0.376100
C1171	C117	0.083760	0.215320	0.399550
C1181	C118	0.584080	0.261160	0.291300
C1191	C119	0.609570	0.180740	0.323080
C1201	C120	0.640240	0.238280	0.304740
C1211	C121	0.749830	0.323060	0.283540
C1221	C122	0.838950	0.356700	0.279840
C1231	C123	0.611310	0.315020	0.274920
C1241	C124	0.816020	0.288440	0.383300
C1251	C125	0.827400	0.297800	0.447300
C1261	C126	0.257000	0.161400	0.346900
C1271	C127	0.354800	0.129000	0.319600
C1281	C128	0.315400	0.213800	0.297700
C1291	C129	0.715600	0.021800	0.423900
C1301	C130	0.142680	0.762360	0.454500
C1311	C131	0.210200	0.651400	0.401360
C1321	C132	0.134150	0.589900	0.352740
C1331	C133	0.173910	0.542820	0.399280
C1341	C134	0.936170	0.758740	0.482320
C1351	C135	0.135550	0.434100	0.400570
C1361	C136	0.521000	0.936000	0.363580
C1371	C137	0.556690	0.837380	0.378920
C1381	C138	0.478690	0.836780	0.383860
C1391	C139	0.701220	0.889040	0.364600
C1401	C140	0.007240	0.746680	0.480810
C1411	C141	0.948580	0.658160	0.263080
C1421	C142	0.500160	0.988320	0.356880
C1431	C143	0.101480	0.486160	0.351780
C1441	C144	0.924460	0.797920	0.459000
C1451	C145	0.173110	0.593620	0.383400
C1461	C146	0.554920	0.681840	0.412240
C1471	C147	0.056800	0.532000	0.302680
C1481	C148	0.067110	0.775220	0.457130
C1491	C149	0.099330	0.536460	0.336530
C1501	C150	0.137990	0.489380	0.383400
C1511	C151	0.599690	0.936780	0.358640
C1521	C152	0.777800	0.730600	0.300730
C1531	C153	0.982810	0.824620	0.434820
C1541	C154	0.054350	0.815300	0.434530
C1551	C155	0.968830	0.864060	0.408020
C1561	C156	0.877090	0.731580	0.510180
C1571	C157	0.806240	0.655480	0.270350
C1581	C158	0.617320	0.887040	0.366410
C1591	C159	0.462070	0.886140	0.376100
C1601	C160	0.416240	0.784680	0.399550
C1611	C161	0.915920	0.738840	0.291300
C1621	C162	0.890430	0.819260	0.323080
C1631	C163	0.859760	0.761720	0.304740
C1641	C164	0.750170	0.676940	0.283540
C1651	C165	0.661050	0.643300	0.279840
C1661	C166	0.888690	0.684980	0.274920
C1671	C167	0.683980	0.711560	0.383300
C1681	C168	0.672600	0.702200	0.447300
C1691	C169	0.243000	0.838600	0.346900
C1701	C170	0.145200	0.871000	0.319600
C1711	C171	0.184600	0.786200	0.297700
C1721	C172	0.784400	0.978200	0.423900
C1731	C173	0.880320	0.237640	0.954500
C1741	C174	0.058800	0.348600	0.901360
C1751	C175	0.044250	0.410100	0.852740
C1761	C176	0.131090	0.457180	0.899280
C1771	C177	0.677430	0.241260	0.982320
C1781	C178	0.201450	0.565900	0.900570
C1791	C179	0.085000	0.064000	0.863580
C1801	C180	0.219310	0.162620	0.878920
C1811	C181	0.141910	0.163220	0.883860
C1821	C182	0.312180	0.110960	0.864600
C1831	C183	0.760560	0.253320	0.980810
C1841	C184	0.790420	0.341840	0.763080
C1851	C185	0.011840	0.011680	0.856880
C1861	C186	0.115320	0.513840	0.851780
C1871	C187	0.626540	0.202080	0.959000
C1881	C188	0.079490	0.406380	0.883400
C1891	C189	0.373080	0.318160	0.912240
C1901	C190	0.024800	0.468000	0.802680
C1911	C191	0.791890	0.224780	0.957130
C1921	C192	0.062870	0.463540	0.836530
C1931	C193	0.148610	0.510620	0.883400
C1941	C194	0.162910	0.063220	0.858640
C1951	C195	0.547200	0.269400	0.800730
C1961	C196	0.658190	0.175380	0.934820
C1971	C197	0.739050	0.184700	0.934530
C1981	C198	0.604770	0.135940	0.908020
C1991	C199	0.645510	0.268420	0.010180
C2001	C200	0.650760	0.344520	0.770350
C2011	C201	0.230280	0.112960	0.866410
C2021	C202	0.075930	0.113860	0.876100
C2031	C203	0.131560	0.215320	0.899550
C2041	C204	0.677080	0.261160	0.791300
C2051	C205	0.571170	0.180740	0.823080
C2061	C206	0.598040	0.238280	0.804740
C2071	C207	0.573230	0.323060	0.783540
C2081	C208	0.517750	0.356700	0.779840
C2091	C209	0.703710	0.315020	0.774920
C2101	C210	0.472420	0.288440	0.883300
C2111	C211	0.470400	0.297800	0.947300
C2121	C212	0.904400	0.161400	0.846900
C2131	C213	0.774200	0.129000	0.819600
C2141	C214	0.898400	0.213800	0.797700
C2151	C215	0.306200	0.021800	0.923900
C2161	C216	0.619680	0.762360	0.954500
C2171	C217	0.441200	0.651400	0.901360
C2181	C218	0.455750	0.589900	0.852740
C2191	C219	0.368910	0.542820	0.899280
C2201	C220	0.822570	0.758740	0.982320
C2211	C221	0.298550	0.434100	0.900570
C2221	C222	0.415000	0.936000	0.863580
C2231	C223	0.280690	0.837380	0.878920
C2241	C224	0.358090	0.836780	0.883860
C2251	C225	0.187820	0.889040	0.864600
C2261	C226	0.739440	0.746680	0.980810
C2271	C227	0.709580	0.658160	0.763080
C2281	C228	0.488160	0.988320	0.856880
C2291	C229	0.384680	0.486160	0.851780
C2301	C230	0.873460	0.797920	0.959000
C2311	C231	0.420510	0.593620	0.883400
C2321	C232	0.126920	0.681840	0.912240
C2331	C233	0.475200	0.532000	0.802680
C2341	C234	0.708110	0.775220	0.957130
C2351	C235	0.437130	0.536460	0.836530
C2361	C236	0.351390	0.489380	0.883400
C2371	C237	0.337090	0.936780	0.858640
C2381	C238	0.952800	0.730600	0.800730
C2391	C239	0.841810	0.824620	0.934820
C2401	C240	0.760950	0.815300	0.934530
C2411	C241	0.895230	0.864060	0.908020
C2421	C242	0.854490	0.731580	0.010180
C2431	C243	0.849240	0.655480	0.770350
C2441	C244	0.269720	0.887040	0.866410
C2451	C245	0.424070	0.886140	0.876100
C2461	C246	0.368440	0.784680	0.899550
C2471	C247	0.822920	0.738840	0.791300
C2481	C248	0.928830	0.819260	0.823080
C2491	C249	0.901960	0.761720	0.804740
C2501	C250	0.926770	0.676940	0.783540
C2511	C251	0.982250	0.643300	0.779840
C2521	C252	0.796290	0.684980	0.774920
C2531	C253	0.027580	0.711560	0.883300
C2541	C254	0.029600	0.702200	0.947300
C2551	C255	0.595600	0.838600	0.846900
C2561	C256	0.725800	0.871000	0.819600
C2571	C257	0.601600	0.786200	0.797700
C2581	C258	0.193800	0.978200	0.923900
C2591	C259	0.642680	0.762360	0.545500
C2601	C260	0.710200	0.651400	0.598640
C2611	C261	0.634150	0.589900	0.647260
C2621	C262	0.673910	0.542820	0.600720
C2631	C263	0.436170	0.758740	0.517680
C2641	C264	0.635550	0.434100	0.599430
C2651	C265	0.021000	0.936000	0.636420
C2661	C266	0.056690	0.837380	0.621080
C2671	C267	0.978690	0.836780	0.616140
C2681	C268	0.201220	0.889040	0.635400
C2691	C269	0.507240	0.746680	0.519190
C2701	C270	0.448580	0.658160	0.736920
C2711	C271	0.000160	0.988320	0.643120
C2721	C272	0.601480	0.486160	0.648220
C2731	C273	0.424460	0.797920	0.541000
C2741	C274	0.673110	0.593620	0.616600
C2751	C275	0.054920	0.681840	0.587760
C2761	C276	0.556800	0.532000	0.697320
C2771	C277	0.567110	0.775220	0.542870
C2781	C278	0.599330	0.536460	0.663470
C2791	C279	0.637990	0.489380	0.616600
C2801	C280	0.099690	0.936780	0.641360
C2811	C281	0.277800	0.730600	0.699270
C2821	C282	0.482810	0.824620	0.565180
C2831	C283	0.554350	0.815300	0.565470
C2841	C284	0.468830	0.864060	0.591980
C2851	C285	0.377090	0.731580	0.489820
C2861	C286	0.306240	0.655480	0.729650
C2871	C287	0.117320	0.887040	0.633590
C2881	C288	0.962070	0.886140	0.623900
C2891	C289	0.916240	0.784680	0.600450
C2901	C290	0.415920	0.738840	0.708700
C2911	C291	0.390430	0.819260	0.676920
C2921	C292	0.359760	0.761720	0.695260
C2931	C293	0.250170	0.676940	0.716460
C2941	C294	0.161050	0.643300	0.720160
C2951	C295	0.388690	0.684980	0.725080
C2961	C296	0.183980	0.711560	0.616700
C2971	C297	0.172600	0.702200	0.552700
C2981	C298	0.743000	0.838600	0.653100
C2991	C299	0.645200	0.871000	0.680400
C3001	C300	0.684600	0.786200	0.702300
C3011	C301	0.284400	0.978200	0.576100
C3021	C302	0.857320	0.237640	0.545500
C3031	C303	0.789800	0.348600	0.598640
C3041	C304	0.865850	0.410100	0.647260
C3051	C305	0.826090	0.457180	0.600720
C3061	C306	0.063830	0.241260	0.517680
C3071	C307	0.864450	0.565900	0.599430
C3081	C308	0.479000	0.064000	0.636420
C3091	C309	0.443310	0.162620	0.621080
C3101	C310	0.521310	0.163220	0.616140
C3111	C311	0.298780	0.110960	0.635400
C3121	C312	0.992760	0.253320	0.519190
C3131	C313	0.051420	0.341840	0.736920
C3141	C314	0.499840	0.011680	0.643120
C3151	C315	0.898520	0.513840	0.648220
C3161	C316	0.075540	0.202080	0.541000
C3171	C317	0.826890	0.406380	0.616600
C3181	C318	0.445080	0.318160	0.587760
C3191	C319	0.943200	0.468000	0.697320
C3201	C320	0.932890	0.224780	0.542870
C3211	C321	0.900670	0.463540	0.663470
C3221	C322	0.862010	0.510620	0.616600
C3231	C323	0.400310	0.063220	0.641360
C3241	C324	0.222200	0.269400	0.699270
C3251	C325	0.017190	0.175380	0.565180
C3261	C326	0.945650	0.184700	0.565470
C3271	C327	0.031170	0.135940	0.591980
C3281	C328	0.122910	0.268420	0.489820
C3291	C329	0.193760	0.344520	0.729650
C3301	C330	0.382680	0.112960	0.633590
C3311	C331	0.537930	0.113860	0.623900
C3321	C332	0.583760	0.215320	0.600450
C3331	C333	0.084080	0.261160	0.708700
C3341	C334	0.109570	0.180740	0.676920
C3351	C335	0.140240	0.238280	0.695260
C3361	C336	0.249830	0.323060	0.716460
C3371	C337	0.338950	0.356700	0.720160
C3381	C338	0.111310	0.315020	0.725080
C3391	C339	0.316020	0.288440	0.616700
C3401	C340	0.327400	0.297800	0.552700
C3411	C341	0.757000	0.161400	0.653100
C3421	C342	0.854800	0.129000	0.680400
C3431	C343	0.815400	0.213800	0.702300
C3441	C344	0.215600	0.021800	0.576100
N11	N1	0.565100	0.699400	0.085480
N21	N2	0.139600	0.842200	0.184600
N31	N3	0.934900	0.300600	0.085480
N41	N4	0.360400	0.157800	0.184600
N51	N5	0.865700	0.300600	0.414520
N61	N6	0.297400	0.157800	0.315400
N71	N7	0.634300	0.699400	0.414520
N81	N8	0.202600	0.842200	0.315400
N91	N9	0.434900	0.300600	0.914520
N101	N10	0.860400	0.157800	0.815400
N111	N11	0.065100	0.699400	0.914520
N121	N12	0.639600	0.842200	0.815400
N131	N13	0.134300	0.699400	0.585480
N141	N14	0.702600	0.842200	0.684600
N151	N15	0.365700	0.300600	0.585480
N161	N16	0.797400	0.157800	0.684600
O11	O1	0.806800	0.739740	0.095320
O21	O2	0.273500	0.918400	0.169000
O31	O3	0.938930	0.790120	0.092570
O41	O4	0.056890	0.985780	0.141450
O51	O5	0.981820	0.037240	0.151540
O61	O6	0.631900	0.852900	0.117920
O71	O7	0.673880	0.927760	0.153030
O81	O8	0.003570	0.692540	0.106270
O91	O9	0.895300	0.656340	0.074650
O101	O10	0.783930	0.433920	0.067750
O111	O11	0.770980	0.387640	0.116450
O121	O12	0.942740	0.485880	0.213440
O131	O13	0.035660	0.574920	0.206390
O141	O14	0.163220	0.684040	0.231940
O151	O15	0.453470	0.594540	0.235500
O161	O16	0.550230	0.662860	0.208080
O171	O17	0.502030	0.840940	0.168920
O181	O18	0.375580	0.840160	0.170600
O191	O19	0.095530	0.797740	0.060750
O201	O20	0.070590	0.715460	0.033310
O211	O21	0.304290	0.686300	0.976190
O221	O22	0.426880	0.755660	0.981970
O231	O23	0.461120	0.858040	0.097800
O241	O24	0.368150	0.898740	0.106520
O251	O25	0.662440	0.669360	0.063350
O261	O26	0.603960	0.954120	0.086950
O271	O27	0.391100	0.946800	0.205790
O281	O28	0.187000	0.609400	0.251230
O291	O29	0.693200	0.260260	0.095320
O301	O30	0.226500	0.081600	0.169000
O311	O31	0.561070	0.209880	0.092570
O321	O32	0.443110	0.014220	0.141450
O331	O33	0.518180	0.962760	0.151540
O341	O34	0.868100	0.147100	0.117920
O351	O35	0.826120	0.072240	0.153030
O361	O36	0.496430	0.307460	0.106270
O371	O37	0.604700	0.343660	0.074650
O381	O38	0.716070	0.566080	0.067750
O391	O39	0.729020	0.612360	0.116450
O401	O40	0.557260	0.514120	0.213440
O411	O41	0.464340	0.425080	0.206390
O421	O42	0.336780	0.315960	0.231940
O431	O43	0.046530	0.405460	0.235500
O441	O44	0.949770	0.337140	0.208080
O451	O45	0.997970	0.159060	0.168920
O461	O46	0.124420	0.159840	0.170600
O471	O47	0.404470	0.202260	0.060750
O481	O48	0.429410	0.284540	0.033310
O491	O49	0.195710	0.313700	0.976190
O501	O50	0.073120	0.244340	0.981970
O511	O51	0.038880	0.141960	0.097800
O521	O52	0.131850	0.101260	0.106520
O531	O53	0.837560	0.330640	0.063350
O541	O54	0.896040	0.045880	0.086950
O551	O55	0.108900	0.053200	0.205790
O561	O56	0.313000	0.390600	0.251230
O571	O57	0.067060	0.260260	0.404680
O581	O58	0.355100	0.081600	0.331000
O591	O59	0.148810	0.209880	0.407430
O601	O60	0.071110	0.014220	0.358550
O611	O61	0.944580	0.962760	0.348460
O621	O62	0.779000	0.147100	0.382080
O631	O63	0.746120	0.072240	0.346970
O641	O64	0.311030	0.307460	0.393730
O651	O65	0.238960	0.343660	0.425350
O661	O66	0.350010	0.566080	0.432250
O671	O67	0.383340	0.612360	0.383550
O681	O68	0.456860	0.514120	0.286560
O691	O69	0.460740	0.425080	0.293610
O701	O70	0.479180	0.315960	0.268060
O711	O71	0.858930	0.405460	0.264500
O721	O72	0.887370	0.337140	0.291920
O731	O73	0.661090	0.159060	0.331080
O741	O74	0.535420	0.159840	0.329400
O751	O75	0.297790	0.202260	0.439250
O761	O76	0.355130	0.284540	0.466690
O771	O77	0.617990	0.313700	0.523810
O781	O78	0.671220	0.244340	0.518030
O791	O79	0.603080	0.141960	0.402200
O801	O80	0.469410	0.101260	0.393480
O811	O81	0.993080	0.330640	0.436650
O821	O82	0.649840	0.045880	0.413050
O831	O83	0.444300	0.053200	0.294210
O841	O84	0.577600	0.390600	0.248770
O851	O85	0.432940	0.739740	0.404680
O861	O86	0.144900	0.918400	0.331000
O871	O87	0.351190	0.790120	0.407430
O881	O88	0.428890	0.985780	0.358550
O891	O89	0.555420	0.037240	0.348460
O901	O90	0.721000	0.852900	0.382080
O911	O91	0.753880	0.927760	0.346970
O921	O92	0.188970	0.692540	0.393730
O931	O93	0.261040	0.656340	0.425350
O941	O94	0.149990	0.433920	0.432250
O951	O95	0.116660	0.387640	0.383550
O961	O96	0.043140	0.485880	0.286560
O971	O97	0.039260	0.574920	0.293610
O981	O98	0.020820	0.684040	0.268060
O991	O99	0.641070	0.594540	0.264500
O1001	O100	0.612630	0.662860	0.291920
O1011	O101	0.838910	0.840940	0.331080
O1021	O102	0.964580	0.840160	0.329400
O1031	O103	0.202210	0.797740	0.439250
O1041	O104	0.144870	0.715460	0.466690
O1051	O105	0.882010	0.686300	0.523810
O1061	O106	0.828780	0.755660	0.518030
O1071	O107	0.896920	0.858040	0.402200
O1081	O108	0.030590	0.898740	0.393480
O1091	O109	0.506920	0.669360	0.436650
O1101	O110	0.850160	0.954120	0.413050
O1111	O111	0.055700	0.946800	0.294210
O1121	O112	0.922400	0.609400	0.248770
O1131	O113	0.193200	0.260260	0.904680
O1141	O114	0.726500	0.081600	0.831000
O1151	O115	0.061070	0.209880	0.907430
O1161	O116	0.943110	0.014220	0.858550
O1171	O117	0.018180	0.962760	0.848460
O1181	O118	0.368100	0.147100	0.882080
O1191	O119	0.326120	0.072240	0.846970
O1201	O120	0.996430	0.307460	0.893730
O1211	O121	0.104700	0.343660	0.925350
O1221	O122	0.216070	0.566080	0.932250
O1231	O123	0.229020	0.612360	0.883550
O1241	O124	0.057260	0.514120	0.786560
O1251	O125	0.964340	0.425080	0.793610
O1261	O126	0.836780	0.315960	0.768060
O1271	O127	0.546530	0.405460	0.764500
O1281	O128	0.449770	0.337140	0.791920
O1291	O129	0.497970	0.159060	0.831080
O1301	O130	0.624420	0.159840	0.829400
O1311	O131	0.904470	0.202260	0.939250
O1321	O132	0.929410	0.284540	0.966690
O1331	O133	0.695710	0.313700	0.023810
O1341	O134	0.573120	0.244340	0.018030
O1351	O135	0.538880	0.141960	0.902200
O1361	O136	0.631850	0.101260	0.893480
O1371	O137	0.337560	0.330640	0.936650
O1381	O138	0.396040	0.045880	0.913050
O1391	O139	0.608900	0.053200	0.794210
O1401	O140	0.813000	0.390600	0.748770
O1411	O141	0.306800	0.739740	0.904680
O1421	O142	0.773500	0.918400	0.831000
O1431	O143	0.438930	0.790120	0.907430
O1441	O144	0.556890	0.985780	0.858550
O1451	O145	0.481820	0.037240	0.848460
O1461	O146	0.131900	0.852900	0.882080
O1471	O147	0.173880	0.927760	0.846970
O1481	O148	0.503570	0.692540	0.893730
O1491	O149	0.395300	0.656340	0.925350
O1501	O150	0.283930	0.433920	0.932250
O1511	O151	0.270980	0.387640	0.883550
O1521	O152	0.442740	0.485880	0.786560
O1531	O153	0.535660	0.574920	0.793610
O1541	O154	0.663220	0.684040	0.768060
O1551	O155	0.953470	0.594540	0.764500
O1561	O156	0.050230	0.662860	0.791920
O1571	O157	0.002030	0.840940	0.831080
O1581	O158	0.875580	0.840160	0.829400
O1591	O159	0.595530	0.797740	0.939250
O1601	O160	0.570590	0.715460	0.966690
O1611	O161	0.804290	0.686300	0.023810
O1621	O162	0.926880	0.755660	0.018030
O1631	O163	0.961120	0.858040	0.902200
O1641	O164	0.868150	0.898740	0.893480
O1651	O165	0.162440	0.669360	0.936650
O1661	O166	0.103960	0.954120	0.913050
O1671	O167	0.891100	0.946800	0.794210
O1681	O168	0.687000	0.609400	0.748770
O1691	O169	0.932940	0.739740	0.595320
O1701	O170	0.644900	0.918400	0.669000
O1711	O171	0.851190	0.790120	0.592570
O1721	O172	0.928890	0.985780	0.641450
O1731	O173	0.055420	0.037240	0.651540
O1741	O174	0.221000	0.852900	0.617920
O1751	O175	0.253880	0.927760	0.653030
O1761	O176	0.688970	0.692540	0.606270
O1771	O177	0.761040	0.656340	0.574650
O1781	O178	0.649990	0.433920	0.567750
O1791	O179	0.616660	0.387640	0.616450
O1801	O180	0.543140	0.485880	0.713440
O1811	O181	0.539260	0.574920	0.706390
O1821	O182	0.520820	0.684040	0.731940
O1831	O183	0.141070	0.594540	0.735500
O1841	O184	0.112630	0.662860	0.708080
O1851	O185	0.338910	0.840940	0.668920
O1861	O186	0.464580	0.840160	0.670600
O1871	O187	0.702210	0.797740	0.560750
O1881	O188	0.644870	0.715460	0.533310
O1891	O189	0.382010	0.686300	0.476190
O1901	O190	0.328780	0.755660	0.481970
O1911	O191	0.396920	0.858040	0.597800
O1921	O192	0.530590	0.898740	0.606520
O1931	O193	0.006920	0.669360	0.563350
O1941	O194	0.350160	0.954120	0.586950
O1951	O195	0.555700	0.946800	0.705790
O1961	O196	0.422400	0.609400	0.751230
O1971	O197	0.567060	0.260260	0.595320
O1981	O198	0.855100	0.081600	0.669000
O1991	O199	0.648810	0.209880	0.592570
O2001	O200	0.571110	0.014220	0.641450
O2011	O201	0.444580	0.962760	0.651540
O2021	O202	0.279000	0.147100	0.617920
O2031	O203	0.246120	0.072240	0.653030
O2041	O204	0.811030	0.307460	0.606270
O2051	O205	0.738960	0.343660	0.574650
O2061	O206	0.850010	0.566080	0.567750
O2071	O207	0.883340	0.612360	0.616450
O2081	O208	0.956860	0.514120	0.713440
O2091	O209	0.960740	0.425080	0.706390
O2101	O210	0.979180	0.315960	0.731940
O2111	O211	0.358930	0.405460	0.735500
O2121	O212	0.387370	0.337140	0.708080
O2131	O213	0.161090	0.159060	0.668920
O2141	O214	0.035420	0.159840	0.670600
O2151	O215	0.797790	0.202260	0.560750
O2161	O216	0.855130	0.284540	0.533310
O2171	O217	0.117990	0.313700	0.476190
O2181	O218	0.171220	0.244340	0.481970
O2191	O219	0.103080	0.141960	0.597800
O2201	O220	0.969410	0.101260	0.606520
O2211	O221	0.493080	0.330640	0.563350
O2221	O222	0.149840	0.045880	0.586950
O2231	O223	0.944300	0.053200	0.705790
O2241	O224	0.077600	0.390600	0.751230
