data_DUWGEJ_freeONLY_PM
_symmetry_space_group_name_H-M	'P1'
_cell_length_a	18.314800
_cell_length_b	9.450600
_cell_length_c	19.099300
_cell_angle_alpha	90.000000
_cell_angle_beta	106.091000
_cell_angle_gamma	90.000000
_symmetry_Int_Tables_number 1

loop_
_symmetry_equiv_pos_as_xyz
'x,y,z'

loop_
_atom_site_label
_atom_site_type_symbol
_atom_site_fract_x
_atom_site_fract_y
_atom_site_fract_z
Cd11	Cd1	0.284660	0.558530	0.444550
C11	C1	0.380040	0.086300	0.093080
C21	C2	0.379590	0.151500	0.164750
C31	C3	0.311300	0.196800	0.175030
C41	C4	0.308330	0.258800	0.239330
C51	C5	0.375170	0.276600	0.295880
C61	C6	0.443610	0.229800	0.286430
C71	C7	0.446000	0.168500	0.221020
C81	C8	0.373940	0.345400	0.367140
C91	C9	0.394830	0.770100	0.482720
C101	C10	0.448830	0.888800	0.491950
C111	C11	0.448180	0.999000	0.541480
C121	C12	0.499360	0.109600	0.548750
H11	H1	0.498900	0.183000	0.581100
C131	C13	0.024300	0.393200	0.462750
H21	H2	0.040900	0.321300	0.437600
C141	C14	0.043460	0.623000	0.519240
C151	C15	0.067260	0.513300	0.481350
C161	C16	0.141670	0.527400	0.460530
C171	C17	0.193700	0.862200	0.214800
H31	H3	0.170500	0.860200	0.254100
H41	H4	0.158600	0.826600	0.171300
H51	H5	0.207200	0.957800	0.206700
C181	C18	0.307300	0.762400	0.182000
H61	H6	0.350400	0.702300	0.201500
H71	H7	0.324500	0.854900	0.173100
H81	H8	0.276500	0.723100	0.137200
C191	C19	0.278930	0.698900	0.292910
H91	H9	0.321400	0.640600	0.301500
O11	O1	0.443880	0.046000	0.087790
O21	O2	0.318340	0.073400	0.045950
O31	O3	0.516180	0.127200	0.217710
H101	H10	0.512900	0.091800	0.177800
O41	O4	0.239260	0.305300	0.244300
H111	H11	0.244400	0.343300	0.284000
O51	O5	0.310910	0.394100	0.369550
O61	O6	0.433530	0.348290	0.416670
O71	O7	0.404760	0.660370	0.448120
O81	O8	0.337630	0.778620	0.507290
O91	O9	0.397930	0.002300	0.582790
H121	H12	0.367600	0.937000	0.570800
O101	O10	0.179040	0.638200	0.478070
O111	O11	0.163670	0.430000	0.427960
O121	O12	0.082330	0.743300	0.536700
H131	H13	0.121000	0.739700	0.523100
O131	O13	0.243780	0.697700	0.339240
N11	N1	0.263150	0.772700	0.233600
O141	O14	0.244900	0.176900	0.126900
H141	H14	0.251300	0.139200	0.090400
O151	O15	0.511000	0.254300	0.331800
H151	H15	0.505900	0.289100	0.369500
Cd21	Cd2	0.715340	0.058530	0.055450
C201	C20	0.619960	0.586300	0.406920
C211	C21	0.620410	0.651500	0.335250
C221	C22	0.688700	0.696800	0.324970
C231	C23	0.691670	0.758800	0.260670
C241	C24	0.624830	0.776600	0.204120
C251	C25	0.556390	0.729800	0.213570
C261	C26	0.554000	0.668500	0.278980
C271	C27	0.626060	0.845400	0.132860
C281	C28	0.605170	0.270100	0.017280
C291	C29	0.551170	0.388800	0.008050
C301	C30	0.551820	0.499000	0.958520
C311	C31	0.500640	0.609600	0.951250
H161	H16	0.501100	0.683000	0.918900
C321	C32	0.975700	0.893200	0.037250
H171	H17	0.959100	0.821300	0.062400
C331	C33	0.956540	0.123000	0.980760
C341	C34	0.932740	0.013300	0.018650
C351	C35	0.858330	0.027400	0.039470
C361	C36	0.806300	0.362200	0.285200
H181	H18	0.829500	0.360200	0.245900
H191	H19	0.841400	0.326600	0.328700
H201	H20	0.792800	0.457800	0.293300
C371	C37	0.692700	0.262400	0.318000
H211	H21	0.649600	0.202300	0.298500
H221	H22	0.675500	0.354900	0.326900
H231	H23	0.723500	0.223100	0.362800
C381	C38	0.721070	0.198900	0.207090
H241	H24	0.678600	0.140600	0.198500
O161	O16	0.556120	0.546000	0.412210
O171	O17	0.681660	0.573400	0.454050
O181	O18	0.483820	0.627200	0.282290
H251	H25	0.487100	0.591800	0.322200
O191	O19	0.760740	0.805300	0.255700
H261	H26	0.755600	0.843300	0.216000
O201	O20	0.689090	0.894100	0.130450
O211	O21	0.566470	0.848290	0.083330
O221	O22	0.595240	0.160370	0.051880
O231	O23	0.662370	0.278620	0.992710
O241	O24	0.602070	0.502300	0.917210
H271	H27	0.632400	0.437000	0.929200
O251	O25	0.820960	0.138200	0.021930
O261	O26	0.836330	0.930000	0.072040
O271	O27	0.917670	0.243300	0.963300
H281	H28	0.879000	0.239700	0.976900
O281	O28	0.756220	0.197700	0.160760
N21	N2	0.736850	0.272700	0.266400
O291	O29	0.755100	0.676900	0.373100
H291	H29	0.748700	0.639200	0.409600
O301	O30	0.489000	0.754300	0.168200
H301	H30	0.494100	0.789100	0.130500
Cd31	Cd3	0.715340	0.441470	0.555450
C391	C39	0.619960	0.913700	0.906920
C401	C40	0.620410	0.848500	0.835250
C411	C41	0.688700	0.803200	0.824970
C421	C42	0.691670	0.741200	0.760670
C431	C43	0.624830	0.723400	0.704120
C441	C44	0.556390	0.770200	0.713570
C451	C45	0.554000	0.831500	0.778980
C461	C46	0.626060	0.654600	0.632860
C471	C47	0.605170	0.229900	0.517280
C481	C48	0.551170	0.111200	0.508050
C491	C49	0.551820	0.001000	0.458520
C501	C50	0.500640	0.890400	0.451250
H311	H31	0.501100	0.817000	0.418900
C511	C51	0.975700	0.606800	0.537250
H321	H32	0.959100	0.678700	0.562400
C521	C52	0.956540	0.377000	0.480760
C531	C53	0.932740	0.486700	0.518650
C541	C54	0.858330	0.472600	0.539470
C551	C55	0.806300	0.137800	0.785200
H331	H33	0.829500	0.139800	0.745900
H341	H34	0.841400	0.173400	0.828700
H351	H35	0.792800	0.042200	0.793300
C561	C56	0.692700	0.237600	0.818000
H361	H36	0.649600	0.297700	0.798500
H371	H37	0.675500	0.145100	0.826900
H381	H38	0.723500	0.276900	0.862800
C571	C57	0.721070	0.301100	0.707090
H391	H39	0.678600	0.359400	0.698500
O311	O31	0.556120	0.954000	0.912210
O321	O32	0.681660	0.926600	0.954050
O331	O33	0.483820	0.872800	0.782290
H401	H40	0.487100	0.908200	0.822200
O341	O34	0.760740	0.694700	0.755700
H411	H41	0.755600	0.656700	0.716000
O351	O35	0.689090	0.605900	0.630450
O361	O36	0.566470	0.651710	0.583330
O371	O37	0.595240	0.339630	0.551880
O381	O38	0.662370	0.221380	0.492710
O391	O39	0.602070	0.997700	0.417210
H421	H42	0.632400	0.063000	0.429200
O401	O40	0.820960	0.361800	0.521930
O411	O41	0.836330	0.570000	0.572040
O421	O42	0.917670	0.256700	0.463300
H431	H43	0.879000	0.260300	0.476900
O431	O43	0.756220	0.302300	0.660760
N31	N3	0.736850	0.227300	0.766400
O441	O44	0.755100	0.823100	0.873100
H441	H44	0.748700	0.860800	0.909600
O451	O45	0.489000	0.745700	0.668200
H451	H45	0.494100	0.710900	0.630500
Cd41	Cd4	0.284660	0.941470	0.944550
C581	C58	0.380040	0.413700	0.593080
C591	C59	0.379590	0.348500	0.664750
C601	C60	0.311300	0.303200	0.675030
C611	C61	0.308330	0.241200	0.739330
C621	C62	0.375170	0.223400	0.795880
C631	C63	0.443610	0.270200	0.786430
C641	C64	0.446000	0.331500	0.721020
C651	C65	0.373940	0.154600	0.867140
C661	C66	0.394830	0.729900	0.982720
C671	C67	0.448830	0.611200	0.991950
C681	C68	0.448180	0.501000	0.041480
C691	C69	0.499360	0.390400	0.048750
H461	H46	0.498900	0.317000	0.081100
C701	C70	0.024300	0.106800	0.962750
H471	H47	0.040900	0.178700	0.937600
C711	C71	0.043460	0.877000	0.019240
C721	C72	0.067260	0.986700	0.981350
C731	C73	0.141670	0.972600	0.960530
C741	C74	0.193700	0.637800	0.714800
H481	H48	0.170500	0.639800	0.754100
H491	H49	0.158600	0.673400	0.671300
H501	H50	0.207200	0.542200	0.706700
C751	C75	0.307300	0.737600	0.682000
H511	H51	0.350400	0.797700	0.701500
H521	H52	0.324500	0.645100	0.673100
H531	H53	0.276500	0.776900	0.637200
C761	C76	0.278930	0.801100	0.792910
H541	H54	0.321400	0.859400	0.801500
O461	O46	0.443880	0.454000	0.587790
O471	O47	0.318340	0.426600	0.545950
O481	O48	0.516180	0.372800	0.717710
H551	H55	0.512900	0.408200	0.677800
O491	O49	0.239260	0.194700	0.744300
H561	H56	0.244400	0.156700	0.784000
O501	O50	0.310910	0.105900	0.869550
O511	O51	0.433530	0.151710	0.916670
O521	O52	0.404760	0.839630	0.948120
O531	O53	0.337630	0.721380	0.007290
O541	O54	0.397930	0.497700	0.082790
H571	H57	0.367600	0.563000	0.070800
O551	O55	0.179040	0.861800	0.978070
O561	O56	0.163670	0.070000	0.927960
O571	O57	0.082330	0.756700	0.036700
H581	H58	0.121000	0.760300	0.023100
O581	O58	0.243780	0.802300	0.839240
N41	N4	0.263150	0.727300	0.733600
O591	O59	0.244900	0.323100	0.626900
H591	H59	0.251300	0.360800	0.590400
O601	O60	0.511000	0.245700	0.831800
H601	H60	0.505900	0.210900	0.869500
Cd51	Cd5	0.500000	0.500000	0.500000
Cd61	Cd6	0.500000	0.000000	0.000000
