data_DUWROE_freeONLY_PM
_symmetry_space_group_name_H-M	'P1'
_cell_length_a	15.101400
_cell_length_b	10.968600
_cell_length_c	22.333800
_cell_angle_alpha	90.000000
_cell_angle_beta	103.099000
_cell_angle_gamma	90.000000
_symmetry_Int_Tables_number 1

loop_
_symmetry_equiv_pos_as_xyz
'x,y,z'

loop_
_atom_site_label
_atom_site_type_symbol
_atom_site_fract_x
_atom_site_fract_y
_atom_site_fract_z
Mg11	Mg1	0.480370	0.525880	0.568880
Mg21	Mg2	0.354810	0.979190	0.621410
P11	P1	0.382170	0.260510	0.572630
O11	O1	0.453520	0.355750	0.590810
O21	O2	0.395670	0.151670	0.613220
O31	O3	0.288610	0.320500	0.573080
H11	H1	0.248000	0.283300	0.549500
O41	O4	0.372440	0.221800	0.503330
H21	H2	0.421300	0.231000	0.493800
O51	O5	0.440180	0.978170	0.703760
O61	O6	0.447890	0.817100	0.786170
H31	H3	0.434800	0.753400	0.767000
O71	O7	0.498680	0.716720	0.551830
O81	O8	0.445110	0.899280	0.572890
O91	O9	0.389470	0.606800	0.612450
O101	O10	0.328520	0.785650	0.628150
O111	O11	0.588320	0.490400	0.523570
O121	O12	0.740540	0.481810	0.544120
O131	O13	0.594380	0.529870	0.641610
O141	O14	0.745600	0.513790	0.662930
C11	C1	0.448540	0.786800	0.574830
C21	C2	0.383030	0.720400	0.608430
C31	C3	0.666980	0.494100	0.558390
C41	C4	0.669450	0.515200	0.627570
Mg31	Mg3	0.980370	0.025880	0.568880
Mg41	Mg4	0.854810	0.479190	0.621410
P21	P2	0.882170	0.760510	0.572630
O151	O15	0.953520	0.855750	0.590810
O161	O16	0.895670	0.651670	0.613220
O171	O17	0.788610	0.820500	0.573080
H41	H4	0.748000	0.783300	0.549500
O181	O18	0.872440	0.721800	0.503330
H51	H5	0.921300	0.731000	0.493800
O191	O19	0.940180	0.478170	0.703760
O201	O20	0.947890	0.317100	0.786170
H61	H6	0.934800	0.253400	0.767000
O211	O21	0.998680	0.216720	0.551830
O221	O22	0.945110	0.399280	0.572890
O231	O23	0.889470	0.106800	0.612450
O241	O24	0.828520	0.285650	0.628150
O251	O25	0.088320	0.990400	0.523570
O261	O26	0.240540	0.981810	0.544120
O271	O27	0.094380	0.029870	0.641610
O281	O28	0.245600	0.013790	0.662930
C51	C5	0.948540	0.286800	0.574830
C61	C6	0.883030	0.220400	0.608430
C71	C7	0.166980	0.994100	0.558390
C81	C8	0.169450	0.015200	0.627570
Mg51	Mg5	0.519630	0.525880	0.931120
Mg61	Mg6	0.645190	0.979190	0.878590
P31	P3	0.617830	0.260510	0.927370
O291	O29	0.546480	0.355750	0.909190
O301	O30	0.604330	0.151670	0.886780
O311	O31	0.711390	0.320500	0.926920
H71	H7	0.752000	0.283300	0.950500
O321	O32	0.627560	0.221800	0.996670
H81	H8	0.578700	0.231000	0.006200
O331	O33	0.559820	0.978170	0.796240
O341	O34	0.552110	0.817100	0.713830
H91	H9	0.565200	0.753400	0.733000
O351	O35	0.501320	0.716720	0.948170
O361	O36	0.554890	0.899280	0.927110
O371	O37	0.610530	0.606800	0.887550
O381	O38	0.671480	0.785650	0.871850
O391	O39	0.411680	0.490400	0.976430
O401	O40	0.259460	0.481810	0.955880
O411	O41	0.405620	0.529870	0.858390
O421	O42	0.254400	0.513790	0.837070
C91	C9	0.551460	0.786800	0.925170
C101	C10	0.616970	0.720400	0.891570
C111	C11	0.333020	0.494100	0.941610
C121	C12	0.330550	0.515200	0.872430
Mg71	Mg7	0.019630	0.025880	0.931120
Mg81	Mg8	0.145190	0.479190	0.878590
P41	P4	0.117830	0.760510	0.927370
O431	O43	0.046480	0.855750	0.909190
O441	O44	0.104330	0.651670	0.886780
O451	O45	0.211390	0.820500	0.926920
H101	H10	0.252000	0.783300	0.950500
O461	O46	0.127560	0.721800	0.996670
H111	H11	0.078700	0.731000	0.006200
O471	O47	0.059820	0.478170	0.796240
O481	O48	0.052110	0.317100	0.713830
H121	H12	0.065200	0.253400	0.733000
O491	O49	0.001320	0.216720	0.948170
O501	O50	0.054890	0.399280	0.927110
O511	O51	0.110530	0.106800	0.887550
O521	O52	0.171480	0.285650	0.871850
O531	O53	0.911680	0.990400	0.976430
O541	O54	0.759460	0.981810	0.955880
O551	O55	0.905620	0.029870	0.858390
O561	O56	0.754400	0.013790	0.837070
C131	C13	0.051460	0.286800	0.925170
C141	C14	0.116970	0.220400	0.891570
C151	C15	0.833020	0.994100	0.941610
C161	C16	0.830550	0.015200	0.872430
Mg91	Mg9	0.519630	0.474120	0.431120
Mg101	Mg10	0.645190	0.020810	0.378590
P51	P5	0.617830	0.739490	0.427370
O571	O57	0.546480	0.644250	0.409190
O581	O58	0.604330	0.848330	0.386780
O591	O59	0.711390	0.679500	0.426920
H131	H13	0.752000	0.716700	0.450500
O601	O60	0.627560	0.778200	0.496670
H141	H14	0.578700	0.769000	0.506200
O611	O61	0.559820	0.021830	0.296240
O621	O62	0.552110	0.182900	0.213830
H151	H15	0.565200	0.246600	0.233000
O631	O63	0.501320	0.283280	0.448170
O641	O64	0.554890	0.100720	0.427110
O651	O65	0.610530	0.393200	0.387550
O661	O66	0.671480	0.214350	0.371850
O671	O67	0.411680	0.509600	0.476430
O681	O68	0.259460	0.518190	0.455880
O691	O69	0.405620	0.470130	0.358390
O701	O70	0.254400	0.486210	0.337070
C171	C17	0.551460	0.213200	0.425170
C181	C18	0.616970	0.279600	0.391570
C191	C19	0.333020	0.505900	0.441610
C201	C20	0.330550	0.484800	0.372430
Mg111	Mg11	0.019630	0.974120	0.431120
Mg121	Mg12	0.145190	0.520810	0.378590
P61	P6	0.117830	0.239490	0.427370
O711	O71	0.046480	0.144250	0.409190
O721	O72	0.104330	0.348330	0.386780
O731	O73	0.211390	0.179500	0.426920
H161	H16	0.252000	0.216700	0.450500
O741	O74	0.127560	0.278200	0.496670
H171	H17	0.078700	0.269000	0.506200
O751	O75	0.059820	0.521830	0.296240
O761	O76	0.052110	0.682900	0.213830
H181	H18	0.065200	0.746600	0.233000
O771	O77	0.001320	0.783280	0.448170
O781	O78	0.054890	0.600720	0.427110
O791	O79	0.110530	0.893200	0.387550
O801	O80	0.171480	0.714350	0.371850
O811	O81	0.911680	0.009600	0.476430
O821	O82	0.759460	0.018190	0.455880
O831	O83	0.905620	0.970130	0.358390
O841	O84	0.754400	0.986210	0.337070
C211	C21	0.051460	0.713200	0.425170
C221	C22	0.116970	0.779600	0.391570
C231	C23	0.833020	0.005900	0.441610
C241	C24	0.830550	0.984800	0.372430
Mg131	Mg13	0.480370	0.474120	0.068880
Mg141	Mg14	0.354810	0.020810	0.121410
P71	P7	0.382170	0.739490	0.072630
O851	O85	0.453520	0.644250	0.090810
O861	O86	0.395670	0.848330	0.113220
O871	O87	0.288610	0.679500	0.073080
H191	H19	0.248000	0.716700	0.049500
O881	O88	0.372440	0.778200	0.003330
H201	H20	0.421300	0.769000	0.993800
O891	O89	0.440180	0.021830	0.203760
O901	O90	0.447890	0.182900	0.286170
H211	H21	0.434800	0.246600	0.267000
O911	O91	0.498680	0.283280	0.051830
O921	O92	0.445110	0.100720	0.072890
O931	O93	0.389470	0.393200	0.112450
O941	O94	0.328520	0.214350	0.128150
O951	O95	0.588320	0.509600	0.023570
O961	O96	0.740540	0.518190	0.044120
O971	O97	0.594380	0.470130	0.141610
O981	O98	0.745600	0.486210	0.162930
C251	C25	0.448540	0.213200	0.074830
C261	C26	0.383030	0.279600	0.108430
C271	C27	0.666980	0.505900	0.058390
C281	C28	0.669450	0.484800	0.127570
Mg151	Mg15	0.980370	0.974120	0.068880
Mg161	Mg16	0.854810	0.520810	0.121410
P81	P8	0.882170	0.239490	0.072630
O991	O99	0.953520	0.144250	0.090810
O1001	O100	0.895670	0.348330	0.113220
O1011	O101	0.788610	0.179500	0.073080
H221	H22	0.748000	0.216700	0.049500
O1021	O102	0.872440	0.278200	0.003330
H231	H23	0.921300	0.269000	0.993800
O1031	O103	0.940180	0.521830	0.203760
O1041	O104	0.947890	0.682900	0.286170
H241	H24	0.934800	0.746600	0.267000
O1051	O105	0.998680	0.783280	0.051830
O1061	O106	0.945110	0.600720	0.072890
O1071	O107	0.889470	0.893200	0.112450
O1081	O108	0.828520	0.714350	0.128150
O1091	O109	0.088320	0.009600	0.023570
O1101	O110	0.240540	0.018190	0.044120
O1111	O111	0.094380	0.970130	0.141610
O1121	O112	0.245600	0.986210	0.162930
C291	C29	0.948540	0.713200	0.074830
C301	C30	0.883030	0.779600	0.108430
C311	C31	0.166980	0.005900	0.058390
C321	C32	0.169450	0.984800	0.127570
P91	P9	0.500000	0.902850	0.750000
P101	P10	0.000000	0.402850	0.750000
P111	P11	0.500000	0.097150	0.250000
P121	P12	0.000000	0.597150	0.250000
