data_DUWRIY_freeONLY_PM
_symmetry_space_group_name_H-M	'P1'
_cell_length_a	9.375500
_cell_length_b	7.474600
_cell_length_c	15.431000
_cell_angle_alpha	90.000000
_cell_angle_beta	100.119000
_cell_angle_gamma	90.000000
_symmetry_Int_Tables_number 1

loop_
_symmetry_equiv_pos_as_xyz
'x,y,z'

loop_
_atom_site_label
_atom_site_type_symbol
_atom_site_fract_x
_atom_site_fract_y
_atom_site_fract_z
Mg11	Mg1	0.780150	0.467190	0.598490
P11	P1	0.652470	0.597150	0.774340
O11	O1	0.743480	0.614600	0.703990
O21	O2	0.715400	0.452600	0.844250
H11	H1	0.727100	0.358300	0.819200
O31	O3	0.634420	0.763900	0.824070
O41	O4	0.501600	0.524600	0.725070
H21	H2	0.439400	0.543300	0.755300
O51	O5	0.637310	0.657900	0.520950
O61	O6	0.411850	0.685500	0.446440
O71	O7	0.967880	0.617600	0.591810
O81	O8	0.149430	0.640400	0.514970
C11	C1	0.514300	0.599500	0.490470
C21	C2	0.034800	0.575700	0.531530
Mg21	Mg2	0.719850	0.967190	0.901510
P21	P2	0.847530	0.097150	0.725660
O91	O9	0.756520	0.114600	0.796010
O101	O10	0.784600	0.952600	0.655750
H31	H3	0.772900	0.858300	0.680800
O111	O11	0.865580	0.263900	0.675930
O121	O12	0.998400	0.024600	0.774930
H41	H4	0.060600	0.043300	0.744700
O131	O13	0.862690	0.157900	0.979050
O141	O14	0.088150	0.185500	0.053560
O151	O15	0.532120	0.117600	0.908190
O161	O16	0.350570	0.140400	0.985030
C31	C3	0.985700	0.099500	0.009530
C41	C4	0.465200	0.075700	0.968470
Mg31	Mg3	0.219850	0.532810	0.401510
P31	P3	0.347530	0.402850	0.225660
O171	O17	0.256520	0.385400	0.296010
O181	O18	0.284600	0.547400	0.155750
H51	H5	0.272900	0.641700	0.180800
O191	O19	0.365580	0.236100	0.175930
O201	O20	0.498400	0.475400	0.274930
H61	H6	0.560600	0.456700	0.244700
O211	O21	0.362690	0.342100	0.479050
O221	O22	0.588150	0.314500	0.553560
O231	O23	0.032120	0.382400	0.408190
O241	O24	0.850570	0.359600	0.485030
C51	C5	0.485700	0.400500	0.509530
C61	C6	0.965200	0.424300	0.468470
Mg41	Mg4	0.280150	0.032810	0.098490
P41	P4	0.152470	0.902850	0.274340
O251	O25	0.243480	0.885400	0.203990
O261	O26	0.215400	0.047400	0.344250
H71	H7	0.227100	0.141700	0.319200
O271	O27	0.134420	0.736100	0.324070
O281	O28	0.001600	0.975400	0.225070
H81	H8	0.939400	0.956700	0.255300
O291	O29	0.137310	0.842100	0.020950
O301	O30	0.911850	0.814500	0.946440
O311	O31	0.467880	0.882400	0.091810
O321	O32	0.649430	0.859600	0.014970
C71	C7	0.014300	0.900500	0.990470
C81	C8	0.534800	0.924300	0.031530
