data_DUWSAR_freeONLY_PM
_symmetry_space_group_name_H-M	'P1'
_cell_length_a	9.325400
_cell_length_b	9.428000
_cell_length_c	14.306000
_cell_angle_alpha	96.449000
_cell_angle_beta	103.879000
_cell_angle_gamma	104.350000
_symmetry_Int_Tables_number 1

loop_
_symmetry_equiv_pos_as_xyz
'x,y,z'

loop_
_atom_site_label
_atom_site_type_symbol
_atom_site_fract_x
_atom_site_fract_y
_atom_site_fract_z
Mg11	Mg1	0.206950	0.482370	0.892140
Mg21	Mg2	0.160840	0.298210	0.536750
P11	P1	0.339490	0.593430	0.711230
P21	P2	0.384160	0.149030	0.432070
O11	O1	0.259110	0.597030	0.790620
O21	O2	0.312490	0.441020	0.654590
O31	O3	0.514540	0.667670	0.751130
O41	O4	0.270010	0.694710	0.641980
H11	H1	0.331800	0.730400	0.612700
O51	O5	0.339800	0.265330	0.488940
O61	O6	0.330200	0.148500	0.321770
H21	H2	0.391700	0.214700	0.307100
O71	O7	0.292600	0.990200	0.441780
H31	H3	0.352500	0.950100	0.472500
O81	O8	0.556400	0.171500	0.464750
O91	O9	0.050860	0.602780	0.913500
O101	O10	0.886830	0.620100	0.002280
O111	O11	0.394290	0.627700	0.004600
O121	O12	0.631220	0.639040	0.093090
O131	O13	0.996050	0.128680	0.422570
O141	O14	0.874230	0.885530	0.392720
O151	O15	0.127490	0.445670	0.442590
O161	O16	0.014100	0.627250	0.421080
O171	O17	0.052900	0.311700	0.786480
H41	H4	0.977300	0.247700	0.794000
H51	H5	0.031200	0.320500	0.727400
C11	C1	0.981800	0.565500	0.975380
C21	C2	0.506400	0.577500	0.027720
C31	C3	0.962200	0.004600	0.446200
C41	C4	0.041100	0.522400	0.460200
Mg31	Mg3	0.793050	0.517630	0.107860
Mg41	Mg4	0.839160	0.701790	0.463250
P31	P3	0.660510	0.406570	0.288770
P41	P4	0.615840	0.850970	0.567930
O181	O18	0.740890	0.402970	0.209380
O191	O19	0.687510	0.558980	0.345410
O201	O20	0.485460	0.332330	0.248870
O211	O21	0.729990	0.305290	0.358020
H61	H6	0.668200	0.269600	0.387300
O221	O22	0.660200	0.734670	0.511060
O231	O23	0.669800	0.851500	0.678230
H71	H7	0.608300	0.785300	0.692900
O241	O24	0.707400	0.009800	0.558220
H81	H8	0.647500	0.049900	0.527500
O251	O25	0.443600	0.828500	0.535250
O261	O26	0.949140	0.397220	0.086500
O271	O27	0.113170	0.379900	0.997720
O281	O28	0.605710	0.372300	0.995400
O291	O29	0.368780	0.360960	0.906910
O301	O30	0.003950	0.871320	0.577430
O311	O31	0.125770	0.114470	0.607280
O321	O32	0.872510	0.554330	0.557410
O331	O33	0.985900	0.372750	0.578920
O341	O34	0.947100	0.688300	0.213520
H91	H9	0.022700	0.752300	0.206000
H101	H10	0.968800	0.679500	0.272600
C51	C5	0.018200	0.434500	0.024620
C61	C6	0.493600	0.422500	0.972280
C71	C7	0.037800	0.995400	0.553800
C81	C8	0.958900	0.477600	0.539800
