data_DUZWOM_freeONLY_PM
_symmetry_space_group_name_H-M	'P1'
_cell_length_a	11.746300
_cell_length_b	10.957000
_cell_length_c	15.821700
_cell_angle_alpha	90.000000
_cell_angle_beta	91.760000
_cell_angle_gamma	90.000000
_symmetry_Int_Tables_number 1

loop_
_symmetry_equiv_pos_as_xyz
'x,y,z'

loop_
_atom_site_label
_atom_site_type_symbol
_atom_site_fract_x
_atom_site_fract_y
_atom_site_fract_z
Mn11	Mn1	0.259270	0.042360	0.135140
Mn21	Mn2	0.239820	0.828330	0.285870
O11	O1	0.966200	0.967000	0.132230
O21	O2	0.129850	0.939160	0.202870
C11	C1	0.022200	0.938500	0.195000
H11	H1	0.981200	0.913300	0.242800
O31	O3	0.021300	0.188900	0.028530
O41	O4	0.157400	0.212110	0.128040
C21	C2	0.075300	0.248400	0.080900
H21	H2	0.053400	0.331300	0.087000
O51	O5	0.299940	0.141290	0.257110
O61	O6	0.308800	0.985000	0.346400
C31	C3	0.317900	0.094200	0.330300
C41	C4	0.354800	0.172200	0.401300
H31	H3	0.333700	0.133900	0.454600
H41	H4	0.317800	0.252000	0.395900
H51	H5	0.437700	0.182600	0.400900
O71	O7	0.187480	0.971800	0.017420
O81	O8	0.345200	0.916800	0.953980
C51	C5	0.241900	0.919200	0.960300
H61	H6	0.198100	0.877300	0.918000
O91	O9	0.403480	0.129470	0.077900
O101	O10	0.396300	0.319000	0.128030
C61	C6	0.437200	0.238300	0.084300
H71	H7	0.500800	0.260300	0.052000
O111	O11	0.349830	0.875200	0.178510
O121	O12	0.504300	0.872300	0.101510
C71	C7	0.442500	0.828000	0.154900
C81	C8	0.480000	0.707900	0.190900
H81	H8	0.542300	0.720900	0.232600
H91	H9	0.506500	0.655400	0.145300
H101	H10	0.415900	0.668600	0.218300
Mn31	Mn3	0.240730	0.542360	0.364860
Mn41	Mn4	0.260180	0.328330	0.214130
O131	O13	0.533800	0.467000	0.367770
O141	O14	0.370150	0.439160	0.297130
C91	C9	0.477800	0.438500	0.305000
H111	H11	0.518800	0.413300	0.257200
O151	O15	0.478700	0.688900	0.471470
O161	O16	0.342600	0.712110	0.371960
C101	C10	0.424700	0.748400	0.419100
H121	H12	0.446600	0.831300	0.413000
O171	O17	0.200060	0.641290	0.242890
O181	O18	0.191200	0.485000	0.153600
C111	C11	0.182100	0.594200	0.169700
C121	C12	0.145200	0.672200	0.098700
H131	H13	0.166300	0.633900	0.045400
H141	H14	0.182200	0.752000	0.104100
H151	H15	0.062300	0.682600	0.099100
O191	O19	0.312520	0.471800	0.482580
O201	O20	0.154800	0.416800	0.546020
C131	C13	0.258100	0.419200	0.539700
H161	H16	0.301900	0.377300	0.582000
O211	O21	0.096520	0.629470	0.422100
O221	O22	0.103700	0.819000	0.371970
C141	C14	0.062800	0.738300	0.415700
H171	H17	0.999200	0.760300	0.448000
O231	O23	0.150170	0.375200	0.321490
O241	O24	0.995700	0.372300	0.398490
C151	C15	0.057500	0.328000	0.345100
C161	C16	0.020000	0.207900	0.309100
H181	H18	0.957700	0.220900	0.267400
H191	H19	0.993500	0.155400	0.354700
H201	H20	0.084100	0.168600	0.281700
Mn51	Mn5	0.740730	0.957640	0.864860
Mn61	Mn6	0.760180	0.171670	0.714130
O251	O25	0.033800	0.033000	0.867770
O261	O26	0.870150	0.060840	0.797130
C171	C17	0.977800	0.061500	0.805000
H211	H21	0.018800	0.086700	0.757200
O271	O27	0.978700	0.811100	0.971470
O281	O28	0.842600	0.787890	0.871960
C181	C18	0.924700	0.751600	0.919100
H221	H22	0.946600	0.668700	0.913000
O291	O29	0.700060	0.858710	0.742890
O301	O30	0.691200	0.015000	0.653600
C191	C19	0.682100	0.905800	0.669700
C201	C20	0.645200	0.827800	0.598700
H231	H23	0.666300	0.866100	0.545400
H241	H24	0.682200	0.748000	0.604100
H251	H25	0.562300	0.817400	0.599100
O311	O31	0.812520	0.028200	0.982580
O321	O32	0.654800	0.083200	0.046020
C211	C21	0.758100	0.080800	0.039700
H261	H26	0.801900	0.122700	0.082000
O331	O33	0.596520	0.870530	0.922100
O341	O34	0.603700	0.681000	0.871970
C221	C22	0.562800	0.761700	0.915700
H271	H27	0.499200	0.739700	0.948000
O351	O35	0.650170	0.124800	0.821490
O361	O36	0.495700	0.127700	0.898490
C231	C23	0.557500	0.172000	0.845100
C241	C24	0.520000	0.292100	0.809100
H281	H28	0.457700	0.279100	0.767400
H291	H29	0.493500	0.344600	0.854700
H301	H30	0.584100	0.331400	0.781700
Mn71	Mn7	0.759270	0.457640	0.635140
Mn81	Mn8	0.739820	0.671670	0.785870
O371	O37	0.466200	0.533000	0.632230
O381	O38	0.629850	0.560840	0.702870
C251	C25	0.522200	0.561500	0.695000
H311	H31	0.481200	0.586700	0.742800
O391	O39	0.521300	0.311100	0.528530
O401	O40	0.657400	0.287890	0.628040
C261	C26	0.575300	0.251600	0.580900
H321	H32	0.553400	0.168700	0.587000
O411	O41	0.799940	0.358710	0.757110
O421	O42	0.808800	0.515000	0.846400
C271	C27	0.817900	0.405800	0.830300
C281	C28	0.854800	0.327800	0.901300
H331	H33	0.833700	0.366100	0.954600
H341	H34	0.817800	0.248000	0.895900
H351	H35	0.937700	0.317400	0.900900
O431	O43	0.687480	0.528200	0.517420
O441	O44	0.845200	0.583200	0.453980
C291	C29	0.741900	0.580800	0.460300
H361	H36	0.698100	0.622700	0.418000
O451	O45	0.903480	0.370530	0.577900
O461	O46	0.896300	0.181000	0.628030
C301	C30	0.937200	0.261700	0.584300
H371	H37	0.000800	0.239700	0.552000
O471	O47	0.849830	0.624800	0.678510
O481	O48	0.004300	0.627700	0.601510
C311	C31	0.942500	0.672000	0.654900
C321	C32	0.980000	0.792100	0.690900
H381	H38	0.042300	0.779100	0.732600
H391	H39	0.006500	0.844600	0.645300
H401	H40	0.915900	0.831400	0.718300
Mn91	Mn9	0.000000	0.000000	0.000000
Mn101	Mn10	0.500000	0.500000	0.500000
Mn111	Mn11	0.500000	0.000000	0.000000
Mn121	Mn12	0.000000	0.500000	0.500000
