data_EBATUZ_freeONLY_PM
_symmetry_space_group_name_H-M	'P1'
_cell_length_a	18.796700
_cell_length_b	18.796700
_cell_length_c	49.394000
_cell_angle_alpha	90.000000
_cell_angle_beta	90.000000
_cell_angle_gamma	120.000000
_symmetry_Int_Tables_number 1

loop_
_symmetry_equiv_pos_as_xyz
'x,y,z'

loop_
_atom_site_label
_atom_site_type_symbol
_atom_site_fract_x
_atom_site_fract_y
_atom_site_fract_z
O11	O1	0.298600	0.222000	0.200510
O21	O2	0.223500	0.184500	0.162730
C11	C1	0.239800	0.213300	0.186580
C21	C2	0.180400	0.231400	0.199930
C31	C3	0.192500	0.255500	0.226940
H11	H1	0.238700	0.262600	0.236200
C41	C4	0.096400	0.299800	0.283320
H21	H2	0.045900	0.290300	0.276800
C51	C5	0.125000	0.321900	0.309870
O31	O3	0.965270	0.555330	0.533840
O41	O4	0.890170	0.517830	0.496060
C61	C6	0.906470	0.546630	0.519910
C71	C7	0.847070	0.564730	0.533260
C81	C8	0.859170	0.588830	0.560270
H31	H3	0.905370	0.595930	0.569530
C91	C9	0.763070	0.633130	0.616650
H41	H4	0.712570	0.623630	0.610130
C101	C10	0.791670	0.655230	0.643200
O51	O5	0.631930	0.888670	0.867180
O61	O6	0.556830	0.851170	0.829400
C111	C11	0.573130	0.879970	0.853250
C121	C12	0.513730	0.898070	0.866600
C131	C13	0.525830	0.922170	0.893610
H51	H5	0.572030	0.929270	0.902870
C141	C14	0.429730	0.966470	0.949990
H61	H6	0.379230	0.956970	0.943470
C151	C15	0.458330	0.988570	0.976540
O71	O7	0.778000	0.076600	0.200510
O81	O8	0.815500	0.039000	0.162730
C161	C16	0.786700	0.026500	0.186580
C171	C17	0.768600	0.949000	0.199930
C181	C18	0.744500	0.937000	0.226940
H71	H7	0.737400	0.976100	0.236200
C191	C19	0.700200	0.796600	0.283320
H81	H8	0.709700	0.755600	0.276800
C201	C20	0.678100	0.803100	0.309870
O91	O9	0.444670	0.409930	0.533840
O101	O10	0.482170	0.372330	0.496060
C211	C21	0.453370	0.359830	0.519910
C221	C22	0.435270	0.282330	0.533260
C231	C23	0.411170	0.270330	0.560270
H91	H9	0.404070	0.309430	0.569530
C241	C24	0.366870	0.129930	0.616650
H101	H10	0.376370	0.088930	0.610130
C251	C25	0.344770	0.136430	0.643200
O111	O11	0.111330	0.743270	0.867180
O121	O12	0.148830	0.705670	0.829400
C261	C26	0.120030	0.693170	0.853250
C271	C27	0.101930	0.615670	0.866600
C281	C28	0.077830	0.603670	0.893610
H111	H11	0.070730	0.642770	0.902870
C291	C29	0.033530	0.463270	0.949990
H121	H12	0.043030	0.422270	0.943470
C301	C30	0.011430	0.469770	0.976540
O131	O13	0.923400	0.701400	0.200510
O141	O14	0.961000	0.776500	0.162730
C311	C31	0.973500	0.760200	0.186580
C321	C32	0.051000	0.819600	0.199930
C331	C33	0.063000	0.807500	0.226940
H131	H13	0.023900	0.761300	0.236200
C341	C34	0.203400	0.903600	0.283320
H141	H14	0.244400	0.954100	0.276800
C351	C35	0.196900	0.875000	0.309870
O151	O15	0.590070	0.034730	0.533840
O161	O16	0.627670	0.109830	0.496060
C361	C36	0.640170	0.093530	0.519910
C371	C37	0.717670	0.152930	0.533260
C381	C38	0.729670	0.140830	0.560270
H151	H15	0.690570	0.094630	0.569530
C391	C39	0.870070	0.236930	0.616650
H161	H16	0.911070	0.287430	0.610130
C401	C40	0.863570	0.208330	0.643200
O171	O17	0.256730	0.368070	0.867180
O181	O18	0.294330	0.443170	0.829400
C411	C41	0.306830	0.426870	0.853250
C421	C42	0.384330	0.486270	0.866600
C431	C43	0.396330	0.474170	0.893610
H171	H17	0.357230	0.427970	0.902870
C441	C44	0.536730	0.570270	0.949990
H181	H18	0.577730	0.620770	0.943470
C451	C45	0.530230	0.541670	0.976540
O191	O19	0.222000	0.298600	0.799490
O201	O20	0.184500	0.223500	0.837270
C461	C46	0.213300	0.239800	0.813420
C471	C47	0.231400	0.180400	0.800070
C481	C48	0.255500	0.192500	0.773060
H191	H19	0.262600	0.238700	0.763800
C491	C49	0.299800	0.096400	0.716680
H201	H20	0.290300	0.045900	0.723200
C501	C50	0.321900	0.125000	0.690130
O211	O21	0.888670	0.631930	0.132820
O221	O22	0.851170	0.556830	0.170600
C511	C51	0.879970	0.573130	0.146750
C521	C52	0.898070	0.513730	0.133400
C531	C53	0.922170	0.525830	0.106390
H211	H21	0.929270	0.572030	0.097130
C541	C54	0.966470	0.429730	0.050010
H221	H22	0.956970	0.379230	0.056530
C551	C55	0.988570	0.458330	0.023460
O231	O23	0.555330	0.965270	0.466160
O241	O24	0.517830	0.890170	0.503940
C561	C56	0.546630	0.906470	0.480090
C571	C57	0.564730	0.847070	0.466740
C581	C58	0.588830	0.859170	0.439730
H231	H23	0.595930	0.905370	0.430470
C591	C59	0.633130	0.763070	0.383350
H241	H24	0.623630	0.712570	0.389870
C601	C60	0.655230	0.791670	0.356800
O251	O25	0.076600	0.778000	0.799490
O261	O26	0.039000	0.815500	0.837270
C611	C61	0.026500	0.786700	0.813420
C621	C62	0.949000	0.768600	0.800070
C631	C63	0.937000	0.744500	0.773060
H251	H25	0.976100	0.737400	0.763800
C641	C64	0.796600	0.700200	0.716680
H261	H26	0.755600	0.709700	0.723200
C651	C65	0.803100	0.678100	0.690130
O271	O27	0.743270	0.111330	0.132820
O281	O28	0.705670	0.148830	0.170600
C661	C66	0.693170	0.120030	0.146750
C671	C67	0.615670	0.101930	0.133400
C681	C68	0.603670	0.077830	0.106390
H271	H27	0.642770	0.070730	0.097130
C691	C69	0.463270	0.033530	0.050010
H281	H28	0.422270	0.043030	0.056530
C701	C70	0.469770	0.011430	0.023460
O291	O29	0.409930	0.444670	0.466160
O301	O30	0.372330	0.482170	0.503940
C711	C71	0.359830	0.453370	0.480090
C721	C72	0.282330	0.435270	0.466740
C731	C73	0.270330	0.411170	0.439730
H291	H29	0.309430	0.404070	0.430470
C741	C74	0.129930	0.366870	0.383350
H301	H30	0.088930	0.376370	0.389870
C751	C75	0.136430	0.344770	0.356800
O311	O31	0.701400	0.923400	0.799490
O321	O32	0.776500	0.961000	0.837270
C761	C76	0.760200	0.973500	0.813420
C771	C77	0.819600	0.051000	0.800070
C781	C78	0.807500	0.063000	0.773060
H311	H31	0.761300	0.023900	0.763800
C791	C79	0.903600	0.203400	0.716680
H321	H32	0.954100	0.244400	0.723200
C801	C80	0.875000	0.196900	0.690130
O331	O33	0.368070	0.256730	0.132820
O341	O34	0.443170	0.294330	0.170600
C811	C81	0.426870	0.306830	0.146750
C821	C82	0.486270	0.384330	0.133400
C831	C83	0.474170	0.396330	0.106390
H331	H33	0.427970	0.357230	0.097130
C841	C84	0.570270	0.536730	0.050010
H341	H34	0.620770	0.577730	0.056530
C851	C85	0.541670	0.530230	0.023460
O351	O35	0.034730	0.590070	0.466160
O361	O36	0.109830	0.627670	0.503940
C861	C86	0.093530	0.640170	0.480090
C871	C87	0.152930	0.717670	0.466740
C881	C88	0.140830	0.729670	0.439730
H351	H35	0.094630	0.690570	0.430470
C891	C89	0.236930	0.870070	0.383350
H361	H36	0.287430	0.911070	0.389870
C901	C90	0.208330	0.863570	0.356800
O371	O37	0.701400	0.778000	0.799490
O381	O38	0.776500	0.815500	0.837270
C911	C91	0.760200	0.786700	0.813420
C921	C92	0.819600	0.768600	0.800070
C931	C93	0.807500	0.744500	0.773060
H371	H37	0.761300	0.737400	0.763800
C941	C94	0.903600	0.700200	0.716680
H381	H38	0.954100	0.709700	0.723200
C951	C95	0.875000	0.678100	0.690130
O391	O39	0.368070	0.111330	0.132820
O401	O40	0.443170	0.148830	0.170600
C961	C96	0.426870	0.120030	0.146750
C971	C97	0.486270	0.101930	0.133400
C981	C98	0.474170	0.077830	0.106390
H391	H39	0.427970	0.070730	0.097130
C991	C99	0.570270	0.033530	0.050010
H401	H40	0.620770	0.043030	0.056530
C1001	C100	0.541670	0.011430	0.023460
O411	O41	0.034730	0.444670	0.466160
O421	O42	0.109830	0.482170	0.503940
C1011	C101	0.093530	0.453370	0.480090
C1021	C102	0.152930	0.435270	0.466740
C1031	C103	0.140830	0.411170	0.439730
H411	H41	0.094630	0.404070	0.430470
C1041	C104	0.236930	0.366870	0.383350
H421	H42	0.287430	0.376370	0.389870
C1051	C105	0.208330	0.344770	0.356800
O431	O43	0.222000	0.923400	0.799490
O441	O44	0.184500	0.961000	0.837270
C1061	C106	0.213300	0.973500	0.813420
C1071	C107	0.231400	0.051000	0.800070
C1081	C108	0.255500	0.063000	0.773060
H431	H43	0.262600	0.023900	0.763800
C1091	C109	0.299800	0.203400	0.716680
H441	H44	0.290300	0.244400	0.723200
C1101	C110	0.321900	0.196900	0.690130
O451	O45	0.888670	0.256730	0.132820
O461	O46	0.851170	0.294330	0.170600
C1111	C111	0.879970	0.306830	0.146750
C1121	C112	0.898070	0.384330	0.133400
C1131	C113	0.922170	0.396330	0.106390
H451	H45	0.929270	0.357230	0.097130
C1141	C114	0.966470	0.536730	0.050010
H461	H46	0.956970	0.577730	0.056530
C1151	C115	0.988570	0.530230	0.023460
O471	O47	0.555330	0.590070	0.466160
O481	O48	0.517830	0.627670	0.503940
C1161	C116	0.546630	0.640170	0.480090
C1171	C117	0.564730	0.717670	0.466740
C1181	C118	0.588830	0.729670	0.439730
H471	H47	0.595930	0.690570	0.430470
C1191	C119	0.633130	0.870070	0.383350
H481	H48	0.623630	0.911070	0.389870
C1201	C120	0.655230	0.863570	0.356800
O491	O49	0.076600	0.298600	0.799490
O501	O50	0.039000	0.223500	0.837270
C1211	C121	0.026500	0.239800	0.813420
C1221	C122	0.949000	0.180400	0.800070
C1231	C123	0.937000	0.192500	0.773060
H491	H49	0.976100	0.238700	0.763800
C1241	C124	0.796600	0.096400	0.716680
H501	H50	0.755600	0.045900	0.723200
C1251	C125	0.803100	0.125000	0.690130
O511	O51	0.743270	0.631930	0.132820
O521	O52	0.705670	0.556830	0.170600
C1261	C126	0.693170	0.573130	0.146750
C1271	C127	0.615670	0.513730	0.133400
C1281	C128	0.603670	0.525830	0.106390
H511	H51	0.642770	0.572030	0.097130
C1291	C129	0.463270	0.429730	0.050010
H521	H52	0.422270	0.379230	0.056530
C1301	C130	0.469770	0.458330	0.023460
O531	O53	0.409930	0.965270	0.466160
O541	O54	0.372330	0.890170	0.503940
C1311	C131	0.359830	0.906470	0.480090
C1321	C132	0.282330	0.847070	0.466740
C1331	C133	0.270330	0.859170	0.439730
H531	H53	0.309430	0.905370	0.430470
C1341	C134	0.129930	0.763070	0.383350
H541	H54	0.088930	0.712570	0.389870
C1351	C135	0.136430	0.791670	0.356800
O551	O55	0.778000	0.701400	0.200510
O561	O56	0.815500	0.776500	0.162730
C1361	C136	0.786700	0.760200	0.186580
C1371	C137	0.768600	0.819600	0.199930
C1381	C138	0.744500	0.807500	0.226940
H551	H55	0.737400	0.761300	0.236200
C1391	C139	0.700200	0.903600	0.283320
H561	H56	0.709700	0.954100	0.276800
C1401	C140	0.678100	0.875000	0.309870
O571	O57	0.444670	0.034730	0.533840
O581	O58	0.482170	0.109830	0.496060
C1411	C141	0.453370	0.093530	0.519910
C1421	C142	0.435270	0.152930	0.533260
C1431	C143	0.411170	0.140830	0.560270
H571	H57	0.404070	0.094630	0.569530
C1441	C144	0.366870	0.236930	0.616650
H581	H58	0.376370	0.287430	0.610130
C1451	C145	0.344770	0.208330	0.643200
O591	O59	0.111330	0.368070	0.867180
O601	O60	0.148830	0.443170	0.829400
C1461	C146	0.120030	0.426870	0.853250
C1471	C147	0.101930	0.486270	0.866600
C1481	C148	0.077830	0.474170	0.893610
H591	H59	0.070730	0.427970	0.902870
C1491	C149	0.033530	0.570270	0.949990
H601	H60	0.043030	0.620770	0.943470
C1501	C150	0.011430	0.541670	0.976540
O611	O61	0.923400	0.222000	0.200510
O621	O62	0.961000	0.184500	0.162730
C1511	C151	0.973500	0.213300	0.186580
C1521	C152	0.051000	0.231400	0.199930
C1531	C153	0.063000	0.255500	0.226940
H611	H61	0.023900	0.262600	0.236200
C1541	C154	0.203400	0.299800	0.283320
H621	H62	0.244400	0.290300	0.276800
C1551	C155	0.196900	0.321900	0.309870
O631	O63	0.590070	0.555330	0.533840
O641	O64	0.627670	0.517830	0.496060
C1561	C156	0.640170	0.546630	0.519910
C1571	C157	0.717670	0.564730	0.533260
C1581	C158	0.729670	0.588830	0.560270
H631	H63	0.690570	0.595930	0.569530
C1591	C159	0.870070	0.633130	0.616650
H641	H64	0.911070	0.623630	0.610130
C1601	C160	0.863570	0.655230	0.643200
O651	O65	0.256730	0.888670	0.867180
O661	O66	0.294330	0.851170	0.829400
C1611	C161	0.306830	0.879970	0.853250
C1621	C162	0.384330	0.898070	0.866600
C1631	C163	0.396330	0.922170	0.893610
H651	H65	0.357230	0.929270	0.902870
C1641	C164	0.536730	0.966470	0.949990
H661	H66	0.577730	0.956970	0.943470
C1651	C165	0.530230	0.988570	0.976540
O671	O67	0.298600	0.076600	0.200510
O681	O68	0.223500	0.039000	0.162730
C1661	C166	0.239800	0.026500	0.186580
C1671	C167	0.180400	0.949000	0.199930
C1681	C168	0.192500	0.937000	0.226940
H671	H67	0.238700	0.976100	0.236200
C1691	C169	0.096400	0.796600	0.283320
H681	H68	0.045900	0.755600	0.276800
C1701	C170	0.125000	0.803100	0.309870
O691	O69	0.965270	0.409930	0.533840
O701	O70	0.890170	0.372330	0.496060
C1711	C171	0.906470	0.359830	0.519910
C1721	C172	0.847070	0.282330	0.533260
C1731	C173	0.859170	0.270330	0.560270
H691	H69	0.905370	0.309430	0.569530
C1741	C174	0.763070	0.129930	0.616650
H701	H70	0.712570	0.088930	0.610130
C1751	C175	0.791670	0.136430	0.643200
O711	O71	0.631930	0.743270	0.867180
O721	O72	0.556830	0.705670	0.829400
C1761	C176	0.573130	0.693170	0.853250
C1771	C177	0.513730	0.615670	0.866600
C1781	C178	0.525830	0.603670	0.893610
H711	H71	0.572030	0.642770	0.902870
C1791	C179	0.429730	0.463270	0.949990
H721	H72	0.379230	0.422270	0.943470
C1801	C180	0.458330	0.469770	0.976540
Cu11	Cu1	0.287370	0.143680	0.144330
O731	O73	0.221900	0.110950	0.107560
Cu21	Cu2	0.954040	0.477020	0.477660
O741	O74	0.888570	0.444280	0.440890
Cu31	Cu3	0.620700	0.810350	0.810990
O751	O75	0.555230	0.777620	0.774230
Cu41	Cu4	0.856320	0.143680	0.144330
O761	O76	0.889050	0.110950	0.107560
Cu51	Cu5	0.522980	0.477020	0.477660
O771	O77	0.555720	0.444280	0.440890
Cu61	Cu6	0.189650	0.810350	0.810990
O781	O78	0.222380	0.777620	0.774230
Cu71	Cu7	0.856310	0.712630	0.144330
O791	O79	0.889050	0.778100	0.107560
Cu81	Cu8	0.522980	0.045960	0.477660
O801	O80	0.555720	0.111430	0.440890
Cu91	Cu9	0.189650	0.379300	0.810990
O811	O81	0.222380	0.444770	0.774230
Cu101	Cu10	0.143680	0.287370	0.855670
O821	O82	0.110950	0.221900	0.892440
Cu111	Cu11	0.810350	0.620700	0.189010
O831	O83	0.777620	0.555230	0.225770
Cu121	Cu12	0.477020	0.954040	0.522340
O841	O84	0.444280	0.888570	0.559110
Cu131	Cu13	0.143680	0.856320	0.855670
O851	O85	0.110950	0.889050	0.892440
Cu141	Cu14	0.810350	0.189650	0.189010
O861	O86	0.777620	0.222380	0.225770
Cu151	Cu15	0.477020	0.522980	0.522340
O871	O87	0.444280	0.555720	0.559110
Cu161	Cu16	0.712630	0.856310	0.855670
O881	O88	0.778100	0.889050	0.892440
Cu171	Cu17	0.379300	0.189650	0.189010
O891	O89	0.444770	0.222380	0.225770
Cu181	Cu18	0.045960	0.522980	0.522340
O901	O90	0.111430	0.555720	0.559110
C1811	C181	0.110950	0.221900	0.187300
H731	H73	0.104050	0.208100	0.169000
C1821	C182	0.134350	0.268700	0.239800
C1831	C183	0.147700	0.295400	0.270500
C1841	C184	0.777620	0.555230	0.520630
H741	H74	0.770720	0.541430	0.502330
C1851	C185	0.801020	0.602030	0.573130
C1861	C186	0.814370	0.628730	0.603830
C1871	C187	0.444280	0.888570	0.853970
H751	H75	0.437380	0.874770	0.835670
C1881	C188	0.467680	0.935370	0.906470
C1891	C189	0.481030	0.962070	0.937170
C1901	C190	0.778100	0.889050	0.187300
H761	H76	0.791900	0.895950	0.169000
C1911	C191	0.731300	0.865650	0.239800
C1921	C192	0.704600	0.852300	0.270500
C1931	C193	0.444770	0.222380	0.520630
H771	H77	0.458570	0.229280	0.502330
C1941	C194	0.397970	0.198980	0.573130
C1951	C195	0.371270	0.185630	0.603830
C1961	C196	0.111430	0.555720	0.853970
H781	H78	0.125230	0.562620	0.835670
C1971	C197	0.064630	0.532320	0.906470
C1981	C198	0.037930	0.518970	0.937170
C1991	C199	0.110950	0.889050	0.187300
H791	H79	0.104050	0.895950	0.169000
C2001	C200	0.134350	0.865650	0.239800
C2011	C201	0.147700	0.852300	0.270500
C2021	C202	0.777620	0.222380	0.520630
H801	H80	0.770720	0.229280	0.502330
C2031	C203	0.801020	0.198980	0.573130
C2041	C204	0.814370	0.185630	0.603830
C2051	C205	0.444280	0.555720	0.853970
H811	H81	0.437380	0.562620	0.835670
C2061	C206	0.467680	0.532320	0.906470
C2071	C207	0.481030	0.518970	0.937170
C2081	C208	0.221900	0.110950	0.812700
H821	H82	0.208100	0.104050	0.831000
C2091	C209	0.268700	0.134350	0.760200
C2101	C210	0.295400	0.147700	0.729500
C2111	C211	0.888570	0.444280	0.146030
H831	H83	0.874770	0.437380	0.164330
C2121	C212	0.935370	0.467680	0.093530
C2131	C213	0.962070	0.481030	0.062830
C2141	C214	0.555230	0.777620	0.479370
H841	H84	0.541430	0.770720	0.497670
C2151	C215	0.602030	0.801020	0.426870
C2161	C216	0.628730	0.814370	0.396170
C2171	C217	0.889050	0.778100	0.812700
H851	H85	0.895950	0.791900	0.831000
C2181	C218	0.865650	0.731300	0.760200
C2191	C219	0.852300	0.704600	0.729500
C2201	C220	0.555720	0.111430	0.146030
H861	H86	0.562620	0.125230	0.164330
C2211	C221	0.532320	0.064630	0.093530
C2221	C222	0.518970	0.037930	0.062830
C2231	C223	0.222380	0.444770	0.479370
H871	H87	0.229280	0.458570	0.497670
C2241	C224	0.198980	0.397970	0.426870
C2251	C225	0.185630	0.371270	0.396170
C2261	C226	0.889050	0.110950	0.812700
H881	H88	0.895950	0.104050	0.831000
C2271	C227	0.865650	0.134350	0.760200
C2281	C228	0.852300	0.147700	0.729500
C2291	C229	0.555720	0.444280	0.146030
H891	H89	0.562620	0.437380	0.164330
C2301	C230	0.532320	0.467680	0.093530
C2311	C231	0.518970	0.481030	0.062830
C2321	C232	0.222380	0.777620	0.479370
H901	H90	0.229280	0.770720	0.497670
C2331	C233	0.198980	0.801020	0.426870
C2341	C234	0.185630	0.814370	0.396170
C2351	C235	0.093220	0.333330	0.333330
H911	H91	0.043820	0.333330	0.333330
C2361	C236	0.666670	0.759880	0.333330
H921	H92	0.666670	0.710480	0.333330
C2371	C237	0.240120	0.906780	0.333330
H931	H93	0.289520	0.956180	0.333330
C2381	C238	0.333330	0.093220	0.666670
H941	H94	0.333330	0.043820	0.666670
C2391	C239	0.000000	0.426550	0.000000
H951	H95	0.000000	0.377150	0.000000
C2401	C240	0.759880	0.666670	0.666670
H961	H96	0.710480	0.666670	0.666670
C2411	C241	0.426550	0.000000	0.000000
H971	H97	0.377150	0.000000	0.000000
C2421	C242	0.906780	0.240120	0.666670
H981	H98	0.956180	0.289520	0.666670
C2431	C243	0.573450	0.573450	0.000000
H991	H99	0.622850	0.622850	0.000000
C2441	C244	0.906780	0.666670	0.666670
H1001	H100	0.956180	0.666670	0.666670
C2451	C245	0.573450	0.000000	0.000000
H1011	H101	0.622850	0.000000	0.000000
C2461	C246	0.240120	0.333330	0.333330
H1021	H102	0.289520	0.333330	0.333330
C2471	C247	0.333330	0.240120	0.666670
H1031	H103	0.333330	0.289520	0.666670
C2481	C248	0.000000	0.573450	0.000000
H1041	H104	0.000000	0.622850	0.000000
C2491	C249	0.759880	0.093220	0.666670
H1051	H105	0.710480	0.043820	0.666670
C2501	C250	0.426550	0.426550	0.000000
H1061	H106	0.377150	0.377150	0.000000
C2511	C251	0.666670	0.906780	0.333330
H1071	H107	0.666670	0.956180	0.333330
C2521	C252	0.093220	0.759880	0.333330
H1081	H108	0.043820	0.710480	0.333330
