data_EBEMII_freeONLY_PM
_symmetry_space_group_name_H-M	'P1'
_cell_length_a	11.215000
_cell_length_b	13.983000
_cell_length_c	13.997300
_cell_angle_alpha	104.264000
_cell_angle_beta	113.617000
_cell_angle_gamma	90.000000
_symmetry_Int_Tables_number 1

loop_
_symmetry_equiv_pos_as_xyz
'x,y,z'

loop_
_atom_site_label
_atom_site_type_symbol
_atom_site_fract_x
_atom_site_fract_y
_atom_site_fract_z
Cd11	Cd1	0.903160	0.367230	0.448520
Cd21	Cd2	0.454640	0.132770	0.551480
H11	H1	0.788000	0.783300	0.359000
H21	H2	0.951000	0.843500	0.321600
H31	H3	0.088300	0.370300	0.318800
H41	H4	0.084800	0.381300	0.156400
H51	H5	0.690500	0.369100	0.040200
H61	H6	0.707500	0.361100	0.209200
H71	H7	0.149600	0.375900	0.859000
H81	H8	0.114500	0.373600	0.683400
H91	H9	0.734300	0.371800	0.592200
H101	H10	0.756200	0.372000	0.763400
H111	H11	0.788000	0.376600	0.924600
H121	H12	0.058000	0.380400	0.994200
H131	H13	0.429000	0.716700	0.641000
H141	H14	0.629400	0.656500	0.678400
H151	H15	0.769500	0.129700	0.681200
H161	H16	0.928400	0.118700	0.843600
H171	H17	0.650300	0.130900	0.959800
H181	H18	0.498300	0.138900	0.790800
H191	H19	0.290600	0.124100	0.141000
H201	H20	0.431100	0.126400	0.316600
H211	H21	0.142100	0.128200	0.407800
H221	H22	0.992800	0.128000	0.236600
H231	H23	0.863400	0.123400	0.075400
H241	H24	0.063800	0.119600	0.005800
C11	C1	0.828100	0.041200	0.368200
C21	C2	0.739700	0.010400	0.403400
C31	C3	0.800100	0.852000	0.366200
C41	C4	0.895300	0.888000	0.340600
C51	C5	0.839500	0.146000	0.361000
C61	C6	0.666400	0.083000	0.452800
C71	C7	0.005700	0.370500	0.261400
C81	C8	0.005300	0.377000	0.164600
C91	C9	0.888300	0.378000	0.080600
C101	C10	0.774400	0.370000	0.096800
C111	C11	0.785100	0.365000	0.198200
C121	C12	0.952200	0.375400	0.828400
C131	C13	0.063700	0.375000	0.805400
C141	C14	0.041800	0.373700	0.701600
C151	C15	0.818500	0.372000	0.647000
C161	C16	0.831300	0.373000	0.748600
C171	C17	0.874300	0.377000	0.976600
C181	C18	0.971200	0.378000	0.942400
C191	C19	0.459900	0.458800	0.631800
C201	C20	0.336300	0.489600	0.596600
C211	C21	0.433900	0.648000	0.633800
C221	C22	0.554700	0.612000	0.659400
C231	C23	0.478500	0.354000	0.639000
C241	C24	0.213600	0.417000	0.547200
C251	C25	0.744300	0.129500	0.738600
C261	C26	0.840700	0.123000	0.835400
C271	C27	0.807700	0.122000	0.919400
C281	C28	0.677600	0.130000	0.903200
C291	C29	0.586900	0.135000	0.801800
C301	C30	0.123800	0.124600	0.171600
C311	C31	0.258300	0.125000	0.194600
C321	C32	0.340200	0.126300	0.298400
C331	C33	0.171500	0.128000	0.353000
C341	C34	0.082700	0.127000	0.251400
C351	C35	0.897700	0.123000	0.023400
C361	C36	0.028800	0.122000	0.057600
N11	N1	0.910600	0.982900	0.341200
N21	N2	0.723200	0.914300	0.402000
N31	N3	0.898200	0.364300	0.280400
N41	N4	0.921600	0.372400	0.624000
N51	N5	0.569400	0.517100	0.658800
N61	N6	0.321200	0.585700	0.598000
N71	N7	0.617800	0.135700	0.719600
N81	N8	0.297600	0.127600	0.376000
O11	O1	0.929600	0.205100	0.435200
O21	O2	0.760700	0.167000	0.283400
O31	O3	0.683400	0.166300	0.460800
O41	O4	0.583500	0.043600	0.474800
O51	O5	0.494400	0.294900	0.564800
O61	O6	0.477300	0.333000	0.716600
O71	O7	0.222600	0.333700	0.539200
O81	O8	0.108700	0.456400	0.525200
Cd31	Cd3	0.096840	0.632770	0.551480
Cd41	Cd4	0.545360	0.867230	0.448520
H251	H25	0.212000	0.216700	0.641000
H261	H26	0.049000	0.156500	0.678400
H271	H27	0.911700	0.629700	0.681200
H281	H28	0.915200	0.618700	0.843600
H291	H29	0.309500	0.630900	0.959800
H301	H30	0.292500	0.638900	0.790800
H311	H31	0.850400	0.624100	0.141000
H321	H32	0.885500	0.626400	0.316600
H331	H33	0.265700	0.628200	0.407800
H341	H34	0.243800	0.628000	0.236600
H351	H35	0.212000	0.623400	0.075400
H361	H36	0.942000	0.619600	0.005800
H371	H37	0.571000	0.283300	0.359000
H381	H38	0.370600	0.343500	0.321600
H391	H39	0.230500	0.870300	0.318800
H401	H40	0.071600	0.881300	0.156400
H411	H41	0.349700	0.869100	0.040200
H421	H42	0.501700	0.861100	0.209200
H431	H43	0.709400	0.875900	0.859000
H441	H44	0.568900	0.873600	0.683400
H451	H45	0.857900	0.871800	0.592200
H461	H46	0.007200	0.872000	0.763400
H471	H47	0.136600	0.876600	0.924600
H481	H48	0.936200	0.880400	0.994200
C371	C37	0.171900	0.958800	0.631800
C381	C38	0.260300	0.989600	0.596600
C391	C39	0.199900	0.148000	0.633800
C401	C40	0.104700	0.112000	0.659400
C411	C41	0.160500	0.854000	0.639000
C421	C42	0.333600	0.917000	0.547200
C431	C43	0.994300	0.629500	0.738600
C441	C44	0.994700	0.623000	0.835400
C451	C45	0.111700	0.622000	0.919400
C461	C46	0.225600	0.630000	0.903200
C471	C47	0.214900	0.635000	0.801800
C481	C48	0.047800	0.624600	0.171600
C491	C49	0.936300	0.625000	0.194600
C501	C50	0.958200	0.626300	0.298400
C511	C51	0.181500	0.628000	0.353000
C521	C52	0.168700	0.627000	0.251400
C531	C53	0.125700	0.623000	0.023400
C541	C54	0.028800	0.622000	0.057600
C551	C55	0.540100	0.541200	0.368200
C561	C56	0.663700	0.510400	0.403400
C571	C57	0.566100	0.352000	0.366200
C581	C58	0.445300	0.388000	0.340600
C591	C59	0.521500	0.646000	0.361000
C601	C60	0.786400	0.583000	0.452800
C611	C61	0.255700	0.870500	0.261400
C621	C62	0.159300	0.877000	0.164600
C631	C63	0.192300	0.878000	0.080600
C641	C64	0.322400	0.870000	0.096800
C651	C65	0.413100	0.865000	0.198200
C661	C66	0.876200	0.875400	0.828400
C671	C67	0.741700	0.875000	0.805400
C681	C68	0.659800	0.873700	0.701600
C691	C69	0.828500	0.872000	0.647000
C701	C70	0.917300	0.873000	0.748600
C711	C71	0.102300	0.877000	0.976600
C721	C72	0.971200	0.878000	0.942400
N91	N9	0.089400	0.017100	0.658800
N101	N10	0.276800	0.085700	0.598000
N111	N11	0.101800	0.635700	0.719600
N121	N12	0.078400	0.627600	0.376000
N131	N13	0.430600	0.482900	0.341200
N141	N14	0.678800	0.414300	0.402000
N151	N15	0.382200	0.864300	0.280400
N161	N16	0.702400	0.872400	0.624000
O91	O9	0.070400	0.794900	0.564800
O101	O10	0.239300	0.833000	0.716600
O111	O11	0.316600	0.833700	0.539200
O121	O12	0.416500	0.956400	0.525200
O131	O13	0.505600	0.705100	0.435200
O141	O14	0.522700	0.667000	0.283400
O151	O15	0.777400	0.666300	0.460800
O161	O16	0.891300	0.543600	0.474800
