data_EBEXEQ_freeONLY_PM
_symmetry_space_group_name_H-M	'P1'
_cell_length_a	10.319700
_cell_length_b	10.319700
_cell_length_c	14.044400
_cell_angle_alpha	90.000000
_cell_angle_beta	90.000000
_cell_angle_gamma	90.000000
_symmetry_Int_Tables_number 1

loop_
_symmetry_equiv_pos_as_xyz
'x,y,z'

loop_
_atom_site_label
_atom_site_type_symbol
_atom_site_fract_x
_atom_site_fract_y
_atom_site_fract_z
Gd11	Gd1	0.136790	0.871040	0.916260
Gd21	Gd2	0.863210	0.128960	0.416260
Gd31	Gd3	0.128960	0.136790	0.666260
Gd41	Gd4	0.871040	0.863210	0.166260
H11	H1	0.305200	0.765200	0.783600
H21	H2	0.994000	0.454400	0.199900
H31	H3	0.008400	0.116200	0.049400
H41	H4	0.095200	0.452400	0.921700
H51	H5	0.191000	0.562000	0.815500
H61	H6	0.306500	0.582400	0.740900
H71	H7	0.362300	0.420700	0.844800
H81	H8	0.455700	0.542000	0.862800
H91	H9	0.337700	0.514200	0.933900
H101	H10	0.694800	0.234800	0.283600
H111	H11	0.006000	0.545600	0.699900
H121	H12	0.991600	0.883800	0.549400
H131	H13	0.904800	0.547600	0.421700
H141	H14	0.809000	0.438000	0.315500
H151	H15	0.693500	0.417600	0.240900
H161	H16	0.637700	0.579300	0.344800
H171	H17	0.544300	0.458000	0.362800
H181	H18	0.662300	0.485800	0.433900
H191	H19	0.234800	0.305200	0.533600
H201	H20	0.545600	0.994000	0.949900
H211	H21	0.883800	0.008400	0.799400
H221	H22	0.547600	0.095200	0.671700
H231	H23	0.438000	0.191000	0.565500
H241	H24	0.417600	0.306500	0.490900
H251	H25	0.579300	0.362300	0.594800
H261	H26	0.458000	0.455700	0.612800
H271	H27	0.485800	0.337700	0.683900
H281	H28	0.765200	0.694800	0.033600
H291	H29	0.454400	0.006000	0.449900
H301	H30	0.116200	0.991600	0.299400
H311	H31	0.452400	0.904800	0.171700
H321	H32	0.562000	0.809000	0.065500
H331	H33	0.582400	0.693500	0.990900
H341	H34	0.420700	0.637700	0.094800
H351	H35	0.542000	0.544300	0.112800
H361	H36	0.514200	0.662300	0.183900
C11	C1	0.044800	0.622600	0.058500
C21	C2	0.958300	0.200200	0.227700
C31	C3	0.077200	0.201300	0.883300
C41	C4	0.044000	0.475000	0.059100
C51	C5	0.008900	0.408100	0.142500
C61	C6	0.995800	0.272300	0.140600
C71	C7	0.018400	0.207600	0.052700
C81	C8	0.053700	0.273400	0.974100
C91	C9	0.068200	0.407300	0.977200
C101	C10	0.281600	0.591900	0.808600
C111	C11	0.366400	0.510500	0.867400
C121	C12	0.955200	0.377400	0.558500
C131	C13	0.041700	0.799800	0.727700
C141	C14	0.922800	0.798700	0.383300
C151	C15	0.956000	0.525000	0.559100
C161	C16	0.991100	0.591900	0.642500
C171	C17	0.004200	0.727700	0.640600
C181	C18	0.981600	0.792400	0.552700
C191	C19	0.946300	0.726600	0.474100
C201	C20	0.931800	0.592700	0.477200
C211	C21	0.718400	0.408100	0.308600
C221	C22	0.633600	0.489500	0.367400
C231	C23	0.377400	0.044800	0.808500
C241	C24	0.799800	0.958300	0.977700
C251	C25	0.798700	0.077200	0.633300
C261	C26	0.525000	0.044000	0.809100
C271	C27	0.591900	0.008900	0.892500
C281	C28	0.727700	0.995800	0.890600
C291	C29	0.792400	0.018400	0.802700
C301	C30	0.726600	0.053700	0.724100
C311	C31	0.592700	0.068200	0.727200
C321	C32	0.408100	0.281600	0.558600
C331	C33	0.489500	0.366400	0.617400
C341	C34	0.622600	0.955200	0.308500
C351	C35	0.200200	0.041700	0.477700
C361	C36	0.201300	0.922800	0.133300
C371	C37	0.475000	0.956000	0.309100
C381	C38	0.408100	0.991100	0.392500
C391	C39	0.272300	0.004200	0.390600
C401	C40	0.207600	0.981600	0.302700
C411	C41	0.273400	0.946300	0.224100
C421	C42	0.407300	0.931800	0.227200
C431	C43	0.591900	0.718400	0.058600
C441	C44	0.510500	0.633600	0.117400
O11	O1	0.107100	0.675000	0.994100
O21	O2	0.979100	0.674000	0.123800
O31	O3	0.991800	0.252000	0.309000
O41	O4	0.895200	0.094300	0.224500
O51	O5	0.072000	0.078900	0.885100
O61	O6	0.092900	0.261800	0.807600
O71	O7	0.289500	0.727200	0.835200
O81	O8	0.892900	0.325000	0.494100
O91	O9	0.020900	0.326000	0.623800
O101	O10	0.008200	0.748000	0.809000
O111	O11	0.104800	0.905700	0.724500
O121	O12	0.928000	0.921100	0.385100
O131	O13	0.907100	0.738200	0.307600
O141	O14	0.710500	0.272800	0.335200
O151	O15	0.325000	0.107100	0.744100
O161	O16	0.326000	0.979100	0.873800
O171	O17	0.748000	0.991800	0.059000
O181	O18	0.905700	0.895200	0.974500
O191	O19	0.921100	0.072000	0.635100
O201	O20	0.738200	0.092900	0.557600
O211	O21	0.272800	0.289500	0.585200
O221	O22	0.675000	0.892900	0.244100
O231	O23	0.674000	0.020900	0.373800
O241	O24	0.252000	0.008200	0.559000
O251	O25	0.094300	0.104800	0.474500
O261	O26	0.078900	0.928000	0.135100
O271	O27	0.261800	0.907100	0.057600
O281	O28	0.727200	0.710500	0.085200
