data_EBEXEQ01_freeONLY_PM
_symmetry_space_group_name_H-M	'P1'
_cell_length_a	10.339000
_cell_length_b	10.339000
_cell_length_c	14.057000
_cell_angle_alpha	90.000000
_cell_angle_beta	90.000000
_cell_angle_gamma	90.000000
_symmetry_Int_Tables_number 1

loop_
_symmetry_equiv_pos_as_xyz
'x,y,z'

loop_
_atom_site_label
_atom_site_type_symbol
_atom_site_fract_x
_atom_site_fract_y
_atom_site_fract_z
Gd11	Gd1	0.871970	0.863500	0.833910
Gd21	Gd2	0.128030	0.136500	0.333910
Gd31	Gd3	0.136500	0.871970	0.083910
Gd41	Gd4	0.863500	0.128030	0.583910
H11	H1	0.767200	0.695000	0.967800
H21	H2	0.115500	0.991600	0.697400
H31	H3	0.453300	0.903100	0.828200
H41	H4	0.452500	0.005800	0.548700
H51	H5	0.583000	0.698200	0.011700
H61	H6	0.563300	0.811800	0.935500
H71	H7	0.421000	0.638700	0.904100
H81	H8	0.518400	0.658500	0.816800
H91	H9	0.541900	0.543700	0.891200
H101	H10	0.232800	0.305000	0.467800
H111	H11	0.884500	0.008400	0.197400
H121	H12	0.546700	0.096900	0.328200
H131	H13	0.547500	0.994200	0.048700
H141	H14	0.417000	0.301800	0.511700
H151	H15	0.436700	0.188200	0.435500
H161	H16	0.579000	0.361300	0.404100
H171	H17	0.481600	0.341500	0.316800
H181	H18	0.458100	0.456300	0.391200
H191	H19	0.305000	0.767200	0.217800
H201	H20	0.008400	0.115500	0.947400
H211	H21	0.096900	0.453300	0.078200
H221	H22	0.994200	0.452500	0.798700
H231	H23	0.301800	0.583000	0.261700
H241	H24	0.188200	0.563300	0.185500
H251	H25	0.361300	0.421000	0.154100
H261	H26	0.341500	0.518400	0.066800
H271	H27	0.456300	0.541900	0.141200
H281	H28	0.695000	0.232800	0.717800
H291	H29	0.991600	0.884500	0.447400
H301	H30	0.903100	0.546700	0.578200
H311	H31	0.005800	0.547500	0.298700
H321	H32	0.698200	0.417000	0.761700
H331	H33	0.811800	0.436700	0.685500
H341	H34	0.638700	0.579000	0.654100
H351	H35	0.658500	0.481600	0.566800
H361	H36	0.543700	0.458100	0.641200
C11	C1	0.201800	0.038200	0.521900
C21	C2	0.273300	0.001900	0.609500
C31	C3	0.206800	0.981200	0.694900
C41	C4	0.275000	0.945400	0.776000
C51	C5	0.407600	0.929800	0.772900
C61	C6	0.474500	0.953400	0.688300
C71	C7	0.407100	0.989600	0.606300
C81	C8	0.200900	0.923300	0.866700
C91	C9	0.620900	0.953700	0.690100
C101	C10	0.592900	0.721500	0.943800
C111	C11	0.511400	0.632900	0.883800
C121	C12	0.798200	0.961800	0.021900
C131	C13	0.726700	0.998100	0.109500
C141	C14	0.793200	0.018800	0.194900
C151	C15	0.725000	0.054600	0.276000
C161	C16	0.592400	0.070200	0.272900
C171	C17	0.525500	0.046600	0.188300
C181	C18	0.592900	0.010400	0.106300
C191	C19	0.799100	0.076700	0.366700
C201	C20	0.379100	0.046300	0.190100
C211	C21	0.407100	0.278500	0.443800
C221	C22	0.488600	0.367100	0.383800
C231	C23	0.961800	0.201800	0.771900
C241	C24	0.998100	0.273300	0.859500
C251	C25	0.018800	0.206800	0.944900
C261	C26	0.054600	0.275000	0.026000
C271	C27	0.070200	0.407600	0.022900
C281	C28	0.046600	0.474500	0.938300
C291	C29	0.010400	0.407100	0.856300
C301	C30	0.076700	0.200900	0.116700
C311	C31	0.046300	0.620900	0.940100
C321	C32	0.278500	0.592900	0.193800
C331	C33	0.367100	0.511400	0.133800
C341	C34	0.038200	0.798200	0.271900
C351	C35	0.001900	0.726700	0.359500
C361	C36	0.981200	0.793200	0.444900
C371	C37	0.945400	0.725000	0.526000
C381	C38	0.929800	0.592400	0.522900
C391	C39	0.953400	0.525500	0.438300
C401	C40	0.989600	0.592900	0.356300
C411	C41	0.923300	0.799100	0.616700
C421	C42	0.953700	0.379100	0.440100
C431	C43	0.721500	0.407100	0.693800
C441	C44	0.632900	0.488600	0.633800
O11	O1	0.252200	0.006800	0.441300
O21	O2	0.095800	0.101800	0.523140
O31	O3	0.079800	0.927800	0.864730
O41	O4	0.262200	0.905700	0.942310
O51	O5	0.676700	0.890900	0.755140
O61	O6	0.675300	0.018400	0.625680
O71	O7	0.728700	0.711300	0.916600
O81	O8	0.747800	0.993200	0.941300
O91	O9	0.904200	0.898200	0.023140
O101	O10	0.920200	0.072200	0.364730
O111	O11	0.737800	0.094300	0.442310
O121	O12	0.323300	0.109100	0.255140
O131	O13	0.324700	0.981600	0.125680
O141	O14	0.271300	0.288700	0.416600
O151	O15	0.993200	0.252200	0.691300
O161	O16	0.898200	0.095800	0.773140
O171	O17	0.072200	0.079800	0.114730
O181	O18	0.094300	0.262200	0.192310
O191	O19	0.109100	0.676700	0.005140
O201	O20	0.981600	0.675300	0.875680
O211	O21	0.288700	0.728700	0.166600
O221	O22	0.006800	0.747800	0.191300
O231	O23	0.101800	0.904200	0.273140
O241	O24	0.927800	0.920200	0.614730
O251	O25	0.905700	0.737800	0.692310
O261	O26	0.890900	0.323300	0.505140
O271	O27	0.018400	0.324700	0.375680
O281	O28	0.711300	0.271300	0.666600
