data_EBEZUI_ion_b_PM
_symmetry_space_group_name_H-M	'P1'
_cell_length_a	16.756700
_cell_length_b	16.756700
_cell_length_c	13.192400
_cell_angle_alpha	103.600800
_cell_angle_beta	103.600800
_cell_angle_gamma	109.545600
_symmetry_Int_Tables_number 1

loop_
_symmetry_equiv_pos_as_xyz
'x,y,z'

loop_
_atom_site_label
_atom_site_type_symbol
_atom_site_fract_x
_atom_site_fract_y
_atom_site_fract_z
Ag11	Ag1	0.767280	0.102840	0.796480
Ag21	Ag2	0.493440	0.546740	0.885290
C31	C3	0.409900	0.036900	0.625100
H41	H4	0.395000	0.981800	0.642500
H51	H5	0.373200	0.021800	0.548800
C61	C6	0.567100	0.054100	0.699300
H71	H7	0.556000	0.021000	0.745900
C81	C8	0.545500	0.119100	0.578000
H91	H9	0.519500	0.140100	0.525800
C101	C10	0.631300	0.129700	0.611800
H111	H11	0.675100	0.160700	0.586200
C121	C12	0.201900	0.919900	0.518400
H131	H13	0.222700	0.881700	0.546500
C141	C14	0.132400	0.968000	0.413300
H151	H15	0.094000	0.971200	0.352200
C161	C16	0.180800	0.037000	0.511200
H171	H17	0.182900	0.094900	0.528300
C181	C18	0.287600	0.053200	0.691100
H191	H19	0.285300	0.010300	0.729700
H201	H20	0.267500	0.095900	0.728100
C211	C21	0.384700	0.103700	0.702700
C221	C22	0.400000	0.184200	0.665100
H231	H23	0.461300	0.205700	0.664300
H241	H24	0.360500	0.162300	0.588600
C251	C25	0.313500	0.270700	0.740500
H261	H26	0.257600	0.223200	0.719600
C271	C27	0.334900	0.358700	0.791900
H281	H28	0.296000	0.382400	0.813000
C291	C29	0.453100	0.347700	0.767000
H301	H30	0.511900	0.361700	0.767600
C311	C31	0.373400	0.242800	0.024000
H321	H32	0.335400	0.248600	0.064000
C331	C33	0.360700	0.167900	0.948700
H341	H34	0.313300	0.111700	0.926800
C351	C35	0.485000	0.276200	0.963200
H361	H36	0.537900	0.307300	0.952100
C371	C37	0.449000	0.129400	0.824200
C381	C38	0.525200	0.230800	0.339000
C391	C39	0.554400	0.250800	0.263000
C401	C40	0.592300	0.210700	0.209000
C411	C41	0.628300	0.138900	0.254300
N421	N42	0.504200	0.071800	0.634300
N431	N43	0.646200	0.089800	0.687800
N441	N44	0.147500	0.893900	0.416600
N451	N45	0.225300	0.005300	0.578700
N461	N46	0.388100	0.264500	0.725000
N471	N47	0.424000	0.407400	0.807600
N481	N48	0.450600	0.310000	0.033600
N491	N49	0.429200	0.188400	0.910100
O501	O50	0.562600	0.309800	0.437900
O511	O51	0.456300	0.171700	0.349900
O521	O52	0.656400	0.163200	0.357200
O531	O53	0.578800	0.063200	0.176000
Ag651	Ag65	0.897160	0.232720	0.703520
Ag661	Ag66	0.453260	0.506560	0.614710
C671	C67	0.963100	0.590100	0.874900
H681	H68	0.018200	0.605000	0.857500
H691	H69	0.978200	0.626800	0.951200
C701	C70	0.945900	0.432900	0.800700
H711	H71	0.979000	0.444000	0.754100
C721	C72	0.880900	0.454500	0.922000
H731	H73	0.859900	0.480500	0.974200
C741	C74	0.870300	0.368700	0.888200
H751	H75	0.839300	0.324900	0.913800
C761	C76	0.080100	0.798100	0.981600
H771	H77	0.118300	0.777300	0.953500
C781	C78	0.032000	0.867600	0.086700
H791	H79	0.028800	0.906000	0.147800
C801	C80	0.963000	0.819200	0.988800
H811	H81	0.905100	0.817100	0.971700
C821	C82	0.946800	0.712400	0.808900
H831	H83	0.989700	0.714700	0.770300
H841	H84	0.904100	0.732500	0.771900
C851	C85	0.896300	0.615300	0.797300
C861	C86	0.815800	0.600000	0.834900
H871	H87	0.794300	0.538700	0.835700
H881	H88	0.837700	0.639500	0.911400
C891	C89	0.729300	0.686500	0.759500
H901	H90	0.776800	0.742400	0.780400
C911	C91	0.641300	0.665100	0.708100
H921	H92	0.617600	0.704000	0.687000
C931	C93	0.652300	0.546900	0.733000
H941	H94	0.638300	0.488100	0.732400
C951	C95	0.757200	0.626600	0.476000
H961	H96	0.751400	0.664600	0.436000
C971	C97	0.832100	0.639300	0.551300
H981	H98	0.888300	0.686700	0.573200
C991	C99	0.723800	0.515000	0.536800
H1001	H100	0.692700	0.462100	0.547900
C1011	C101	0.870600	0.551000	0.675800
C1021	C102	0.769200	0.474800	0.161000
C1031	C103	0.749200	0.445600	0.237000
C1041	C104	0.789300	0.407700	0.291000
C1051	C105	0.861100	0.371700	0.245700
N1061	N106	0.928200	0.495800	0.865700
N1071	N107	0.910200	0.353800	0.812200
N1081	N108	0.106100	0.852500	0.083400
N1091	N109	0.994700	0.774700	0.921300
N1101	N110	0.735500	0.611900	0.775000
N1111	N111	0.592600	0.576000	0.692400
N1121	N112	0.690000	0.549400	0.466400
N1131	N113	0.811600	0.570800	0.589900
O1141	O114	0.690200	0.437400	0.062100
O1151	O115	0.828300	0.543700	0.150100
O1161	O116	0.836800	0.343600	0.142800
O1171	O117	0.936800	0.421200	0.324000
Ag1291	Ag129	0.232720	0.897160	0.203520
Ag1301	Ag130	0.506560	0.453260	0.114710
C1311	C131	0.590100	0.963100	0.374900
H1321	H132	0.605000	0.018200	0.357500
H1331	H133	0.626800	0.978200	0.451200
C1341	C134	0.432900	0.945900	0.300700
H1351	H135	0.444000	0.979000	0.254100
C1361	C136	0.454500	0.880900	0.422000
H1371	H137	0.480500	0.859900	0.474200
C1381	C138	0.368700	0.870300	0.388200
H1391	H139	0.324900	0.839300	0.413800
C1401	C140	0.798100	0.080100	0.481600
H1411	H141	0.777300	0.118300	0.453500
C1421	C142	0.867600	0.032000	0.586700
H1431	H143	0.906000	0.028800	0.647800
C1441	C144	0.819200	0.963000	0.488800
H1451	H145	0.817100	0.905100	0.471700
C1461	C146	0.712400	0.946800	0.308900
H1471	H147	0.714700	0.989700	0.270300
H1481	H148	0.732500	0.904100	0.271900
C1491	C149	0.615300	0.896300	0.297300
C1501	C150	0.600000	0.815800	0.334900
H1511	H151	0.538700	0.794300	0.335700
H1521	H152	0.639500	0.837700	0.411400
C1531	C153	0.686500	0.729300	0.259500
H1541	H154	0.742400	0.776800	0.280400
C1551	C155	0.665100	0.641300	0.208100
H1561	H156	0.704000	0.617600	0.187000
C1571	C157	0.546900	0.652300	0.233000
H1581	H158	0.488100	0.638300	0.232400
C1591	C159	0.626600	0.757200	0.976000
H1601	H160	0.664600	0.751400	0.936000
C1611	C161	0.639300	0.832100	0.051300
H1621	H162	0.686700	0.888300	0.073200
C1631	C163	0.515000	0.723800	0.036800
H1641	H164	0.462100	0.692700	0.047900
C1651	C165	0.551000	0.870600	0.175800
C1661	C166	0.474800	0.769200	0.661000
C1671	C167	0.445600	0.749200	0.737000
C1681	C168	0.407700	0.789300	0.791000
C1691	C169	0.371700	0.861100	0.745700
N1701	N170	0.495800	0.928200	0.365700
N1711	N171	0.353800	0.910200	0.312200
N1721	N172	0.852500	0.106100	0.583400
N1731	N173	0.774700	0.994700	0.421300
N1741	N174	0.611900	0.735500	0.275000
N1751	N175	0.576000	0.592600	0.192400
N1761	N176	0.549400	0.690000	0.966400
N1771	N177	0.570800	0.811600	0.089900
O1781	O178	0.437400	0.690200	0.562100
O1791	O179	0.543700	0.828300	0.650100
O1801	O180	0.343600	0.836800	0.642800
O1811	O181	0.421200	0.936800	0.824000
Ag1931	Ag193	0.102840	0.767280	0.296480
Ag1941	Ag194	0.546740	0.493440	0.385290
C1951	C195	0.036900	0.409900	0.125100
H1961	H196	0.981800	0.395000	0.142500
H1971	H197	0.021800	0.373200	0.048800
C1981	C198	0.054100	0.567100	0.199300
H1991	H199	0.021000	0.556000	0.245900
C2001	C200	0.119100	0.545500	0.078000
H2011	H201	0.140100	0.519500	0.025800
C2021	C202	0.129700	0.631300	0.111800
H2031	H203	0.160700	0.675100	0.086200
C2041	C204	0.919900	0.201900	0.018400
H2051	H205	0.881700	0.222700	0.046500
C2061	C206	0.968000	0.132400	0.913300
H2071	H207	0.971200	0.094000	0.852200
C2081	C208	0.037000	0.180800	0.011200
H2091	H209	0.094900	0.182900	0.028300
C2101	C210	0.053200	0.287600	0.191100
H2111	H211	0.010300	0.285300	0.229700
H2121	H212	0.095900	0.267500	0.228100
C2131	C213	0.103700	0.384700	0.202700
C2141	C214	0.184200	0.400000	0.165100
H2151	H215	0.205700	0.461300	0.164300
H2161	H216	0.162300	0.360500	0.088600
C2171	C217	0.270700	0.313500	0.240500
H2181	H218	0.223200	0.257600	0.219600
C2191	C219	0.358700	0.334900	0.291900
H2201	H220	0.382400	0.296000	0.313000
C2211	C221	0.347700	0.453100	0.267000
H2221	H222	0.361700	0.511900	0.267600
C2231	C223	0.242800	0.373400	0.524000
H2241	H224	0.248600	0.335400	0.564000
C2251	C225	0.167900	0.360700	0.448700
H2261	H226	0.111700	0.313300	0.426800
C2271	C227	0.276200	0.485000	0.463200
H2281	H228	0.307300	0.537900	0.452100
C2291	C229	0.129400	0.449000	0.324200
C2301	C230	0.230800	0.525200	0.839000
C2311	C231	0.250800	0.554400	0.763000
C2321	C232	0.210700	0.592300	0.709000
C2331	C233	0.138900	0.628300	0.754300
N2341	N234	0.071800	0.504200	0.134300
N2351	N235	0.089800	0.646200	0.187800
N2361	N236	0.893900	0.147500	0.916600
N2371	N237	0.005300	0.225300	0.078700
N2381	N238	0.264500	0.388100	0.225000
N2391	N239	0.407400	0.424000	0.307600
N2401	N240	0.310000	0.450600	0.533600
N2411	N241	0.188400	0.429200	0.410100
O2421	O242	0.309800	0.562600	0.937900
O2431	O243	0.171700	0.456300	0.849900
O2441	O244	0.163200	0.656400	0.857200
O2451	O245	0.063200	0.578800	0.676000
