data_EBIDOK_ion_b_PM
_symmetry_space_group_name_H-M	'P1'
_cell_length_a	27.684100
_cell_length_b	27.684100
_cell_length_c	17.480100
_cell_angle_alpha	90.000000
_cell_angle_beta	90.000000
_cell_angle_gamma	120.000000
_symmetry_Int_Tables_number 1

loop_
_symmetry_equiv_pos_as_xyz
'x,y,z'

loop_
_atom_site_label
_atom_site_type_symbol
_atom_site_fract_x
_atom_site_fract_y
_atom_site_fract_z
C11	C1	0.651720	0.094630	0.175110
C21	C2	0.669050	0.084320	0.104200
H31	H3	0.682990	0.116690	0.061060
C41	C4	0.663190	0.033380	0.080350
C51	C5	0.770610	0.051300	0.245670
C61	C6	0.655510	0.150140	0.187570
C71	C7	0.613090	0.155120	0.224460
H81	H8	0.576020	0.118320	0.244500
C91	C9	0.617930	0.208060	0.233080
H101	H10	0.584720	0.211530	0.260310
N111	N11	0.663850	0.254940	0.206530
C121	C12	0.705850	0.251230	0.171810
H131	H13	0.742020	0.288680	0.151190
C141	C14	0.702630	0.199470	0.162010
H151	H15	0.737120	0.198180	0.134860
C161	C16	0.675010	0.026440	0.999030
C171	C17	0.728910	0.059510	0.969530
H181	H18	0.761950	0.090280	0.005300
C191	C19	0.740860	0.051780	0.894130
H201	H20	0.783130	0.076350	0.873680
N211	N21	0.700310	0.013270	0.847520
C221	C22	0.647230	0.981190	0.874470
H231	H23	0.615360	0.950620	0.837300
C241	C24	0.633830	0.986570	0.950680
H251	H25	0.591730	0.960180	0.971450
C261	C26	0.825670	0.104290	0.248400
C271	C27	0.876480	0.105670	0.235010
H281	H28	0.877870	0.068400	0.220680
C291	C29	0.926750	0.156380	0.238400
H301	H30	0.965600	0.157050	0.228760
N311	N31	0.927120	0.204790	0.253320
C321	C32	0.878770	0.205100	0.265420
H331	H33	0.879960	0.244090	0.276740
C341	C34	0.827510	0.155250	0.263130
H351	H35	0.789590	0.156580	0.273280
O361	O36	0.634400	0.058420	0.229290
O371	O37	0.650090	0.993350	0.127080
O381	O38	0.727880	0.055660	0.231410
C391	C39	0.500390	0.173160	0.392280
C401	C40	0.470130	0.127640	0.343620
C411	C41	0.541830	0.174510	0.439550
C421	C42	0.480290	0.083000	0.343630
C431	C43	0.552590	0.130250	0.438840
C441	C44	0.521490	0.083920	0.391400
C451	C45	0.532280	0.035920	0.390760
O461	O46	0.544540	0.293550	0.387300
C471	C47	0.912440	0.554890	0.182720
C481	C48	0.922030	0.582540	0.111870
H491	H49	0.889550	0.563970	0.068920
C501	C50	0.972040	0.629150	0.088690
C511	C51	0.952960	0.719260	0.248060
C521	C52	0.859110	0.500370	0.193820
C531	C53	0.829080	0.488410	0.262850
H541	H54	0.845650	0.517000	0.310680
C551	C55	0.775850	0.440470	0.268970
H561	H56	0.752380	0.432350	0.321530
N571	N57	0.752990	0.404830	0.208670
C581	C58	0.782040	0.414330	0.142210
H591	H59	0.763630	0.385470	0.095060
C601	C60	0.835060	0.461650	0.133610
H611	H61	0.856730	0.468140	0.079720
C621	C62	0.978840	0.648320	0.007580
C631	C63	0.946420	0.670130	0.978830
H641	H64	0.916030	0.672750	0.015010
C651	C65	0.954340	0.690280	0.903580
H661	H66	0.930220	0.708590	0.883450
N671	N67	0.992420	0.687790	0.856590
C681	C68	0.023850	0.665870	0.882850
H691	H69	0.053920	0.664010	0.845300
C701	C70	0.018250	0.646570	0.958760
H711	H71	0.044140	0.630120	0.978990
C721	C72	0.899520	0.720500	0.249620
C731	C73	0.894000	0.761620	0.289690
H741	H74	0.928510	0.794390	0.321010
C751	C75	0.842500	0.759760	0.291110
H761	H76	0.838440	0.791690	0.321220
N771	N77	0.797410	0.718140	0.254810
C781	C78	0.801010	0.677170	0.216930
H791	H79	0.764600	0.644480	0.188480
C801	C80	0.851740	0.677580	0.213610
H811	H81	0.853640	0.644670	0.182640
O821	O82	0.947220	0.576050	0.238400
O831	O83	0.011550	0.657000	0.135730
O841	O84	0.948810	0.671640	0.240060
O851	O85	0.440670	0.226270	0.325640
O861	O86	0.456090	0.231300	0.480710
C871	C87	0.450730	0.353680	0.190750
C881	C88	0.423420	0.337740	0.119490
H891	H89	0.442500	0.325060	0.075690
C901	C90	0.376360	0.340910	0.097650
C911	C91	0.288310	0.232290	0.248290
C921	C92	0.502450	0.349710	0.201880
C931	C93	0.550600	0.392240	0.237350
H941	H94	0.551290	0.429300	0.258660
C951	C95	0.599050	0.387650	0.242580
H961	H96	0.636600	0.421230	0.267640
N971	N97	0.599330	0.341610	0.215120
C981	C98	0.552510	0.298950	0.183610
H991	H99	0.553240	0.262500	0.163120
C1001	C100	0.503890	0.302240	0.176040
H1011	H101	0.467520	0.267640	0.150120
C1021	C102	0.356370	0.329730	0.016280
C1031	C103	0.298970	0.298590	0.000440
H1041	H104	0.268820	0.283180	0.046600
C1051	C105	0.280230	0.285390	0.924560
H1061	H106	0.236050	0.260090	0.913160
N1071	N107	0.317030	0.303640	0.865120
C1081	C108	0.372900	0.334900	0.878550
H1091	H109	0.401650	0.349030	0.830840
C1101	C110	0.393520	0.348150	0.953790
H1111	H111	0.438100	0.372810	0.962900
C1121	C112	0.286340	0.177450	0.246520
C1131	C113	0.242190	0.129270	0.279670
H1141	H114	0.207500	0.130070	0.306830
C1151	C115	0.243780	0.079560	0.280490
H1161	H116	0.210190	0.042730	0.306900
N1171	N117	0.287910	0.077470	0.250000
C1181	C118	0.331510	0.123450	0.218200
H1191	H119	0.366420	0.120940	0.194990
C1201	C120	0.331450	0.173930	0.215670
H1211	H121	0.366560	0.210050	0.190130
O1221	O122	0.431630	0.369710	0.246220
O1231	O123	0.348380	0.351180	0.146430
O1241	O124	0.336360	0.275670	0.251540
C1251	C125	0.098080	0.648090	0.303260
C1261	C126	0.087610	0.662850	0.375900
H1271	H127	0.118880	0.671470	0.418970
C1281	C128	0.038290	0.660880	0.400110
C1291	C129	0.057420	0.771520	0.252160
C1301	C130	0.153410	0.651780	0.289950
C1311	C131	0.158800	0.610750	0.249630
H1321	H132	0.122390	0.574900	0.225940
C1331	C133	0.211740	0.615300	0.242290
H1341	H134	0.215630	0.582960	0.213080
N1351	N135	0.258040	0.659720	0.272880
C1361	C136	0.253950	0.700800	0.309650
H1371	H137	0.290880	0.736110	0.332710
C1381	C138	0.202350	0.697770	0.318570
H1391	H139	0.200830	0.731410	0.347980
C1401	C140	0.030740	0.671940	0.482630
C1411	C141	0.076420	0.705860	0.530560
H1421	H142	0.118870	0.725450	0.509920
C1431	C143	0.067690	0.717220	0.606000
H1441	H144	0.103300	0.743750	0.641280
N1451	N145	0.015150	0.696760	0.634260
C1461	C146	0.970170	0.663880	0.589310
H1471	H147	0.928560	0.648130	0.611220
C1481	C148	0.977030	0.651040	0.513620
H1491	H149	0.940410	0.625260	0.479340
C1501	C150	0.110970	0.826290	0.253790
C1511	C151	0.114610	0.876640	0.230050
H1521	H152	0.078620	0.878130	0.209280
C1531	C153	0.166200	0.926190	0.230750
H1541	H154	0.168770	0.964690	0.212310
N1551	N155	0.213280	0.926310	0.253440
C1561	C156	0.211490	0.878160	0.274480
H1571	H157	0.249390	0.878510	0.290000
C1581	C158	0.160740	0.827800	0.275530
H1591	H159	0.160570	0.790200	0.293060
O1601	O160	0.062700	0.633570	0.248450
O1611	O161	0.999150	0.650410	0.352630
O1621	O162	0.061710	0.727880	0.248770
O1631	O163	0.375690	0.738990	0.958970
C1641	C164	0.552760	0.909340	0.295780
C1651	C165	0.577890	0.919410	0.368370
H1661	H166	0.555380	0.887960	0.411200
C1671	C167	0.626280	0.967910	0.392010
C1681	C168	0.717590	0.947110	0.251000
C1691	C169	0.498900	0.856050	0.283500
C1701	C170	0.491390	0.822480	0.219150
H1711	H171	0.522630	0.836910	0.174440
C1721	C172	0.444480	0.768570	0.214430
H1731	H173	0.439490	0.742350	0.165750
N1741	N174	0.405850	0.748560	0.271650
C1751	C175	0.411250	0.781010	0.333190
H1761	H176	0.380410	0.764610	0.378140
C1771	C177	0.457140	0.834930	0.340010
H1781	H178	0.460580	0.859410	0.390160
C1791	C179	0.644890	0.975600	0.474550
C1801	C180	0.631310	0.929970	0.523560
H1811	H181	0.606950	0.887390	0.503940
C1821	C182	0.651610	0.938780	0.598870
H1831	H183	0.641220	0.903210	0.635020
N1841	N184	0.685730	0.991270	0.625880
C1851	C185	0.699560	0.036250	0.580030
H1861	H186	0.727100	0.077790	0.601100
C1871	C187	0.679570	0.029330	0.504470
H1881	H188	0.691760	0.065900	0.469400
C1891	C189	0.719720	0.894280	0.254080
C1901	C190	0.766660	0.891850	0.228480
H1911	H191	0.803150	0.928460	0.206560
C1921	C192	0.765990	0.841000	0.228910
H1931	H193	0.802080	0.839140	0.209240
N1941	N194	0.720160	0.793660	0.253410
C1951	C195	0.673920	0.794400	0.277950
H1961	H196	0.637990	0.756160	0.297230
C1971	C197	0.672760	0.844420	0.278510
H1981	H198	0.635480	0.844150	0.298060
O1991	O199	0.575570	0.943050	0.239640
O2001	O200	0.655940	0.006230	0.344020
O2011	O201	0.670040	0.942670	0.240640
C2021	C202	0.365300	0.799450	0.091060
C2031	C203	0.338210	0.800640	0.158000
C2041	C204	0.415990	0.845980	0.069180
C2051	C205	0.361800	0.847790	0.204560
C2061	C206	0.440850	0.894260	0.114100
C2071	C207	0.415430	0.896720	0.182010
C2081	C208	0.441940	0.948190	0.230340
O2091	O209	0.320840	0.679330	0.086880
O2101	O210	0.272050	0.722470	0.995750
C2111	C211	0.361940	0.449890	0.313400
C2121	C212	0.350760	0.426550	0.387260
H2131	H213	0.345500	0.451030	0.430890
C2141	C214	0.351410	0.378420	0.411100
C2151	C215	0.236380	0.284420	0.254930
C2161	C216	0.357440	0.501240	0.299950
C2171	C217	0.393410	0.544180	0.250130
H2181	H218	0.426270	0.541560	0.220240
C2191	C219	0.387610	0.591690	0.240410
H2201	H220	0.416050	0.625160	0.203280
N2211	N221	0.346780	0.596120	0.278090
C2221	C222	0.310770	0.554620	0.325160
H2231	H223	0.278530	0.558710	0.354320
C2241	C224	0.315100	0.506900	0.336510
H2251	H225	0.284910	0.474340	0.373310
C2261	C226	0.341070	0.359950	0.493870
C2271	C227	0.312850	0.377030	0.544910
H2281	H228	0.297900	0.404660	0.527520
C2291	C229	0.300490	0.355930	0.619660
H2301	H230	0.278160	0.368960	0.657350
N2311	N231	0.314140	0.317650	0.644240
C2321	C232	0.341680	0.300400	0.596860
H2331	H233	0.351820	0.269530	0.616720
C2341	C234	0.355620	0.321100	0.521660
H2351	H235	0.376740	0.305930	0.485080
C2361	C236	0.181490	0.282240	0.255980
C2371	C237	0.137080	0.245090	0.209100
H2381	H238	0.141420	0.216790	0.170780
C2391	C239	0.086800	0.245600	0.209890
H2401	H240	0.053010	0.217550	0.172980
N2411	N241	0.080340	0.281600	0.255950
C2421	C242	0.122950	0.318820	0.300790
H2431	H243	0.117270	0.347710	0.336030
C2441	C244	0.174110	0.319990	0.301420
H2451	H245	0.207540	0.349910	0.337520
O2461	O246	0.373860	0.427570	0.257590
O2471	O247	0.359410	0.348410	0.362950
O2481	O248	0.279820	0.332150	0.262380
C2491	C249	0.358580	0.906400	0.815470
C2501	C250	0.341850	0.917010	0.886670
H2511	H251	0.327620	0.884110	0.928890
C2521	C252	0.346240	0.967650	0.909820
C2531	C253	0.237950	0.948580	0.756290
C2541	C254	0.354370	0.850800	0.803240
C2551	C255	0.398100	0.845440	0.771350
H2561	H256	0.436480	0.882100	0.754040
C2571	C257	0.392760	0.792180	0.764430
H2581	H258	0.427080	0.788260	0.742050
N2591	N259	0.344990	0.745510	0.786970
C2601	C260	0.301410	0.749620	0.815260
H2611	H261	0.263680	0.712300	0.832260
C2621	C262	0.305300	0.801700	0.824180
H2631	H263	0.269990	0.803530	0.847410
C2641	C264	0.335820	0.976970	0.991780
C2651	C265	0.343120	0.948640	0.053960
H2661	H266	0.358880	0.920350	0.045340
C2671	C267	0.330220	0.957100	0.128910
H2681	H268	0.334790	0.934490	0.176060
N2691	N269	0.311010	0.992900	0.142850
C2701	C270	0.303980	0.021150	0.084040
H2711	H271	0.287500	0.048530	0.095340
C2721	C272	0.316600	0.014210	0.008470
H2731	H273	0.309870	0.036810	0.963060
C2741	C274	0.182590	0.896340	0.756600
C2751	C275	0.137290	0.892020	0.714580
H2761	H276	0.141140	0.926980	0.681870
C2771	C277	0.086900	0.841300	0.712450
H2781	H278	0.052490	0.837810	0.678890
N2791	N279	0.081100	0.796050	0.751210
C2801	C280	0.124260	0.798970	0.792300
H2811	H281	0.119200	0.762580	0.822160
C2821	C282	0.175620	0.848760	0.795310
H2831	H283	0.209610	0.850140	0.827780
O2841	O284	0.375280	0.942020	0.760650
O2851	O285	0.357200	0.006290	0.861280
O2861	O286	0.281130	0.943440	0.755540
C2871	C287	0.094580	0.448850	0.817280
C2881	C288	0.084220	0.423950	0.890110
H2891	H289	0.115450	0.446800	0.932940
C2901	C290	0.035820	0.375210	0.913660
C2911	C291	0.057300	0.283720	0.748010
C2921	C292	0.147770	0.503080	0.804620
C2931	C293	0.180050	0.511230	0.738620
H2941	H294	0.164970	0.480130	0.693680
C2951	C295	0.233720	0.558370	0.732480
H2961	H296	0.258960	0.563330	0.682700
N2971	N297	0.254840	0.596930	0.789770
C2981	C298	0.223670	0.591100	0.853020
H2991	H299	0.240940	0.622030	0.897960
C3001	C300	0.170020	0.544740	0.861440
H3011	H301	0.146630	0.541040	0.912860
C3021	C302	0.028080	0.356240	0.996150
C3031	C303	0.073680	0.371860	0.046100
H3041	H304	0.116250	0.398110	0.027640
C3051	C305	0.065060	0.351280	0.121130
H3061	H306	0.100620	0.363440	0.158060
N3071	N307	0.012880	0.314780	0.147000
C3081	C308	0.967850	0.298730	0.100440
H3091	H309	0.926620	0.269280	0.121210
C3101	C310	0.974530	0.319010	0.025020
H3111	H311	0.938000	0.305030	0.989250
C3121	C312	0.110470	0.282240	0.748570
C3131	C313	0.119920	0.248140	0.698300
H3141	H314	0.088810	0.221760	0.656870
C3151	C315	0.171020	0.249190	0.699970
H3161	H316	0.178320	0.223300	0.660830
N3171	N317	0.211770	0.282950	0.749890
C3181	C318	0.204390	0.317460	0.797770
H3191	H319	0.237610	0.344720	0.836050
C3201	C320	0.154000	0.317810	0.797950
H3211	H321	0.148940	0.345410	0.836880
O3221	O322	0.061280	0.425390	0.760920
O3231	O323	0.997600	0.345400	0.865590
O3241	O324	0.060700	0.330240	0.763600
O3251	O325	0.310070	0.665000	0.456100
C3261	C326	0.555600	0.643600	0.817100
C3271	C327	0.582660	0.660150	0.888580
H3281	H328	0.563790	0.673630	0.931500
C3291	C329	0.630470	0.658350	0.910760
C3301	C330	0.719280	0.769740	0.743810
C3311	C331	0.500990	0.642240	0.805900
C3321	C332	0.488660	0.659180	0.736130
H3331	H333	0.516890	0.670290	0.688010
C3341	C334	0.440880	0.664640	0.729580
H3351	H335	0.432630	0.679320	0.676540
N3361	N336	0.405740	0.653100	0.790200
C3371	C337	0.415370	0.634380	0.857260
H3381	H338	0.386820	0.624940	0.904570
C3391	C339	0.462510	0.628440	0.866270
H3401	H340	0.469030	0.613850	0.920630
C3411	C341	0.650500	0.669590	0.992300
C3421	C342	0.613780	0.655710	0.054980
H3431	H343	0.569080	0.634300	0.046460
C3441	C344	0.634940	0.669360	0.129950
H3451	H345	0.606590	0.659130	0.177700
N3461	N346	0.690950	0.696040	0.143000
C3471	C347	0.727310	0.709450	0.083600
H3481	H348	0.771690	0.731260	0.094720
C3491	C349	0.707980	0.696160	0.008040
H3501	H350	0.737970	0.707960	0.961970
C3511	C351	0.720900	0.824460	0.742290
C3521	C352	0.755270	0.867200	0.691080
H3531	H353	0.781700	0.861720	0.650580
C3541	C354	0.754440	0.917360	0.690590
H3551	H355	0.780780	0.950150	0.651110
N3561	N356	0.720400	0.925120	0.738950
C3571	C357	0.686190	0.884310	0.788430
H3581	H358	0.659250	0.891030	0.826200
C3591	C359	0.685600	0.833460	0.790740
H3601	H360	0.658040	0.801530	0.830570
O3611	O361	0.577470	0.631810	0.760530
O3621	O362	0.659280	0.649220	0.861990
O3631	O363	0.672670	0.726670	0.759250
C3641	C364	0.397930	0.640080	0.492320
C3651	C365	0.385970	0.590190	0.528540
C3661	C366	0.438250	0.661960	0.434470
C3671	C367	0.414590	0.562550	0.507550
C3681	C368	0.466940	0.634400	0.413430
C3691	C369	0.455390	0.584580	0.449930
C3701	C370	0.486720	0.555620	0.427130
O3711	O371	0.404590	0.747020	0.523490
C3721	C372	0.912990	0.356260	0.693360
C3731	C373	0.923820	0.340320	0.621690
H3741	H374	0.891910	0.327870	0.578220
C3751	C375	0.973030	0.341140	0.600030
C3761	C376	0.953130	0.230950	0.739720
C3771	C377	0.859750	0.357730	0.704130
C3781	C378	0.828590	0.337870	0.772060
H3791	H379	0.844190	0.324210	0.819250
C3801	C380	0.775430	0.332770	0.777740
H3811	H381	0.751030	0.315770	0.829250
N3821	N382	0.753680	0.347520	0.718120
C3831	C383	0.783840	0.368900	0.652860
H3841	H384	0.766190	0.380700	0.606190
C3851	C385	0.836870	0.374440	0.644700
H3861	H386	0.859400	0.390990	0.591690
C3871	C387	0.981480	0.329220	0.518750
C3881	C388	0.008750	0.298940	0.503540
H3891	H389	0.024350	0.284610	0.549980
C3901	C390	0.014470	0.285330	0.427970
H3911	H391	0.034340	0.260860	0.417140
N3921	N392	0.994890	0.302140	0.368130
C3931	C393	0.969120	0.332400	0.380820
H3941	H394	0.953780	0.345460	0.332780
C3951	C395	0.961780	0.346250	0.455770
H3961	H396	0.941220	0.370370	0.464150
C3971	C397	0.899840	0.176160	0.733270
C3981	C398	0.897460	0.124240	0.739740
H3991	H399	0.934280	0.121030	0.749270
C4001	C400	0.845890	0.074770	0.737120
H4011	H401	0.844110	0.035050	0.743550
N4021	N402	0.797730	0.076220	0.729560
C4031	C403	0.798440	0.125500	0.723690
H4041	H404	0.759580	0.125780	0.719950
C4051	C405	0.849030	0.175880	0.724610
H4061	H406	0.848120	0.214430	0.719960
O4071	O407	0.946280	0.367440	0.750310
O4081	O408	0.010820	0.349940	0.648900
O4091	O409	0.948190	0.273510	0.752850
O4101	O410	0.652000	0.354190	0.052160
C4111	C411	0.456220	0.091880	0.694550
C4121	C412	0.430830	0.082410	0.622100
H4131	H413	0.451780	0.114700	0.579340
C4141	C414	0.383780	0.033060	0.597680
C4151	C415	0.290630	0.052760	0.750270
C4161	C416	0.510150	0.145150	0.707420
C4171	C417	0.517200	0.179030	0.771210
H4181	H418	0.485320	0.165090	0.815000
C4191	C419	0.564250	0.232890	0.776110
H4201	H420	0.568200	0.259550	0.823630
N4211	N421	0.603870	0.252510	0.720070
C4221	C422	0.599160	0.219580	0.659380
H4231	H423	0.630970	0.235570	0.615470
C4241	C424	0.552690	0.165840	0.652000
H4251	H425	0.549400	0.140930	0.602550
C4261	C426	0.365770	0.026980	0.515690
C4271	C427	0.360190	0.069230	0.479530
H4281	H428	0.370190	0.107240	0.509810
C4291	C429	0.339450	0.061750	0.404650
H4301	H430	0.334510	0.094470	0.379120
N4311	N431	0.325190	0.014010	0.364850
C4321	C432	0.331970	0.973060	0.397860
H4331	H433	0.321720	0.935760	0.366040
C4341	C434	0.351360	0.978340	0.473690
H4351	H435	0.355200	0.944780	0.499210
C4361	C436	0.289260	0.106120	0.749340
C4371	C437	0.242290	0.108760	0.724420
H4381	H438	0.205480	0.072370	0.702880
C4391	C439	0.242940	0.159600	0.725950
H4401	H440	0.206500	0.161200	0.707700
N4411	N441	0.288920	0.206940	0.750220
C4421	C442	0.335520	0.206140	0.772830
H4431	H443	0.371840	0.244300	0.791260
C4441	C444	0.336560	0.156080	0.772830
H4451	H445	0.373970	0.156430	0.791890
O4461	O446	0.433450	0.057380	0.750050
O4471	O447	0.354640	0.993540	0.644360
O4481	O448	0.338360	0.056660	0.746020
C4491	C449	0.580270	0.239890	0.000510
C4501	C450	0.609260	0.210560	0.003110
C4511	C451	0.523270	0.212480	0.017950
C4521	C452	0.581510	0.154170	0.023410
C4531	C453	0.495590	0.156230	0.039220
C4541	C454	0.524660	0.126770	0.042300
C4551	C455	0.495830	0.066630	0.065860
O4561	O456	0.573370	0.336410	0.944210
C4571	C457	0.647010	0.552790	0.691350
C4581	C458	0.662610	0.579380	0.619480
H4591	H459	0.675870	0.560350	0.576510
C4601	C460	0.660220	0.626880	0.597160
C4611	C461	0.772310	0.718550	0.737650
C4621	C462	0.646310	0.498430	0.702550
C4631	C463	0.665570	0.487250	0.771140
H4641	H464	0.678150	0.516250	0.818540
C4651	C465	0.671480	0.439660	0.777300
H4661	H466	0.687940	0.432340	0.829400
N4671	N467	0.658200	0.403560	0.717450
C4681	C468	0.637290	0.412120	0.651580
H4691	H469	0.626510	0.382920	0.604780
C4701	C470	0.630890	0.459080	0.642980
H4711	H471	0.614700	0.464840	0.589490
C4721	C472	0.670990	0.646810	0.515520
C4731	C473	0.658560	0.610250	0.452930
H4741	H474	0.638200	0.565600	0.461410
C4751	C475	0.672480	0.631520	0.378050
H4761	H476	0.663590	0.603330	0.330440
N4771	N477	0.697870	0.687460	0.364960
C4781	C478	0.709270	0.723620	0.424130
H4791	H479	0.729730	0.767940	0.412880
C4801	C480	0.695870	0.704170	0.499630
H4811	H481	0.706410	0.734070	0.545570
C4821	C482	0.827580	0.720750	0.734800
C4831	C483	0.878900	0.770660	0.743800
H4841	H484	0.881290	0.810360	0.752860
C4851	C485	0.928840	0.769490	0.744350
H4861	H486	0.967910	0.807790	0.752590
N4871	N487	0.928570	0.720450	0.737440
C4881	C488	0.879840	0.671390	0.730350
H4891	H489	0.880330	0.632610	0.727720
C4901	C490	0.828980	0.670680	0.727970
H4911	H491	0.790910	0.630910	0.722090
O4921	O492	0.635560	0.574860	0.748090
O4931	O493	0.651060	0.655660	0.645930
O4941	O494	0.729500	0.670760	0.748080
O4951	O495	0.665750	0.329050	0.906080
C4961	C496	0.766230	0.999210	0.258980
H4971	H497	0.803650	0.998880	0.275490
Fe4981	Fe498	0.651950	0.999870	0.235400
C4991	C499	0.005080	0.768300	0.254500
H5001	H500	0.004800	0.806940	0.260110
Fe5011	Fe501	0.005160	0.652390	0.244040
C5021	C502	0.239360	0.235560	0.246650
H5031	H503	0.200310	0.196840	0.241040
Fe5041	Fe504	0.355320	0.351190	0.254550
C5051	C505	0.241480	0.000890	0.756730
H5061	H506	0.202650	0.000830	0.763570
Fe5071	Fe507	0.356990	0.999860	0.752980
C5081	C508	0.005930	0.235630	0.732220
H5091	H509	0.007370	0.198500	0.717980
Fe5101	Fe510	0.004130	0.349020	0.757070
C5111	C511	0.767620	0.766600	0.729990
H5121	H512	0.804880	0.805310	0.716760
Fe5131	Fe513	0.653910	0.651150	0.753980
Ag5141	Ag514	0.671830	0.334740	0.214300
S5151	S515	0.485680	0.229220	0.395390
Ag5161	Ag516	0.337450	0.666850	0.269480
S5171	S517	0.335020	0.737300	0.034220
Ag5181	Ag518	0.336680	0.665560	0.784790
S5191	S519	0.361820	0.675980	0.519680
Ag5201	Ag520	0.671890	0.335000	0.722430
S5211	S521	0.616330	0.312500	0.975950
Ag5221	Ag522	0.722450	0.001430	0.735580
Ag5231	Ag523	0.004460	0.721990	0.744820
Ag5241	Ag524	0.285910	0.280540	0.752710
Ag5251	Ag525	0.287860	0.002380	0.254630
Ag5261	Ag526	0.003560	0.278590	0.256350
Ag5271	Ag527	0.723470	0.720430	0.254240
H5281	H528	0.438300	0.126400	0.306390
H5291	H529	0.565620	0.209740	0.477030
H5301	H530	0.456030	0.047800	0.306430
H5311	H531	0.585020	0.132090	0.475450
H5321	H532	0.564930	0.042000	0.432840
H5331	H533	0.546600	0.031900	0.333090
H5341	H534	0.493350	0.996720	0.405160
H5351	H535	0.298900	0.764750	0.174090
H5361	H536	0.436540	0.844760	0.017160
H5371	H537	0.340750	0.848290	0.256510
H5381	H538	0.480080	0.929620	0.096120
H5391	H539	0.444850	0.983750	0.197330
H5401	H540	0.484410	0.957850	0.247210
H5411	H541	0.417160	0.942550	0.282930
H5421	H542	0.354700	0.572860	0.573120
H5431	H543	0.447500	0.700350	0.405890
H5441	H544	0.405010	0.524120	0.536320
H5451	H545	0.498110	0.651800	0.368700
H5461	H546	0.480080	0.545040	0.365350
H5471	H547	0.472570	0.516530	0.460090
H5481	H548	0.531970	0.583600	0.437730
H5491	H549	0.653320	0.231390	0.989690
H5501	H550	0.500490	0.234830	0.016110
H5511	H551	0.604370	0.131920	0.025020
H5521	H552	0.451640	0.135820	0.053400
H5531	H553	0.517450	0.061640	0.116170
H5541	H554	0.496940	0.040780	0.018060
H5551	H555	0.451640	0.051280	0.081510
O5561	O556	0.329910	0.656600	0.607360
