data_EBIDIE_charged_PM
_symmetry_space_group_name_H-M	'P1'
_cell_length_a	13.433400
_cell_length_b	13.433400
_cell_length_c	26.677000
_cell_angle_alpha	87.057300
_cell_angle_beta	87.057300
_cell_angle_gamma	81.581000
_symmetry_Int_Tables_number 1

loop_
_symmetry_equiv_pos_as_xyz
'x,y,z'

loop_
_atom_site_label
_atom_site_type_symbol
_atom_site_fract_x
_atom_site_fract_y
_atom_site_fract_z
Fe11	Fe1	0.292320	0.297040	0.551960
Fe21	Fe2	0.702960	0.707680	0.948040
Ag11	Ag1	0.852510	0.857790	0.619260
Ag21	Ag2	0.431670	0.474250	0.230090
Ag31	Ag3	0.142210	0.147490	0.880740
Ag41	Ag4	0.525750	0.568330	0.269910
H11	H1	0.940400	0.619800	0.647700
H21	H2	0.287000	0.477000	0.676300
H31	H3	0.315100	0.794500	0.639100
H41	H4	0.588900	0.167500	0.575000
H51	H5	0.921100	0.757300	0.516800
H61	H6	0.746700	0.086500	0.583400
H71	H7	0.658100	0.828700	0.565100
H81	H8	0.495500	0.905700	0.555500
H91	H9	0.282600	0.630400	0.658500
H101	H10	0.291100	0.149900	0.699000
H111	H11	0.193900	0.429100	0.744600
H121	H12	0.906700	0.747500	0.721700
H131	H13	0.642600	0.854600	0.679900
H141	H14	0.052500	0.158300	0.584400
H151	H15	0.221500	0.898300	0.551100
H161	H16	0.924600	0.070600	0.611600
H171	H17	0.085500	0.817300	0.575900
H181	H18	0.430100	0.550900	0.528600
H191	H19	0.348300	0.983700	0.577200
H201	H20	0.045100	0.643300	0.483400
H211	H21	0.183400	0.556800	0.466600
H221	H22	0.455200	0.716400	0.513600
H231	H23	0.057900	0.494100	0.616700
H241	H24	0.471800	0.341600	0.326000
H251	H25	0.173100	0.536100	0.371600
H261	H26	0.228600	0.535200	0.289000
H271	H27	0.415900	0.346500	0.408300
H281	H28	0.380200	0.059600	0.852300
H291	H29	0.523000	0.713000	0.823700
H301	H30	0.205500	0.684900	0.860900
H311	H31	0.832500	0.411100	0.925000
H321	H32	0.242700	0.078900	0.983200
H331	H33	0.913500	0.253300	0.916600
H341	H34	0.171300	0.341900	0.934900
H351	H35	0.094300	0.504500	0.944500
H361	H36	0.369600	0.717400	0.841500
H371	H37	0.850100	0.708900	0.801000
H381	H38	0.570900	0.806100	0.755400
H391	H39	0.252500	0.093300	0.778300
H401	H40	0.145400	0.357400	0.820100
H411	H41	0.841700	0.947500	0.915600
H421	H42	0.101700	0.778500	0.948900
H431	H43	0.929400	0.075400	0.888400
H441	H44	0.182700	0.914500	0.924100
H451	H45	0.449100	0.569900	0.971400
H461	H46	0.016300	0.651700	0.922800
H471	H47	0.356700	0.954900	0.016600
H481	H48	0.443200	0.816600	0.033400
H491	H49	0.283600	0.544800	0.986400
H501	H50	0.505900	0.942100	0.883300
H511	H51	0.658400	0.528200	0.174000
H521	H52	0.463900	0.826900	0.128400
H531	H53	0.464800	0.771400	0.211000
H541	H54	0.653500	0.584100	0.091700
C11	C1	0.523600	0.046800	0.564300
C21	C2	0.149700	0.476100	0.527900
C31	C3	0.067600	0.556200	0.546700
C41	C4	0.153200	0.037400	0.571500
C51	C5	0.420000	0.100600	0.558300
C61	C6	0.237100	0.094300	0.559700
C71	C7	0.960900	0.623700	0.613900
C81	C8	0.299000	0.432000	0.650600
C91	C9	0.339500	0.463500	0.605100
C101	C10	0.337200	0.745000	0.616300
C111	C11	0.601100	0.097900	0.572800
C121	C12	0.245300	0.297100	0.710600
C131	C13	0.275400	0.334600	0.659400
C141	C14	0.950800	0.704800	0.537600
C151	C15	0.695700	0.048700	0.578200
C161	C16	0.643900	0.898100	0.567400
C171	C17	0.545700	0.943900	0.561400
C181	C18	0.318300	0.645700	0.629000
C191	C19	0.262000	0.195200	0.722700
C201	C20	0.202900	0.359300	0.749600
C211	C21	0.838300	0.764700	0.729800
C221	C22	0.684500	0.825100	0.704900
C231	C23	0.062700	0.088300	0.584900
C241	C24	0.162500	0.933900	0.564700
C251	C25	0.984900	0.034700	0.599600
C261	C26	0.079600	0.886600	0.579100
C271	C27	0.405700	0.599100	0.551800
C281	C28	0.336800	0.051200	0.566400
C291	C29	0.024400	0.636200	0.517000
C301	C30	0.199300	0.494300	0.483100
C311	C31	0.419600	0.699400	0.542800
C321	C32	0.355200	0.572800	0.595800
C331	C33	0.033000	0.548800	0.595800
C341	C34	0.273800	0.422400	0.460400
C351	C35	0.411600	0.382000	0.334700
C361	C36	0.289400	0.440400	0.398100
C371	C37	0.233600	0.497200	0.362300
C381	C38	0.267200	0.496400	0.312800
C391	C39	0.377600	0.384200	0.384000
C401	C40	0.953200	0.476400	0.935700
C411	C41	0.523900	0.850300	0.972100
C421	C42	0.443800	0.932400	0.953300
C431	C43	0.962600	0.846800	0.928500
C441	C44	0.899400	0.580000	0.941700
C451	C45	0.905700	0.762900	0.940300
C461	C46	0.376300	0.039100	0.886100
C471	C47	0.568000	0.701000	0.849400
C481	C48	0.536500	0.660500	0.894900
C491	C49	0.255000	0.662800	0.883700
C501	C50	0.902100	0.398900	0.927200
C511	C51	0.702900	0.754700	0.789400
C521	C52	0.665400	0.724600	0.840600
C531	C53	0.295200	0.049200	0.962400
C541	C54	0.951300	0.304300	0.921800
C551	C55	0.101900	0.356100	0.932600
C561	C56	0.056100	0.454300	0.938600
C571	C57	0.354300	0.681700	0.871000
C581	C58	0.804800	0.738000	0.777300
C591	C59	0.640700	0.797100	0.750400
C601	C60	0.235300	0.161700	0.770200
C611	C61	0.174900	0.315500	0.795100
C621	C62	0.911700	0.937300	0.915100
C631	C63	0.066100	0.837500	0.935300
C641	C64	0.965300	0.015100	0.900400
C651	C65	0.113400	0.920400	0.920900
C661	C66	0.400900	0.594300	0.948200
C671	C67	0.948800	0.663200	0.933600
C681	C68	0.363800	0.975600	0.983000
C691	C69	0.505700	0.800700	0.016900
C701	C70	0.300600	0.580400	0.957200
C711	C71	0.427200	0.644800	0.904200
C721	C72	0.451200	0.967000	0.904200
C731	C73	0.577600	0.726200	0.039600
C741	C74	0.618000	0.588400	0.165300
C751	C75	0.559600	0.710600	0.101900
C761	C76	0.502800	0.766400	0.137700
C771	C77	0.503600	0.732800	0.187200
C781	C78	0.615800	0.622400	0.116000
N11	N1	0.782600	0.812200	0.694900
N21	N2	0.990200	0.935400	0.597700
N31	N3	0.384400	0.771800	0.573900
N41	N4	0.918900	0.701100	0.585400
N51	N5	0.719900	0.948900	0.576500
N61	N6	0.357700	0.438900	0.297400
N71	N7	0.484500	0.552300	0.165600
N81	N8	0.187800	0.217400	0.805100
N91	N9	0.064600	0.009800	0.902300
N101	N10	0.228200	0.615600	0.926100
N111	N11	0.298900	0.081100	0.914600
N121	N12	0.051100	0.280100	0.923500
N131	N13	0.561100	0.642300	0.202600
N141	N14	0.447700	0.515500	0.334400
N151	N15	0.658600	0.341400	0.250000
O11	O1	0.365900	0.408900	0.567700
O21	O2	0.415800	0.195800	0.546400
O31	O3	0.213500	0.186700	0.545100
O41	O4	0.164200	0.395800	0.554800
O51	O5	0.280700	0.270100	0.626200
O61	O6	0.304100	0.336700	0.480300
O71	O7	0.679000	0.427400	0.251200
O81	O8	0.591100	0.634100	0.932300
O91	O9	0.804200	0.584200	0.953600
O101	O10	0.813300	0.786500	0.954900
O111	O11	0.604200	0.835800	0.945200
O121	O12	0.729900	0.719300	0.873800
O131	O13	0.663300	0.695900	0.019700
O141	O14	0.572600	0.321000	0.248800
O151	O15	0.729100	0.270900	0.250000
Fe31	Fe3	0.707680	0.702960	0.448040
Fe41	Fe4	0.297040	0.292320	0.051960
Ag51	Ag5	0.147490	0.142210	0.380740
Ag61	Ag6	0.568330	0.525750	0.769910
Ag71	Ag7	0.857790	0.852510	0.119260
Ag81	Ag8	0.474250	0.431670	0.730090
H551	H55	0.059600	0.380200	0.352300
H561	H56	0.713000	0.523000	0.323700
H571	H57	0.684900	0.205500	0.360900
H581	H58	0.411100	0.832500	0.425000
H591	H59	0.078900	0.242700	0.483200
H601	H60	0.253300	0.913500	0.416600
H611	H61	0.341900	0.171300	0.434900
H621	H62	0.504500	0.094300	0.444500
H631	H63	0.717400	0.369600	0.341500
H641	H64	0.708900	0.850100	0.301000
H651	H65	0.806100	0.570900	0.255400
H661	H66	0.093300	0.252500	0.278300
H671	H67	0.357400	0.145400	0.320100
H681	H68	0.947500	0.841700	0.415600
H691	H69	0.778500	0.101700	0.448900
H701	H70	0.075400	0.929400	0.388400
H711	H71	0.914500	0.182700	0.424100
H721	H72	0.569900	0.449100	0.471400
H731	H73	0.651700	0.016300	0.422800
H741	H74	0.954900	0.356700	0.516600
H751	H75	0.816600	0.443200	0.533400
H761	H76	0.544800	0.283600	0.486400
H771	H77	0.942100	0.505900	0.383300
H781	H78	0.528200	0.658400	0.674000
H791	H79	0.826900	0.463900	0.628400
H801	H80	0.771400	0.464800	0.711000
H811	H81	0.584100	0.653500	0.591700
H821	H82	0.619800	0.940400	0.147700
H831	H83	0.477000	0.287000	0.176300
H841	H84	0.794500	0.315100	0.139100
H851	H85	0.167500	0.588900	0.075000
H861	H86	0.757300	0.921100	0.016800
H871	H87	0.086500	0.746700	0.083400
H881	H88	0.828700	0.658100	0.065100
H891	H89	0.905700	0.495500	0.055500
H901	H90	0.630400	0.282600	0.158500
H911	H91	0.149900	0.291100	0.199000
H921	H92	0.429100	0.193900	0.244600
H931	H93	0.747500	0.906700	0.221700
H941	H94	0.854600	0.642600	0.179900
H951	H95	0.158300	0.052500	0.084400
H961	H96	0.898300	0.221500	0.051100
H971	H97	0.070600	0.924600	0.111600
H981	H98	0.817300	0.085500	0.075900
H991	H99	0.550900	0.430100	0.028600
H1001	H100	0.983700	0.348300	0.077200
H1011	H101	0.643300	0.045100	0.983400
H1021	H102	0.556800	0.183400	0.966600
H1031	H103	0.716400	0.455200	0.013600
H1041	H104	0.494100	0.057900	0.116700
H1051	H105	0.341600	0.471800	0.826000
H1061	H106	0.536100	0.173100	0.871600
H1071	H107	0.535200	0.228600	0.789000
H1081	H108	0.346500	0.415900	0.908300
C791	C79	0.476400	0.953200	0.435700
C801	C80	0.850300	0.523900	0.472100
C811	C81	0.932400	0.443800	0.453300
C821	C82	0.846800	0.962600	0.428500
C831	C83	0.580000	0.899400	0.441700
C841	C84	0.762900	0.905700	0.440300
C851	C85	0.039100	0.376300	0.386100
C861	C86	0.701000	0.568000	0.349400
C871	C87	0.660500	0.536500	0.394900
C881	C88	0.662800	0.255000	0.383700
C891	C89	0.398900	0.902100	0.427200
C901	C90	0.754700	0.702900	0.289400
C911	C91	0.724600	0.665400	0.340600
C921	C92	0.049200	0.295200	0.462400
C931	C93	0.304300	0.951300	0.421800
C941	C94	0.356100	0.101900	0.432600
C951	C95	0.454300	0.056100	0.438600
C961	C96	0.681700	0.354300	0.371000
C971	C97	0.738000	0.804800	0.277300
C981	C98	0.797100	0.640700	0.250400
C991	C99	0.161700	0.235300	0.270200
C1001	C100	0.315500	0.174900	0.295100
C1011	C101	0.937300	0.911700	0.415100
C1021	C102	0.837500	0.066100	0.435300
C1031	C103	0.015100	0.965300	0.400400
C1041	C104	0.920400	0.113400	0.420900
C1051	C105	0.594300	0.400900	0.448200
C1061	C106	0.663200	0.948800	0.433600
C1071	C107	0.975600	0.363800	0.483000
C1081	C108	0.800700	0.505700	0.516900
C1091	C109	0.580400	0.300600	0.457200
C1101	C110	0.644800	0.427200	0.404200
C1111	C111	0.967000	0.451200	0.404200
C1121	C112	0.726200	0.577600	0.539600
C1131	C113	0.588400	0.618000	0.665300
C1141	C114	0.710600	0.559600	0.601900
C1151	C115	0.766400	0.502800	0.637700
C1161	C116	0.732800	0.503600	0.687200
C1171	C117	0.622400	0.615800	0.616000
C1181	C118	0.046800	0.523600	0.064300
C1191	C119	0.476100	0.149700	0.027900
C1201	C120	0.556200	0.067600	0.046700
C1211	C121	0.037400	0.153200	0.071500
C1221	C122	0.100600	0.420000	0.058300
C1231	C123	0.094300	0.237100	0.059700
C1241	C124	0.623700	0.960900	0.113900
C1251	C125	0.432000	0.299000	0.150600
C1261	C126	0.463500	0.339500	0.105100
C1271	C127	0.745000	0.337200	0.116300
C1281	C128	0.097900	0.601100	0.072800
C1291	C129	0.297100	0.245300	0.210600
C1301	C130	0.334600	0.275400	0.159400
C1311	C131	0.704800	0.950800	0.037600
C1321	C132	0.048700	0.695700	0.078200
C1331	C133	0.898100	0.643900	0.067400
C1341	C134	0.943900	0.545700	0.061400
C1351	C135	0.645700	0.318300	0.129000
C1361	C136	0.195200	0.262000	0.222700
C1371	C137	0.359300	0.202900	0.249600
C1381	C138	0.764700	0.838300	0.229800
C1391	C139	0.825100	0.684500	0.204900
C1401	C140	0.088300	0.062700	0.084900
C1411	C141	0.933900	0.162500	0.064700
C1421	C142	0.034700	0.984900	0.099600
C1431	C143	0.886600	0.079600	0.079100
C1441	C144	0.599100	0.405700	0.051800
C1451	C145	0.051200	0.336800	0.066400
C1461	C146	0.636200	0.024400	0.017000
C1471	C147	0.494300	0.199300	0.983100
C1481	C148	0.699400	0.419600	0.042800
C1491	C149	0.572800	0.355200	0.095800
C1501	C150	0.548800	0.033000	0.095800
C1511	C151	0.422400	0.273800	0.960400
C1521	C152	0.382000	0.411600	0.834700
C1531	C153	0.440400	0.289400	0.898100
C1541	C154	0.497200	0.233600	0.862300
C1551	C155	0.496400	0.267200	0.812800
C1561	C156	0.384200	0.377600	0.884000
N161	N16	0.217400	0.187800	0.305100
N171	N17	0.009800	0.064600	0.402300
N181	N18	0.615600	0.228200	0.426100
N191	N19	0.081100	0.298900	0.414600
N201	N20	0.280100	0.051100	0.423500
N211	N21	0.642300	0.561100	0.702600
N221	N22	0.515500	0.447700	0.834400
N231	N23	0.812200	0.782600	0.194900
N241	N24	0.935400	0.990200	0.097700
N251	N25	0.771800	0.384400	0.073900
N261	N26	0.701100	0.918900	0.085400
N271	N27	0.948900	0.719900	0.076500
N281	N28	0.438900	0.357700	0.797400
N291	N29	0.552300	0.484500	0.665600
N301	N30	0.341400	0.658600	0.750000
O161	O16	0.634100	0.591100	0.432300
O171	O17	0.584200	0.804200	0.453600
O181	O18	0.786500	0.813300	0.454900
O191	O19	0.835800	0.604200	0.445200
O201	O20	0.719300	0.729900	0.373800
O211	O21	0.695900	0.663300	0.519700
O221	O22	0.321000	0.572600	0.748800
O231	O23	0.408900	0.365900	0.067700
O241	O24	0.195800	0.415800	0.046400
O251	O25	0.186700	0.213500	0.045100
O261	O26	0.395800	0.164200	0.054800
O271	O27	0.270100	0.280700	0.126200
O281	O28	0.336700	0.304100	0.980300
O291	O29	0.427400	0.679000	0.751200
O301	O30	0.270900	0.729100	0.750000
N311	N31	0.143700	0.728300	0.389500
O311	O31	0.186300	0.749500	0.426000
O321	O32	0.087000	0.665000	0.392600
O331	O33	0.161000	0.769600	0.347600
N321	N32	0.271700	0.856300	0.110500
O341	O34	0.250500	0.813700	0.074000
O351	O35	0.335000	0.913000	0.107400
O361	O36	0.230400	0.839000	0.152400
N331	N33	0.856300	0.271700	0.610500
O371	O37	0.813700	0.250500	0.574000
O381	O38	0.913000	0.335000	0.607400
O391	O39	0.839000	0.230400	0.652400
N341	N34	0.728300	0.143700	0.889500
O401	O40	0.749500	0.186300	0.926000
O411	O41	0.665000	0.087000	0.892600
O421	O42	0.769600	0.161000	0.847600
