data_EBIMOT_charged_PM
_symmetry_space_group_name_H-M	'P1'
_cell_length_a	10.781000
_cell_length_b	15.883700
_cell_length_c	25.173700
_cell_angle_alpha	90.000000
_cell_angle_beta	90.000000
_cell_angle_gamma	90.000000
_symmetry_Int_Tables_number 1

loop_
_symmetry_equiv_pos_as_xyz
'x,y,z'

loop_
_atom_site_label
_atom_site_type_symbol
_atom_site_fract_x
_atom_site_fract_y
_atom_site_fract_z
Mg11	Mg1	0.705460	0.824260	0.281750
Mg21	Mg2	0.566330	0.750220	0.397400
Mg31	Mg3	0.927590	0.329890	0.516690
Mg41	Mg4	0.294540	0.175740	0.781750
Mg51	Mg5	0.433670	0.249780	0.897400
Mg61	Mg6	0.072410	0.670110	0.016690
Mg71	Mg7	0.205460	0.175740	0.281750
Mg81	Mg8	0.066330	0.249780	0.397400
Mg91	Mg9	0.427590	0.670110	0.516690
Mg101	Mg10	0.794540	0.824260	0.781750
Mg111	Mg11	0.933670	0.750220	0.897400
Mg121	Mg12	0.572410	0.329890	0.016690
H11	H1	0.811600	0.067800	0.378000
H21	H2	0.649300	0.129600	0.517900
H31	H3	0.528500	0.927100	0.435000
H41	H4	0.448800	0.946000	0.517600
H51	H5	0.551000	0.977900	0.558500
H61	H6	0.457200	0.039300	0.629800
H71	H7	0.160900	0.194700	0.614600
H81	H8	0.327300	0.100100	0.484100
H91	H9	0.815500	0.561800	0.411300
H101	H10	0.985700	0.631400	0.275100
H111	H11	0.099900	0.423900	0.354300
H121	H12	0.194800	0.453300	0.272600
H131	H13	0.086300	0.475400	0.231800
H141	H14	0.144100	0.568700	0.163600
H151	H15	0.433500	0.728900	0.180100
H161	H16	0.314200	0.590700	0.306100
H171	H17	0.232500	0.416200	0.536400
H181	H18	0.042100	0.378700	0.644500
H191	H19	0.145300	0.410700	0.685500
H201	H20	0.137700	0.313100	0.670100
H211	H21	0.391400	0.387800	0.590200
H221	H22	0.360200	0.316400	0.633000
H231	H23	0.369500	0.412800	0.651100
H241	H24	0.334300	0.741100	0.056700
H251	H25	0.188400	0.932200	0.878000
H261	H26	0.350700	0.870400	0.017900
H271	H27	0.471500	0.072900	0.935000
H281	H28	0.551200	0.054000	0.017600
H291	H29	0.449000	0.022100	0.058500
H301	H30	0.542800	0.960700	0.129800
H311	H31	0.839100	0.805300	0.114600
H321	H32	0.672700	0.899900	0.984100
H331	H33	0.184500	0.438200	0.911300
H341	H34	0.014300	0.368600	0.775100
H351	H35	0.900100	0.576100	0.854300
H361	H36	0.805200	0.546700	0.772600
H371	H37	0.913700	0.524600	0.731800
H381	H38	0.855900	0.431300	0.663600
H391	H39	0.566500	0.271100	0.680100
H401	H40	0.685800	0.409300	0.806100
H411	H41	0.767500	0.583800	0.036400
H421	H42	0.957900	0.621300	0.144500
H431	H43	0.854700	0.589300	0.185500
H441	H44	0.862300	0.686900	0.170100
H451	H45	0.608600	0.612200	0.090200
H461	H46	0.639800	0.683600	0.133000
H471	H47	0.630500	0.587200	0.151100
H481	H48	0.665700	0.258900	0.556700
H491	H49	0.311600	0.932200	0.378000
H501	H50	0.149300	0.870400	0.517900
H511	H51	0.028500	0.072900	0.435000
H521	H52	0.948800	0.054000	0.517600
H531	H53	0.051000	0.022100	0.558500
H541	H54	0.957200	0.960700	0.629800
H551	H55	0.660900	0.805300	0.614600
H561	H56	0.827300	0.899900	0.484100
H571	H57	0.315500	0.438200	0.411300
H581	H58	0.485700	0.368600	0.275100
H591	H59	0.599900	0.576100	0.354300
H601	H60	0.694800	0.546700	0.272600
H611	H61	0.586300	0.524600	0.231800
H621	H62	0.644100	0.431300	0.163600
H631	H63	0.933500	0.271100	0.180100
H641	H64	0.814200	0.409300	0.306100
H651	H65	0.732500	0.583800	0.536400
H661	H66	0.542100	0.621300	0.644500
H671	H67	0.645300	0.589300	0.685500
H681	H68	0.637700	0.686900	0.670100
H691	H69	0.891400	0.612200	0.590200
H701	H70	0.860200	0.683600	0.633000
H711	H71	0.869500	0.587200	0.651100
H721	H72	0.834300	0.258900	0.056700
H731	H73	0.688400	0.067800	0.878000
H741	H74	0.850700	0.129600	0.017900
H751	H75	0.971500	0.927100	0.935000
H761	H76	0.051200	0.946000	0.017600
H771	H77	0.949000	0.977900	0.058500
H781	H78	0.042800	0.039300	0.129800
H791	H79	0.339100	0.194700	0.114600
H801	H80	0.172700	0.100100	0.984100
H811	H81	0.684500	0.561800	0.911300
H821	H82	0.514300	0.631400	0.775100
H831	H83	0.400100	0.423900	0.854300
H841	H84	0.305200	0.453300	0.772600
H851	H85	0.413700	0.475400	0.731800
H861	H86	0.355900	0.568700	0.663600
H871	H87	0.066500	0.728900	0.680100
H881	H88	0.185800	0.590700	0.806100
H891	H89	0.267500	0.416200	0.036400
H901	H90	0.457900	0.378700	0.144500
H911	H91	0.354700	0.410700	0.185500
H921	H92	0.362300	0.313100	0.170100
H931	H93	0.108600	0.387800	0.090200
H941	H94	0.139800	0.316400	0.133000
H951	H95	0.130500	0.412800	0.151100
H961	H96	0.165700	0.741100	0.556700
C11	C1	0.674000	0.986800	0.400700
C21	C2	0.751600	0.057100	0.404800
C31	C3	0.741200	0.111600	0.448100
C41	C4	0.654800	0.093700	0.487900
C51	C5	0.575500	0.023400	0.484300
C61	C6	0.584700	0.972600	0.439300
C71	C7	0.495500	0.996300	0.529400
C81	C8	0.403300	0.057100	0.552700
C91	C9	0.397900	0.066700	0.607900
C101	C10	0.305500	0.116700	0.630900
C111	C11	0.223100	0.160500	0.598800
C121	C12	0.230900	0.154600	0.544300
C131	C13	0.321400	0.103500	0.521700
C141	C14	0.687700	0.926800	0.356500
C151	C15	0.826500	0.185900	0.452400
C161	C16	0.299000	0.126300	0.689800
C171	C17	0.141900	0.204300	0.510600
C181	C18	0.954000	0.483200	0.389500
C191	C19	0.878100	0.552600	0.385400
C201	C20	0.892200	0.608700	0.344200
C211	C21	0.978300	0.593700	0.304200
C221	C22	0.053400	0.522900	0.307400
C231	C23	0.044200	0.469900	0.350800
C241	C24	0.138500	0.498700	0.260700
C251	C25	0.216000	0.568700	0.238000
C261	C26	0.205900	0.593500	0.185600
C271	C27	0.285400	0.654500	0.164200
C281	C28	0.377000	0.689800	0.195200
C291	C29	0.387100	0.667900	0.249300
C301	C30	0.306900	0.606800	0.269900
C311	C31	0.940100	0.422600	0.435500
C321	C32	0.809200	0.686200	0.340900
C331	C33	0.269500	0.681200	0.107200
C341	C34	0.481100	0.709100	0.283600
C351	C35	0.173600	0.404800	0.563600
C361	C36	0.127500	0.370700	0.656900
C371	C37	0.344100	0.374700	0.622400
C381	C38	0.326000	0.013200	0.900700
C391	C39	0.248400	0.942900	0.904800
C401	C40	0.258800	0.888400	0.948100
C411	C41	0.345200	0.906300	0.987900
C421	C42	0.424500	0.976600	0.984300
C431	C43	0.415300	0.027400	0.939300
C441	C44	0.504500	0.003700	0.029400
C451	C45	0.596700	0.942900	0.052700
C461	C46	0.602100	0.933300	0.107900
C471	C47	0.694500	0.883300	0.130900
C481	C48	0.776900	0.839500	0.098800
C491	C49	0.769100	0.845400	0.044300
C501	C50	0.678600	0.896500	0.021700
C511	C51	0.312300	0.073200	0.856500
C521	C52	0.173500	0.814100	0.952400
C531	C53	0.701000	0.873700	0.189800
C541	C54	0.858100	0.795700	0.010600
C551	C55	0.046000	0.516800	0.889500
C561	C56	0.121900	0.447400	0.885400
C571	C57	0.107800	0.391300	0.844200
C581	C58	0.021700	0.406300	0.804200
C591	C59	0.946600	0.477100	0.807400
C601	C60	0.955800	0.530100	0.850800
C611	C61	0.861500	0.501300	0.760700
C621	C62	0.784000	0.431300	0.738000
C631	C63	0.794100	0.406500	0.685600
C641	C64	0.714600	0.345500	0.664200
C651	C65	0.623000	0.310200	0.695200
C661	C66	0.612900	0.332100	0.749300
C671	C67	0.693100	0.393200	0.769900
C681	C68	0.059900	0.577400	0.935500
C691	C69	0.190800	0.313800	0.840900
C701	C70	0.730500	0.318800	0.607200
C711	C71	0.518900	0.290900	0.783600
C721	C72	0.826400	0.595200	0.063600
C731	C73	0.872500	0.629300	0.156900
C741	C74	0.655900	0.625300	0.122400
C751	C75	0.174000	0.013200	0.400700
C761	C76	0.251600	0.942900	0.404800
C771	C77	0.241200	0.888400	0.448100
C781	C78	0.154800	0.906300	0.487900
C791	C79	0.075500	0.976600	0.484300
C801	C80	0.084700	0.027400	0.439300
C811	C81	0.995500	0.003700	0.529400
C821	C82	0.903300	0.942900	0.552700
C831	C83	0.897900	0.933300	0.607900
C841	C84	0.805500	0.883300	0.630900
C851	C85	0.723100	0.839500	0.598800
C861	C86	0.730900	0.845400	0.544300
C871	C87	0.821400	0.896500	0.521700
C881	C88	0.187700	0.073200	0.356500
C891	C89	0.326500	0.814100	0.452400
C901	C90	0.799000	0.873700	0.689800
C911	C91	0.641900	0.795700	0.510600
C921	C92	0.454000	0.516800	0.389500
C931	C93	0.378100	0.447400	0.385400
C941	C94	0.392200	0.391300	0.344200
C951	C95	0.478300	0.406300	0.304200
C961	C96	0.553400	0.477100	0.307400
C971	C97	0.544200	0.530100	0.350800
C981	C98	0.638500	0.501300	0.260700
C991	C99	0.716000	0.431300	0.238000
C1001	C100	0.705900	0.406500	0.185600
C1011	C101	0.785400	0.345500	0.164200
C1021	C102	0.877000	0.310200	0.195200
C1031	C103	0.887100	0.332100	0.249300
C1041	C104	0.806900	0.393200	0.269900
C1051	C105	0.440100	0.577400	0.435500
C1061	C106	0.309200	0.313800	0.340900
C1071	C107	0.769500	0.318800	0.107200
C1081	C108	0.981100	0.290900	0.283600
C1091	C109	0.673600	0.595200	0.563600
C1101	C110	0.627500	0.629300	0.656900
C1111	C111	0.844100	0.625300	0.622400
C1121	C112	0.826000	0.986800	0.900700
C1131	C113	0.748400	0.057100	0.904800
C1141	C114	0.758800	0.111600	0.948100
C1151	C115	0.845200	0.093700	0.987900
C1161	C116	0.924500	0.023400	0.984300
C1171	C117	0.915300	0.972600	0.939300
C1181	C118	0.004500	0.996300	0.029400
C1191	C119	0.096700	0.057100	0.052700
C1201	C120	0.102100	0.066700	0.107900
C1211	C121	0.194500	0.116700	0.130900
C1221	C122	0.276900	0.160500	0.098800
C1231	C123	0.269100	0.154600	0.044300
C1241	C124	0.178600	0.103500	0.021700
C1251	C125	0.812300	0.926800	0.856500
C1261	C126	0.673500	0.185900	0.952400
C1271	C127	0.201000	0.126300	0.189800
C1281	C128	0.358100	0.204300	0.010600
C1291	C129	0.546000	0.483200	0.889500
C1301	C130	0.621900	0.552600	0.885400
C1311	C131	0.607800	0.608700	0.844200
C1321	C132	0.521700	0.593700	0.804200
C1331	C133	0.446600	0.522900	0.807400
C1341	C134	0.455800	0.469900	0.850800
C1351	C135	0.361500	0.498700	0.760700
C1361	C136	0.284000	0.568700	0.738000
C1371	C137	0.294100	0.593500	0.685600
C1381	C138	0.214600	0.654500	0.664200
C1391	C139	0.123000	0.689800	0.695200
C1401	C140	0.112900	0.667900	0.749300
C1411	C141	0.193100	0.606800	0.769900
C1421	C142	0.559900	0.422600	0.935500
C1431	C143	0.690800	0.686200	0.840900
C1441	C144	0.230500	0.681200	0.607200
C1451	C145	0.018900	0.709100	0.783600
C1461	C146	0.326400	0.404800	0.063600
C1471	C147	0.372500	0.370700	0.156900
C1481	C148	0.155900	0.374700	0.122400
N11	N1	0.214600	0.385300	0.612100
N21	N2	0.785400	0.614700	0.112100
N31	N3	0.714600	0.614700	0.612100
N41	N4	0.285400	0.385300	0.112100
O11	O1	0.623000	0.860200	0.354360
O21	O2	0.766500	0.939400	0.319240
O31	O3	0.913000	0.187900	0.419410
O41	O4	0.806200	0.239800	0.487410
O51	O5	0.380600	0.094900	0.719230
O61	O6	0.210300	0.167800	0.708880
O71	O7	0.048700	0.235500	0.533580
O81	O8	0.165600	0.211400	0.462140
O91	O9	0.009000	0.357800	0.438030
O101	O10	0.863100	0.437200	0.471400
O111	O11	0.722100	0.690000	0.372760
O121	O12	0.835000	0.741600	0.306100
O131	O13	0.177800	0.654400	0.082140
O141	O14	0.351300	0.729700	0.088490
O151	O15	0.576300	0.738000	0.261600
O161	O16	0.460300	0.711300	0.332750
O171	O17	0.060400	0.408500	0.552500
O181	O18	0.377000	0.139800	0.854360
O191	O19	0.233500	0.060600	0.819240
O201	O20	0.087000	0.812100	0.919410
O211	O21	0.193800	0.760200	0.987410
O221	O22	0.619400	0.905100	0.219230
O231	O23	0.789700	0.832200	0.208880
O241	O24	0.951300	0.764500	0.033580
O251	O25	0.834400	0.788600	0.962140
O261	O26	0.991000	0.642200	0.938030
O271	O27	0.136900	0.562800	0.971400
O281	O28	0.277900	0.310000	0.872760
O291	O29	0.165000	0.258400	0.806100
O301	O30	0.822200	0.345600	0.582140
O311	O31	0.648700	0.270300	0.588490
O321	O32	0.423700	0.262000	0.761600
O331	O33	0.539700	0.288700	0.832750
O341	O34	0.939600	0.591500	0.052500
O351	O35	0.123000	0.139800	0.354360
O361	O36	0.266500	0.060600	0.319240
O371	O37	0.413000	0.812100	0.419410
O381	O38	0.306200	0.760200	0.487410
O391	O39	0.880600	0.905100	0.719230
O401	O40	0.710300	0.832200	0.708880
O411	O41	0.548700	0.764500	0.533580
O421	O42	0.665600	0.788600	0.462140
O431	O43	0.509000	0.642200	0.438030
O441	O44	0.363100	0.562800	0.471400
O451	O45	0.222100	0.310000	0.372760
O461	O46	0.335000	0.258400	0.306100
O471	O47	0.677800	0.345600	0.082140
O481	O48	0.851300	0.270300	0.088490
O491	O49	0.076300	0.262000	0.261600
O501	O50	0.960300	0.288700	0.332750
O511	O51	0.560400	0.591500	0.552500
O521	O52	0.877000	0.860200	0.854360
O531	O53	0.733500	0.939400	0.819240
O541	O54	0.587000	0.187900	0.919410
O551	O55	0.693800	0.239800	0.987410
O561	O56	0.119400	0.094900	0.219230
O571	O57	0.289700	0.167800	0.208880
O581	O58	0.451300	0.235500	0.033580
O591	O59	0.334400	0.211400	0.962140
O601	O60	0.491000	0.357800	0.938030
O611	O61	0.636900	0.437200	0.971400
O621	O62	0.777900	0.690000	0.872760
O631	O63	0.665000	0.741600	0.806100
O641	O64	0.322200	0.654400	0.582140
O651	O65	0.148700	0.729700	0.588490
O661	O66	0.923700	0.738000	0.761600
O671	O67	0.039700	0.711300	0.832750
O681	O68	0.439600	0.408500	0.052500
H971	H97	0.341500	0.567000	0.005700
H981	H98	0.474300	0.557700	0.977900
H991	H99	0.464700	0.590400	0.037900
H1001	H100	0.513400	0.778800	0.962600
H1011	H101	0.575700	0.725400	0.009500
H1021	H102	0.581000	0.691400	0.949700
C1491	C149	0.424900	0.591100	0.002900
C1501	C150	0.530600	0.721800	0.975800
N51	N5	0.416300	0.678200	0.983800
H1031	H103	0.658500	0.433000	0.505700
H1041	H104	0.525700	0.442300	0.477900
H1051	H105	0.535300	0.409600	0.537900
H1061	H106	0.486600	0.221200	0.462600
H1071	H107	0.424300	0.274600	0.509500
H1081	H108	0.419000	0.308600	0.449700
C1511	C151	0.575100	0.408900	0.502900
C1521	C152	0.469400	0.278200	0.475800
N61	N6	0.583700	0.321800	0.483800
H1091	H109	0.841500	0.433000	0.005700
H1101	H110	0.974300	0.442300	0.977900
H1111	H111	0.964700	0.409600	0.037900
H1121	H112	0.013400	0.221200	0.962600
H1131	H113	0.075700	0.274600	0.009500
H1141	H114	0.081000	0.308600	0.949700
C1531	C153	0.924900	0.408900	0.002900
C1541	C154	0.030600	0.278200	0.975800
N71	N7	0.916300	0.321800	0.983800
H1151	H115	0.158500	0.567000	0.505700
H1161	H116	0.025700	0.557700	0.477900
H1171	H117	0.035300	0.590400	0.537900
H1181	H118	0.986600	0.778800	0.462600
H1191	H119	0.924300	0.725400	0.509500
H1201	H120	0.919000	0.691400	0.449700
C1551	C155	0.075100	0.591100	0.502900
C1561	C156	0.969400	0.721800	0.475800
N81	N8	0.083700	0.678200	0.483800
