data_EBIPIQ_freeONLY_PM
_symmetry_space_group_name_H-M	'P1'
_cell_length_a	7.579800
_cell_length_b	8.784900
_cell_length_c	19.056000
_cell_angle_alpha	94.154000
_cell_angle_beta	96.890000
_cell_angle_gamma	112.580000
_symmetry_Int_Tables_number 1

loop_
_symmetry_equiv_pos_as_xyz
'x,y,z'

loop_
_atom_site_label
_atom_site_type_symbol
_atom_site_fract_x
_atom_site_fract_y
_atom_site_fract_z
Cu11	Cu1	0.320000	0.145290	0.166410
Cu21	Cu2	0.005100	0.295360	0.348900
Cu31	Cu3	0.680000	0.854710	0.833590
Cu41	Cu4	0.994900	0.704640	0.651100
H11	H1	0.991600	0.658500	0.010800
H21	H2	0.185500	0.629000	0.023600
H31	H3	0.082600	0.664100	0.132400
H41	H4	0.085800	0.484900	0.119500
H51	H5	0.413400	0.467400	0.089300
H61	H6	0.776500	0.274200	0.158200
H71	H7	0.351600	0.858700	0.519100
H81	H8	0.543700	0.856000	0.495600
H91	H9	0.284600	0.738600	0.400400
H101	H10	0.447100	0.898800	0.379800
H111	H11	0.839800	0.971800	0.419700
H121	H12	0.326500	0.128900	0.344200
H131	H13	0.969100	0.735900	0.263800
H141	H14	0.335500	0.691600	0.243500
H151	H15	0.167000	0.128000	0.049000
H161	H16	0.042000	0.127000	0.093000
H171	H17	0.683000	0.217000	0.357000
H181	H18	0.652000	0.096000	0.306000
H191	H19	0.008400	0.341500	0.989200
H201	H20	0.814500	0.371000	0.976400
H211	H21	0.917400	0.335900	0.867600
H221	H22	0.914200	0.515100	0.880500
H231	H23	0.586600	0.532600	0.910700
H241	H24	0.223500	0.725800	0.841800
H251	H25	0.648400	0.141300	0.480900
H261	H26	0.456300	0.144000	0.504400
H271	H27	0.715400	0.261400	0.599600
H281	H28	0.552900	0.101200	0.620200
H291	H29	0.160200	0.028200	0.580300
H301	H30	0.673500	0.871100	0.655800
H311	H31	0.030900	0.264100	0.736200
H321	H32	0.664500	0.308400	0.756500
H331	H33	0.833000	0.872000	0.951000
H341	H34	0.958000	0.873000	0.907000
H351	H35	0.317000	0.783000	0.643000
H361	H36	0.348000	0.904000	0.694000
C11	C1	0.046700	0.579600	0.025900
C21	C2	0.021100	0.556000	0.102500
C31	C3	0.528800	0.451400	0.100400
C41	C4	0.721400	0.343600	0.138300
C51	C5	0.448700	0.906200	0.488400
C61	C6	0.349800	0.859800	0.411100
C71	C7	0.960500	0.980700	0.408400
C81	C8	0.222800	0.067600	0.366900
C91	C9	0.515300	0.584600	0.279100
C101	C10	0.707300	0.599100	0.286600
C111	C11	0.840400	0.726700	0.259200
C121	C12	0.790800	0.842700	0.224900
C131	C13	0.597900	0.828700	0.218400
C141	C14	0.463700	0.700000	0.246600
C151	C15	0.353100	0.433700	0.297500
C161	C16	0.766200	0.481800	0.325800
C171	C17	0.942000	0.981800	0.196700
C181	C18	0.521400	0.939800	0.179600
C191	C19	0.953300	0.420400	0.974100
C201	C20	0.978900	0.444000	0.897500
C211	C21	0.471200	0.548600	0.899600
C221	C22	0.278600	0.656400	0.861700
C231	C23	0.551300	0.093800	0.511600
C241	C24	0.650200	0.140200	0.588900
C251	C25	0.039500	0.019300	0.591600
C261	C26	0.777200	0.932400	0.633100
C271	C27	0.484700	0.415400	0.720900
C281	C28	0.292700	0.400900	0.713400
C291	C29	0.159600	0.273300	0.740800
C301	C30	0.209200	0.157300	0.775100
C311	C31	0.402100	0.171300	0.781600
C321	C32	0.536300	0.300000	0.753400
C331	C33	0.646900	0.566300	0.702500
C341	C34	0.233800	0.518200	0.674200
C351	C35	0.058000	0.018200	0.803300
C361	C36	0.478600	0.060200	0.820400
N11	N1	0.816400	0.480300	0.109900
N21	N2	0.692800	0.550800	0.085100
N31	N3	0.537700	0.321100	0.133900
N41	N4	0.207900	0.934200	0.397700
N51	N5	0.039700	0.876400	0.425900
N61	N6	0.067900	0.101800	0.372900
N71	N7	0.183600	0.519700	0.890100
N81	N8	0.307200	0.449200	0.914900
N91	N9	0.462300	0.678900	0.866100
N101	N10	0.792100	0.065800	0.602300
N111	N11	0.960300	0.123600	0.574100
N121	N12	0.932100	0.898200	0.627100
O11	O1	0.304200	0.301100	0.258900
O21	O2	0.266700	0.457000	0.346740
O31	O3	0.916700	0.462200	0.311780
O41	O4	0.663600	0.407800	0.369900
O51	O5	0.100000	0.965800	0.191310
O61	O6	0.901600	0.098800	0.180700
O71	O7	0.494000	0.051500	0.219560
O81	O8	0.472000	0.911600	0.114340
O91	O9	0.151700	0.173400	0.083300
O101	O10	0.727900	0.146000	0.347950
O111	O11	0.695800	0.698900	0.741100
O121	O12	0.733300	0.543000	0.653260
O131	O13	0.083300	0.537800	0.688220
O141	O14	0.336400	0.592200	0.630100
O151	O15	0.900000	0.034200	0.808690
O161	O16	0.098400	0.901200	0.819300
O171	O17	0.506000	0.948500	0.780440
O181	O18	0.528000	0.088400	0.885660
O191	O19	0.848300	0.826600	0.916700
O201	O20	0.272100	0.854000	0.652050
