data_EBITAL01_freeONLY_PM
_symmetry_space_group_name_H-M	'P1'
_cell_length_a	8.603200
_cell_length_b	13.223000
_cell_length_c	13.481000
_cell_angle_alpha	90.000000
_cell_angle_beta	92.386000
_cell_angle_gamma	90.000000
_symmetry_Int_Tables_number 1

loop_
_symmetry_equiv_pos_as_xyz
'x,y,z'

loop_
_atom_site_label
_atom_site_type_symbol
_atom_site_fract_x
_atom_site_fract_y
_atom_site_fract_z
Be11	Be1	0.420300	0.119600	0.750100
Be21	Be2	0.676800	0.326300	0.904100
Be31	Be3	0.841800	0.503900	0.258400
P11	P1	0.658810	0.100760	0.905970
H11	H1	0.642700	0.075000	0.000900
P21	P2	0.394640	0.340090	0.771250
H21	H2	0.466000	0.384600	0.698500
P31	P3	0.813560	0.453960	0.750460
H31	H3	0.737700	0.415200	0.673400
P41	P4	0.690300	0.362290	0.123330
H41	H4	0.698400	0.264500	0.138600
O11	O1	0.775800	0.028000	0.865100
O21	O2	0.498100	0.093700	0.856500
O31	O3	0.723500	0.207600	0.908500
O41	O4	0.357700	0.233700	0.740200
O51	O5	0.498000	0.344600	0.864600
O61	O6	0.243800	0.395900	0.787400
O71	O7	0.734900	0.552800	0.771300
O81	O8	0.976900	0.470000	0.720900
O91	O9	0.803400	0.378800	0.833100
O101	O10	0.699900	0.379400	0.012300
O111	O11	0.826800	0.410400	0.179800
O121	O12	0.534600	0.398600	0.159000
Be41	Be4	0.579700	0.619600	0.749900
Be51	Be5	0.323200	0.826300	0.595900
Be61	Be6	0.158200	0.003900	0.241600
P51	P5	0.341190	0.600760	0.594030
H51	H5	0.357300	0.575000	0.499100
P61	P6	0.605360	0.840090	0.728750
H61	H6	0.534000	0.884600	0.801500
P71	P7	0.186440	0.953960	0.749540
H71	H7	0.262300	0.915200	0.826600
P81	P8	0.309700	0.862290	0.376670
H81	H8	0.301600	0.764500	0.361400
O131	O13	0.224200	0.528000	0.634900
O141	O14	0.501900	0.593700	0.643500
O151	O15	0.276500	0.707600	0.591500
O161	O16	0.642300	0.733700	0.759800
O171	O17	0.502000	0.844600	0.635400
O181	O18	0.756200	0.895900	0.712600
O191	O19	0.265100	0.052800	0.728700
O201	O20	0.023100	0.970000	0.779100
O211	O21	0.196600	0.878800	0.666900
O221	O22	0.300100	0.879400	0.487700
O231	O23	0.173200	0.910400	0.320200
O241	O24	0.465400	0.898600	0.341000
Be71	Be7	0.579700	0.880400	0.249900
Be81	Be8	0.323200	0.673700	0.095900
Be91	Be9	0.158200	0.496100	0.741600
P91	P9	0.341190	0.899240	0.094030
H91	H9	0.357300	0.925000	0.999100
P101	P10	0.605360	0.659910	0.228750
H101	H10	0.534000	0.615400	0.301500
P111	P11	0.186440	0.546040	0.249540
H111	H11	0.262300	0.584800	0.326600
P121	P12	0.309700	0.637710	0.876670
H121	H12	0.301600	0.735500	0.861400
O251	O25	0.224200	0.972000	0.134900
O261	O26	0.501900	0.906300	0.143500
O271	O27	0.276500	0.792400	0.091500
O281	O28	0.642300	0.766300	0.259800
O291	O29	0.502000	0.655400	0.135400
O301	O30	0.756200	0.604100	0.212600
O311	O31	0.265100	0.447200	0.228700
O321	O32	0.023100	0.530000	0.279100
O331	O33	0.196600	0.621200	0.166900
O341	O34	0.300100	0.620600	0.987700
O351	O35	0.173200	0.589600	0.820200
O361	O36	0.465400	0.601400	0.841000
Be101	Be10	0.420300	0.380400	0.250100
Be111	Be11	0.676800	0.173700	0.404100
Be121	Be12	0.841800	0.996100	0.758400
P131	P13	0.658810	0.399240	0.405970
H131	H13	0.642700	0.425000	0.500900
P141	P14	0.394640	0.159910	0.271250
H141	H14	0.466000	0.115400	0.198500
P151	P15	0.813560	0.046040	0.250460
H151	H15	0.737700	0.084800	0.173400
P161	P16	0.690300	0.137710	0.623330
H161	H16	0.698400	0.235500	0.638600
O371	O37	0.775800	0.472000	0.365100
O381	O38	0.498100	0.406300	0.356500
O391	O39	0.723500	0.292400	0.408500
O401	O40	0.357700	0.266300	0.240200
O411	O41	0.498000	0.155400	0.364600
O421	O42	0.243800	0.104100	0.287400
O431	O43	0.734900	0.947200	0.271300
O441	O44	0.976900	0.030000	0.220900
O451	O45	0.803400	0.121200	0.333100
O461	O46	0.699900	0.120600	0.512300
O471	O47	0.826800	0.089600	0.679800
O481	O48	0.534600	0.101400	0.659000
