data_EBOCOQ_freeONLY_PM
_symmetry_space_group_name_H-M	'P1'
_cell_length_a	12.471000
_cell_length_b	13.306000
_cell_length_c	15.711000
_cell_angle_alpha	90.000000
_cell_angle_beta	90.000000
_cell_angle_gamma	90.000000
_symmetry_Int_Tables_number 1

loop_
_symmetry_equiv_pos_as_xyz
'x,y,z'

loop_
_atom_site_label
_atom_site_type_symbol
_atom_site_fract_x
_atom_site_fract_y
_atom_site_fract_z
C11	C1	0.967800	0.319700	0.129100
C21	C2	0.010700	0.382100	0.058200
H11	H1	0.067400	0.355400	0.027200
C31	C3	0.976000	0.471800	0.035300
H21	H2	0.919000	0.500300	0.064900
C41	C4	0.726000	0.313400	0.407200
H31	H3	0.767400	0.265400	0.434900
C51	C5	0.652900	0.368600	0.453600
H41	H4	0.644500	0.356900	0.511600
C61	C6	0.592600	0.441100	0.413800
C71	C7	0.604800	0.455800	0.329400
H51	H5	0.564500	0.504300	0.301200
C81	C8	0.675600	0.399700	0.287200
H61	H6	0.682000	0.411200	0.229000
C91	C9	0.513700	0.505500	0.461300
H71	H7	0.482200	0.558100	0.431400
N11	N1	0.739100	0.327300	0.321400
O11	O1	0.892400	0.363100	0.173300
O21	O2	0.991900	0.232400	0.140500
C101	C10	0.967800	0.180300	0.370900
C111	C11	0.010700	0.117900	0.441800
H81	H8	0.067400	0.144600	0.472800
C121	C12	0.976000	0.028200	0.464700
H91	H9	0.919000	0.999700	0.435100
C131	C13	0.726000	0.186600	0.092800
H101	H10	0.767400	0.234600	0.065100
C141	C14	0.652900	0.131400	0.046400
H111	H11	0.644500	0.143100	0.988400
C151	C15	0.592600	0.058900	0.086200
C161	C16	0.604800	0.044200	0.170600
H121	H12	0.564500	0.995700	0.198800
C171	C17	0.675600	0.100300	0.212800
H131	H13	0.682000	0.088800	0.271000
C181	C18	0.513700	0.994500	0.038700
H141	H14	0.482200	0.941900	0.068600
N21	N2	0.739100	0.172700	0.178600
O31	O3	0.892400	0.136900	0.326700
O41	O4	0.991900	0.267600	0.359500
C191	C19	0.032200	0.680300	0.870900
C201	C20	0.989300	0.617900	0.941800
H151	H15	0.932600	0.644600	0.972800
C211	C21	0.024000	0.528200	0.964700
H161	H16	0.081000	0.499700	0.935100
C221	C22	0.274000	0.686600	0.592800
H171	H17	0.232600	0.734600	0.565100
C231	C23	0.347100	0.631400	0.546400
H181	H18	0.355500	0.643100	0.488400
C241	C24	0.407400	0.558900	0.586200
C251	C25	0.395200	0.544200	0.670600
H191	H19	0.435500	0.495700	0.698800
C261	C26	0.324400	0.600300	0.712800
H201	H20	0.318000	0.588800	0.771000
C271	C27	0.486300	0.494500	0.538700
H211	H21	0.517800	0.441900	0.568600
N31	N3	0.260900	0.672700	0.678600
O51	O5	0.107600	0.636900	0.826700
O61	O6	0.008100	0.767600	0.859500
C281	C28	0.032200	0.819700	0.629100
C291	C29	0.989300	0.882100	0.558200
H221	H22	0.932600	0.855400	0.527200
C301	C30	0.024000	0.971800	0.535300
H231	H23	0.081000	0.000300	0.564900
C311	C31	0.274000	0.813400	0.907200
H241	H24	0.232600	0.765400	0.934900
C321	C32	0.347100	0.868600	0.953600
H251	H25	0.355500	0.856900	0.011600
C331	C33	0.407400	0.941100	0.913800
C341	C34	0.395200	0.955800	0.829400
H261	H26	0.435500	0.004300	0.801200
C351	C35	0.324400	0.899700	0.787200
H271	H27	0.318000	0.911200	0.729000
C361	C36	0.486300	0.005500	0.961300
H281	H28	0.517800	0.058100	0.931400
N41	N4	0.260900	0.827300	0.821400
O71	O7	0.107600	0.863100	0.673300
O81	O8	0.008100	0.732400	0.640500
Zn11	Zn1	0.850090	0.250000	0.250000
Zn21	Zn2	0.149910	0.750000	0.750000
C371	C37	0.532200	0.680300	0.129100
C381	C38	0.489300	0.617900	0.058200
H291	H29	0.432600	0.644600	0.027200
C391	C39	0.524000	0.528200	0.035300
H301	H30	0.581000	0.499700	0.064900
C401	C40	0.774000	0.686600	0.407200
H311	H31	0.732600	0.734600	0.434900
C411	C41	0.847100	0.631400	0.453600
H321	H32	0.855500	0.643100	0.511600
C421	C42	0.907400	0.558900	0.413800
C431	C43	0.895200	0.544200	0.329400
H331	H33	0.935500	0.495700	0.301200
C441	C44	0.824400	0.600300	0.287200
H341	H34	0.818000	0.588800	0.229000
C451	C45	0.986300	0.494500	0.461300
H351	H35	0.017800	0.441900	0.431400
N51	N5	0.760900	0.672700	0.321400
O91	O9	0.607600	0.636900	0.173300
O101	O10	0.508100	0.767600	0.140500
C461	C46	0.532200	0.819700	0.370900
C471	C47	0.489300	0.882100	0.441800
H361	H36	0.432600	0.855400	0.472800
C481	C48	0.524000	0.971800	0.464700
H371	H37	0.581000	0.000300	0.435100
C491	C49	0.774000	0.813400	0.092800
H381	H38	0.732600	0.765400	0.065100
C501	C50	0.847100	0.868600	0.046400
H391	H39	0.855500	0.856900	0.988400
C511	C51	0.907400	0.941100	0.086200
C521	C52	0.895200	0.955800	0.170600
H401	H40	0.935500	0.004300	0.198800
C531	C53	0.824400	0.899700	0.212800
H411	H41	0.818000	0.911200	0.271000
C541	C54	0.986300	0.005500	0.038700
H421	H42	0.017800	0.058100	0.068600
N61	N6	0.760900	0.827300	0.178600
O111	O11	0.607600	0.863100	0.326700
O121	O12	0.508100	0.732400	0.359500
C551	C55	0.467800	0.319700	0.870900
C561	C56	0.510700	0.382100	0.941800
H431	H43	0.567400	0.355400	0.972800
C571	C57	0.476000	0.471800	0.964700
H441	H44	0.419000	0.500300	0.935100
C581	C58	0.226000	0.313400	0.592800
H451	H45	0.267400	0.265400	0.565100
C591	C59	0.152900	0.368600	0.546400
H461	H46	0.144500	0.356900	0.488400
C601	C60	0.092600	0.441100	0.586200
C611	C61	0.104800	0.455800	0.670600
H471	H47	0.064500	0.504300	0.698800
C621	C62	0.175600	0.399700	0.712800
H481	H48	0.182000	0.411200	0.771000
C631	C63	0.013700	0.505500	0.538700
H491	H49	0.982200	0.558100	0.568600
N71	N7	0.239100	0.327300	0.678600
O131	O13	0.392400	0.363100	0.826700
O141	O14	0.491900	0.232400	0.859500
C641	C64	0.467800	0.180300	0.629100
C651	C65	0.510700	0.117900	0.558200
H501	H50	0.567400	0.144600	0.527200
C661	C66	0.476000	0.028200	0.535300
H511	H51	0.419000	0.999700	0.564900
C671	C67	0.226000	0.186600	0.907200
H521	H52	0.267400	0.234600	0.934900
C681	C68	0.152900	0.131400	0.953600
H531	H53	0.144500	0.143100	0.011600
C691	C69	0.092600	0.058900	0.913800
C701	C70	0.104800	0.044200	0.829400
H541	H54	0.064500	0.995700	0.801200
C711	C71	0.175600	0.100300	0.787200
H551	H55	0.182000	0.088800	0.729000
C721	C72	0.013700	0.994500	0.961300
H561	H56	0.982200	0.941900	0.931400
N81	N8	0.239100	0.172700	0.821400
O151	O15	0.392400	0.136900	0.673300
O161	O16	0.491900	0.267600	0.640500
Zn31	Zn3	0.649910	0.750000	0.250000
Zn41	Zn4	0.350090	0.250000	0.750000
