data_ECAHOH_freeONLY_PM
_symmetry_space_group_name_H-M	'P1'
_cell_length_a	7.740970
_cell_length_b	15.596700
_cell_length_c	15.596700
_cell_angle_alpha	62.681000
_cell_angle_beta	80.477200
_cell_angle_gamma	99.522800
_symmetry_Int_Tables_number 1

loop_
_symmetry_equiv_pos_as_xyz
'x,y,z'

loop_
_atom_site_label
_atom_site_type_symbol
_atom_site_fract_x
_atom_site_fract_y
_atom_site_fract_z
Cu11	Cu1	0.500000	0.000000	0.500000
H11	H1	0.138000	0.956200	0.321300
H21	H2	0.221200	0.880100	0.300700
H31	H3	0.317600	0.995600	0.235000
H41	H4	0.391900	0.800600	0.397300
H51	H5	0.859900	0.816000	0.519800
H61	H6	0.016100	0.701400	0.531500
H71	H7	0.643700	0.559300	0.469200
H81	H8	0.473000	0.667800	0.457100
H91	H9	0.862000	0.043800	0.678700
H101	H10	0.778800	0.119900	0.699300
H111	H11	0.682400	0.004400	0.765000
H121	H12	0.608100	0.199400	0.602700
H131	H13	0.140100	0.184000	0.480200
H141	H14	0.983900	0.298600	0.468500
H151	H15	0.356300	0.440700	0.530800
H161	H16	0.527000	0.332200	0.542900
C11	C1	0.249200	0.942300	0.301100
C21	C2	0.359900	0.933790	0.373890
C31	C3	0.430630	0.850910	0.411820
C41	C4	0.554060	0.837540	0.469160
C51	C5	0.648220	0.757500	0.484040
C61	C6	0.813150	0.764520	0.508370
C71	C7	0.906200	0.695100	0.515300
C81	C8	0.688200	0.612150	0.479150
C91	C9	0.584500	0.677330	0.471130
C101	C10	0.750800	0.057700	0.698900
C111	C11	0.640100	0.066210	0.626110
C121	C12	0.569370	0.149090	0.588180
C131	C13	0.445940	0.162460	0.530840
C141	C14	0.351780	0.242500	0.515960
C151	C15	0.186850	0.235480	0.491630
C161	C16	0.093800	0.304900	0.484700
C171	C17	0.311800	0.387850	0.520850
C181	C18	0.415500	0.322670	0.528870
N11	N1	0.848310	0.619290	0.500060
N21	N2	0.151690	0.380710	0.499940
O11	O1	0.381940	0.002480	0.395360
O21	O2	0.602650	0.891390	0.506540
O31	O3	0.618060	0.997520	0.604640
O41	O4	0.397350	0.108610	0.493460
Cu21	Cu2	0.000000	0.500000	0.500000
H171	H17	0.459300	0.321300	0.722500
H181	H18	0.521900	0.300700	0.819200
H191	H19	0.552600	0.235000	0.769400
H201	H20	0.789200	0.397300	0.802100
H211	H21	0.379700	0.519800	0.664200
H221	H22	0.547600	0.531500	0.767100
H231	H23	0.112900	0.469200	0.971500
H241	H24	0.930100	0.457100	0.875100
H251	H25	0.540700	0.678700	0.277500
H261	H26	0.478100	0.699300	0.180800
H271	H27	0.447400	0.765000	0.230600
H281	H28	0.210800	0.602700	0.197900
H291	H29	0.620300	0.480200	0.335800
H301	H30	0.452400	0.468500	0.232900
H311	H31	0.887100	0.530800	0.028500
H321	H32	0.069900	0.542900	0.124900
C191	C19	0.550300	0.301100	0.756600
C201	C20	0.733790	0.373890	0.692320
C211	C21	0.842450	0.411820	0.737270
C221	C22	0.023220	0.469160	0.693300
C231	C23	0.132260	0.484040	0.758460
C241	C24	0.321520	0.508370	0.727110
C251	C25	0.421500	0.515300	0.789600
C261	C26	0.167350	0.479150	0.908700
C271	C27	0.055630	0.471130	0.851540
C281	C28	0.449700	0.698900	0.243400
C291	C29	0.266210	0.626110	0.307680
C301	C30	0.157550	0.588180	0.262730
C311	C31	0.976780	0.530840	0.306700
C321	C32	0.867740	0.515960	0.241540
C331	C33	0.678480	0.491630	0.272890
C341	C34	0.578500	0.484700	0.210400
C351	C35	0.832650	0.520850	0.091300
C361	C36	0.944370	0.528870	0.148460
N31	N3	0.348370	0.500060	0.880650
N41	N4	0.651630	0.499940	0.119350
O51	O5	0.777300	0.395360	0.602160
O61	O6	0.109190	0.506540	0.602070
O71	O7	0.222700	0.604640	0.397840
O81	O8	0.890810	0.493460	0.397930
Cu31	Cu3	0.500000	0.500000	0.000000
H331	H33	0.181800	0.722500	0.956200
H341	H34	0.341100	0.819200	0.880100
H351	H35	0.322000	0.769400	0.995600
H361	H36	0.591300	0.802100	0.800600
H371	H37	0.043900	0.664200	0.816000
H381	H38	0.314700	0.767100	0.701400
H391	H39	0.084400	0.971500	0.559300
H401	H40	0.805200	0.875100	0.667800
H411	H41	0.818200	0.277500	0.043800
H421	H42	0.658900	0.180800	0.119900
H431	H43	0.678000	0.230600	0.004400
H441	H44	0.408700	0.197900	0.199400
H451	H45	0.956100	0.335800	0.184000
H461	H46	0.685300	0.232900	0.298600
H471	H47	0.915600	0.028500	0.440700
H481	H48	0.194800	0.124900	0.332200
C371	C37	0.306900	0.756600	0.942300
C381	C38	0.426110	0.692320	0.933790
C391	C39	0.579720	0.737270	0.850910
C401	C40	0.716520	0.693300	0.837540
C411	C41	0.890720	0.758460	0.757500
C421	C42	0.048630	0.727110	0.764520
C431	C43	0.211100	0.789600	0.695100
C441	C44	0.076050	0.908700	0.612150
C451	C45	0.907170	0.851540	0.677330
C461	C46	0.693100	0.243400	0.057700
C471	C47	0.573890	0.307680	0.066210
C481	C48	0.420280	0.262730	0.149090
C491	C49	0.283480	0.306700	0.162460
C501	C50	0.109280	0.241540	0.242500
C511	C51	0.951370	0.272890	0.235480
C521	C52	0.788900	0.210400	0.304900
C531	C53	0.923950	0.091300	0.387850
C541	C54	0.092830	0.148460	0.322670
N51	N5	0.229020	0.880650	0.619290
N61	N6	0.770980	0.119350	0.380710
O91	O9	0.379460	0.602160	0.002480
O101	O10	0.711260	0.602070	0.891390
O111	O11	0.620540	0.397840	0.997520
O121	O12	0.288740	0.397930	0.108610
