data_ECAHAT_freeONLY_PM
_symmetry_space_group_name_H-M	'P1'
_cell_length_a	7.716500
_cell_length_b	21.746000
_cell_length_c	21.746000
_cell_angle_alpha	120.000000
_cell_angle_beta	90.000000
_cell_angle_gamma	90.000000
_symmetry_Int_Tables_number 1

loop_
_symmetry_equiv_pos_as_xyz
'x,y,z'

loop_
_atom_site_label
_atom_site_type_symbol
_atom_site_fract_x
_atom_site_fract_y
_atom_site_fract_z
Zn11	Zn1	0.000000	0.500000	0.500000
Zn21	Zn2	0.000000	0.000000	0.500000
Zn31	Zn3	0.000000	0.500000	0.000000
H11	H1	0.437700	0.345200	0.382100
H21	H2	0.320500	0.319800	0.312800
H31	H3	0.326900	0.273600	0.351400
H41	H4	0.085800	0.277500	0.406700
H51	H5	0.919900	0.211300	0.415600
H61	H6	0.715900	0.139700	0.425700
H71	H7	0.420900	0.308700	0.546100
H81	H8	0.618600	0.380000	0.530400
H91	H9	0.583500	0.091800	0.480800
H101	H10	0.378900	0.017700	0.483400
H111	H11	0.009500	0.152300	0.515800
H121	H12	0.204100	0.231900	0.515900
H131	H13	0.437700	0.036900	0.654800
H141	H14	0.320500	0.993000	0.680200
H151	H15	0.326900	0.077800	0.726400
H161	H16	0.085800	0.129200	0.722500
H171	H17	0.919900	0.204300	0.788700
H181	H18	0.715900	0.286000	0.860300
H191	H19	0.420900	0.237400	0.691300
H201	H20	0.618600	0.150400	0.620000
H211	H21	0.583500	0.389000	0.908200
H221	H22	0.378900	0.465700	0.982300
H231	H23	0.009500	0.363500	0.847700
H241	H24	0.204100	0.284000	0.768100
H251	H25	0.437700	0.617900	0.963100
H261	H26	0.320500	0.687200	0.007000
H271	H27	0.326900	0.648600	0.922200
H281	H28	0.085800	0.593300	0.870800
H291	H29	0.919900	0.584400	0.795700
H301	H30	0.715900	0.574300	0.714000
H311	H31	0.420900	0.453900	0.762600
H321	H32	0.618600	0.469600	0.849600
H331	H33	0.583500	0.519200	0.611000
H341	H34	0.378900	0.516600	0.534300
H351	H35	0.009500	0.484200	0.636500
H361	H36	0.204100	0.484100	0.716000
H371	H37	0.562300	0.654800	0.617900
H381	H38	0.679500	0.680200	0.687200
H391	H39	0.673100	0.726400	0.648600
H401	H40	0.914200	0.722500	0.593300
H411	H41	0.080100	0.788700	0.584400
H421	H42	0.284100	0.860300	0.574300
H431	H43	0.579100	0.691300	0.453900
H441	H44	0.381400	0.620000	0.469600
H451	H45	0.416500	0.908200	0.519200
H461	H46	0.621100	0.982300	0.516600
H471	H47	0.990500	0.847700	0.484200
H481	H48	0.795900	0.768100	0.484100
H491	H49	0.562300	0.963100	0.345200
H501	H50	0.679500	0.007000	0.319800
H511	H51	0.673100	0.922200	0.273600
H521	H52	0.914200	0.870800	0.277500
H531	H53	0.080100	0.795700	0.211300
H541	H54	0.284100	0.714000	0.139700
H551	H55	0.579100	0.762600	0.308700
H561	H56	0.381400	0.849600	0.380000
H571	H57	0.416500	0.611000	0.091800
H581	H58	0.621100	0.534300	0.017700
H591	H59	0.990500	0.636500	0.152300
H601	H60	0.795900	0.716000	0.231900
H611	H61	0.562300	0.382100	0.036900
H621	H62	0.679500	0.312800	0.993000
H631	H63	0.673100	0.351400	0.077800
H641	H64	0.914200	0.406700	0.129200
H651	H65	0.080100	0.415600	0.204300
H661	H66	0.284100	0.425700	0.286000
H671	H67	0.579100	0.546100	0.237400
H681	H68	0.381400	0.530400	0.150400
H691	H69	0.416500	0.480800	0.389000
H701	H70	0.621100	0.483400	0.465700
H711	H71	0.990500	0.515800	0.363500
H721	H72	0.795900	0.515900	0.284000
C11	C1	0.329000	0.321880	0.358770
C21	C2	0.177640	0.363640	0.405040
C31	C3	0.060610	0.326170	0.423600
C41	C4	0.910760	0.353380	0.464450
C51	C5	0.787460	0.303820	0.470910
C61	C6	0.815790	0.231710	0.441130
C71	C7	0.695120	0.189380	0.447980
C81	C8	0.546430	0.216040	0.485660
C91	C9	0.521000	0.287980	0.517760
C101	C10	0.640500	0.330490	0.508980
C111	C11	0.418420	0.168200	0.491730
C121	C12	0.464980	0.105350	0.486330
C131	C13	0.341890	0.061810	0.488890
C141	C14	0.128450	0.139510	0.507860
C151	C15	0.243000	0.186650	0.506670
C161	C16	0.329000	0.036890	0.678120
C171	C17	0.177640	0.041400	0.636360
C181	C18	0.060610	0.097430	0.673830
C191	C19	0.910760	0.111070	0.646620
C201	C20	0.787460	0.167090	0.696180
C211	C21	0.815790	0.209420	0.768290
C221	C22	0.695120	0.258600	0.810620
C231	C23	0.546430	0.269620	0.783960
C241	C24	0.521000	0.229780	0.712020
C251	C25	0.640500	0.178490	0.669510
C261	C26	0.418420	0.323530	0.831800
C271	C27	0.464980	0.380980	0.894650
C281	C28	0.341890	0.427080	0.938190
C291	C29	0.128450	0.368350	0.860490
C301	C30	0.243000	0.320020	0.813350
C311	C31	0.329000	0.641230	0.963110
C321	C32	0.177640	0.594960	0.958600
C331	C33	0.060610	0.576400	0.902570
C341	C34	0.910760	0.535550	0.888930
C351	C35	0.787460	0.529090	0.832910
C361	C36	0.815790	0.558870	0.790580
C371	C37	0.695120	0.552020	0.741400
C381	C38	0.546430	0.514340	0.730380
C391	C39	0.521000	0.482240	0.770220
C401	C40	0.640500	0.491020	0.821510
C411	C41	0.418420	0.508270	0.676470
C421	C42	0.464980	0.513670	0.619020
C431	C43	0.341890	0.511110	0.572920
C441	C44	0.128450	0.492140	0.631650
C451	C45	0.243000	0.493330	0.679980
C461	C46	0.671000	0.678120	0.641230
C471	C47	0.822360	0.636360	0.594960
C481	C48	0.939390	0.673830	0.576400
C491	C49	0.089240	0.646620	0.535550
C501	C50	0.212540	0.696180	0.529090
C511	C51	0.184210	0.768290	0.558870
C521	C52	0.304880	0.810620	0.552020
C531	C53	0.453570	0.783960	0.514340
C541	C54	0.479000	0.712020	0.482240
C551	C55	0.359500	0.669510	0.491020
C561	C56	0.581580	0.831800	0.508270
C571	C57	0.535020	0.894650	0.513670
C581	C58	0.658110	0.938190	0.511110
C591	C59	0.871550	0.860490	0.492140
C601	C60	0.757000	0.813350	0.493330
C611	C61	0.671000	0.963110	0.321880
C621	C62	0.822360	0.958600	0.363640
C631	C63	0.939390	0.902570	0.326170
C641	C64	0.089240	0.888930	0.353380
C651	C65	0.212540	0.832910	0.303820
C661	C66	0.184210	0.790580	0.231710
C671	C67	0.304880	0.741400	0.189380
C681	C68	0.453570	0.730380	0.216040
C691	C69	0.479000	0.770220	0.287980
C701	C70	0.359500	0.821510	0.330490
C711	C71	0.581580	0.676470	0.168200
C721	C72	0.535020	0.619020	0.105350
C731	C73	0.658110	0.572920	0.061810
C741	C74	0.871550	0.631650	0.139510
C751	C75	0.757000	0.679980	0.186650
C761	C76	0.671000	0.358770	0.036890
C771	C77	0.822360	0.405040	0.041400
C781	C78	0.939390	0.423600	0.097430
C791	C79	0.089240	0.464450	0.111070
C801	C80	0.212540	0.470910	0.167090
C811	C81	0.184210	0.441130	0.209420
C821	C82	0.304880	0.447980	0.258600
C831	C83	0.453570	0.485660	0.269620
C841	C84	0.479000	0.517760	0.229780
C851	C85	0.359500	0.508980	0.178490
C861	C86	0.581580	0.491730	0.323530
C871	C87	0.535020	0.486330	0.380980
C881	C88	0.658110	0.488890	0.427080
C891	C89	0.871550	0.507860	0.368350
C901	C90	0.757000	0.506670	0.320020
N11	N1	0.174980	0.076580	0.498420
N21	N2	0.174980	0.421840	0.923420
N31	N3	0.174980	0.501580	0.578160
N41	N4	0.825020	0.923420	0.501580
N51	N5	0.825020	0.578160	0.076580
N61	N6	0.825020	0.498420	0.421840
O11	O1	0.865100	0.418000	0.496920
O21	O2	0.166970	0.427700	0.422240
O31	O3	0.865100	0.078920	0.582000
O41	O4	0.166970	0.994540	0.572300
O51	O5	0.865100	0.503080	0.921080
O61	O6	0.166970	0.577760	0.005460
O71	O7	0.134900	0.582000	0.503080
O81	O8	0.833030	0.572300	0.577760
O91	O9	0.134900	0.921080	0.418000
O101	O10	0.833030	0.005460	0.427700
O111	O11	0.134900	0.496920	0.078920
O121	O12	0.833030	0.422240	0.994540
