data_ECASOS_freeONLY_PM
_symmetry_space_group_name_H-M	'P1'
_cell_length_a	7.030300
_cell_length_b	12.561900
_cell_length_c	15.640800
_cell_angle_alpha	90.000000
_cell_angle_beta	90.000000
_cell_angle_gamma	100.918000
_symmetry_Int_Tables_number 1

loop_
_symmetry_equiv_pos_as_xyz
'x,y,z'

loop_
_atom_site_label
_atom_site_type_symbol
_atom_site_fract_x
_atom_site_fract_y
_atom_site_fract_z
Cu11	Cu1	0.500000	0.000000	0.500000
Cu21	Cu2	0.000000	0.500000	0.000000
Cu31	Cu3	0.000000	0.000000	0.500000
Cu41	Cu4	0.500000	0.500000	0.000000
P11	P1	0.740840	0.216360	0.413800
P21	P2	0.260710	0.268230	0.074140
P31	P3	0.759160	0.283640	0.913800
P41	P4	0.239290	0.231770	0.574140
P51	P5	0.259160	0.783640	0.586200
P61	P6	0.739290	0.731770	0.925860
P71	P7	0.240840	0.716360	0.086200
P81	P8	0.760710	0.768230	0.425860
H11	H1	0.810500	0.202400	0.232400
H21	H2	0.632200	0.221000	0.110000
H31	H3	0.188600	0.276900	0.255100
H41	H4	0.366200	0.256500	0.377400
H51	H5	0.641600	0.945900	0.324900
H61	H6	0.577800	0.952400	0.234500
H71	H7	0.041000	0.269000	0.411000
H81	H8	0.988000	0.228000	0.069000
H91	H9	0.689500	0.297600	0.732400
H101	H10	0.867800	0.279000	0.610000
H111	H11	0.311400	0.223100	0.755100
H121	H12	0.133800	0.243500	0.877400
H131	H13	0.858400	0.554100	0.824900
H141	H14	0.922200	0.547600	0.734500
H151	H15	0.459000	0.231000	0.911000
H161	H16	0.512000	0.272000	0.569000
H171	H17	0.189500	0.797600	0.767600
H181	H18	0.367800	0.779000	0.890000
H191	H19	0.811400	0.723100	0.744900
H201	H20	0.633800	0.743500	0.622600
H211	H21	0.358400	0.054100	0.675100
H221	H22	0.422200	0.047600	0.765500
H231	H23	0.959000	0.731000	0.589000
H241	H24	0.012000	0.772000	0.931000
H251	H25	0.310500	0.702400	0.267600
H261	H26	0.132200	0.721000	0.390000
H271	H27	0.688600	0.776900	0.244900
H281	H28	0.866200	0.756500	0.122600
H291	H29	0.141600	0.445900	0.175100
H301	H30	0.077800	0.452400	0.265500
H311	H31	0.541000	0.769000	0.089000
H321	H32	0.488000	0.728000	0.431000
C11	C1	0.607000	0.228200	0.317200
C21	C2	0.686300	0.217300	0.237100
C31	C3	0.579300	0.228700	0.163600
C41	C4	0.392700	0.251700	0.170500
C51	C5	0.312900	0.262000	0.250400
C61	C6	0.419900	0.250000	0.323700
C71	C7	0.101500	0.005900	0.313200
C81	C8	0.394600	0.977500	0.314100
C91	C9	0.893000	0.271800	0.817200
C101	C10	0.813700	0.282700	0.737100
C111	C11	0.920700	0.271300	0.663600
C121	C12	0.107300	0.248300	0.670500
C131	C13	0.187100	0.238000	0.750400
C141	C14	0.080100	0.250000	0.823700
C151	C15	0.398500	0.494100	0.813200
C161	C16	0.105400	0.522500	0.814100
C171	C17	0.393000	0.771800	0.682800
C181	C18	0.313700	0.782700	0.762900
C191	C19	0.420700	0.771300	0.836400
C201	C20	0.607300	0.748300	0.829500
C211	C21	0.687100	0.738000	0.749600
C221	C22	0.580100	0.750000	0.676300
C231	C23	0.898500	0.994100	0.686800
C241	C24	0.605400	0.022500	0.685900
C251	C25	0.107000	0.728200	0.182800
C261	C26	0.186300	0.717300	0.262900
C271	C27	0.079300	0.728700	0.336400
C281	C28	0.892700	0.751700	0.329500
C291	C29	0.812900	0.762000	0.249600
C301	C30	0.919900	0.750000	0.176300
C311	C31	0.601500	0.505900	0.186800
C321	C32	0.894600	0.477500	0.185900
N11	N1	0.153500	0.002100	0.393700
N21	N2	0.343500	0.985600	0.394300
N31	N3	0.248500	0.990200	0.260700
N41	N4	0.555400	0.956300	0.288400
N51	N5	0.346500	0.497900	0.893700
N61	N6	0.156500	0.514400	0.894300
N71	N7	0.251500	0.509800	0.760700
N81	N8	0.944600	0.543700	0.788400
N91	N9	0.846500	0.997900	0.606300
N101	N10	0.656500	0.014400	0.605700
N111	N11	0.751500	0.009800	0.739300
N121	N12	0.444600	0.043700	0.711600
N131	N13	0.653500	0.502100	0.106300
N141	N14	0.843500	0.485600	0.105700
N151	N15	0.748500	0.490200	0.239300
N161	N16	0.055400	0.456300	0.211600
O11	O1	0.954900	0.251500	0.384710
O21	O2	0.685900	0.293200	0.479510
O31	O3	0.711400	0.098700	0.442830
O41	O4	0.294000	0.386400	0.046760
O51	O5	0.313100	0.191800	0.006970
O61	O6	0.046500	0.233800	0.103200
O71	O7	0.545100	0.248500	0.884710
O81	O8	0.814100	0.206800	0.979510
O91	O9	0.788600	0.401300	0.942830
O101	O10	0.206000	0.113600	0.546760
O111	O11	0.186900	0.308200	0.506970
O121	O12	0.453500	0.266200	0.603200
O131	O13	0.045100	0.748500	0.615290
O141	O14	0.314100	0.706800	0.520490
O151	O15	0.288600	0.901300	0.557170
O161	O16	0.706000	0.613600	0.953240
O171	O17	0.686900	0.808200	0.993030
O181	O18	0.953500	0.766200	0.896800
O191	O19	0.454900	0.751500	0.115290
O201	O20	0.185900	0.793200	0.020490
O211	O21	0.211400	0.598700	0.057170
O221	O22	0.794000	0.886400	0.453240
O231	O23	0.813100	0.691800	0.493030
O241	O24	0.546500	0.733800	0.396800
