data_ECEBEW_freeONLY_PM
_symmetry_space_group_name_H-M	'P1'
_cell_length_a	7.540900
_cell_length_b	12.850100
_cell_length_c	18.865000
_cell_angle_alpha	90.000000
_cell_angle_beta	90.000000
_cell_angle_gamma	90.000000
_symmetry_Int_Tables_number 1

loop_
_symmetry_equiv_pos_as_xyz
'x,y,z'

loop_
_atom_site_label
_atom_site_type_symbol
_atom_site_fract_x
_atom_site_fract_y
_atom_site_fract_z
Mn11	Mn1	0.239650	0.844570	0.386340
N11	N1	0.248300	0.592800	0.394930
N21	N2	0.953500	0.866000	0.263830
N31	N3	0.232800	0.675570	0.372370
N41	N4	0.524200	0.750740	0.485960
N51	N5	0.484800	0.826420	0.454640
N61	N6	0.995800	0.869980	0.323520
N71	N7	0.263800	0.508940	0.417980
N81	N8	0.562600	0.675150	0.516870
N91	N9	0.911900	0.865760	0.205110
Mn21	Mn2	0.260350	0.155430	0.886340
N101	N10	0.251700	0.407200	0.894930
N111	N11	0.546500	0.134000	0.763830
N121	N12	0.267200	0.324430	0.872370
N131	N13	0.975800	0.249260	0.985960
N141	N14	0.015200	0.173580	0.954640
N151	N15	0.504200	0.130020	0.823520
N161	N16	0.236200	0.491060	0.917980
N171	N17	0.937400	0.324850	0.016870
N181	N18	0.588100	0.134240	0.705110
Mn31	Mn3	0.760350	0.344570	0.113650
N191	N19	0.751700	0.092800	0.105070
N201	N20	0.046500	0.366000	0.236170
N211	N21	0.767200	0.175570	0.127630
N221	N22	0.475800	0.250740	0.014040
N231	N23	0.515200	0.326420	0.045360
N241	N24	0.004200	0.369980	0.176480
N251	N25	0.736200	0.008940	0.082020
N261	N26	0.437400	0.175150	0.983130
N271	N27	0.088100	0.365760	0.294890
Mn41	Mn4	0.739650	0.655430	0.613650
N281	N28	0.748300	0.907200	0.605070
N291	N29	0.453500	0.634000	0.736170
N301	N30	0.732800	0.824430	0.627630
N311	N31	0.024200	0.749260	0.514040
N321	N32	0.984800	0.673580	0.545360
N331	N33	0.495800	0.630020	0.676480
N341	N34	0.763800	0.991060	0.582020
N351	N35	0.062600	0.824850	0.483130
N361	N36	0.411900	0.634240	0.794890
Mn51	Mn5	0.760350	0.155430	0.613650
N371	N37	0.751700	0.407200	0.605070
N381	N38	0.046500	0.134000	0.736170
N391	N39	0.767200	0.324430	0.627630
N401	N40	0.475800	0.249260	0.514040
N411	N41	0.515200	0.173580	0.545360
N421	N42	0.004200	0.130020	0.676480
N431	N43	0.736200	0.491060	0.582020
N441	N44	0.437400	0.324850	0.483130
N451	N45	0.088100	0.134240	0.794890
Mn61	Mn6	0.739650	0.844570	0.113650
N461	N46	0.748300	0.592800	0.105070
N471	N47	0.453500	0.866000	0.236170
N481	N48	0.732800	0.675570	0.127630
N491	N49	0.024200	0.750740	0.014040
N501	N50	0.984800	0.826420	0.045360
N511	N51	0.495800	0.869980	0.176480
N521	N52	0.763800	0.508940	0.082020
N531	N53	0.062600	0.675150	0.983130
N541	N54	0.411900	0.865760	0.294890
Mn71	Mn7	0.239650	0.655430	0.886340
N551	N55	0.248300	0.907200	0.894930
N561	N56	0.953500	0.634000	0.763830
N571	N57	0.232800	0.824430	0.872370
N581	N58	0.524200	0.749260	0.985960
N591	N59	0.484800	0.673580	0.954640
N601	N60	0.995800	0.630020	0.823520
N611	N61	0.263800	0.991060	0.917980
N621	N62	0.562600	0.824850	0.016870
N631	N63	0.911900	0.634240	0.705110
Mn81	Mn8	0.260350	0.344570	0.386340
N641	N64	0.251700	0.092800	0.394930
N651	N65	0.546500	0.366000	0.263830
N661	N66	0.267200	0.175570	0.372370
N671	N67	0.975800	0.250740	0.485960
N681	N68	0.015200	0.326420	0.454640
N691	N69	0.504200	0.369980	0.323520
N701	N70	0.236200	0.008940	0.417980
N711	N71	0.937400	0.175150	0.516870
N721	N72	0.588100	0.365760	0.205110
