data_ECOGEI_freeONLY_PM
_symmetry_space_group_name_H-M	'P1'
_cell_length_a	12.380400
_cell_length_b	12.380400
_cell_length_c	46.505000
_cell_angle_alpha	90.000000
_cell_angle_beta	90.000000
_cell_angle_gamma	90.000000
_symmetry_Int_Tables_number 1

loop_
_symmetry_equiv_pos_as_xyz
'x,y,z'

loop_
_atom_site_label
_atom_site_type_symbol
_atom_site_fract_x
_atom_site_fract_y
_atom_site_fract_z
N11	N1	0.079000	0.885400	0.281800
N21	N2	0.895100	0.955100	0.376590
N31	N3	0.925600	0.131200	0.357700
N41	N4	0.846700	0.111300	0.404400
N51	N5	0.746900	0.795200	0.467770
N61	N6	0.311800	0.939500	0.262000
C11	C1	0.016400	0.826200	0.299000
C21	C2	0.963500	0.866900	0.322800
C31	C3	0.977800	0.975600	0.329500
C41	C4	0.037200	0.040200	0.311100
C51	C5	0.086700	0.990400	0.287600
C61	C6	0.929300	0.023800	0.355900
C71	C7	0.880100	0.170600	0.382000
C81	C8	0.854700	0.005400	0.400100
C91	C9	0.820600	0.931700	0.423700
C101	C10	0.819700	0.820000	0.420200
C111	C11	0.783200	0.752800	0.442600
C121	C12	0.747400	0.903200	0.470500
C131	C13	0.781500	0.972700	0.450100
C141	C14	0.351700	0.005200	0.274500
C151	C15	0.400900	0.096000	0.292300
H11	H1	0.008000	0.750400	0.294700
H21	H2	0.917400	0.822100	0.334000
H31	H3	0.043200	0.118300	0.314500
H41	H4	0.128000	0.035000	0.274600
H51	H5	0.871800	0.248200	0.383600
H61	H6	0.843000	0.788300	0.402600
H71	H7	0.784300	0.677800	0.439700
H81	H8	0.721600	0.932700	0.488300
H91	H9	0.780200	0.049400	0.453300
H101	H10	0.410100	0.074100	0.311600
H111	H11	0.467600	0.117000	0.284200
H121	H12	0.352800	0.157800	0.292000
N71	N7	0.921000	0.114600	0.781800
N81	N8	0.104900	0.044900	0.876590
N91	N9	0.074400	0.868800	0.857700
N101	N10	0.153300	0.888700	0.904400
N111	N11	0.253100	0.204800	0.967770
N121	N12	0.688200	0.060500	0.762000
C161	C16	0.983600	0.173800	0.799000
C171	C17	0.036500	0.133100	0.822800
C181	C18	0.022200	0.024400	0.829500
C191	C19	0.962800	0.959800	0.811100
C201	C20	0.913300	0.009600	0.787600
C211	C21	0.070700	0.976200	0.855900
C221	C22	0.119900	0.829400	0.882000
C231	C23	0.145300	0.994600	0.900100
C241	C24	0.179400	0.068300	0.923700
C251	C25	0.180300	0.180000	0.920200
C261	C26	0.216800	0.247200	0.942600
C271	C27	0.252600	0.096800	0.970500
C281	C28	0.218500	0.027300	0.950100
C291	C29	0.648300	0.994800	0.774500
C301	C30	0.599100	0.904000	0.792300
H131	H13	0.992000	0.249600	0.794700
H141	H14	0.082600	0.177900	0.834000
H151	H15	0.956800	0.881700	0.814500
H161	H16	0.872000	0.965000	0.774600
H171	H17	0.128200	0.751800	0.883600
H181	H18	0.157000	0.211700	0.902600
H191	H19	0.215700	0.322200	0.939700
H201	H20	0.278400	0.067300	0.988300
H211	H21	0.219800	0.950600	0.953300
H221	H22	0.589900	0.925900	0.811600
H231	H23	0.532400	0.883000	0.784200
H241	H24	0.647200	0.842200	0.792000
N131	N13	0.614600	0.579000	0.531800
N141	N14	0.544900	0.395100	0.626590
N151	N15	0.368800	0.425600	0.607700
N161	N16	0.388700	0.346700	0.654400
N171	N17	0.704800	0.246900	0.717770
N181	N18	0.560500	0.811800	0.512000
C311	C31	0.673800	0.516400	0.549000
C321	C32	0.633100	0.463500	0.572800
C331	C33	0.524400	0.477800	0.579500
C341	C34	0.459800	0.537200	0.561100
C351	C35	0.509600	0.586700	0.537600
C361	C36	0.476200	0.429300	0.605900
C371	C37	0.329400	0.380100	0.632000
C381	C38	0.494600	0.354700	0.650100
C391	C39	0.568300	0.320600	0.673700
C401	C40	0.680000	0.319700	0.670200
C411	C41	0.747200	0.283200	0.692600
C421	C42	0.596800	0.247400	0.720500
C431	C43	0.527300	0.281500	0.700100
C441	C44	0.494800	0.851700	0.524500
C451	C45	0.404000	0.900900	0.542300
H251	H25	0.749600	0.508000	0.544700
H261	H26	0.677900	0.417400	0.584000
H271	H27	0.381700	0.543200	0.564500
H281	H28	0.465000	0.628000	0.524600
H291	H29	0.251800	0.371800	0.633600
H301	H30	0.711700	0.343000	0.652600
H311	H31	0.822200	0.284300	0.689700
H321	H32	0.567300	0.221600	0.738300
H331	H33	0.450600	0.280200	0.703300
H341	H34	0.425900	0.910100	0.561600
H351	H35	0.383000	0.967600	0.534200
H361	H36	0.342200	0.852800	0.542000
N191	N19	0.385400	0.421000	0.031800
N201	N20	0.455100	0.604900	0.126590
N211	N21	0.631200	0.574400	0.107700
N221	N22	0.611300	0.653300	0.154400
N231	N23	0.295200	0.753100	0.217770
N241	N24	0.439500	0.188200	0.012000
C461	C46	0.326200	0.483600	0.049000
C471	C47	0.366900	0.536500	0.072800
C481	C48	0.475600	0.522200	0.079500
C491	C49	0.540200	0.462800	0.061100
C501	C50	0.490400	0.413300	0.037600
C511	C51	0.523800	0.570700	0.105900
C521	C52	0.670600	0.619900	0.132000
C531	C53	0.505400	0.645300	0.150100
C541	C54	0.431700	0.679400	0.173700
C551	C55	0.320000	0.680300	0.170200
C561	C56	0.252800	0.716800	0.192600
C571	C57	0.403200	0.752600	0.220500
C581	C58	0.472700	0.718500	0.200100
C591	C59	0.505200	0.148300	0.024500
C601	C60	0.596000	0.099100	0.042300
H371	H37	0.250400	0.492000	0.044700
H381	H38	0.322100	0.582600	0.084000
H391	H39	0.618300	0.456800	0.064500
H401	H40	0.535000	0.372000	0.024600
H411	H41	0.748200	0.628200	0.133600
H421	H42	0.288300	0.657000	0.152600
H431	H43	0.177800	0.715700	0.189700
H441	H44	0.432700	0.778400	0.238300
H451	H45	0.549400	0.719800	0.203300
H461	H46	0.574100	0.089900	0.061600
H471	H47	0.617000	0.032400	0.034200
H481	H48	0.657800	0.147200	0.042000
N251	N25	0.421000	0.385400	0.968200
N261	N26	0.604900	0.455100	0.873410
N271	N27	0.574400	0.631200	0.892300
N281	N28	0.653300	0.611300	0.845600
N291	N29	0.753100	0.295200	0.782230
N301	N30	0.188200	0.439500	0.988000
C611	C61	0.483600	0.326200	0.951000
C621	C62	0.536500	0.366900	0.927200
C631	C63	0.522200	0.475600	0.920500
C641	C64	0.462800	0.540200	0.938900
C651	C65	0.413300	0.490400	0.962400
C661	C66	0.570700	0.523800	0.894100
C671	C67	0.619900	0.670600	0.868000
C681	C68	0.645300	0.505400	0.849900
C691	C69	0.679400	0.431700	0.826300
C701	C70	0.680300	0.320000	0.829800
C711	C71	0.716800	0.252800	0.807400
C721	C72	0.752600	0.403200	0.779500
C731	C73	0.718500	0.472700	0.799900
C741	C74	0.148300	0.505200	0.975500
C751	C75	0.099100	0.596000	0.957700
H491	H49	0.492000	0.250400	0.955300
H501	H50	0.582600	0.322100	0.916000
H511	H51	0.456800	0.618300	0.935500
H521	H52	0.372000	0.535000	0.975400
H531	H53	0.628200	0.748200	0.866400
H541	H54	0.657000	0.288300	0.847400
H551	H55	0.715700	0.177800	0.810300
H561	H56	0.778400	0.432700	0.761700
H571	H57	0.719800	0.549400	0.796700
H581	H58	0.089900	0.574100	0.938400
H591	H59	0.032400	0.617000	0.965800
H601	H60	0.147200	0.657800	0.958000
N311	N31	0.579000	0.614600	0.468200
N321	N32	0.395100	0.544900	0.373410
N331	N33	0.425600	0.368800	0.392300
N341	N34	0.346700	0.388700	0.345600
N351	N35	0.246900	0.704800	0.282230
N361	N36	0.811800	0.560500	0.488000
C761	C76	0.516400	0.673800	0.451000
C771	C77	0.463500	0.633100	0.427200
C781	C78	0.477800	0.524400	0.420500
C791	C79	0.537200	0.459800	0.438900
C801	C80	0.586700	0.509600	0.462400
C811	C81	0.429300	0.476200	0.394100
C821	C82	0.380100	0.329400	0.368000
C831	C83	0.354700	0.494600	0.349900
C841	C84	0.320600	0.568300	0.326300
C851	C85	0.319700	0.680000	0.329800
C861	C86	0.283200	0.747200	0.307400
C871	C87	0.247400	0.596800	0.279500
C881	C88	0.281500	0.527300	0.299900
C891	C89	0.851700	0.494800	0.475500
C901	C90	0.900900	0.404000	0.457700
H611	H61	0.508000	0.749600	0.455300
H621	H62	0.417400	0.677900	0.416000
H631	H63	0.543200	0.381700	0.435500
H641	H64	0.628000	0.465000	0.475400
H651	H65	0.371800	0.251800	0.366400
H661	H66	0.343000	0.711700	0.347400
H671	H67	0.284300	0.822200	0.310300
H681	H68	0.221600	0.567300	0.261700
H691	H69	0.280200	0.450600	0.296700
H701	H70	0.910100	0.425900	0.438400
H711	H71	0.967600	0.383000	0.465800
H721	H72	0.852800	0.342200	0.458000
N371	N37	0.885400	0.079000	0.718200
N381	N38	0.955100	0.895100	0.623410
N391	N39	0.131200	0.925600	0.642300
N401	N40	0.111300	0.846700	0.595600
N411	N41	0.795200	0.746900	0.532230
N421	N42	0.939500	0.311800	0.738000
C911	C91	0.826200	0.016400	0.701000
C921	C92	0.866900	0.963500	0.677200
C931	C93	0.975600	0.977800	0.670500
C941	C94	0.040200	0.037200	0.688900
C951	C95	0.990400	0.086700	0.712400
C961	C96	0.023800	0.929300	0.644100
C971	C97	0.170600	0.880100	0.618000
C981	C98	0.005400	0.854700	0.599900
C991	C99	0.931700	0.820600	0.576300
C1001	C100	0.820000	0.819700	0.579800
C1011	C101	0.752800	0.783200	0.557400
C1021	C102	0.903200	0.747400	0.529500
C1031	C103	0.972700	0.781500	0.549900
C1041	C104	0.005200	0.351700	0.725500
C1051	C105	0.096000	0.400900	0.707700
H731	H73	0.750400	0.008000	0.705300
H741	H74	0.822100	0.917400	0.666000
H751	H75	0.118300	0.043200	0.685500
H761	H76	0.035000	0.128000	0.725400
H771	H77	0.248200	0.871800	0.616400
H781	H78	0.788300	0.843000	0.597400
H791	H79	0.677800	0.784300	0.560300
H801	H80	0.932700	0.721600	0.511700
H811	H81	0.049400	0.780200	0.546700
H821	H82	0.074100	0.410100	0.688400
H831	H83	0.117000	0.467600	0.715800
H841	H84	0.157800	0.352800	0.708000
N431	N43	0.114600	0.921000	0.218200
N441	N44	0.044900	0.104900	0.123410
N451	N45	0.868800	0.074400	0.142300
N461	N46	0.888700	0.153300	0.095600
N471	N47	0.204800	0.253100	0.032230
N481	N48	0.060500	0.688200	0.238000
C1061	C106	0.173800	0.983600	0.201000
C1071	C107	0.133100	0.036500	0.177200
C1081	C108	0.024400	0.022200	0.170500
C1091	C109	0.959800	0.962800	0.188900
C1101	C110	0.009600	0.913300	0.212400
C1111	C111	0.976200	0.070700	0.144100
C1121	C112	0.829400	0.119900	0.118000
C1131	C113	0.994600	0.145300	0.099900
C1141	C114	0.068300	0.179400	0.076300
C1151	C115	0.180000	0.180300	0.079800
C1161	C116	0.247200	0.216800	0.057400
C1171	C117	0.096800	0.252600	0.029500
C1181	C118	0.027300	0.218500	0.049900
C1191	C119	0.994800	0.648300	0.225500
C1201	C120	0.904000	0.599100	0.207700
H851	H85	0.249600	0.992000	0.205300
H861	H86	0.177900	0.082600	0.166000
H871	H87	0.881700	0.956800	0.185500
H881	H88	0.965000	0.872000	0.225400
H891	H89	0.751800	0.128200	0.116400
H901	H90	0.211700	0.157000	0.097400
H911	H91	0.322200	0.215700	0.060300
H921	H92	0.067300	0.278400	0.011700
H931	H93	0.950600	0.219800	0.046700
H941	H94	0.925900	0.589900	0.188400
H951	H95	0.883000	0.532400	0.215800
H961	H96	0.842200	0.647200	0.208000
Zn11	Zn1	0.185180	0.814820	0.250000
Zn21	Zn2	0.814820	0.185180	0.750000
Zn31	Zn3	0.685180	0.685180	0.500000
Zn41	Zn4	0.314820	0.314820	0.000000
N491	N49	0.851800	0.346600	0.276100
N501	N50	0.065600	0.448400	0.362560
N511	N51	0.039800	0.619600	0.340000
N521	N52	0.122100	0.612000	0.385900
N531	N53	0.188800	0.322700	0.460640
C1211	C121	0.911800	0.293900	0.295300
C1221	C122	0.975100	0.343300	0.315700
C1231	C123	0.973100	0.454200	0.317200
C1241	C124	0.911900	0.513100	0.297500
C1251	C125	0.850700	0.452800	0.277200
C1261	C126	0.031200	0.511600	0.341200
C1271	C127	0.087500	0.661600	0.362600
C1281	C128	0.109200	0.504400	0.384800
C1291	C129	0.139600	0.440100	0.410500
C1301	C130	0.142800	0.327000	0.410400
C1311	C131	0.166800	0.272500	0.435700
C1321	C132	0.185900	0.429400	0.460100
C1331	C133	0.164100	0.493100	0.436000
H971	H97	0.577900	0.373000	0.260400
H981	H98	0.913000	0.217900	0.294200
H991	H99	0.017000	0.303200	0.328800
H1001	H100	0.910600	0.589500	0.297600
H1011	H101	0.808700	0.490500	0.263300
H1021	H102	0.098900	0.739300	0.362400
H1031	H103	0.125200	0.287800	0.393500
H1041	H104	0.168200	0.196600	0.435600
H1051	H105	0.195800	0.465900	0.477900
H1061	H106	0.166400	0.570200	0.436600
N541	N54	0.148200	0.653400	0.776100
N551	N55	0.934400	0.551600	0.862560
N561	N56	0.960200	0.380400	0.840000
N571	N57	0.877900	0.388000	0.885900
N581	N58	0.811200	0.677300	0.960640
C1341	C134	0.088200	0.706100	0.795300
C1351	C135	0.024900	0.656700	0.815700
C1361	C136	0.026900	0.545800	0.817200
C1371	C137	0.088100	0.486900	0.797500
C1381	C138	0.149300	0.547200	0.777200
C1391	C139	0.968800	0.488400	0.841200
C1401	C140	0.912500	0.338400	0.862600
C1411	C141	0.890800	0.495600	0.884800
C1421	C142	0.860400	0.559900	0.910500
C1431	C143	0.857200	0.673000	0.910400
C1441	C144	0.833200	0.727500	0.935700
C1451	C145	0.814100	0.570600	0.960100
C1461	C146	0.835900	0.506900	0.936000
H1071	H107	0.422100	0.627000	0.760400
H1081	H108	0.087000	0.782100	0.794200
H1091	H109	0.983000	0.696800	0.828800
H1101	H110	0.089400	0.410500	0.797600
H1111	H111	0.191300	0.509500	0.763300
H1121	H112	0.901100	0.260700	0.862400
H1131	H113	0.874800	0.712200	0.893500
H1141	H114	0.831800	0.803400	0.935600
H1151	H115	0.804200	0.534100	0.977900
H1161	H116	0.833600	0.429800	0.936600
N591	N59	0.153400	0.351800	0.526100
N601	N60	0.051600	0.565600	0.612560
N611	N61	0.880400	0.539800	0.590000
N621	N62	0.888000	0.622100	0.635900
N631	N63	0.177300	0.688800	0.710640
C1471	C147	0.206100	0.411800	0.545300
C1481	C148	0.156700	0.475100	0.565700
C1491	C149	0.045800	0.473100	0.567200
C1501	C150	0.986900	0.411900	0.547500
C1511	C151	0.047200	0.350700	0.527200
C1521	C152	0.988400	0.531200	0.591200
C1531	C153	0.838400	0.587500	0.612600
C1541	C154	0.995600	0.609200	0.634800
C1551	C155	0.059900	0.639600	0.660500
C1561	C156	0.173000	0.642800	0.660400
C1571	C157	0.227500	0.666800	0.685700
C1581	C158	0.070600	0.685900	0.710100
C1591	C159	0.006900	0.664100	0.686000
H1171	H117	0.127000	0.077900	0.510400
H1181	H118	0.282100	0.413000	0.544200
H1191	H119	0.196800	0.517000	0.578800
H1201	H120	0.910500	0.410600	0.547600
H1211	H121	0.009500	0.308700	0.513300
H1221	H122	0.760700	0.598900	0.612400
H1231	H123	0.212200	0.625200	0.643500
H1241	H124	0.303400	0.668200	0.685600
H1251	H125	0.034100	0.695800	0.727900
H1261	H126	0.929800	0.666400	0.686600
N641	N64	0.846600	0.648200	0.026100
N651	N65	0.948400	0.434400	0.112560
N661	N66	0.119600	0.460200	0.090000
N671	N67	0.112000	0.377900	0.135900
N681	N68	0.822700	0.311200	0.210640
C1601	C160	0.793900	0.588200	0.045300
C1611	C161	0.843300	0.524900	0.065700
C1621	C162	0.954200	0.526900	0.067200
C1631	C163	0.013100	0.588100	0.047500
C1641	C164	0.952800	0.649300	0.027200
C1651	C165	0.011600	0.468800	0.091200
C1661	C166	0.161600	0.412500	0.112600
C1671	C167	0.004400	0.390800	0.134800
C1681	C168	0.940100	0.360400	0.160500
C1691	C169	0.827000	0.357200	0.160400
C1701	C170	0.772500	0.333200	0.185700
C1711	C171	0.929400	0.314100	0.210100
C1721	C172	0.993100	0.335900	0.186000
H1271	H127	0.873000	0.922100	0.010400
H1281	H128	0.717900	0.587000	0.044200
H1291	H129	0.803200	0.483000	0.078800
H1301	H130	0.089500	0.589400	0.047600
H1311	H131	0.990500	0.691300	0.013300
H1321	H132	0.239300	0.401100	0.112400
H1331	H133	0.787800	0.374800	0.143500
H1341	H134	0.696600	0.331800	0.185600
H1351	H135	0.965900	0.304200	0.227900
H1361	H136	0.070200	0.333600	0.186600
N691	N69	0.648200	0.846600	0.973900
N701	N70	0.434400	0.948400	0.887440
N711	N71	0.460200	0.119600	0.910000
N721	N72	0.377900	0.112000	0.864100
N731	N73	0.311200	0.822700	0.789360
C1731	C173	0.588200	0.793900	0.954700
C1741	C174	0.524900	0.843300	0.934300
C1751	C175	0.526900	0.954200	0.932800
C1761	C176	0.588100	0.013100	0.952500
C1771	C177	0.649300	0.952800	0.972800
C1781	C178	0.468800	0.011600	0.908800
C1791	C179	0.412500	0.161600	0.887400
C1801	C180	0.390800	0.004400	0.865200
C1811	C181	0.360400	0.940100	0.839500
C1821	C182	0.357200	0.827000	0.839600
C1831	C183	0.333200	0.772500	0.814300
C1841	C184	0.314100	0.929400	0.789900
C1851	C185	0.335900	0.993100	0.814000
H1371	H137	0.922100	0.873000	0.989600
H1381	H138	0.587000	0.717900	0.955800
H1391	H139	0.483000	0.803200	0.921200
H1401	H140	0.589400	0.089500	0.952400
H1411	H141	0.691300	0.990500	0.986700
H1421	H142	0.401100	0.239300	0.887600
H1431	H143	0.374800	0.787800	0.856500
H1441	H144	0.331800	0.696600	0.814400
H1451	H145	0.304200	0.965900	0.772100
H1461	H146	0.333600	0.070200	0.813400
N741	N74	0.351800	0.153400	0.473900
N751	N75	0.565600	0.051600	0.387440
N761	N76	0.539800	0.880400	0.410000
N771	N77	0.622100	0.888000	0.364100
N781	N78	0.688800	0.177300	0.289360
C1861	C186	0.411800	0.206100	0.454700
C1871	C187	0.475100	0.156700	0.434300
C1881	C188	0.473100	0.045800	0.432800
C1891	C189	0.411900	0.986900	0.452500
C1901	C190	0.350700	0.047200	0.472800
C1911	C191	0.531200	0.988400	0.408800
C1921	C192	0.587500	0.838400	0.387400
C1931	C193	0.609200	0.995600	0.365200
C1941	C194	0.639600	0.059900	0.339500
C1951	C195	0.642800	0.173000	0.339600
C1961	C196	0.666800	0.227500	0.314300
C1971	C197	0.685900	0.070600	0.289900
C1981	C198	0.664100	0.006900	0.314000
H1471	H147	0.077900	0.127000	0.489600
H1481	H148	0.413000	0.282100	0.455800
H1491	H149	0.517000	0.196800	0.421200
H1501	H150	0.410600	0.910500	0.452400
H1511	H151	0.308700	0.009500	0.486700
H1521	H152	0.598900	0.760700	0.387600
H1531	H153	0.625200	0.212200	0.356500
H1541	H154	0.668200	0.303400	0.314400
H1551	H155	0.695800	0.034100	0.272100
H1561	H156	0.666400	0.929800	0.313400
N791	N79	0.346600	0.851800	0.723900
N801	N80	0.448400	0.065600	0.637440
N811	N81	0.619600	0.039800	0.660000
N821	N82	0.612000	0.122100	0.614100
N831	N83	0.322700	0.188800	0.539360
C1991	C199	0.293900	0.911800	0.704700
C2001	C200	0.343300	0.975100	0.684300
C2011	C201	0.454200	0.973100	0.682800
C2021	C202	0.513100	0.911900	0.702500
C2031	C203	0.452800	0.850700	0.722800
C2041	C204	0.511600	0.031200	0.658800
C2051	C205	0.661600	0.087500	0.637400
C2061	C206	0.504400	0.109200	0.615200
C2071	C207	0.440100	0.139600	0.589500
C2081	C208	0.327000	0.142800	0.589600
C2091	C209	0.272500	0.166800	0.564300
C2101	C210	0.429400	0.185900	0.539900
C2111	C211	0.493100	0.164100	0.564000
H1571	H157	0.373000	0.577900	0.739600
H1581	H158	0.217900	0.913000	0.705800
H1591	H159	0.303200	0.017000	0.671200
H1601	H160	0.589500	0.910600	0.702400
H1611	H161	0.490500	0.808700	0.736700
H1621	H162	0.739300	0.098900	0.637600
H1631	H163	0.287800	0.125200	0.606500
H1641	H164	0.196600	0.168200	0.564400
H1651	H165	0.465900	0.195800	0.522100
H1661	H166	0.570200	0.166400	0.563400
N841	N84	0.653400	0.148200	0.223900
N851	N85	0.551600	0.934400	0.137440
N861	N86	0.380400	0.960200	0.160000
N871	N87	0.388000	0.877900	0.114100
N881	N88	0.677300	0.811200	0.039360
C2121	C212	0.706100	0.088200	0.204700
C2131	C213	0.656700	0.024900	0.184300
C2141	C214	0.545800	0.026900	0.182800
C2151	C215	0.486900	0.088100	0.202500
C2161	C216	0.547200	0.149300	0.222800
C2171	C217	0.488400	0.968800	0.158800
C2181	C218	0.338400	0.912500	0.137400
C2191	C219	0.495600	0.890800	0.115200
C2201	C220	0.559900	0.860400	0.089500
C2211	C221	0.673000	0.857200	0.089600
C2221	C222	0.727500	0.833200	0.064300
C2231	C223	0.570600	0.814100	0.039900
C2241	C224	0.506900	0.835900	0.064000
H1671	H167	0.627000	0.422100	0.239600
H1681	H168	0.782100	0.087000	0.205800
H1691	H169	0.696800	0.983000	0.171200
H1701	H170	0.410500	0.089400	0.202400
H1711	H171	0.509500	0.191300	0.236700
H1721	H172	0.260700	0.901100	0.137600
H1731	H173	0.712200	0.874800	0.106500
H1741	H174	0.803400	0.831800	0.064400
H1751	H175	0.534100	0.804200	0.022100
H1761	H176	0.429800	0.833600	0.063400
Zn51	Zn5	0.743610	0.256390	0.250000
O11	O1	0.626500	0.373500	0.250000
Zn61	Zn6	0.256390	0.743610	0.750000
O21	O2	0.373500	0.626500	0.750000
Zn71	Zn7	0.243610	0.243610	0.500000
O31	O3	0.126500	0.126500	0.500000
Zn81	Zn8	0.756390	0.756390	0.000000
O41	O4	0.873500	0.873500	0.000000
