data_ECUDAI_freeONLY_PM
_symmetry_space_group_name_H-M	'P1'
_cell_length_a	8.473500
_cell_length_b	10.883600
_cell_length_c	11.130100
_cell_angle_alpha	64.333000
_cell_angle_beta	80.330000
_cell_angle_gamma	73.760000
_symmetry_Int_Tables_number 1

loop_
_symmetry_equiv_pos_as_xyz
'x,y,z'

loop_
_atom_site_label
_atom_site_type_symbol
_atom_site_fract_x
_atom_site_fract_y
_atom_site_fract_z
Nd11	Nd1	0.251740	0.996820	0.497310
Nd21	Nd2	0.748260	0.003180	0.502690
H11	H1	0.250400	0.051200	0.976700
H21	H2	0.241400	0.433000	0.675800
H31	H3	0.904800	0.391900	0.985600
H41	H4	0.983100	0.030700	0.125100
H51	H5	0.876500	0.168100	0.144200
H61	H6	0.468000	0.242200	0.682900
H71	H7	0.488700	0.096300	0.811100
H81	H8	0.938200	0.624100	0.828700
H91	H9	0.071400	0.641400	0.706100
H101	H10	0.749600	0.948800	0.023300
H111	H11	0.758600	0.567000	0.324200
H121	H12	0.095200	0.608100	0.014400
H131	H13	0.016900	0.969300	0.874900
H141	H14	0.123500	0.831900	0.855800
H151	H15	0.532000	0.757800	0.317100
H161	H16	0.511300	0.903700	0.188900
H171	H17	0.061800	0.375900	0.171300
H181	H18	0.928600	0.358600	0.293900
C11	C1	0.066100	0.207300	0.001600
C21	C2	0.202100	0.148800	0.937200
C31	C3	0.266900	0.233000	0.815600
C41	C4	0.196300	0.375700	0.758800
C51	C5	0.061800	0.436300	0.820300
C61	C6	0.997000	0.351400	0.942300
C71	C7	0.990200	0.116900	0.131600
C81	C8	0.082900	0.075600	0.252500
C91	C9	0.410300	0.168600	0.744400
C101	C10	0.362300	0.102300	0.665200
C111	C11	0.984100	0.591500	0.756800
C121	C12	0.848600	0.632700	0.663700
C131	C13	0.933900	0.792700	0.998400
C141	C14	0.797900	0.851200	0.062800
C151	C15	0.733100	0.767000	0.184400
C161	C16	0.803700	0.624300	0.241200
C171	C17	0.938200	0.563700	0.179700
C181	C18	0.003000	0.648600	0.057700
C191	C19	0.009800	0.883100	0.868400
C201	C20	0.917100	0.924400	0.747500
C211	C21	0.589700	0.831400	0.255600
C221	C22	0.637700	0.897700	0.334800
C231	C23	0.015900	0.408500	0.243200
C241	C24	0.151400	0.367300	0.336300
O11	O1	0.003200	0.048500	0.367000
O21	O2	0.238000	0.059200	0.248100
O31	O3	0.217300	0.090200	0.674200
O41	O4	0.469600	0.062600	0.587000
O51	O5	0.778400	0.759300	0.615300
O61	O6	0.811100	0.540900	0.643000
O71	O7	0.246000	0.775500	0.487100
O81	O8	0.384300	0.787300	0.695500
O91	O9	0.996800	0.951500	0.633000
O101	O10	0.762000	0.940800	0.751900
O111	O11	0.782700	0.909800	0.325800
O121	O12	0.530400	0.937400	0.413000
O131	O13	0.221600	0.240700	0.384700
O141	O14	0.188900	0.459100	0.357000
O151	O15	0.754000	0.224500	0.512900
O161	O16	0.615700	0.212700	0.304500
