data_ECUTON_freeONLY_PM
_symmetry_space_group_name_H-M	'P1'
_cell_length_a	9.417000
_cell_length_b	13.128000
_cell_length_c	15.913000
_cell_angle_alpha	90.000000
_cell_angle_beta	90.000000
_cell_angle_gamma	90.000000
_symmetry_Int_Tables_number 1

loop_
_symmetry_equiv_pos_as_xyz
'x,y,z'

loop_
_atom_site_label
_atom_site_type_symbol
_atom_site_fract_x
_atom_site_fract_y
_atom_site_fract_z
Zn11	Zn1	0.768530	0.669940	0.801000
Zn21	Zn2	0.731470	0.169940	0.699000
Zn31	Zn3	0.231470	0.330060	0.199000
Zn41	Zn4	0.268530	0.830060	0.301000
H11	H1	0.504300	0.696700	0.029300
H21	H2	0.117600	0.608100	0.109800
H31	H3	0.269200	0.514700	0.887200
H41	H4	0.746900	0.372800	0.609800
H51	H5	0.823100	0.750400	0.977400
H61	H6	0.026700	0.546900	0.722800
H71	H7	0.911700	0.415400	0.486300
H81	H8	0.074700	0.416500	0.467000
H91	H9	0.126100	0.428400	0.608300
H101	H10	0.030800	0.332200	0.592100
H111	H11	0.106600	0.730700	0.801600
H121	H12	0.994000	0.833400	0.092700
H131	H13	0.139100	0.874000	0.057600
H141	H14	0.984300	0.007400	0.084400
H151	H15	0.873000	0.960200	0.023000
H161	H16	0.995700	0.196700	0.470700
H171	H17	0.382400	0.108100	0.390200
H181	H18	0.230800	0.014700	0.612800
H191	H19	0.753100	0.872800	0.890200
H201	H20	0.676900	0.250400	0.522600
H211	H21	0.473300	0.046900	0.777200
H221	H22	0.588300	0.915400	0.013700
H231	H23	0.425300	0.916500	0.033000
H241	H24	0.373900	0.928400	0.891700
H251	H25	0.469200	0.832200	0.907900
H261	H26	0.393400	0.230700	0.698400
H271	H27	0.506000	0.333400	0.407300
H281	H28	0.360900	0.374000	0.442400
H291	H29	0.515700	0.507400	0.415600
H301	H30	0.627000	0.460200	0.477000
H311	H31	0.495700	0.303300	0.970700
H321	H32	0.882400	0.391900	0.890200
H331	H33	0.730800	0.485300	0.112800
H341	H34	0.253100	0.627200	0.390200
H351	H35	0.176900	0.249600	0.022600
H361	H36	0.973300	0.453100	0.277200
H371	H37	0.088300	0.584600	0.513700
H381	H38	0.925300	0.583500	0.533000
H391	H39	0.873900	0.571600	0.391700
H401	H40	0.969200	0.667800	0.407900
H411	H41	0.893400	0.269300	0.198400
H421	H42	0.006000	0.166600	0.907300
H431	H43	0.860900	0.126000	0.942400
H441	H44	0.015700	0.992600	0.915600
H451	H45	0.127000	0.039800	0.977000
H461	H46	0.004300	0.803300	0.529300
H471	H47	0.617600	0.891900	0.609800
H481	H48	0.769200	0.985300	0.387200
H491	H49	0.246900	0.127200	0.109800
H501	H50	0.323100	0.749600	0.477400
H511	H51	0.526700	0.953100	0.222800
H521	H52	0.411700	0.084600	0.986300
H531	H53	0.574700	0.083500	0.967000
H541	H54	0.626100	0.071600	0.108300
H551	H55	0.530800	0.167800	0.092100
H561	H56	0.606600	0.769300	0.301600
H571	H57	0.494000	0.666600	0.592700
H581	H58	0.639100	0.626000	0.557600
H591	H59	0.484300	0.492600	0.584400
H601	H60	0.373000	0.539800	0.523000
C11	C1	0.420300	0.661300	0.019700
C21	C2	0.514100	0.613100	0.877400
C31	C3	0.311800	0.663300	0.081600
C41	C4	0.404000	0.608300	0.946300
C51	C5	0.333100	0.724300	0.159500
C61	C6	0.189100	0.608400	0.069400
C71	C7	0.174900	0.553900	0.995600
C81	C8	0.281100	0.553200	0.935700
C91	C9	0.788000	0.419600	0.646400
C101	C10	0.906700	0.756500	0.946700
C111	C11	0.940900	0.516200	0.708800
C121	C12	0.002200	0.443000	0.504400
C131	C13	0.032200	0.406100	0.591300
C141	C14	0.062500	0.747000	0.852100
C151	C15	0.038900	0.866500	0.045100
C161	C16	0.974000	0.969700	0.032400
C171	C17	0.079700	0.161300	0.480300
C181	C18	0.985900	0.113100	0.622600
C191	C19	0.188200	0.163300	0.418400
C201	C20	0.096000	0.108300	0.553700
C211	C21	0.166900	0.224300	0.340500
C221	C22	0.310900	0.108400	0.430600
C231	C23	0.325100	0.053900	0.504400
C241	C24	0.218900	0.053200	0.564300
C251	C25	0.712000	0.919600	0.853600
C261	C26	0.593300	0.256500	0.553300
C271	C27	0.559100	0.016200	0.791200
C281	C28	0.497800	0.943000	0.995600
C291	C29	0.467800	0.906100	0.908700
C301	C30	0.437500	0.247000	0.647900
C311	C31	0.461100	0.366500	0.454900
C321	C32	0.526000	0.469700	0.467600
C331	C33	0.579700	0.338700	0.980300
C341	C34	0.485900	0.386900	0.122600
C351	C35	0.688200	0.336700	0.918400
C361	C36	0.596000	0.391700	0.053700
C371	C37	0.666900	0.275700	0.840500
C381	C38	0.810900	0.391600	0.930600
C391	C39	0.825100	0.446100	0.004400
C401	C40	0.718900	0.446800	0.064300
C411	C41	0.212000	0.580400	0.353600
C421	C42	0.093300	0.243500	0.053300
C431	C43	0.059100	0.483800	0.291200
C441	C44	0.997800	0.557000	0.495600
C451	C45	0.967800	0.593900	0.408700
C461	C46	0.937500	0.253000	0.147900
C471	C47	0.961100	0.133500	0.954900
C481	C48	0.026000	0.030300	0.967600
C491	C49	0.920300	0.838700	0.519700
C501	C50	0.014100	0.886900	0.377400
C511	C51	0.811800	0.836700	0.581600
C521	C52	0.904000	0.891700	0.446300
C531	C53	0.833100	0.775700	0.659500
C541	C54	0.689100	0.891600	0.569400
C551	C55	0.674900	0.946100	0.495600
C561	C56	0.781100	0.946800	0.435700
C571	C57	0.288000	0.080400	0.146400
C581	C58	0.406700	0.743500	0.446700
C591	C59	0.440900	0.983800	0.208800
C601	C60	0.502200	0.057000	0.004400
C611	C61	0.532200	0.093900	0.091300
C621	C62	0.562500	0.753000	0.352100
C631	C63	0.538900	0.633500	0.545100
C641	C64	0.474000	0.530300	0.532400
N11	N1	0.723800	0.474300	0.704200
N21	N2	0.928900	0.719100	0.871400
N31	N3	0.022100	0.804200	0.971700
N41	N4	0.816200	0.537700	0.744500
N51	N5	0.052000	0.493700	0.976900
N61	N6	0.925400	0.445700	0.651300
N71	N7	0.123300	0.798800	0.911000
N81	N8	0.776200	0.974300	0.795800
N91	N9	0.571100	0.219100	0.628600
N101	N10	0.477900	0.304200	0.528300
N111	N11	0.683800	0.037700	0.755500
N121	N12	0.448000	0.993700	0.523100
N131	N13	0.574600	0.945700	0.848700
N141	N14	0.376700	0.298800	0.589000
N151	N15	0.276200	0.525700	0.295800
N161	N16	0.071100	0.280900	0.128600
N171	N17	0.977900	0.195800	0.028300
N181	N18	0.183800	0.462300	0.255500
N191	N19	0.948000	0.506300	0.023100
N201	N20	0.074600	0.554300	0.348700
N211	N21	0.876700	0.201200	0.089000
N221	N22	0.223800	0.025700	0.204200
N231	N23	0.428900	0.780900	0.371400
N241	N24	0.522100	0.695800	0.471700
N251	N25	0.316200	0.962300	0.244500
N261	N26	0.552000	0.006300	0.476900
N271	N27	0.425400	0.054300	0.151300
N281	N28	0.623300	0.701200	0.411000
O11	O1	0.625600	0.662700	0.891500
O21	O2	0.222900	0.740900	0.206000
O31	O3	0.451400	0.758100	0.174700
O41	O4	0.492500	0.572700	0.809600
O51	O5	0.874400	0.162700	0.608500
O61	O6	0.277100	0.240900	0.294000
O71	O7	0.048600	0.258100	0.325300
O81	O8	0.007500	0.072700	0.690400
O91	O9	0.374400	0.337300	0.108500
O101	O10	0.777100	0.259100	0.794000
O111	O11	0.548600	0.241900	0.825300
O121	O12	0.507500	0.427300	0.190400
O131	O13	0.125600	0.837300	0.391500
O141	O14	0.722900	0.759100	0.706000
O151	O15	0.951400	0.741900	0.674700
O161	O16	0.992500	0.927300	0.309600
