data_EDADIX_freeONLY_PM
_symmetry_space_group_name_H-M	'P1'
_cell_length_a	10.880000
_cell_length_b	10.918000
_cell_length_c	14.122000
_cell_angle_alpha	89.335000
_cell_angle_beta	89.171000
_cell_angle_gamma	78.380000
_symmetry_Int_Tables_number 1

loop_
_symmetry_equiv_pos_as_xyz
'x,y,z'

loop_
_atom_site_label
_atom_site_type_symbol
_atom_site_fract_x
_atom_site_fract_y
_atom_site_fract_z
Zn11	Zn1	0.726990	0.337220	0.802260
Zn21	Zn2	0.730700	0.340330	0.592580
H11	H1	0.788600	0.724700	0.568700
H21	H2	0.812800	0.932500	0.575400
H31	H3	0.692900	0.954700	0.842100
H41	H4	0.676200	0.748300	0.841800
H51	H5	0.333400	0.370800	0.552300
H61	H6	0.117500	0.368600	0.551100
H71	H7	0.125500	0.307000	0.839000
H81	H8	0.340400	0.314500	0.838000
H91	H9	0.916000	0.313500	0.429600
H101	H10	0.921200	0.309300	0.266800
H111	H11	0.541800	0.356000	0.270900
H121	H12	0.550900	0.350000	0.435700
H131	H13	0.892300	0.198400	0.119400
H141	H14	0.881000	0.216100	0.954300
H151	H15	0.571200	0.465800	0.964700
H161	H16	0.571400	0.458300	0.129300
C11	C1	0.713000	0.577800	0.700400
C21	C2	0.724800	0.712100	0.700900
C31	C3	0.767000	0.770000	0.625500
C41	C4	0.778000	0.896000	0.628400
C51	C5	0.742200	0.963200	0.704000
C61	C6	0.709000	0.908000	0.785500
C71	C7	0.700000	0.786000	0.785200
C81	C8	0.747200	0.100200	0.703600
C91	C9	0.492700	0.349800	0.695600
C101	C10	0.356100	0.347200	0.694200
C111	C11	0.290700	0.359800	0.610000
C121	C12	0.162600	0.356600	0.608700
C131	C13	0.102300	0.335300	0.694200
C141	C14	0.167500	0.320300	0.781500
C151	C15	0.294700	0.325500	0.780600
C161	C16	0.965400	0.330800	0.694100
C171	C17	0.839300	0.321700	0.396600
C181	C18	0.843000	0.320000	0.299700
C191	C19	0.730900	0.334300	0.249200
C201	C20	0.620400	0.346400	0.301600
C211	C21	0.626700	0.344200	0.400300
C221	C22	0.730900	0.333500	0.144400
C231	C23	0.825600	0.255100	0.090100
C241	C24	0.816100	0.265500	0.991100
C251	C25	0.636600	0.410400	0.996400
C261	C26	0.638100	0.407000	0.095300
N11	N1	0.732200	0.334400	0.446800
N21	N2	0.725900	0.336900	0.946200
O11	O1	0.708500	0.523200	0.778500
O21	O2	0.708700	0.528100	0.621600
O31	O3	0.750300	0.154100	0.625400
O41	O4	0.749000	0.150400	0.781600
O51	O5	0.543300	0.349900	0.774600
O61	O6	0.545600	0.353200	0.614300
O71	O7	0.914700	0.328800	0.613100
O81	O8	0.911000	0.324100	0.773500
Zn31	Zn3	0.273010	0.662780	0.197740
Zn41	Zn4	0.269300	0.659670	0.407420
H171	H17	0.211400	0.275300	0.431300
H181	H18	0.187200	0.067500	0.424600
H191	H19	0.307100	0.045300	0.157900
H201	H20	0.323800	0.251700	0.158200
H211	H21	0.666600	0.629200	0.447700
H221	H22	0.882500	0.631400	0.448900
H231	H23	0.874500	0.693000	0.161000
H241	H24	0.659600	0.685500	0.162000
H251	H25	0.084000	0.686500	0.570400
H261	H26	0.078800	0.690700	0.733200
H271	H27	0.458200	0.644000	0.729100
H281	H28	0.449100	0.650000	0.564300
H291	H29	0.107700	0.801600	0.880600
H301	H30	0.119000	0.783900	0.045700
H311	H31	0.428800	0.534200	0.035300
H321	H32	0.428600	0.541700	0.870700
C271	C27	0.287000	0.422200	0.299600
C281	C28	0.275200	0.287900	0.299100
C291	C29	0.233000	0.230000	0.374500
C301	C30	0.222000	0.104000	0.371600
C311	C31	0.257800	0.036800	0.296000
C321	C32	0.291000	0.092000	0.214500
C331	C33	0.300000	0.214000	0.214800
C341	C34	0.252800	0.899800	0.296400
C351	C35	0.507300	0.650200	0.304400
C361	C36	0.643900	0.652800	0.305800
C371	C37	0.709300	0.640200	0.390000
C381	C38	0.837400	0.643400	0.391300
C391	C39	0.897700	0.664700	0.305800
C401	C40	0.832500	0.679700	0.218500
C411	C41	0.705300	0.674500	0.219400
C421	C42	0.034600	0.669200	0.305900
C431	C43	0.160700	0.678300	0.603400
C441	C44	0.157000	0.680000	0.700300
C451	C45	0.269100	0.665700	0.750800
C461	C46	0.379600	0.653600	0.698400
C471	C47	0.373300	0.655800	0.599700
C481	C48	0.269100	0.666500	0.855600
C491	C49	0.174400	0.744900	0.909900
C501	C50	0.183900	0.734500	0.008900
C511	C51	0.363400	0.589600	0.003600
C521	C52	0.361900	0.593000	0.904700
N31	N3	0.267800	0.665600	0.553200
N41	N4	0.274100	0.663100	0.053800
O91	O9	0.291500	0.476800	0.221500
O101	O10	0.291300	0.471900	0.378400
O111	O11	0.249700	0.845900	0.374600
O121	O12	0.251000	0.849600	0.218400
O131	O13	0.456700	0.650100	0.225400
O141	O14	0.454400	0.646800	0.385700
O151	O15	0.085300	0.671200	0.386900
O161	O16	0.089000	0.675900	0.226500
