data_EDAGAT_freeONLY_PM
_symmetry_space_group_name_H-M	'P1'
_cell_length_a	9.826000
_cell_length_b	11.255000
_cell_length_c	14.547000
_cell_angle_alpha	91.346000
_cell_angle_beta	90.000000
_cell_angle_gamma	90.000000
_symmetry_Int_Tables_number 1

loop_
_symmetry_equiv_pos_as_xyz
'x,y,z'

loop_
_atom_site_label
_atom_site_type_symbol
_atom_site_fract_x
_atom_site_fract_y
_atom_site_fract_z
Co11	Co1	0.919620	0.755990	0.132690
Co21	Co2	0.108810	0.740230	0.310630
Co31	Co3	0.419620	0.744010	0.367310
Co41	Co4	0.608810	0.759770	0.189370
Co51	Co5	0.080380	0.244010	0.867310
Co61	Co6	0.891190	0.259770	0.689370
Co71	Co7	0.580380	0.255990	0.632690
Co81	Co8	0.391190	0.240230	0.810630
Co91	Co9	0.000000	0.500000	0.000000
Co101	Co10	0.500000	0.000000	0.500000
Co111	Co11	0.000000	0.000000	0.000000
Co121	Co12	0.500000	0.500000	0.500000
H11	H1	0.756700	0.859900	0.365800
H21	H2	0.188400	0.981700	0.231300
H31	H3	0.202300	0.509200	0.488300
H41	H4	0.618400	0.561600	0.037500
H51	H5	0.172500	0.697300	0.938200
H61	H6	0.973100	0.525500	0.735000
H71	H7	0.256700	0.640100	0.134200
H81	H8	0.688400	0.518300	0.268700
H91	H9	0.702300	0.990800	0.011700
H101	H10	0.118400	0.938400	0.462500
H111	H11	0.672500	0.802700	0.561800
H121	H12	0.473100	0.974500	0.765000
H131	H13	0.243300	0.140100	0.634200
H141	H14	0.811600	0.018300	0.768700
H151	H15	0.797700	0.490800	0.511700
H161	H16	0.381600	0.438400	0.962500
H171	H17	0.827500	0.302700	0.061800
H181	H18	0.026900	0.474500	0.265000
H191	H19	0.743300	0.359900	0.865800
H201	H20	0.311600	0.481700	0.731300
H211	H21	0.297700	0.009200	0.988300
H221	H22	0.881600	0.061600	0.537500
H231	H23	0.327500	0.197300	0.438200
H241	H24	0.526900	0.025500	0.235000
C11	C1	0.827100	0.831000	0.328900
C21	C2	0.129900	0.954000	0.185300
C31	C3	0.219700	0.570100	0.447800
C41	C4	0.710500	0.577200	0.046200
C51	C5	0.110700	0.741800	0.973000
C61	C6	0.991500	0.484200	0.788200
C71	C7	0.327100	0.669000	0.171100
C81	C8	0.629900	0.546000	0.314700
C91	C9	0.719700	0.929900	0.052200
C101	C10	0.210500	0.922800	0.453800
C111	C11	0.610700	0.758200	0.527000
C121	C12	0.491500	0.015800	0.711800
C131	C13	0.172900	0.169000	0.671100
C141	C14	0.870100	0.046000	0.814700
C151	C15	0.780300	0.429900	0.552200
C161	C16	0.289500	0.422800	0.953800
C171	C17	0.889300	0.258200	0.027000
C181	C18	0.008500	0.515800	0.211800
C191	C19	0.672900	0.331000	0.828900
C201	C20	0.370100	0.454000	0.685300
C211	C21	0.280300	0.070100	0.947800
C221	C22	0.789500	0.077200	0.546200
C231	C23	0.389300	0.241800	0.473000
C241	C24	0.508500	0.984200	0.288200
O11	O1	0.799100	0.810900	0.245100
O21	O2	0.938500	0.816300	0.367000
O31	O3	0.082700	0.850300	0.194980
O41	O4	0.107600	0.021900	0.122800
O51	O5	0.120400	0.611600	0.407500
O61	O6	0.344200	0.602300	0.439650
O71	O7	0.741700	0.653100	0.108620
O81	O8	0.791600	0.521900	0.995700
O91	O9	0.029800	0.684800	0.024150
O101	O10	0.114600	0.850700	0.965500
O111	O11	0.997400	0.371500	0.781040
O121	O12	0.008100	0.543600	0.860000
O131	O13	0.299100	0.689100	0.254900
O141	O14	0.438500	0.683700	0.133000
O151	O15	0.582700	0.649700	0.305020
O161	O16	0.607600	0.478100	0.377200
O171	O17	0.620400	0.888400	0.092500
O181	O18	0.844200	0.897700	0.060350
O191	O19	0.241700	0.846900	0.391380
O201	O20	0.291600	0.978100	0.504300
O211	O21	0.529800	0.815200	0.475850
O221	O22	0.614600	0.649300	0.534500
O231	O23	0.497400	0.128500	0.718960
O241	O24	0.508100	0.956400	0.640000
O251	O25	0.200900	0.189100	0.754900
O261	O26	0.061500	0.183700	0.633000
O271	O27	0.917300	0.149700	0.805020
O281	O28	0.892400	0.978100	0.877200
O291	O29	0.879600	0.388400	0.592500
O301	O30	0.655800	0.397700	0.560350
O311	O31	0.258300	0.346900	0.891380
O321	O32	0.208400	0.478100	0.004300
O331	O33	0.970200	0.315200	0.975850
O341	O34	0.885400	0.149300	0.034500
O351	O35	0.002600	0.628500	0.218960
O361	O36	0.991900	0.456400	0.140000
O371	O37	0.700900	0.310900	0.745100
O381	O38	0.561500	0.316300	0.867000
O391	O39	0.417300	0.350300	0.694980
O401	O40	0.392400	0.521900	0.622800
O411	O41	0.379600	0.111600	0.907500
O421	O42	0.155800	0.102300	0.939650
O431	O43	0.758300	0.153100	0.608620
O441	O44	0.708400	0.021900	0.495700
O451	O45	0.470200	0.184800	0.524150
O461	O46	0.385400	0.350700	0.465500
O471	O47	0.502600	0.871500	0.281040
O481	O48	0.491900	0.043600	0.360000
