data_EDOYOL_freeONLY_PM
_symmetry_space_group_name_H-M	'P1'
_cell_length_a	13.046900
_cell_length_b	14.126000
_cell_length_c	14.210500
_cell_angle_alpha	90.000000
_cell_angle_beta	91.110000
_cell_angle_gamma	90.000000
_symmetry_Int_Tables_number 1

loop_
_symmetry_equiv_pos_as_xyz
'x,y,z'

loop_
_atom_site_label
_atom_site_type_symbol
_atom_site_fract_x
_atom_site_fract_y
_atom_site_fract_z
Co11	Co1	0.230610	0.123320	0.263020
Co21	Co2	0.943380	0.999030	0.318710
Co31	Co3	0.243460	0.872170	0.283500
Co41	Co4	0.156210	0.008240	0.670850
Co51	Co5	0.614570	0.020640	0.414330
Co61	Co6	0.746300	0.624700	0.317630
Co71	Co7	0.778970	0.378740	0.303240
Co81	Co8	0.052760	0.532250	0.271370
Co91	Co9	0.340790	0.484940	0.415520
Co101	Co10	0.377900	0.482110	0.168900
P11	P1	0.096890	0.983870	0.143030
P21	P2	0.142570	0.997770	0.437210
P31	P3	0.771410	0.145510	0.301240
P41	P4	0.437070	0.012700	0.261390
P51	P5	0.749630	0.858670	0.331340
P61	P6	0.854260	0.533810	0.146340
P71	P7	0.900750	0.509240	0.439400
P81	P8	0.560600	0.482750	0.318340
P91	P9	0.251660	0.644520	0.287210
P101	P10	0.220160	0.360060	0.256660
O11	O1	0.139600	0.890800	0.184100
O21	O2	0.176400	0.063500	0.147100
O31	O3	0.999000	0.011000	0.194700
O41	O4	0.204600	0.910100	0.406900
O51	O5	0.157700	0.080300	0.370600
O61	O6	0.028800	0.971500	0.431100
O71	O7	0.174700	0.024600	0.537100
O81	O8	0.759000	0.083300	0.212400
O91	O9	0.678600	0.136900	0.366100
O101	O10	0.868300	0.110500	0.356100
O111	O11	0.785900	0.247200	0.271000
O121	O12	0.515500	0.026400	0.183700
O131	O13	0.485900	0.985300	0.355100
O141	O14	0.378000	0.105800	0.272100
O151	O15	0.362600	0.934300	0.229400
O161	O16	0.683700	0.877800	0.242000
O171	O17	0.066300	0.966300	0.040100
O181	O18	0.716800	0.919600	0.414000
O191	O19	0.865100	0.878200	0.312700
O201	O20	0.739600	0.754700	0.361600
O211	O21	0.802000	0.566700	0.430100
O221	O22	0.822100	0.622700	0.202500
O231	O23	0.814900	0.543700	0.045200
O241	O24	0.971100	0.528200	0.151000
O251	O25	0.803700	0.447500	0.187600
O261	O26	0.886600	0.412200	0.392300
O271	O27	0.988800	0.562300	0.390600
O281	O28	0.644100	0.410600	0.347700
O291	O29	0.487900	0.489700	0.400500
O301	O30	0.606600	0.580200	0.299600
O311	O31	0.507400	0.445900	0.228700
O321	O32	0.931100	0.498400	0.542400
O331	O33	0.321000	0.597700	0.215800
O341	O34	0.140200	0.643900	0.251400
O351	O35	0.290500	0.746500	0.297300
O361	O36	0.258900	0.593600	0.382200
O371	O37	0.303000	0.378100	0.331500
O381	O38	0.120800	0.411800	0.279200
O391	O39	0.193900	0.255100	0.251600
O401	O40	0.262100	0.391500	0.160700
Co111	Co11	0.730610	0.876680	0.763020
Co121	Co12	0.443380	0.000970	0.818710
Co131	Co13	0.743460	0.127830	0.783500
Co141	Co14	0.656210	0.991760	0.170850
Co151	Co15	0.114570	0.979360	0.914330
Co161	Co16	0.246300	0.375300	0.817630
Co171	Co17	0.278970	0.621260	0.803240
Co181	Co18	0.552760	0.467750	0.771370
Co191	Co19	0.840790	0.515060	0.915520
Co201	Co20	0.877900	0.517890	0.668900
P111	P11	0.596890	0.016130	0.643030
P121	P12	0.642570	0.002230	0.937210
P131	P13	0.271410	0.854490	0.801240
P141	P14	0.937070	0.987300	0.761390
P151	P15	0.249630	0.141330	0.831340
P161	P16	0.354260	0.466190	0.646340
P171	P17	0.400750	0.490760	0.939400
P181	P18	0.060600	0.517250	0.818340
P191	P19	0.751660	0.355480	0.787210
P201	P20	0.720160	0.639940	0.756660
O411	O41	0.639600	0.109200	0.684100
O421	O42	0.676400	0.936500	0.647100
O431	O43	0.499000	0.989000	0.694700
O441	O44	0.704600	0.089900	0.906900
O451	O45	0.657700	0.919700	0.870600
O461	O46	0.528800	0.028500	0.931100
O471	O47	0.674700	0.975400	0.037100
O481	O48	0.259000	0.916700	0.712400
O491	O49	0.178600	0.863100	0.866100
O501	O50	0.368300	0.889500	0.856100
O511	O51	0.285900	0.752800	0.771000
O521	O52	0.015500	0.973600	0.683700
O531	O53	0.985900	0.014700	0.855100
O541	O54	0.878000	0.894200	0.772100
O551	O55	0.862600	0.065700	0.729400
O561	O56	0.183700	0.122200	0.742000
O571	O57	0.566300	0.033700	0.540100
O581	O58	0.216800	0.080400	0.914000
O591	O59	0.365100	0.121800	0.812700
O601	O60	0.239600	0.245300	0.861600
O611	O61	0.302000	0.433300	0.930100
O621	O62	0.322100	0.377300	0.702500
O631	O63	0.314900	0.456300	0.545200
O641	O64	0.471100	0.471800	0.651000
O651	O65	0.303700	0.552500	0.687600
O661	O66	0.386600	0.587800	0.892300
O671	O67	0.488800	0.437700	0.890600
O681	O68	0.144100	0.589400	0.847700
O691	O69	0.987900	0.510300	0.900500
O701	O70	0.106600	0.419800	0.799600
O711	O71	0.007400	0.554100	0.728700
O721	O72	0.431100	0.501600	0.042400
O731	O73	0.821000	0.402300	0.715800
O741	O74	0.640200	0.356100	0.751400
O751	O75	0.790500	0.253500	0.797300
O761	O76	0.758900	0.406400	0.882200
O771	O77	0.803000	0.621900	0.831500
O781	O78	0.620800	0.588200	0.779200
O791	O79	0.693900	0.744900	0.751600
O801	O80	0.762100	0.608500	0.660700
