data_EFAYIU_freeONLY_PM
_symmetry_space_group_name_H-M	'P1'
_cell_length_a	29.566500
_cell_length_b	29.566500
_cell_length_c	31.156300
_cell_angle_alpha	103.726000
_cell_angle_beta	103.726000
_cell_angle_gamma	90.003800
_symmetry_Int_Tables_number 1

loop_
_symmetry_equiv_pos_as_xyz
'x,y,z'

loop_
_atom_site_label
_atom_site_type_symbol
_atom_site_fract_x
_atom_site_fract_y
_atom_site_fract_z
Zn11	Zn1	0.466910	0.007730	0.029820
Zn21	Zn2	0.492560	0.701980	0.470370
Zn31	Zn3	0.992750	0.033270	0.470400
Zn41	Zn4	0.507420	0.798080	0.529820
Zn51	Zn5	0.992270	0.533090	0.470180
Zn61	Zn6	0.298020	0.507440	0.029630
Zn71	Zn7	0.966730	0.007250	0.029600
Zn81	Zn8	0.201920	0.492580	0.970180
Zn91	Zn9	0.533090	0.992270	0.970180
Zn101	Zn10	0.507440	0.298020	0.529630
Zn111	Zn11	0.007250	0.966730	0.529600
Zn121	Zn12	0.492580	0.201920	0.470180
Zn131	Zn13	0.007730	0.466910	0.529820
Zn141	Zn14	0.701980	0.492560	0.970370
Zn151	Zn15	0.033270	0.992750	0.970400
Zn161	Zn16	0.798080	0.507420	0.029820
H11	H1	0.648800	0.773600	0.098100
H21	H2	0.726500	0.851100	0.402100
H31	H3	0.659200	0.847400	0.079100
H41	H4	0.619000	0.896800	0.036700
H51	H5	0.536500	0.928900	0.125300
H61	H6	0.576800	0.879600	0.167800
H71	H7	0.630300	0.691900	0.079800
H81	H8	0.649700	0.621100	0.038000
H91	H9	0.776900	0.634900	0.126100
H101	H10	0.757600	0.705800	0.167900
H111	H11	0.795500	0.924700	0.332100
H121	H12	0.866400	0.964800	0.374200
H131	H13	0.878600	0.882800	0.463300
H141	H14	0.807800	0.842600	0.421200
H151	H15	0.352000	0.725000	0.903600
H161	H16	0.243500	0.619100	0.831200
H171	H17	0.224400	0.569800	0.873700
H181	H18	0.350100	0.604300	0.963900
H191	H19	0.369200	0.653600	0.921300
H201	H20	0.340700	0.808900	0.921100
H211	H21	0.380800	0.880000	0.962800
H221	H22	0.463200	0.866800	0.874100
H231	H23	0.423100	0.795700	0.832400
H241	H24	0.224900	0.850300	0.404200
H251	H25	0.151400	0.840600	0.421700
H261	H26	0.102200	0.881000	0.464400
H271	H27	0.069900	0.963500	0.375700
H281	H28	0.119100	0.923100	0.333100
H291	H29	0.296600	0.744000	0.332500
H301	H30	0.367600	0.724800	0.374200
H311	H31	0.379200	0.850400	0.464700
H321	H32	0.308200	0.869600	0.422900
H331	H33	0.651700	0.871100	0.422300
H341	H34	0.601400	0.851800	0.463700
H351	H35	0.571200	0.724600	0.375300
H361	H36	0.621600	0.744000	0.333900
H371	H37	0.226400	0.351200	0.401900
H381	H38	0.148900	0.273500	0.097900
H391	H39	0.152600	0.340800	0.420900
H401	H40	0.103200	0.381000	0.463300
H411	H41	0.071100	0.463500	0.374700
H421	H42	0.120400	0.423200	0.332200
H431	H43	0.308100	0.369700	0.420200
H441	H44	0.378900	0.350300	0.462000
H451	H45	0.365100	0.223100	0.373900
H461	H46	0.294200	0.242400	0.332100
H471	H47	0.075300	0.204500	0.167900
H481	H48	0.035200	0.133600	0.125800
H491	H49	0.117200	0.121400	0.036700
H501	H50	0.157400	0.192200	0.078800
H511	H51	0.275000	0.648000	0.596400
H521	H52	0.380900	0.756500	0.668800
H531	H53	0.430200	0.775600	0.626300
H541	H54	0.395700	0.649900	0.536100
H551	H55	0.346400	0.630800	0.578700
H561	H56	0.191100	0.659300	0.578900
H571	H57	0.120000	0.619200	0.537200
H581	H58	0.133200	0.536800	0.625900
H591	H59	0.204300	0.576900	0.667600
H601	H60	0.149700	0.775100	0.095800
H611	H61	0.159400	0.848600	0.078300
H621	H62	0.119000	0.897800	0.035600
H631	H63	0.036500	0.930100	0.124300
H641	H64	0.076900	0.880900	0.166900
H651	H65	0.256000	0.703400	0.167500
H661	H66	0.275200	0.632400	0.125800
H671	H67	0.149600	0.620800	0.035300
H681	H68	0.130400	0.691800	0.077100
H691	H69	0.128900	0.348300	0.077700
H701	H70	0.148200	0.398600	0.036300
H711	H71	0.275400	0.428800	0.124700
H721	H72	0.256000	0.378400	0.166100
H731	H73	0.351200	0.226400	0.901900
H741	H74	0.273500	0.148900	0.597900
H751	H75	0.340800	0.152600	0.920900
H761	H76	0.381000	0.103200	0.963300
H771	H77	0.463500	0.071100	0.874700
H781	H78	0.423200	0.120400	0.832200
H791	H79	0.369700	0.308100	0.920200
H801	H80	0.350300	0.378900	0.962000
H811	H81	0.223100	0.365100	0.873900
H821	H82	0.242400	0.294200	0.832100
H831	H83	0.204500	0.075300	0.667900
H841	H84	0.133600	0.035200	0.625800
H851	H85	0.121400	0.117200	0.536700
H861	H86	0.192200	0.157400	0.578800
H871	H87	0.648000	0.275000	0.096400
H881	H88	0.756500	0.380900	0.168800
H891	H89	0.775600	0.430200	0.126300
H901	H90	0.649900	0.395700	0.036100
H911	H91	0.630800	0.346400	0.078700
H921	H92	0.659300	0.191100	0.078900
H931	H93	0.619200	0.120000	0.037200
H941	H94	0.536800	0.133200	0.125900
H951	H95	0.576900	0.204300	0.167600
H961	H96	0.775100	0.149700	0.595800
H971	H97	0.848600	0.159400	0.578300
H981	H98	0.897800	0.119000	0.535600
H991	H99	0.930100	0.036500	0.624300
H1001	H100	0.880900	0.076900	0.666900
H1011	H101	0.703400	0.256000	0.667500
H1021	H102	0.632400	0.275200	0.625800
H1031	H103	0.620800	0.149600	0.535300
H1041	H104	0.691800	0.130400	0.577100
H1051	H105	0.348300	0.128900	0.577700
H1061	H106	0.398600	0.148200	0.536300
H1071	H107	0.428800	0.275400	0.624700
H1081	H108	0.378400	0.256000	0.666100
H1091	H109	0.773600	0.648800	0.598100
H1101	H110	0.851100	0.726500	0.902100
H1111	H111	0.847400	0.659200	0.579100
H1121	H112	0.896800	0.619000	0.536700
H1131	H113	0.928900	0.536500	0.625300
H1141	H114	0.879600	0.576800	0.667800
H1151	H115	0.691900	0.630300	0.579800
H1161	H116	0.621100	0.649700	0.538000
H1171	H117	0.634900	0.776900	0.626100
H1181	H118	0.705800	0.757600	0.667900
H1191	H119	0.924700	0.795500	0.832100
H1201	H120	0.964800	0.866400	0.874200
H1211	H121	0.882800	0.878600	0.963300
H1221	H122	0.842600	0.807800	0.921200
H1231	H123	0.725000	0.352000	0.403600
H1241	H124	0.619100	0.243500	0.331200
H1251	H125	0.569800	0.224400	0.373700
H1261	H126	0.604300	0.350100	0.463900
H1271	H127	0.653600	0.369200	0.421300
H1281	H128	0.808900	0.340700	0.421100
H1291	H129	0.880000	0.380800	0.462800
H1301	H130	0.866800	0.463200	0.374100
H1311	H131	0.795700	0.423100	0.332400
H1321	H132	0.850300	0.224900	0.904200
H1331	H133	0.840600	0.151400	0.921700
H1341	H134	0.881000	0.102200	0.964400
H1351	H135	0.963500	0.069900	0.875700
H1361	H136	0.923100	0.119100	0.833100
H1371	H137	0.744000	0.296600	0.832500
H1381	H138	0.724800	0.367600	0.874200
H1391	H139	0.850400	0.379200	0.964700
H1401	H140	0.869600	0.308200	0.922900
H1411	H141	0.871100	0.651700	0.922300
H1421	H142	0.851800	0.601400	0.963700
H1431	H143	0.724600	0.571200	0.875300
H1441	H144	0.744000	0.621600	0.833900
C11	C1	0.681460	0.808980	0.225850
C21	C2	0.657480	0.839440	0.200900
C31	C3	0.645190	0.826130	0.152900
C41	C4	0.656870	0.782350	0.129800
C51	C5	0.680850	0.751890	0.154700
C61	C6	0.693140	0.765200	0.202800
C71	C7	0.691010	0.819130	0.274410
C81	C8	0.734760	0.842480	0.297300
C91	C9	0.748110	0.854510	0.345400
C101	C10	0.717710	0.843210	0.370450
C111	C11	0.673950	0.819850	0.347500
C121	C12	0.660600	0.807820	0.299500
C131	C13	0.622170	0.858370	0.127800
C141	C14	0.634860	0.863600	0.088300
C151	C15	0.610570	0.893390	0.062730
C161	C16	0.573570	0.917970	0.076660
C171	C17	0.560880	0.912740	0.116200
C181	C18	0.585170	0.882950	0.141720
C191	C19	0.691990	0.706150	0.128100
C201	C20	0.659470	0.680610	0.089000
C211	C21	0.671120	0.637880	0.063810
C221	C22	0.715280	0.620700	0.077750
C231	C23	0.747810	0.646230	0.116900
C241	C24	0.736160	0.688960	0.142070
C251	C25	0.794370	0.879510	0.372340
C261	C26	0.812020	0.916320	0.358190
C271	C27	0.854710	0.940530	0.383600
C281	C28	0.879730	0.927930	0.423100
C291	C29	0.862090	0.891110	0.437230
C301	C30	0.819400	0.866900	0.411900
C311	C31	0.318780	0.696560	0.775850
C321	C32	0.310230	0.663050	0.799000
C331	C33	0.322710	0.673770	0.847000
C341	C34	0.343740	0.718000	0.871890
C351	C35	0.352270	0.751510	0.848800
C361	C36	0.339790	0.740790	0.800800
C371	C37	0.308350	0.641410	0.871900
C381	C38	0.264720	0.616180	0.857540
C391	C39	0.253180	0.586480	0.883200
C401	C40	0.285290	0.581990	0.923170
C411	C41	0.328920	0.607200	0.937520
C421	C42	0.340450	0.636910	0.911900
C431	C43	0.377760	0.795060	0.872500
C441	C44	0.365010	0.820430	0.911800
C451	C45	0.389180	0.863220	0.936920
C461	C46	0.426100	0.880620	0.922740
C471	C47	0.438850	0.855250	0.883400
C481	C48	0.414680	0.812460	0.858300
C491	C49	0.196560	0.819220	0.276540
C501	C50	0.240670	0.810490	0.301500
C511	C51	0.251320	0.822140	0.349600
C521	C52	0.217850	0.842530	0.372580
C531	C53	0.173750	0.851270	0.347600
C541	C54	0.163090	0.839610	0.299600
C551	C55	0.140330	0.877730	0.373060
C561	C56	0.135220	0.865060	0.412600
C571	C57	0.105550	0.889430	0.438280
C581	C58	0.080990	0.926450	0.424410
C591	C59	0.086100	0.939120	0.384900
C601	C60	0.115760	0.914760	0.359190
C611	C61	0.295140	0.808720	0.373440
C621	C62	0.313040	0.765100	0.358760
C631	C63	0.355840	0.753540	0.383900
C641	C64	0.380740	0.785600	0.423710
C651	C65	0.362830	0.829230	0.438390
C661	C66	0.320050	0.840790	0.413300
C671	C67	0.641830	0.809530	0.373800
C681	C68	0.635740	0.842000	0.412900
C691	C69	0.605370	0.830350	0.437900
C701	C70	0.581090	0.786230	0.423740
C711	C71	0.587180	0.753760	0.384600
C721	C72	0.617560	0.765420	0.359670
C731	C73	0.548100	0.949100	0.047900
C741	C74	0.726000	0.574200	0.047900
C751	C75	0.551300	0.776300	0.453100
C761	C76	0.049900	0.951500	0.452600
C771	C77	0.273900	0.550900	0.950900
C781	C78	0.924200	0.953400	0.451000
C791	C79	0.452200	0.925800	0.950700
C801	C80	0.425800	0.773800	0.452400
C811	C81	0.802500	0.816100	0.274500
C821	C82	0.832900	0.834900	0.244900
C831	C83	0.688700	0.916100	0.234200
C841	C84	0.675400	0.964200	0.263600
C851	C85	0.081800	0.810000	0.276500
C861	C86	0.034100	0.826300	0.245900
C871	C87	0.331100	0.586300	0.776300
C881	C88	0.302500	0.537900	0.749800
C891	C89	0.191020	0.318540	0.274150
C901	C90	0.160560	0.342520	0.299100
C911	C91	0.173870	0.354810	0.347100
C921	C92	0.217650	0.343130	0.370200
C931	C93	0.248110	0.319150	0.345300
C941	C94	0.234800	0.306860	0.297200
C951	C95	0.180870	0.308990	0.225590
C961	C96	0.157520	0.265240	0.202700
C971	C97	0.145490	0.251890	0.154600
C981	C98	0.156790	0.282290	0.129550
C991	C99	0.180150	0.326050	0.152500
C1001	C100	0.192180	0.339400	0.200500
C1011	C101	0.141630	0.377830	0.372200
C1021	C102	0.136400	0.365140	0.411700
C1031	C103	0.106610	0.389430	0.437270
C1041	C104	0.082030	0.426430	0.423340
C1051	C105	0.087260	0.439120	0.383800
C1061	C106	0.117050	0.414830	0.358280
C1071	C107	0.293850	0.308010	0.371900
C1081	C108	0.319390	0.340530	0.411000
C1091	C109	0.362120	0.328880	0.436190
C1101	C110	0.379300	0.284720	0.422250
C1111	C111	0.353770	0.252190	0.383100
C1121	C112	0.311040	0.263840	0.357930
C1131	C113	0.120490	0.205630	0.127660
C1141	C114	0.083680	0.187980	0.141810
C1151	C115	0.059470	0.145290	0.116400
C1161	C116	0.072070	0.120270	0.076900
C1171	C117	0.108890	0.137910	0.062770
C1181	C118	0.133100	0.180600	0.088100
C1191	C119	0.303440	0.681220	0.724150
C1201	C120	0.336950	0.689770	0.701000
C1211	C121	0.326230	0.677290	0.653000
C1221	C122	0.282000	0.656260	0.628110
C1231	C123	0.248490	0.647730	0.651200
C1241	C124	0.259210	0.660210	0.699200
C1251	C125	0.358590	0.691650	0.628100
C1261	C126	0.383820	0.735280	0.642460
C1271	C127	0.413520	0.746820	0.616800
C1281	C128	0.418010	0.714710	0.576830
C1291	C129	0.392800	0.671080	0.562480
C1301	C130	0.363090	0.659550	0.588100
C1311	C131	0.204940	0.622240	0.627500
C1321	C132	0.179570	0.634990	0.588200
C1331	C133	0.136780	0.610820	0.563080
C1341	C134	0.119380	0.573900	0.577260
C1351	C135	0.144750	0.561150	0.616600
C1361	C136	0.187540	0.585320	0.641700
C1371	C137	0.180780	0.803440	0.223460
C1381	C138	0.189510	0.759330	0.198500
C1391	C139	0.177860	0.748680	0.150400
C1401	C140	0.157470	0.782150	0.127420
C1411	C141	0.148730	0.826250	0.152400
C1421	C142	0.160390	0.836910	0.200400
C1431	C143	0.122270	0.859670	0.126940
C1441	C144	0.134940	0.864780	0.087400
C1451	C145	0.110570	0.894450	0.061720
C1461	C146	0.073550	0.919010	0.075590
C1471	C147	0.060880	0.913900	0.115100
C1481	C148	0.085240	0.884240	0.140810
C1491	C149	0.191280	0.704860	0.126560
C1501	C150	0.234900	0.686960	0.141240
C1511	C151	0.246460	0.644160	0.116100
C1521	C152	0.214400	0.619260	0.076290
C1531	C153	0.170770	0.637170	0.061610
C1541	C154	0.159210	0.679950	0.086700
C1551	C155	0.190470	0.358170	0.126200
C1561	C156	0.158000	0.364260	0.087100
C1571	C157	0.169650	0.394630	0.062100
C1581	C158	0.213770	0.418910	0.076260
C1591	C159	0.246240	0.412820	0.115400
C1601	C160	0.234580	0.382440	0.140330
C1611	C161	0.050900	0.451900	0.452100
C1621	C162	0.425800	0.274000	0.452100
C1631	C163	0.223700	0.448700	0.046900
C1641	C164	0.048500	0.950100	0.047400
C1651	C165	0.449100	0.726100	0.549100
C1661	C166	0.046600	0.075800	0.049000
C1671	C167	0.074200	0.547800	0.549300
C1681	C168	0.226200	0.574200	0.047600
C1691	C169	0.183900	0.197500	0.225500
C1701	C170	0.165100	0.167100	0.255100
C1711	C171	0.083900	0.311300	0.265800
C1721	C172	0.035800	0.324600	0.236400
C1731	C173	0.190000	0.918200	0.223500
C1741	C174	0.173700	0.965900	0.254100
C1751	C175	0.413700	0.668900	0.723700
C1761	C176	0.462100	0.697500	0.750200
C1771	C177	0.318540	0.191020	0.774150
C1781	C178	0.342520	0.160560	0.799100
C1791	C179	0.354810	0.173870	0.847100
C1801	C180	0.343130	0.217650	0.870200
C1811	C181	0.319150	0.248110	0.845300
C1821	C182	0.306860	0.234800	0.797200
C1831	C183	0.308990	0.180870	0.725590
C1841	C184	0.265240	0.157520	0.702700
C1851	C185	0.251890	0.145490	0.654600
C1861	C186	0.282290	0.156790	0.629550
C1871	C187	0.326050	0.180150	0.652500
C1881	C188	0.339400	0.192180	0.700500
C1891	C189	0.377830	0.141630	0.872200
C1901	C190	0.365140	0.136400	0.911700
C1911	C191	0.389430	0.106610	0.937270
C1921	C192	0.426430	0.082030	0.923340
C1931	C193	0.439120	0.087260	0.883800
C1941	C194	0.414830	0.117050	0.858280
C1951	C195	0.308010	0.293850	0.871900
C1961	C196	0.340530	0.319390	0.911000
C1971	C197	0.328880	0.362120	0.936190
C1981	C198	0.284720	0.379300	0.922250
C1991	C199	0.252190	0.353770	0.883100
C2001	C200	0.263840	0.311040	0.857930
C2011	C201	0.205630	0.120490	0.627660
C2021	C202	0.187980	0.083680	0.641810
C2031	C203	0.145290	0.059470	0.616400
C2041	C204	0.120270	0.072070	0.576900
C2051	C205	0.137910	0.108890	0.562770
C2061	C206	0.180600	0.133100	0.588100
C2071	C207	0.681220	0.303440	0.224150
C2081	C208	0.689770	0.336950	0.201000
C2091	C209	0.677290	0.326230	0.153000
C2101	C210	0.656260	0.282000	0.128110
C2111	C211	0.647730	0.248490	0.151200
C2121	C212	0.660210	0.259210	0.199200
C2131	C213	0.691650	0.358590	0.128100
C2141	C214	0.735280	0.383820	0.142460
C2151	C215	0.746820	0.413520	0.116800
C2161	C216	0.714710	0.418010	0.076830
C2171	C217	0.671080	0.392800	0.062480
C2181	C218	0.659550	0.363090	0.088100
C2191	C219	0.622240	0.204940	0.127500
C2201	C220	0.634990	0.179570	0.088200
C2211	C221	0.610820	0.136780	0.063080
C2221	C222	0.573900	0.119380	0.077260
C2231	C223	0.561150	0.144750	0.116600
C2241	C224	0.585320	0.187540	0.141700
C2251	C225	0.803440	0.180780	0.723460
C2261	C226	0.759330	0.189510	0.698500
C2271	C227	0.748680	0.177860	0.650400
C2281	C228	0.782150	0.157470	0.627420
C2291	C229	0.826250	0.148730	0.652400
C2301	C230	0.836910	0.160390	0.700400
C2311	C231	0.859670	0.122270	0.626940
C2321	C232	0.864780	0.134940	0.587400
C2331	C233	0.894450	0.110570	0.561720
C2341	C234	0.919010	0.073550	0.575590
C2351	C235	0.913900	0.060880	0.615100
C2361	C236	0.884240	0.085240	0.640810
C2371	C237	0.704860	0.191280	0.626560
C2381	C238	0.686960	0.234900	0.641240
C2391	C239	0.644160	0.246460	0.616100
C2401	C240	0.619260	0.214400	0.576290
C2411	C241	0.637170	0.170770	0.561610
C2421	C242	0.679950	0.159210	0.586700
C2431	C243	0.358170	0.190470	0.626200
C2441	C244	0.364260	0.158000	0.587100
C2451	C245	0.394630	0.169650	0.562100
C2461	C246	0.418910	0.213770	0.576260
C2471	C247	0.412820	0.246240	0.615400
C2481	C248	0.382440	0.234580	0.640330
C2491	C249	0.451900	0.050900	0.952100
C2501	C250	0.274000	0.425800	0.952100
C2511	C251	0.448700	0.223700	0.546900
C2521	C252	0.950100	0.048500	0.547400
C2531	C253	0.726100	0.449100	0.049100
C2541	C254	0.075800	0.046600	0.549000
C2551	C255	0.547800	0.074200	0.049300
C2561	C256	0.574200	0.226200	0.547600
C2571	C257	0.197500	0.183900	0.725500
C2581	C258	0.167100	0.165100	0.755100
C2591	C259	0.311300	0.083900	0.765800
C2601	C260	0.324600	0.035800	0.736400
C2611	C261	0.918200	0.190000	0.723500
C2621	C262	0.965900	0.173700	0.754100
C2631	C263	0.668900	0.413700	0.223700
C2641	C264	0.697500	0.462100	0.250200
C2651	C265	0.808980	0.681460	0.725850
C2661	C266	0.839440	0.657480	0.700900
C2671	C267	0.826130	0.645190	0.652900
C2681	C268	0.782350	0.656870	0.629800
C2691	C269	0.751890	0.680850	0.654700
C2701	C270	0.765200	0.693140	0.702800
C2711	C271	0.819130	0.691010	0.774410
C2721	C272	0.842480	0.734760	0.797300
C2731	C273	0.854510	0.748110	0.845400
C2741	C274	0.843210	0.717710	0.870450
C2751	C275	0.819850	0.673950	0.847500
C2761	C276	0.807820	0.660600	0.799500
C2771	C277	0.858370	0.622170	0.627800
C2781	C278	0.863600	0.634860	0.588300
C2791	C279	0.893390	0.610570	0.562730
C2801	C280	0.917970	0.573570	0.576660
C2811	C281	0.912740	0.560880	0.616200
C2821	C282	0.882950	0.585170	0.641720
C2831	C283	0.706150	0.691990	0.628100
C2841	C284	0.680610	0.659470	0.589000
C2851	C285	0.637880	0.671120	0.563810
C2861	C286	0.620700	0.715280	0.577750
C2871	C287	0.646230	0.747810	0.616900
C2881	C288	0.688960	0.736160	0.642070
C2891	C289	0.879510	0.794370	0.872340
C2901	C290	0.916320	0.812020	0.858190
C2911	C291	0.940530	0.854710	0.883600
C2921	C292	0.927930	0.879730	0.923100
C2931	C293	0.891110	0.862090	0.937230
C2941	C294	0.866900	0.819400	0.911900
C2951	C295	0.696560	0.318780	0.275850
C2961	C296	0.663050	0.310230	0.299000
C2971	C297	0.673770	0.322710	0.347000
C2981	C298	0.718000	0.343740	0.371890
C2991	C299	0.751510	0.352270	0.348800
C3001	C300	0.740790	0.339790	0.300800
C3011	C301	0.641410	0.308350	0.371900
C3021	C302	0.616180	0.264720	0.357540
C3031	C303	0.586480	0.253180	0.383200
C3041	C304	0.581990	0.285290	0.423170
C3051	C305	0.607200	0.328920	0.437520
C3061	C306	0.636910	0.340450	0.411900
C3071	C307	0.795060	0.377760	0.372500
C3081	C308	0.820430	0.365010	0.411800
C3091	C309	0.863220	0.389180	0.436920
C3101	C310	0.880620	0.426100	0.422740
C3111	C311	0.855250	0.438850	0.383400
C3121	C312	0.812460	0.414680	0.358300
C3131	C313	0.819220	0.196560	0.776540
C3141	C314	0.810490	0.240670	0.801500
C3151	C315	0.822140	0.251320	0.849600
C3161	C316	0.842530	0.217850	0.872580
C3171	C317	0.851270	0.173750	0.847600
C3181	C318	0.839610	0.163090	0.799600
C3191	C319	0.877730	0.140330	0.873060
C3201	C320	0.865060	0.135220	0.912600
C3211	C321	0.889430	0.105550	0.938280
C3221	C322	0.926450	0.080990	0.924410
C3231	C323	0.939120	0.086100	0.884900
C3241	C324	0.914760	0.115760	0.859190
C3251	C325	0.808720	0.295140	0.873440
C3261	C326	0.765100	0.313040	0.858760
C3271	C327	0.753540	0.355840	0.883900
C3281	C328	0.785600	0.380740	0.923710
C3291	C329	0.829230	0.362830	0.938390
C3301	C330	0.840790	0.320050	0.913300
C3311	C331	0.809530	0.641830	0.873800
C3321	C332	0.842000	0.635740	0.912900
C3331	C333	0.830350	0.605370	0.937900
C3341	C334	0.786230	0.581090	0.923740
C3351	C335	0.753760	0.587180	0.884600
C3361	C336	0.765420	0.617560	0.859670
C3371	C337	0.949100	0.548100	0.547900
C3381	C338	0.574200	0.726000	0.547900
C3391	C339	0.776300	0.551300	0.953100
C3401	C340	0.951500	0.049900	0.952600
C3411	C341	0.550900	0.273900	0.450900
C3421	C342	0.953400	0.924200	0.951000
C3431	C343	0.925800	0.452200	0.450700
C3441	C344	0.773800	0.425800	0.952400
C3451	C345	0.816100	0.802500	0.774500
C3461	C346	0.834900	0.832900	0.744900
C3471	C347	0.916100	0.688700	0.734200
C3481	C348	0.964200	0.675400	0.763600
C3491	C349	0.810000	0.081800	0.776500
C3501	C350	0.826300	0.034100	0.745900
C3511	C351	0.586300	0.331100	0.276300
C3521	C352	0.537900	0.302500	0.249800
O11	O1	0.533350	0.732750	0.439200
O21	O2	0.543710	0.805190	0.484400
O31	O3	0.304020	0.545020	0.984200
O41	O4	0.231790	0.533030	0.938300
O51	O5	0.768540	0.563840	0.062200
O61	O6	0.695740	0.551580	0.016300
O71	O7	0.436510	0.731590	0.437940
O81	O8	0.447200	0.803760	0.484300
O91	O9	0.044090	0.937110	0.484000
O101	O10	0.032970	0.987050	0.438300
O111	O11	0.512600	0.966980	0.061000
O121	O12	0.562020	0.955500	0.015800
O131	O13	0.937340	0.988080	0.439200
O141	O14	0.947560	0.939040	0.484000
O151	O15	0.437400	0.948340	0.984300
O161	O16	0.487860	0.937000	0.938800
O171	O17	0.518110	0.865470	0.571900
O181	O18	0.482890	0.632450	0.430800
O191	O19	0.421220	0.018600	0.070500
O201	O20	0.982210	0.083850	0.430100
O211	O21	0.766100	0.850900	0.274800
O221	O22	0.649000	0.880200	0.226000
O231	O23	0.117600	0.846200	0.276400
O241	O24	0.292900	0.617900	0.774900
O251	O25	0.267250	0.466650	0.060800
O261	O26	0.194810	0.456290	0.015600
O271	O27	0.454980	0.695980	0.515800
O281	O28	0.466970	0.768210	0.561700
O291	O29	0.436160	0.231460	0.437800
O301	O30	0.448420	0.304260	0.483700
O311	O31	0.268410	0.563490	0.062060
O321	O32	0.196240	0.552800	0.015700
O331	O33	0.062890	0.955910	0.016000
O341	O34	0.012950	0.967030	0.061700
O351	O35	0.033020	0.487400	0.439000
O361	O36	0.044500	0.437980	0.484200
O371	O37	0.011920	0.062660	0.060800
O381	O38	0.060960	0.052440	0.016000
O391	O39	0.051660	0.562600	0.515700
O401	O40	0.063000	0.512140	0.561200
O411	O41	0.134530	0.481890	0.928100
O421	O42	0.367550	0.517110	0.069200
O431	O43	0.981400	0.578780	0.429500
O441	O44	0.916150	0.017790	0.069900
O451	O45	0.149100	0.233900	0.225200
O461	O46	0.119800	0.351000	0.274000
O471	O47	0.153800	0.882400	0.223600
O481	O48	0.382100	0.707100	0.725100
O491	O49	0.466650	0.267250	0.560800
O501	O50	0.456290	0.194810	0.515600
O511	O51	0.695980	0.454980	0.015800
O521	O52	0.768210	0.466970	0.061700
O531	O53	0.231460	0.436160	0.937800
O541	O54	0.304260	0.448420	0.983700
O551	O55	0.563490	0.268410	0.562060
O561	O56	0.552800	0.196240	0.515700
O571	O57	0.955910	0.062890	0.516000
O581	O58	0.967030	0.012950	0.561700
O591	O59	0.487400	0.033020	0.939000
O601	O60	0.437980	0.044500	0.984200
O611	O61	0.062660	0.011920	0.560800
O621	O62	0.052440	0.060960	0.516000
O631	O63	0.562600	0.051660	0.015700
O641	O64	0.512140	0.063000	0.061200
O651	O65	0.481890	0.134530	0.428100
O661	O66	0.517110	0.367550	0.569200
O671	O67	0.578780	0.981400	0.929500
O681	O68	0.017790	0.916150	0.569900
O691	O69	0.233900	0.149100	0.725200
O701	O70	0.351000	0.119800	0.774000
O711	O71	0.882400	0.153800	0.723600
O721	O72	0.707100	0.382100	0.225100
O731	O73	0.732750	0.533350	0.939200
O741	O74	0.805190	0.543710	0.984400
O751	O75	0.545020	0.304020	0.484200
O761	O76	0.533030	0.231790	0.438300
O771	O77	0.563840	0.768540	0.562200
O781	O78	0.551580	0.695740	0.516300
O791	O79	0.731590	0.436510	0.937940
O801	O80	0.803760	0.447200	0.984300
O811	O81	0.937110	0.044090	0.984000
O821	O82	0.987050	0.032970	0.938300
O831	O83	0.966980	0.512600	0.561000
O841	O84	0.955500	0.562020	0.515800
O851	O85	0.988080	0.937340	0.939200
O861	O86	0.939040	0.947560	0.984000
O871	O87	0.948340	0.437400	0.484300
O881	O88	0.937000	0.487860	0.438800
O891	O89	0.865470	0.518110	0.071900
O901	O90	0.632450	0.482890	0.930800
O911	O91	0.018600	0.421220	0.570500
O921	O92	0.083850	0.982210	0.930100
O931	O93	0.850900	0.766100	0.774800
O941	O94	0.880200	0.649000	0.726000
O951	O95	0.846200	0.117600	0.776400
O961	O96	0.617900	0.292900	0.274900
