data_EFEGOM_freeONLY_PM
_symmetry_space_group_name_H-M	'P1'
_cell_length_a	11.340000
_cell_length_b	19.220000
_cell_length_c	13.798000
_cell_angle_alpha	110.820000
_cell_angle_beta	90.000000
_cell_angle_gamma	90.000000
_symmetry_Int_Tables_number 1

loop_
_symmetry_equiv_pos_as_xyz
'x,y,z'

loop_
_atom_site_label
_atom_site_type_symbol
_atom_site_fract_x
_atom_site_fract_y
_atom_site_fract_z
Fe11	Fe1	0.999190	0.998660	0.997980
Fe21	Fe2	0.492340	0.500510	0.001300
Fe31	Fe3	0.001370	0.000130	0.748660
Fe41	Fe4	0.495520	0.500900	0.750330
Fe51	Fe5	0.996810	0.000920	0.499200
Fe61	Fe6	0.508680	0.499840	0.502290
Fe71	Fe7	0.999290	0.999880	0.248490
Fe81	Fe8	0.501590	0.500000	0.251380
H11	H1	0.670800	0.700970	0.822730
H21	H2	0.768980	0.824730	0.883940
H31	H3	0.327610	0.491560	0.871200
H41	H4	0.223590	0.177840	0.811620
H51	H5	0.319240	0.302590	0.875730
H61	H6	0.695060	0.312860	0.936520
H71	H7	0.801220	0.191270	0.874550
H81	H8	0.176890	0.798050	0.925080
H91	H9	0.275320	0.674380	0.862530
H101	H10	0.841130	0.986460	0.873590
H111	H11	0.327250	0.297400	0.676150
H121	H12	0.226900	0.174080	0.613750
H131	H13	0.662960	0.531020	0.647920
H141	H14	0.819250	0.810010	0.677130
H151	H15	0.721030	0.686110	0.614680
H161	H16	0.277750	0.676700	0.556790
H171	H17	0.179480	0.800840	0.619220
H181	H18	0.805500	0.195700	0.569550
H191	H19	0.700240	0.317670	0.631570
H201	H20	0.617570	0.720950	0.339700
H211	H21	0.718720	0.843850	0.401070
H221	H22	0.342010	0.478380	0.368490
H231	H23	0.224100	0.177330	0.308080
H241	H24	0.325780	0.300270	0.370220
H251	H25	0.733250	0.325990	0.439290
H261	H26	0.828490	0.200970	0.376160
H271	H27	0.179690	0.802700	0.432290
H281	H28	0.278900	0.678750	0.371620
H291	H29	0.839150	0.967290	0.355830
H301	H30	0.324500	0.297160	0.180300
H311	H31	0.227340	0.172850	0.116440
H321	H32	0.658560	0.524990	0.133690
H331	H33	0.777680	0.821840	0.189920
H341	H34	0.678320	0.698320	0.128860
H351	H35	0.291250	0.682130	0.066240
H361	H36	0.192440	0.806140	0.126930
H371	H37	0.833830	0.204880	0.070870
H381	H38	0.738470	0.329760	0.133990
H391	H39	0.167830	0.028450	0.643480
H401	H40	0.160980	0.024980	0.135730
C11	C1	0.669300	0.692520	0.972140
C21	C2	0.693270	0.728380	0.902760
C31	C3	0.747870	0.796970	0.936720
C41	C4	0.612460	0.618410	0.934700
C51	C5	0.220070	0.168380	0.960240
C61	C6	0.246380	0.204610	0.891720
C71	C7	0.299030	0.273690	0.927310
C81	C8	0.156650	0.096640	0.922480
C91	C9	0.693580	0.322330	0.787900
C101	C10	0.719960	0.286500	0.856870
C111	C11	0.778310	0.219320	0.822560
C121	C12	0.634710	0.395500	0.826200
C131	C13	0.172810	0.806340	0.775790
C141	C14	0.198660	0.770560	0.844900
C151	C15	0.252520	0.702000	0.810280
C161	C16	0.115540	0.880210	0.813720
C171	C17	0.331100	0.305990	0.526970
C181	C18	0.304660	0.270280	0.596070
C191	C19	0.249430	0.202000	0.561500
C201	C20	0.388590	0.379790	0.565110
C211	C21	0.774720	0.833520	0.542480
C221	C22	0.773690	0.790190	0.604420
C231	C23	0.718470	0.721910	0.570300
C241	C24	0.842450	0.903510	0.576370
C251	C25	0.280840	0.668420	0.706070
C261	C26	0.254480	0.703850	0.636680
C271	C27	0.200550	0.772560	0.671350
C281	C28	0.343010	0.596280	0.669800
C291	C29	0.809430	0.187170	0.718640
C301	C30	0.781070	0.222240	0.649290
C311	C31	0.723060	0.289610	0.683610
C321	C32	0.875620	0.116430	0.682440
C331	C33	0.663290	0.696890	0.474020
C341	C34	0.661270	0.741150	0.413340
C351	C35	0.717150	0.809280	0.447300
C361	C36	0.610490	0.621930	0.435030
C371	C37	0.220030	0.168890	0.457250
C381	C38	0.247710	0.204170	0.387960
C391	C39	0.303440	0.272310	0.422480
C401	C40	0.154550	0.097900	0.421000
C411	C41	0.730780	0.334930	0.290440
C421	C42	0.756710	0.298980	0.359380
C431	C43	0.808840	0.229720	0.324290
C441	C44	0.666270	0.406360	0.327880
C451	C45	0.180270	0.810980	0.282910
C461	C46	0.204490	0.775590	0.352780
C471	C47	0.258740	0.706900	0.319130
C481	C48	0.117810	0.883100	0.318030
C491	C49	0.326500	0.307070	0.031910
C501	C50	0.302100	0.270310	0.100130
C511	C51	0.248810	0.201360	0.064660
C521	C52	0.381270	0.381680	0.070370
C531	C53	0.778500	0.830450	0.040620
C541	C54	0.753070	0.794990	0.110260
C551	C55	0.698520	0.726410	0.076280
C561	C56	0.842830	0.901960	0.076480
C571	C57	0.288460	0.673150	0.215130
C581	C58	0.265970	0.709130	0.145630
C591	C59	0.211860	0.777730	0.179270
C601	C60	0.345710	0.599450	0.177120
C611	C61	0.835600	0.195630	0.219690
C621	C62	0.812100	0.232220	0.151090
C631	C63	0.759840	0.301550	0.186170
C641	C64	0.887710	0.120180	0.181480
O11	O1	0.586290	0.591810	0.839840
O21	O2	0.595480	0.590580	0.500170
O31	O3	0.129770	0.071170	0.827620
O41	O4	0.126880	0.070550	0.488430
O51	O5	0.608650	0.421170	0.920920
O61	O6	0.619970	0.427950	0.762160
O71	O7	0.090020	0.906840	0.908700
O81	O8	0.097110	0.910570	0.747850
O91	O9	0.402660	0.409610	0.661720
O101	O10	0.391110	0.414590	0.006520
O111	O11	0.873990	0.928900	0.669980
O121	O12	0.867440	0.930590	0.009690
O131	O13	0.373160	0.569830	0.576070
O141	O14	0.360720	0.566090	0.736410
O151	O15	0.902130	0.090620	0.587630
O161	O16	0.901310	0.088530	0.749530
O171	O17	0.585060	0.508800	0.632970
O181	O18	0.924600	0.993790	0.873880
O191	O19	0.411480	0.495580	0.873050
O201	O20	0.586170	0.595090	0.339730
O211	O21	0.130040	0.070650	0.325800
O221	O22	0.640170	0.431860	0.422730
O231	O23	0.641030	0.435990	0.262260
O241	O24	0.090890	0.910180	0.412590
O251	O25	0.095910	0.911230	0.250270
O261	O26	0.413200	0.406670	0.164020
O271	O27	0.418610	0.407000	0.498170
O281	O28	0.869240	0.928900	0.171340
O291	O29	0.865410	0.931870	0.508950
O301	O30	0.368910	0.573250	0.081560
O311	O31	0.366290	0.568180	0.241570
O321	O32	0.908770	0.091700	0.085730
O331	O33	0.905610	0.090020	0.247690
O341	O34	0.578810	0.508200	0.128550
O351	O35	0.916600	0.987230	0.366890
O361	O36	0.424030	0.490040	0.372560
O371	O37	0.595070	0.587470	0.000130
O381	O38	0.133110	0.066530	0.987780
O391	O39	0.088210	0.008440	0.630460
O401	O40	0.081470	0.007830	0.128200
