data_EFESOZ_freeONLY_PM
_symmetry_space_group_name_H-M	'P1'
_cell_length_a	25.122000
_cell_length_b	25.122000
_cell_length_c	23.412000
_cell_angle_alpha	90.000000
_cell_angle_beta	90.000000
_cell_angle_gamma	90.000000
_symmetry_Int_Tables_number 1

loop_
_symmetry_equiv_pos_as_xyz
'x,y,z'

loop_
_atom_site_label
_atom_site_type_symbol
_atom_site_fract_x
_atom_site_fract_y
_atom_site_fract_z
C11	C1	0.598000	0.150000	0.120000
C21	C2	0.610000	0.198000	0.154000
C31	C3	0.578000	0.224000	0.185000
H11	H1	0.544000	0.209800	0.190000
C41	C4	0.734600	0.465800	0.176300
H21	H2	0.706100	0.466800	0.148400
H31	H3	0.755700	0.433900	0.170900
C51	C5	0.770200	0.518800	0.174900
H41	H4	0.784300	0.528000	0.212200
H51	H5	0.798800	0.516800	0.147200
C61	C6	0.751000	0.601000	0.143000
H61	H6	0.749000	0.604100	0.102100
H71	H7	0.788900	0.599200	0.152600
C71	C7	0.732000	0.650000	0.166000
H81	H8	0.696500	0.655100	0.151900
H91	H9	0.754300	0.678100	0.151000
C81	C8	0.704000	0.655000	0.401000
H101	H10	0.666200	0.650900	0.410100
H111	H11	0.715600	0.689700	0.414800
C91	C9	0.740000	0.607000	0.427000
H121	H12	0.773900	0.603600	0.407700
H131	H13	0.745200	0.610100	0.467700
C101	C10	0.730000	0.514000	0.424000
H141	H14	0.735800	0.510900	0.464700
H151	H15	0.764800	0.515300	0.405100
C111	C11	0.699000	0.471000	0.402000
H161	H16	0.711700	0.437200	0.417000
H171	H17	0.661700	0.475000	0.413900
C121	C12	0.645000	0.824000	0.207000
C131	C13	0.594000	0.830000	0.192000
H181	H18	0.568200	0.806100	0.205200
C141	C14	0.580000	0.874000	0.156000
H191	H19	0.545400	0.877400	0.143200
C151	C15	0.615000	0.910000	0.140000
C161	C16	0.664000	0.907000	0.158000
H201	H20	0.686800	0.934400	0.149300
C171	C17	0.685000	0.862000	0.192000
H211	H21	0.720400	0.858600	0.201900
C181	C18	0.599000	0.959000	0.106000
C191	C19	0.499400	0.192500	0.011700
H221	H22	0.518900	0.184200	0.044300
C201	C20	0.440100	0.238300	0.069100
H231	H23	0.417600	0.269000	0.072100
H241	H24	0.466600	0.239400	0.098700
H251	H25	0.419100	0.206700	0.073100
C211	C21	0.436500	0.258200	0.960600
H261	H26	0.460200	0.255500	0.928500
H271	H27	0.426100	0.294700	0.965700
H281	H28	0.405500	0.236800	0.953800
C221	C22	0.551000	0.099000	0.831000
H291	H29	0.587100	0.103300	0.840000
C231	C23	0.485400	0.093700	0.760200
H301	H30	0.480300	0.080100	0.722300
H311	H31	0.478800	0.131300	0.760500
H321	H32	0.461200	0.076400	0.785900
C241	C24	0.573000	0.070000	0.731000
H331	H33	0.551900	0.058700	0.699100
H341	H34	0.596000	0.040900	0.742400
H351	H35	0.594300	0.099900	0.720500
N11	N1	0.465400	0.238200	0.015300
N21	N2	0.539000	0.084000	0.778000
O11	O1	0.634000	0.122000	0.100000
O21	O2	0.548000	0.138000	0.118000
O31	O3	0.716000	0.470000	0.231000
O41	O4	0.729000	0.553000	0.158000
O51	O5	0.731000	0.654000	0.226000
O61	O6	0.712000	0.651000	0.342000
O71	O7	0.702000	0.560000	0.412000
O81	O8	0.703000	0.472000	0.341000
O91	O9	0.563000	0.166000	0.490000
O101	O10	0.621000	0.116000	0.444000
O111	O11	0.545600	0.960000	0.465000
O121	O12	0.477000	0.927000	0.422000
O131	O13	0.633000	0.991000	0.092000
O141	O14	0.549000	0.962000	0.093400
O151	O15	0.505400	0.164300	0.971900
O161	O16	0.517000	0.106000	0.868000
C251	C25	0.661000	0.220000	0.152000
H361	H36	0.688200	0.201900	0.131900
C261	C26	0.672000	0.268000	0.179000
H371	H37	0.704000	0.284200	0.171800
C271	C27	0.640000	0.291000	0.213000
C281	C28	0.591000	0.273000	0.214000
H381	H38	0.564300	0.291400	0.233500
C291	C29	0.656000	0.338000	0.248000
C301	C30	0.678000	0.382000	0.224000
H391	H39	0.684400	0.381700	0.185100
C311	C31	0.692000	0.425000	0.252000
C321	C32	0.685000	0.425000	0.313000
C331	C33	0.661000	0.385000	0.341000
H401	H40	0.654100	0.387700	0.379700
C341	C34	0.645000	0.338000	0.309000
C351	C35	0.633000	0.291000	0.342000
C361	C36	0.592000	0.293000	0.381000
H411	H41	0.571200	0.322900	0.384900
C371	C37	0.583000	0.249000	0.413000
H421	H42	0.556000	0.251000	0.440600
C381	C38	0.607000	0.205000	0.410000
C391	C39	0.645000	0.201000	0.371000
H431	H43	0.663800	0.169600	0.367400
C401	C40	0.658000	0.244000	0.335000
H441	H44	0.683700	0.239000	0.306700
C411	C41	0.596000	0.157000	0.450000
C421	C42	0.696000	0.691000	0.312000
C431	C43	0.705000	0.693000	0.251000
C441	C44	0.686000	0.733000	0.222000
H451	H45	0.687500	0.729700	0.182800
C451	C45	0.662000	0.781000	0.244000
C461	C46	0.651000	0.778000	0.303000
C471	C47	0.667000	0.735000	0.337000
H461	H46	0.658800	0.734800	0.375300
C481	C48	0.618000	0.820000	0.330000
C491	C49	0.567000	0.817000	0.329000
H471	H47	0.550600	0.792600	0.305800
C501	C50	0.535000	0.852000	0.364000
H481	H48	0.498700	0.846600	0.366400
C511	C51	0.560000	0.894000	0.395000
C521	C52	0.614000	0.897000	0.396000
H491	H49	0.632800	0.919100	0.420500
C531	C53	0.641000	0.861000	0.356000
H501	H50	0.676500	0.868300	0.346900
C541	C54	0.526000	0.929000	0.429000
O171	O17	0.546000	0.065000	0.033000
Zn11	Zn1	0.537500	0.093000	0.951500
Zn21	Zn2	0.619300	0.058200	0.054500
C551	C55	0.402000	0.850000	0.120000
C561	C56	0.390000	0.802000	0.154000
C571	C57	0.422000	0.776000	0.185000
H511	H51	0.456000	0.790200	0.190000
C581	C58	0.265400	0.534200	0.176300
H521	H52	0.293900	0.533200	0.148400
H531	H53	0.244300	0.566100	0.170900
C591	C59	0.229800	0.481200	0.174900
H541	H54	0.215700	0.472000	0.212200
H551	H55	0.201200	0.483200	0.147200
C601	C60	0.249000	0.399000	0.143000
H561	H56	0.251000	0.395900	0.102100
H571	H57	0.211100	0.400800	0.152600
C611	C61	0.268000	0.350000	0.166000
H581	H58	0.303500	0.344900	0.151900
H591	H59	0.245700	0.321900	0.151000
C621	C62	0.296000	0.345000	0.401000
H601	H60	0.333800	0.349100	0.410100
H611	H61	0.284400	0.310300	0.414800
C631	C63	0.260000	0.393000	0.427000
H621	H62	0.226100	0.396400	0.407700
H631	H63	0.254800	0.389900	0.467700
C641	C64	0.270000	0.486000	0.424000
H641	H64	0.264200	0.489100	0.464700
H651	H65	0.235200	0.484700	0.405100
C651	C65	0.301000	0.529000	0.402000
H661	H66	0.288300	0.562800	0.417000
H671	H67	0.338300	0.525000	0.413900
C661	C66	0.355000	0.176000	0.207000
C671	C67	0.406000	0.170000	0.192000
H681	H68	0.431800	0.193900	0.205200
C681	C68	0.420000	0.126000	0.156000
H691	H69	0.454600	0.122600	0.143200
C691	C69	0.385000	0.090000	0.140000
C701	C70	0.336000	0.093000	0.158000
H701	H70	0.313200	0.065600	0.149300
C711	C71	0.315000	0.138000	0.192000
H711	H71	0.279600	0.141400	0.201900
C721	C72	0.401000	0.041000	0.106000
C731	C73	0.500600	0.807500	0.011700
H721	H72	0.481100	0.815800	0.044300
C741	C74	0.559900	0.761700	0.069100
H731	H73	0.582400	0.731000	0.072100
H741	H74	0.533400	0.760600	0.098700
H751	H75	0.580900	0.793300	0.073100
C751	C75	0.563500	0.741800	0.960600
H761	H76	0.539800	0.744500	0.928500
H771	H77	0.573900	0.705300	0.965700
H781	H78	0.594500	0.763200	0.953800
C761	C76	0.449000	0.901000	0.831000
H791	H79	0.412900	0.896700	0.840000
C771	C77	0.514600	0.906300	0.760200
H801	H80	0.519700	0.919900	0.722300
H811	H81	0.521200	0.868700	0.760500
H821	H82	0.538800	0.923600	0.785900
C781	C78	0.427000	0.930000	0.731000
H831	H83	0.448100	0.941300	0.699100
H841	H84	0.404000	0.959100	0.742400
H851	H85	0.405700	0.900100	0.720500
N31	N3	0.534600	0.761800	0.015300
N41	N4	0.461000	0.916000	0.778000
O181	O18	0.366000	0.878000	0.100000
O191	O19	0.452000	0.862000	0.118000
O201	O20	0.284000	0.530000	0.231000
O211	O21	0.271000	0.447000	0.158000
O221	O22	0.269000	0.346000	0.226000
O231	O23	0.288000	0.349000	0.342000
O241	O24	0.298000	0.440000	0.412000
O251	O25	0.297000	0.528000	0.341000
O261	O26	0.437000	0.834000	0.490000
O271	O27	0.379000	0.884000	0.444000
O281	O28	0.454400	0.040000	0.465000
O291	O29	0.523000	0.073000	0.422000
O301	O30	0.367000	0.009000	0.092000
O311	O31	0.451000	0.038000	0.093400
O321	O32	0.494600	0.835700	0.971900
O331	O33	0.483000	0.894000	0.868000
C791	C79	0.339000	0.780000	0.152000
H861	H86	0.311800	0.798100	0.131900
C801	C80	0.328000	0.732000	0.179000
H871	H87	0.296000	0.715800	0.171800
C811	C81	0.360000	0.709000	0.213000
C821	C82	0.409000	0.727000	0.214000
H881	H88	0.435700	0.708600	0.233500
C831	C83	0.344000	0.662000	0.248000
C841	C84	0.322000	0.618000	0.224000
H891	H89	0.315600	0.618300	0.185100
C851	C85	0.308000	0.575000	0.252000
C861	C86	0.315000	0.575000	0.313000
C871	C87	0.339000	0.615000	0.341000
H901	H90	0.345900	0.612300	0.379700
C881	C88	0.355000	0.662000	0.309000
C891	C89	0.367000	0.709000	0.342000
C901	C90	0.408000	0.707000	0.381000
H911	H91	0.428800	0.677100	0.384900
C911	C91	0.417000	0.751000	0.413000
H921	H92	0.444000	0.749000	0.440600
C921	C92	0.393000	0.795000	0.410000
C931	C93	0.355000	0.799000	0.371000
H931	H93	0.336200	0.830400	0.367400
C941	C94	0.342000	0.756000	0.335000
H941	H94	0.316300	0.761000	0.306700
C951	C95	0.404000	0.843000	0.450000
C961	C96	0.304000	0.309000	0.312000
C971	C97	0.295000	0.307000	0.251000
C981	C98	0.314000	0.267000	0.222000
H951	H95	0.312500	0.270300	0.182800
C991	C99	0.338000	0.219000	0.244000
C1001	C100	0.349000	0.222000	0.303000
C1011	C101	0.333000	0.265000	0.337000
H961	H96	0.341200	0.265200	0.375300
C1021	C102	0.382000	0.180000	0.330000
C1031	C103	0.433000	0.183000	0.329000
H971	H97	0.449400	0.207400	0.305800
C1041	C104	0.465000	0.148000	0.364000
H981	H98	0.501300	0.153400	0.366400
C1051	C105	0.440000	0.106000	0.395000
C1061	C106	0.386000	0.103000	0.396000
H991	H99	0.367200	0.080900	0.420500
C1071	C107	0.359000	0.139000	0.356000
H1001	H100	0.323500	0.131700	0.346900
C1081	C108	0.474000	0.071000	0.429000
O341	O34	0.454000	0.935000	0.033000
Zn31	Zn3	0.462500	0.907000	0.951500
Zn41	Zn4	0.380700	0.941800	0.054500
C1091	C109	0.350000	0.902000	0.620000
C1101	C110	0.302000	0.890000	0.654000
C1111	C111	0.276000	0.922000	0.685000
H1011	H101	0.290200	0.956000	0.690000
C1121	C112	0.034200	0.765400	0.676300
H1021	H102	0.033200	0.793900	0.648400
H1031	H103	0.066100	0.744300	0.670900
C1131	C113	0.981200	0.729800	0.674900
H1041	H104	0.972000	0.715700	0.712200
H1051	H105	0.983200	0.701200	0.647200
C1141	C114	0.899000	0.749000	0.643000
H1061	H106	0.895900	0.751000	0.602100
H1071	H107	0.900800	0.711100	0.652600
C1151	C115	0.850000	0.768000	0.666000
H1081	H108	0.844900	0.803500	0.651900
H1091	H109	0.821900	0.745700	0.651000
C1161	C116	0.845000	0.796000	0.901000
H1101	H110	0.849100	0.833800	0.910100
H1111	H111	0.810300	0.784400	0.914800
C1171	C117	0.893000	0.760000	0.927000
H1121	H112	0.896400	0.726100	0.907700
H1131	H113	0.889900	0.754800	0.967700
C1181	C118	0.986000	0.770000	0.924000
H1141	H114	0.989100	0.764200	0.964700
H1151	H115	0.984700	0.735200	0.905100
C1191	C119	0.029000	0.801000	0.902000
H1161	H116	0.062800	0.788300	0.917000
H1171	H117	0.025000	0.838300	0.913900
C1201	C120	0.676000	0.855000	0.707000
C1211	C121	0.670000	0.906000	0.692000
H1181	H118	0.693900	0.931800	0.705200
C1221	C122	0.626000	0.920000	0.656000
H1191	H119	0.622600	0.954600	0.643200
C1231	C123	0.590000	0.885000	0.640000
C1241	C124	0.593000	0.836000	0.658000
H1201	H120	0.565600	0.813200	0.649300
C1251	C125	0.638000	0.815000	0.692000
H1211	H121	0.641400	0.779600	0.701900
C1261	C126	0.541000	0.901000	0.606000
C1271	C127	0.307500	0.000600	0.511700
H1221	H122	0.315800	0.981100	0.544300
C1281	C128	0.261700	0.059900	0.569100
H1231	H123	0.231000	0.082400	0.572100
H1241	H124	0.260600	0.033400	0.598700
H1251	H125	0.293300	0.080900	0.573100
C1291	C129	0.241800	0.063500	0.460600
H1261	H126	0.244500	0.039800	0.428500
H1271	H127	0.205300	0.073900	0.465700
H1281	H128	0.263200	0.094500	0.453800
C1301	C130	0.401000	0.949000	0.331000
H1291	H129	0.396700	0.912900	0.340000
C1311	C131	0.406300	0.014600	0.260200
H1301	H130	0.419900	0.019700	0.222300
H1311	H131	0.368700	0.021200	0.260500
H1321	H132	0.423600	0.038800	0.285900
C1321	C132	0.430000	0.927000	0.231000
H1331	H133	0.441300	0.948100	0.199100
H1341	H134	0.459100	0.904000	0.242400
H1351	H135	0.400100	0.905700	0.220500
N51	N5	0.261800	0.034600	0.515300
N61	N6	0.416000	0.961000	0.278000
O351	O35	0.378000	0.866000	0.600000
O361	O36	0.362000	0.952000	0.618000
O371	O37	0.030000	0.784000	0.731000
O381	O38	0.947000	0.771000	0.658000
O391	O39	0.846000	0.769000	0.726000
O401	O40	0.849000	0.788000	0.842000
O411	O41	0.940000	0.798000	0.912000
O421	O42	0.028000	0.797000	0.841000
O431	O43	0.334000	0.937000	0.990000
O441	O44	0.384000	0.879000	0.944000
O451	O45	0.540000	0.954400	0.965000
O461	O46	0.573000	0.023000	0.922000
O471	O47	0.509000	0.867000	0.592000
O481	O48	0.538000	0.951000	0.593400
O491	O49	0.335700	0.994600	0.471900
O501	O50	0.394000	0.983000	0.368000
C1331	C133	0.280000	0.839000	0.652000
H1361	H136	0.298100	0.811800	0.631900
C1341	C134	0.232000	0.828000	0.679000
H1371	H137	0.215800	0.796000	0.671800
C1351	C135	0.209000	0.860000	0.713000
C1361	C136	0.227000	0.909000	0.714000
H1381	H138	0.208600	0.935700	0.733500
C1371	C137	0.162000	0.844000	0.748000
C1381	C138	0.118000	0.822000	0.724000
H1391	H139	0.118300	0.815600	0.685100
C1391	C139	0.075000	0.808000	0.752000
C1401	C140	0.075000	0.815000	0.813000
C1411	C141	0.115000	0.839000	0.841000
H1401	H140	0.112300	0.845900	0.879700
C1421	C142	0.162000	0.855000	0.809000
C1431	C143	0.209000	0.867000	0.842000
C1441	C144	0.207000	0.908000	0.881000
H1411	H141	0.177100	0.928800	0.884900
C1451	C145	0.251000	0.917000	0.913000
H1421	H142	0.249000	0.944000	0.940600
C1461	C146	0.295000	0.893000	0.910000
C1471	C147	0.299000	0.855000	0.871000
H1431	H143	0.330400	0.836200	0.867400
C1481	C148	0.256000	0.842000	0.835000
H1441	H144	0.261000	0.816300	0.806700
C1491	C149	0.343000	0.904000	0.950000
C1501	C150	0.809000	0.804000	0.812000
C1511	C151	0.807000	0.795000	0.751000
C1521	C152	0.767000	0.814000	0.722000
H1451	H145	0.770300	0.812500	0.682800
C1531	C153	0.719000	0.838000	0.744000
C1541	C154	0.722000	0.849000	0.803000
C1551	C155	0.765000	0.833000	0.837000
H1461	H146	0.765200	0.841200	0.875300
C1561	C156	0.680000	0.882000	0.830000
C1571	C157	0.683000	0.933000	0.829000
H1471	H147	0.707400	0.949400	0.805800
C1581	C158	0.648000	0.965000	0.864000
H1481	H148	0.653400	0.001300	0.866400
C1591	C159	0.606000	0.940000	0.895000
C1601	C160	0.603000	0.886000	0.896000
H1491	H149	0.580900	0.867200	0.920500
C1611	C161	0.639000	0.859000	0.856000
H1501	H150	0.631700	0.823500	0.846900
C1621	C162	0.571000	0.974000	0.929000
O511	O51	0.435000	0.954000	0.533000
Zn51	Zn5	0.407000	0.962500	0.451500
Zn61	Zn6	0.441800	0.880700	0.554500
C1631	C163	0.650000	0.098000	0.620000
C1641	C164	0.698000	0.110000	0.654000
C1651	C165	0.724000	0.078000	0.685000
H1511	H151	0.709800	0.044000	0.690000
C1661	C166	0.965800	0.234600	0.676300
H1521	H152	0.966800	0.206100	0.648400
H1531	H153	0.933900	0.255700	0.670900
C1671	C167	0.018800	0.270200	0.674900
H1541	H154	0.028000	0.284300	0.712200
H1551	H155	0.016800	0.298800	0.647200
C1681	C168	0.101000	0.251000	0.643000
H1561	H156	0.104100	0.249000	0.602100
H1571	H157	0.099200	0.288900	0.652600
C1691	C169	0.150000	0.232000	0.666000
H1581	H158	0.155100	0.196500	0.651900
H1591	H159	0.178100	0.254300	0.651000
C1701	C170	0.155000	0.204000	0.901000
H1601	H160	0.150900	0.166200	0.910100
H1611	H161	0.189700	0.215600	0.914800
C1711	C171	0.107000	0.240000	0.927000
H1621	H162	0.103600	0.273900	0.907700
H1631	H163	0.110100	0.245200	0.967700
C1721	C172	0.014000	0.230000	0.924000
H1641	H164	0.010900	0.235800	0.964700
H1651	H165	0.015300	0.264800	0.905100
C1731	C173	0.971000	0.199000	0.902000
H1661	H166	0.937200	0.211700	0.917000
H1671	H167	0.975000	0.161700	0.913900
C1741	C174	0.324000	0.145000	0.707000
C1751	C175	0.330000	0.094000	0.692000
H1681	H168	0.306100	0.068200	0.705200
C1761	C176	0.374000	0.080000	0.656000
H1691	H169	0.377400	0.045400	0.643200
C1771	C177	0.410000	0.115000	0.640000
C1781	C178	0.407000	0.164000	0.658000
H1701	H170	0.434400	0.186800	0.649300
C1791	C179	0.362000	0.185000	0.692000
H1711	H171	0.358600	0.220400	0.701900
C1801	C180	0.459000	0.099000	0.606000
C1811	C181	0.692500	0.999400	0.511700
H1721	H172	0.684200	0.018900	0.544300
C1821	C182	0.738300	0.940100	0.569100
H1731	H173	0.769000	0.917600	0.572100
H1741	H174	0.739400	0.966600	0.598700
H1751	H175	0.706700	0.919100	0.573100
C1831	C183	0.758200	0.936500	0.460600
H1761	H176	0.755500	0.960200	0.428500
H1771	H177	0.794700	0.926100	0.465700
H1781	H178	0.736800	0.905500	0.453800
C1841	C184	0.599000	0.051000	0.331000
H1791	H179	0.603300	0.087100	0.340000
C1851	C185	0.593700	0.985400	0.260200
H1801	H180	0.580100	0.980300	0.222300
H1811	H181	0.631300	0.978800	0.260500
H1821	H182	0.576400	0.961200	0.285900
C1861	C186	0.570000	0.073000	0.231000
H1831	H183	0.558700	0.051900	0.199100
H1841	H184	0.540900	0.096000	0.242400
H1851	H185	0.599900	0.094300	0.220500
N71	N7	0.738200	0.965400	0.515300
N81	N8	0.584000	0.039000	0.278000
O521	O52	0.622000	0.134000	0.600000
O531	O53	0.638000	0.048000	0.618000
O541	O54	0.970000	0.216000	0.731000
O551	O55	0.053000	0.229000	0.658000
O561	O56	0.154000	0.231000	0.726000
O571	O57	0.151000	0.212000	0.842000
O581	O58	0.060000	0.202000	0.912000
O591	O59	0.972000	0.203000	0.841000
O601	O60	0.666000	0.063000	0.990000
O611	O61	0.616000	0.121000	0.944000
O621	O62	0.460000	0.045600	0.965000
O631	O63	0.427000	0.977000	0.922000
O641	O64	0.491000	0.133000	0.592000
O651	O65	0.462000	0.049000	0.593400
O661	O66	0.664300	0.005400	0.471900
O671	O67	0.606000	0.017000	0.368000
C1871	C187	0.720000	0.161000	0.652000
H1861	H186	0.701900	0.188200	0.631900
C1881	C188	0.768000	0.172000	0.679000
H1871	H187	0.784200	0.204000	0.671800
C1891	C189	0.791000	0.140000	0.713000
C1901	C190	0.773000	0.091000	0.714000
H1881	H188	0.791400	0.064300	0.733500
C1911	C191	0.838000	0.156000	0.748000
C1921	C192	0.882000	0.178000	0.724000
H1891	H189	0.881700	0.184400	0.685100
C1931	C193	0.925000	0.192000	0.752000
C1941	C194	0.925000	0.185000	0.813000
C1951	C195	0.885000	0.161000	0.841000
H1901	H190	0.887700	0.154100	0.879700
C1961	C196	0.838000	0.145000	0.809000
C1971	C197	0.791000	0.133000	0.842000
C1981	C198	0.793000	0.092000	0.881000
H1911	H191	0.822900	0.071200	0.884900
C1991	C199	0.749000	0.083000	0.913000
H1921	H192	0.751000	0.056000	0.940600
C2001	C200	0.705000	0.107000	0.910000
C2011	C201	0.701000	0.145000	0.871000
H1931	H193	0.669600	0.163800	0.867400
C2021	C202	0.744000	0.158000	0.835000
H1941	H194	0.739000	0.183700	0.806700
C2031	C203	0.657000	0.096000	0.950000
C2041	C204	0.191000	0.196000	0.812000
C2051	C205	0.193000	0.205000	0.751000
C2061	C206	0.233000	0.186000	0.722000
H1951	H195	0.229700	0.187500	0.682800
C2071	C207	0.281000	0.162000	0.744000
C2081	C208	0.278000	0.151000	0.803000
C2091	C209	0.235000	0.167000	0.837000
H1961	H196	0.234800	0.158800	0.875300
C2101	C210	0.320000	0.118000	0.830000
C2111	C211	0.317000	0.067000	0.829000
H1971	H197	0.292600	0.050600	0.805800
C2121	C212	0.352000	0.035000	0.864000
H1981	H198	0.346600	0.998700	0.866400
C2131	C213	0.394000	0.060000	0.895000
C2141	C214	0.397000	0.114000	0.896000
H1991	H199	0.419100	0.132800	0.920500
C2151	C215	0.361000	0.141000	0.856000
H2001	H200	0.368300	0.176500	0.846900
C2161	C216	0.429000	0.026000	0.929000
O681	O68	0.565000	0.046000	0.533000
Zn71	Zn7	0.593000	0.037500	0.451500
Zn81	Zn8	0.558200	0.119300	0.554500
Zn91	Zn9	0.500000	0.000000	0.032500
Zn101	Zn10	0.500000	0.000000	0.532500
C2171	C217	0.150000	0.402000	0.880000
C2181	C218	0.198000	0.390000	0.846000
C2191	C219	0.224000	0.422000	0.815000
H2011	H201	0.209800	0.456000	0.810000
C2201	C220	0.465800	0.265400	0.823700
H2021	H202	0.466800	0.293900	0.851600
H2031	H203	0.433900	0.244300	0.829100
C2211	C221	0.518800	0.229800	0.825100
H2041	H204	0.528000	0.215700	0.787800
H2051	H205	0.516800	0.201200	0.852800
C2221	C222	0.601000	0.249000	0.857000
H2061	H206	0.604100	0.251000	0.897900
H2071	H207	0.599200	0.211100	0.847400
C2231	C223	0.650000	0.268000	0.834000
H2081	H208	0.655100	0.303500	0.848100
H2091	H209	0.678100	0.245700	0.849000
C2241	C224	0.655000	0.296000	0.599000
H2101	H210	0.650900	0.333800	0.589900
H2111	H211	0.689700	0.284400	0.585200
C2251	C225	0.607000	0.260000	0.573000
H2121	H212	0.603600	0.226100	0.592300
H2131	H213	0.610100	0.254800	0.532300
C2261	C226	0.514000	0.270000	0.576000
H2141	H214	0.510900	0.264200	0.535300
H2151	H215	0.515300	0.235200	0.594900
C2271	C227	0.471000	0.301000	0.598000
H2161	H216	0.437200	0.288300	0.583000
H2171	H217	0.475000	0.338300	0.586100
C2281	C228	0.824000	0.355000	0.793000
C2291	C229	0.830000	0.406000	0.808000
H2181	H218	0.806100	0.431800	0.794800
C2301	C230	0.874000	0.420000	0.844000
H2191	H219	0.877400	0.454600	0.856800
C2311	C231	0.910000	0.385000	0.860000
C2321	C232	0.907000	0.336000	0.842000
H2201	H220	0.934400	0.313200	0.850700
C2331	C233	0.862000	0.315000	0.808000
H2211	H221	0.858600	0.279600	0.798100
C2341	C234	0.959000	0.401000	0.894000
C2351	C235	0.192500	0.500600	0.988300
H2221	H222	0.184200	0.481100	0.955700
C2361	C236	0.238300	0.559900	0.930900
H2231	H223	0.269000	0.582400	0.927900
H2241	H224	0.239400	0.533400	0.901300
H2251	H225	0.206700	0.580900	0.926900
C2371	C237	0.258200	0.563500	0.039400
H2261	H226	0.255500	0.539800	0.071500
H2271	H227	0.294700	0.573900	0.034300
H2281	H228	0.236800	0.594500	0.046200
C2381	C238	0.099000	0.449000	0.169000
H2291	H229	0.103300	0.412900	0.160000
C2391	C239	0.093700	0.514600	0.239800
H2301	H230	0.080100	0.519700	0.277700
H2311	H231	0.131300	0.521200	0.239500
H2321	H232	0.076400	0.538800	0.214100
C2401	C240	0.070000	0.427000	0.269000
H2331	H233	0.058700	0.448100	0.300900
H2341	H234	0.040900	0.404000	0.257600
H2351	H235	0.099900	0.405700	0.279500
N91	N9	0.238200	0.534600	0.984700
N101	N10	0.084000	0.461000	0.222000
O691	O69	0.122000	0.366000	0.900000
O701	O70	0.138000	0.452000	0.882000
O711	O71	0.470000	0.284000	0.769000
O721	O72	0.553000	0.271000	0.842000
O731	O73	0.654000	0.269000	0.774000
O741	O74	0.651000	0.288000	0.658000
O751	O75	0.560000	0.298000	0.588000
O761	O76	0.472000	0.297000	0.659000
O771	O77	0.166000	0.437000	0.510000
O781	O78	0.116000	0.379000	0.556000
O791	O79	0.960000	0.454400	0.535000
O801	O80	0.927000	0.523000	0.578000
O811	O81	0.991000	0.367000	0.908000
O821	O82	0.962000	0.451000	0.906600
O831	O83	0.164300	0.494600	0.028100
O841	O84	0.106000	0.483000	0.132000
C2411	C241	0.220000	0.339000	0.848000
H2361	H236	0.201900	0.311800	0.868100
C2421	C242	0.268000	0.328000	0.821000
H2371	H237	0.284200	0.296000	0.828200
C2431	C243	0.291000	0.360000	0.787000
C2441	C244	0.273000	0.409000	0.786000
H2381	H238	0.291400	0.435700	0.766500
C2451	C245	0.338000	0.344000	0.752000
C2461	C246	0.382000	0.322000	0.776000
H2391	H239	0.381700	0.315600	0.814900
C2471	C247	0.425000	0.308000	0.748000
C2481	C248	0.425000	0.315000	0.687000
C2491	C249	0.385000	0.339000	0.659000
H2401	H240	0.387700	0.345900	0.620300
C2501	C250	0.338000	0.355000	0.691000
C2511	C251	0.291000	0.367000	0.658000
C2521	C252	0.293000	0.408000	0.619000
H2411	H241	0.322900	0.428800	0.615100
C2531	C253	0.249000	0.417000	0.587000
H2421	H242	0.251000	0.444000	0.559400
C2541	C254	0.205000	0.393000	0.590000
C2551	C255	0.201000	0.355000	0.629000
H2431	H243	0.169600	0.336200	0.632600
C2561	C256	0.244000	0.342000	0.665000
H2441	H244	0.239000	0.316300	0.693300
C2571	C257	0.157000	0.404000	0.550000
C2581	C258	0.691000	0.304000	0.688000
C2591	C259	0.693000	0.295000	0.749000
C2601	C260	0.733000	0.314000	0.778000
H2451	H245	0.729700	0.312500	0.817200
C2611	C261	0.781000	0.338000	0.756000
C2621	C262	0.778000	0.349000	0.697000
C2631	C263	0.735000	0.333000	0.663000
H2461	H246	0.734800	0.341200	0.624700
C2641	C264	0.820000	0.382000	0.670000
C2651	C265	0.817000	0.433000	0.671000
H2471	H247	0.792600	0.449400	0.694200
C2661	C266	0.852000	0.465000	0.636000
H2481	H248	0.846600	0.501300	0.633600
C2671	C267	0.894000	0.440000	0.605000
C2681	C268	0.897000	0.386000	0.604000
H2491	H249	0.919100	0.367200	0.579500
C2691	C269	0.861000	0.359000	0.644000
H2501	H250	0.868300	0.323500	0.653100
C2701	C270	0.929000	0.474000	0.571000
O851	O85	0.065000	0.454000	0.967000
Zn111	Zn11	0.093000	0.462500	0.048500
Zn121	Zn12	0.058200	0.380700	0.945500
C2711	C271	0.850000	0.598000	0.880000
C2721	C272	0.802000	0.610000	0.846000
C2731	C273	0.776000	0.578000	0.815000
H2511	H251	0.790200	0.544000	0.810000
C2741	C274	0.534200	0.734600	0.823700
H2521	H252	0.533200	0.706100	0.851600
H2531	H253	0.566100	0.755700	0.829100
C2751	C275	0.481200	0.770200	0.825100
H2541	H254	0.472000	0.784300	0.787800
H2551	H255	0.483200	0.798800	0.852800
C2761	C276	0.399000	0.751000	0.857000
H2561	H256	0.395900	0.749000	0.897900
H2571	H257	0.400800	0.788900	0.847400
C2771	C277	0.350000	0.732000	0.834000
H2581	H258	0.344900	0.696500	0.848100
H2591	H259	0.321900	0.754300	0.849000
C2781	C278	0.345000	0.704000	0.599000
H2601	H260	0.349100	0.666200	0.589900
H2611	H261	0.310300	0.715600	0.585200
C2791	C279	0.393000	0.740000	0.573000
H2621	H262	0.396400	0.773900	0.592300
H2631	H263	0.389900	0.745200	0.532300
C2801	C280	0.486000	0.730000	0.576000
H2641	H264	0.489100	0.735800	0.535300
H2651	H265	0.484700	0.764800	0.594900
C2811	C281	0.529000	0.699000	0.598000
H2661	H266	0.562800	0.711700	0.583000
H2671	H267	0.525000	0.661700	0.586100
C2821	C282	0.176000	0.645000	0.793000
C2831	C283	0.170000	0.594000	0.808000
H2681	H268	0.193900	0.568200	0.794800
C2841	C284	0.126000	0.580000	0.844000
H2691	H269	0.122600	0.545400	0.856800
C2851	C285	0.090000	0.615000	0.860000
C2861	C286	0.093000	0.664000	0.842000
H2701	H270	0.065600	0.686800	0.850700
C2871	C287	0.138000	0.685000	0.808000
H2711	H271	0.141400	0.720400	0.798100
C2881	C288	0.041000	0.599000	0.894000
C2891	C289	0.807500	0.499400	0.988300
H2721	H272	0.815800	0.518900	0.955700
C2901	C290	0.761700	0.440100	0.930900
H2731	H273	0.731000	0.417600	0.927900
H2741	H274	0.760600	0.466600	0.901300
H2751	H275	0.793300	0.419100	0.926900
C2911	C291	0.741800	0.436500	0.039400
H2761	H276	0.744500	0.460200	0.071500
H2771	H277	0.705300	0.426100	0.034300
H2781	H278	0.763200	0.405500	0.046200
C2921	C292	0.901000	0.551000	0.169000
H2791	H279	0.896700	0.587100	0.160000
C2931	C293	0.906300	0.485400	0.239800
H2801	H280	0.919900	0.480300	0.277700
H2811	H281	0.868700	0.478800	0.239500
H2821	H282	0.923600	0.461200	0.214100
C2941	C294	0.930000	0.573000	0.269000
H2831	H283	0.941300	0.551900	0.300900
H2841	H284	0.959100	0.596000	0.257600
H2851	H285	0.900100	0.594300	0.279500
N111	N11	0.761800	0.465400	0.984700
N121	N12	0.916000	0.539000	0.222000
O861	O86	0.878000	0.634000	0.900000
O871	O87	0.862000	0.548000	0.882000
O881	O88	0.530000	0.716000	0.769000
O891	O89	0.447000	0.729000	0.842000
O901	O90	0.346000	0.731000	0.774000
O911	O91	0.349000	0.712000	0.658000
O921	O92	0.440000	0.702000	0.588000
O931	O93	0.528000	0.703000	0.659000
O941	O94	0.834000	0.563000	0.510000
O951	O95	0.884000	0.621000	0.556000
O961	O96	0.040000	0.545600	0.535000
O971	O97	0.073000	0.477000	0.578000
O981	O98	0.009000	0.633000	0.908000
O991	O99	0.038000	0.549000	0.906600
O1001	O100	0.835700	0.505400	0.028100
O1011	O101	0.894000	0.517000	0.132000
C2951	C295	0.780000	0.661000	0.848000
H2861	H286	0.798100	0.688200	0.868100
C2961	C296	0.732000	0.672000	0.821000
H2871	H287	0.715800	0.704000	0.828200
C2971	C297	0.709000	0.640000	0.787000
C2981	C298	0.727000	0.591000	0.786000
H2881	H288	0.708600	0.564300	0.766500
C2991	C299	0.662000	0.656000	0.752000
C3001	C300	0.618000	0.678000	0.776000
H2891	H289	0.618300	0.684400	0.814900
C3011	C301	0.575000	0.692000	0.748000
C3021	C302	0.575000	0.685000	0.687000
C3031	C303	0.615000	0.661000	0.659000
H2901	H290	0.612300	0.654100	0.620300
C3041	C304	0.662000	0.645000	0.691000
C3051	C305	0.709000	0.633000	0.658000
C3061	C306	0.707000	0.592000	0.619000
H2911	H291	0.677100	0.571200	0.615100
C3071	C307	0.751000	0.583000	0.587000
H2921	H292	0.749000	0.556000	0.559400
C3081	C308	0.795000	0.607000	0.590000
C3091	C309	0.799000	0.645000	0.629000
H2931	H293	0.830400	0.663800	0.632600
C3101	C310	0.756000	0.658000	0.665000
H2941	H294	0.761000	0.683700	0.693300
C3111	C311	0.843000	0.596000	0.550000
C3121	C312	0.309000	0.696000	0.688000
C3131	C313	0.307000	0.705000	0.749000
C3141	C314	0.267000	0.686000	0.778000
H2951	H295	0.270300	0.687500	0.817200
C3151	C315	0.219000	0.662000	0.756000
C3161	C316	0.222000	0.651000	0.697000
C3171	C317	0.265000	0.667000	0.663000
H2961	H296	0.265200	0.658800	0.624700
C3181	C318	0.180000	0.618000	0.670000
C3191	C319	0.183000	0.567000	0.671000
H2971	H297	0.207400	0.550600	0.694200
C3201	C320	0.148000	0.535000	0.636000
H2981	H298	0.153400	0.498700	0.633600
C3211	C321	0.106000	0.560000	0.605000
C3221	C322	0.103000	0.614000	0.604000
H2991	H299	0.080900	0.632800	0.579500
C3231	C323	0.139000	0.641000	0.644000
H3001	H300	0.131700	0.676500	0.653100
C3241	C324	0.071000	0.526000	0.571000
O1021	O102	0.935000	0.546000	0.967000
Zn131	Zn13	0.907000	0.537500	0.048500
Zn141	Zn14	0.941800	0.619300	0.945500
C3251	C325	0.902000	0.650000	0.380000
C3261	C326	0.890000	0.698000	0.346000
C3271	C327	0.922000	0.724000	0.315000
H3011	H301	0.956000	0.709800	0.310000
C3281	C328	0.765400	0.965800	0.323700
H3021	H302	0.793900	0.966800	0.351600
H3031	H303	0.744300	0.933900	0.329100
C3291	C329	0.729800	0.018800	0.325100
H3041	H304	0.715700	0.028000	0.287800
H3051	H305	0.701200	0.016800	0.352800
C3301	C330	0.749000	0.101000	0.357000
H3061	H306	0.751000	0.104100	0.397900
H3071	H307	0.711100	0.099200	0.347400
C3311	C331	0.768000	0.150000	0.334000
H3081	H308	0.803500	0.155100	0.348100
H3091	H309	0.745700	0.178100	0.349000
C3321	C332	0.796000	0.155000	0.099000
H3101	H310	0.833800	0.150900	0.089900
H3111	H311	0.784400	0.189700	0.085200
C3331	C333	0.760000	0.107000	0.073000
H3121	H312	0.726100	0.103600	0.092300
H3131	H313	0.754800	0.110100	0.032300
C3341	C334	0.770000	0.014000	0.076000
H3141	H314	0.764200	0.010900	0.035300
H3151	H315	0.735200	0.015300	0.094900
C3351	C335	0.801000	0.971000	0.098000
H3161	H316	0.788300	0.937200	0.083000
H3171	H317	0.838300	0.975000	0.086100
C3361	C336	0.855000	0.324000	0.293000
C3371	C337	0.906000	0.330000	0.308000
H3181	H318	0.931800	0.306100	0.294800
C3381	C338	0.920000	0.374000	0.344000
H3191	H319	0.954600	0.377400	0.356800
C3391	C339	0.885000	0.410000	0.360000
C3401	C340	0.836000	0.407000	0.342000
H3201	H320	0.813200	0.434400	0.350700
C3411	C341	0.815000	0.362000	0.308000
H3211	H321	0.779600	0.358600	0.298100
C3421	C342	0.901000	0.459000	0.394000
C3431	C343	0.000600	0.692500	0.488300
H3221	H322	0.981100	0.684200	0.455700
C3441	C344	0.059900	0.738300	0.430900
H3231	H323	0.082400	0.769000	0.427900
H3241	H324	0.033400	0.739400	0.401300
H3251	H325	0.080900	0.706700	0.426900
C3451	C345	0.063500	0.758200	0.539400
H3261	H326	0.039800	0.755500	0.571500
H3271	H327	0.073900	0.794700	0.534300
H3281	H328	0.094500	0.736800	0.546200
C3461	C346	0.949000	0.599000	0.669000
H3291	H329	0.912900	0.603300	0.660000
C3471	C347	0.014600	0.593700	0.739800
H3301	H330	0.019700	0.580100	0.777700
H3311	H331	0.021200	0.631300	0.739500
H3321	H332	0.038800	0.576400	0.714100
C3481	C348	0.927000	0.570000	0.769000
H3331	H333	0.948100	0.558700	0.800900
H3341	H334	0.904000	0.540900	0.757600
H3351	H335	0.905700	0.599900	0.779500
N131	N13	0.034600	0.738200	0.484700
N141	N14	0.961000	0.584000	0.722000
O1031	O103	0.866000	0.622000	0.400000
O1041	O104	0.952000	0.638000	0.382000
O1051	O105	0.784000	0.970000	0.269000
O1061	O106	0.771000	0.053000	0.342000
O1071	O107	0.769000	0.154000	0.274000
O1081	O108	0.788000	0.151000	0.158000
O1091	O109	0.798000	0.060000	0.088000
O1101	O110	0.797000	0.972000	0.159000
O1111	O111	0.937000	0.666000	0.010000
O1121	O112	0.879000	0.616000	0.056000
O1131	O113	0.954400	0.460000	0.035000
O1141	O114	0.023000	0.427000	0.078000
O1151	O115	0.867000	0.491000	0.408000
O1161	O116	0.951000	0.462000	0.406600
O1171	O117	0.994600	0.664300	0.528100
O1181	O118	0.983000	0.606000	0.632000
C3491	C349	0.839000	0.720000	0.348000
H3361	H336	0.811800	0.701900	0.368100
C3501	C350	0.828000	0.768000	0.321000
H3371	H337	0.796000	0.784200	0.328200
C3511	C351	0.860000	0.791000	0.287000
C3521	C352	0.909000	0.773000	0.286000
H3381	H338	0.935700	0.791400	0.266500
C3531	C353	0.844000	0.838000	0.252000
C3541	C354	0.822000	0.882000	0.276000
H3391	H339	0.815600	0.881700	0.314900
C3551	C355	0.808000	0.925000	0.248000
C3561	C356	0.815000	0.925000	0.187000
C3571	C357	0.839000	0.885000	0.159000
H3401	H340	0.845900	0.887700	0.120300
C3581	C358	0.855000	0.838000	0.191000
C3591	C359	0.867000	0.791000	0.158000
C3601	C360	0.908000	0.793000	0.119000
H3411	H341	0.928800	0.822900	0.115100
C3611	C361	0.917000	0.749000	0.087000
H3421	H342	0.944000	0.751000	0.059400
C3621	C362	0.893000	0.705000	0.090000
C3631	C363	0.855000	0.701000	0.129000
H3431	H343	0.836200	0.669600	0.132600
C3641	C364	0.842000	0.744000	0.165000
H3441	H344	0.816300	0.739000	0.193300
C3651	C365	0.904000	0.657000	0.050000
C3661	C366	0.804000	0.191000	0.188000
C3671	C367	0.795000	0.193000	0.249000
C3681	C368	0.814000	0.233000	0.278000
H3451	H345	0.812500	0.229700	0.317200
C3691	C369	0.838000	0.281000	0.256000
C3701	C370	0.849000	0.278000	0.197000
C3711	C371	0.833000	0.235000	0.163000
H3461	H346	0.841200	0.234800	0.124700
C3721	C372	0.882000	0.320000	0.170000
C3731	C373	0.933000	0.317000	0.171000
H3471	H347	0.949400	0.292600	0.194200
C3741	C374	0.965000	0.352000	0.136000
H3481	H348	0.001300	0.346600	0.133600
C3751	C375	0.940000	0.394000	0.105000
C3761	C376	0.886000	0.397000	0.104000
H3491	H349	0.867200	0.419100	0.079500
C3771	C377	0.859000	0.361000	0.144000
H3501	H350	0.823500	0.368300	0.153100
C3781	C378	0.974000	0.429000	0.071000
O1191	O119	0.954000	0.565000	0.467000
Zn151	Zn15	0.962500	0.593000	0.548500
Zn161	Zn16	0.880700	0.558200	0.445500
C3791	C379	0.098000	0.350000	0.380000
C3801	C380	0.110000	0.302000	0.346000
C3811	C381	0.078000	0.276000	0.315000
H3511	H351	0.044000	0.290200	0.310000
C3821	C382	0.234600	0.034200	0.323700
H3521	H352	0.206100	0.033200	0.351600
H3531	H353	0.255700	0.066100	0.329100
C3831	C383	0.270200	0.981200	0.325100
H3541	H354	0.284300	0.972000	0.287800
H3551	H355	0.298800	0.983200	0.352800
C3841	C384	0.251000	0.899000	0.357000
H3561	H356	0.249000	0.895900	0.397900
H3571	H357	0.288900	0.900800	0.347400
C3851	C385	0.232000	0.850000	0.334000
H3581	H358	0.196500	0.844900	0.348100
H3591	H359	0.254300	0.821900	0.349000
C3861	C386	0.204000	0.845000	0.099000
H3601	H360	0.166200	0.849100	0.089900
H3611	H361	0.215600	0.810300	0.085200
C3871	C387	0.240000	0.893000	0.073000
H3621	H362	0.273900	0.896400	0.092300
H3631	H363	0.245200	0.889900	0.032300
C3881	C388	0.230000	0.986000	0.076000
H3641	H364	0.235800	0.989100	0.035300
H3651	H365	0.264800	0.984700	0.094900
C3891	C389	0.199000	0.029000	0.098000
H3661	H366	0.211700	0.062800	0.083000
H3671	H367	0.161700	0.025000	0.086100
C3901	C390	0.145000	0.676000	0.293000
C3911	C391	0.094000	0.670000	0.308000
H3681	H368	0.068200	0.693900	0.294800
C3921	C392	0.080000	0.626000	0.344000
H3691	H369	0.045400	0.622600	0.356800
C3931	C393	0.115000	0.590000	0.360000
C3941	C394	0.164000	0.593000	0.342000
H3701	H370	0.186800	0.565600	0.350700
C3951	C395	0.185000	0.638000	0.308000
H3711	H371	0.220400	0.641400	0.298100
C3961	C396	0.099000	0.541000	0.394000
C3971	C397	0.999400	0.307500	0.488300
H3721	H372	0.018900	0.315800	0.455700
C3981	C398	0.940100	0.261700	0.430900
H3731	H373	0.917600	0.231000	0.427900
H3741	H374	0.966600	0.260600	0.401300
H3751	H375	0.919100	0.293300	0.426900
C3991	C399	0.936500	0.241800	0.539400
H3761	H376	0.960200	0.244500	0.571500
H3771	H377	0.926100	0.205300	0.534300
H3781	H378	0.905500	0.263200	0.546200
C4001	C400	0.051000	0.401000	0.669000
H3791	H379	0.087100	0.396700	0.660000
C4011	C401	0.985400	0.406300	0.739800
H3801	H380	0.980300	0.419900	0.777700
H3811	H381	0.978800	0.368700	0.739500
H3821	H382	0.961200	0.423600	0.714100
C4021	C402	0.073000	0.430000	0.769000
H3831	H383	0.051900	0.441300	0.800900
H3841	H384	0.096000	0.459100	0.757600
H3851	H385	0.094300	0.400100	0.779500
N151	N15	0.965400	0.261800	0.484700
N161	N16	0.039000	0.416000	0.722000
O1201	O120	0.134000	0.378000	0.400000
O1211	O121	0.048000	0.362000	0.382000
O1221	O122	0.216000	0.030000	0.269000
O1231	O123	0.229000	0.947000	0.342000
O1241	O124	0.231000	0.846000	0.274000
O1251	O125	0.212000	0.849000	0.158000
O1261	O126	0.202000	0.940000	0.088000
O1271	O127	0.203000	0.028000	0.159000
O1281	O128	0.063000	0.334000	0.010000
O1291	O129	0.121000	0.384000	0.056000
O1301	O130	0.045600	0.540000	0.035000
O1311	O131	0.977000	0.573000	0.078000
O1321	O132	0.133000	0.509000	0.408000
O1331	O133	0.049000	0.538000	0.406600
O1341	O134	0.005400	0.335700	0.528100
O1351	O135	0.017000	0.394000	0.632000
C4031	C403	0.161000	0.280000	0.348000
H3861	H386	0.188200	0.298100	0.368100
C4041	C404	0.172000	0.232000	0.321000
H3871	H387	0.204000	0.215800	0.328200
C4051	C405	0.140000	0.209000	0.287000
C4061	C406	0.091000	0.227000	0.286000
H3881	H388	0.064300	0.208600	0.266500
C4071	C407	0.156000	0.162000	0.252000
C4081	C408	0.178000	0.118000	0.276000
H3891	H389	0.184400	0.118300	0.314900
C4091	C409	0.192000	0.075000	0.248000
C4101	C410	0.185000	0.075000	0.187000
C4111	C411	0.161000	0.115000	0.159000
H3901	H390	0.154100	0.112300	0.120300
C4121	C412	0.145000	0.162000	0.191000
C4131	C413	0.133000	0.209000	0.158000
C4141	C414	0.092000	0.207000	0.119000
H3911	H391	0.071200	0.177100	0.115100
C4151	C415	0.083000	0.251000	0.087000
H3921	H392	0.056000	0.249000	0.059400
C4161	C416	0.107000	0.295000	0.090000
C4171	C417	0.145000	0.299000	0.129000
H3931	H393	0.163800	0.330400	0.132600
C4181	C418	0.158000	0.256000	0.165000
H3941	H394	0.183700	0.261000	0.193300
C4191	C419	0.096000	0.343000	0.050000
C4201	C420	0.196000	0.809000	0.188000
C4211	C421	0.205000	0.807000	0.249000
C4221	C422	0.186000	0.767000	0.278000
H3951	H395	0.187500	0.770300	0.317200
C4231	C423	0.162000	0.719000	0.256000
C4241	C424	0.151000	0.722000	0.197000
C4251	C425	0.167000	0.765000	0.163000
H3961	H396	0.158800	0.765200	0.124700
C4261	C426	0.118000	0.680000	0.170000
C4271	C427	0.067000	0.683000	0.171000
H3971	H397	0.050600	0.707400	0.194200
C4281	C428	0.035000	0.648000	0.136000
H3981	H398	0.998700	0.653400	0.133600
C4291	C429	0.060000	0.606000	0.105000
C4301	C430	0.114000	0.603000	0.104000
H3991	H399	0.132800	0.580900	0.079500
C4311	C431	0.141000	0.639000	0.144000
H4001	H400	0.176500	0.631700	0.153100
C4321	C432	0.026000	0.571000	0.071000
O1361	O136	0.046000	0.435000	0.467000
Zn171	Zn17	0.037500	0.407000	0.548500
Zn181	Zn18	0.119300	0.441800	0.445500
Zn191	Zn19	0.000000	0.500000	0.967500
Zn201	Zn20	0.000000	0.500000	0.467500
