data_EGAFUP_freeONLY_PM
_symmetry_space_group_name_H-M	'P1'
_cell_length_a	9.140000
_cell_length_b	11.153800
_cell_length_c	11.271600
_cell_angle_alpha	77.261000
_cell_angle_beta	68.453000
_cell_angle_gamma	78.843000
_symmetry_Int_Tables_number 1

loop_
_symmetry_equiv_pos_as_xyz
'x,y,z'

loop_
_atom_site_label
_atom_site_type_symbol
_atom_site_fract_x
_atom_site_fract_y
_atom_site_fract_z
Nd11	Nd1	0.730630	0.017910	0.019350
S11	S1	0.694990	0.119810	0.495230
O11	O1	0.428700	0.072000	0.752800
O21	O2	0.536100	0.207300	0.063100
C11	C1	0.557500	0.072900	0.766500
S21	S2	0.916450	0.736100	0.437420
O31	O3	0.570300	0.046400	0.878100
O41	O4	0.780300	0.132300	0.164000
C21	C2	0.706200	0.101200	0.653400
H11	H1	0.790200	0.035000	0.660400
H21	H2	0.737100	0.176700	0.661500
S31	S3	0.848600	0.553920	0.875400
O51	O5	0.941600	0.896000	0.094000
C31	C3	0.711400	0.958800	0.481600
H31	H3	0.646100	0.914800	0.562200
H41	H4	0.672900	0.953000	0.413800
O61	O6	0.144300	0.817000	0.157800
C41	C4	0.882800	0.898500	0.450600
H51	H5	0.920800	0.908000	0.517500
H61	H6	0.946300	0.943300	0.369700
O71	O7	0.914900	0.903600	0.834500
C51	C5	0.894400	0.742200	0.283400
H71	H7	0.916000	0.658700	0.264100
H81	H8	0.785100	0.772500	0.290700
O81	O8	0.733500	0.795800	0.984500
C61	C6	0.000900	0.823000	0.171800
C71	C7	0.912700	0.513600	0.017900
H91	H9	0.875500	0.581800	0.066400
H101	H10	0.864600	0.441700	0.073400
C81	C8	0.916600	0.699200	0.802800
H111	H11	0.030800	0.688000	0.780700
H121	H12	0.894500	0.724600	0.722400
C91	C9	0.848800	0.805400	0.880500
Nd21	Nd2	0.269370	0.982090	0.980650
S41	S4	0.305010	0.880190	0.504770
O91	O9	0.571300	0.928000	0.247200
O101	O10	0.463900	0.792700	0.936900
C101	C10	0.442500	0.927100	0.233500
S51	S5	0.083550	0.263900	0.562580
O111	O11	0.429700	0.953600	0.121900
O121	O12	0.219700	0.867700	0.836000
C111	C11	0.293800	0.898800	0.346600
H131	H13	0.209800	0.965000	0.339600
H141	H14	0.262900	0.823300	0.338500
S61	S6	0.151400	0.446080	0.124600
O131	O13	0.058400	0.104000	0.906000
C121	C12	0.288600	0.041200	0.518400
H151	H15	0.353900	0.085200	0.437800
H161	H16	0.327100	0.047000	0.586200
O141	O14	0.855700	0.183000	0.842200
C131	C13	0.117200	0.101500	0.549400
H171	H17	0.079200	0.092000	0.482500
H181	H18	0.053700	0.056700	0.630300
O151	O15	0.085100	0.096400	0.165500
C141	C14	0.105600	0.257800	0.716600
H191	H19	0.084000	0.341300	0.735900
H201	H20	0.214900	0.227500	0.709300
O161	O16	0.266500	0.204200	0.015500
C151	C15	0.999100	0.177000	0.828200
C161	C16	0.087300	0.486400	0.982100
H211	H21	0.124500	0.418200	0.933600
H221	H22	0.135400	0.558300	0.926600
C171	C17	0.083400	0.300800	0.197200
H231	H23	0.969200	0.312000	0.219300
H241	H24	0.105500	0.275400	0.277600
C181	C18	0.151200	0.194600	0.119500
