data_EGEHOO_charged_PM
_symmetry_space_group_name_H-M	'P1'
_cell_length_a	29.572000
_cell_length_b	29.572000
_cell_length_c	33.263800
_cell_angle_alpha	63.608200
_cell_angle_beta	63.608200
_cell_angle_gamma	90.000000
_symmetry_Int_Tables_number 1

loop_
_symmetry_equiv_pos_as_xyz
'x,y,z'

loop_
_atom_site_label
_atom_site_type_symbol
_atom_site_fract_x
_atom_site_fract_y
_atom_site_fract_z
In11	In1	0.659660	0.191530	0.396100
In21	In2	0.791030	0.903430	0.699120
In31	In3	0.444240	0.412370	0.396100
In41	In4	0.009850	0.397450	0.699120
In51	In5	0.691530	0.944240	0.896100
In61	In6	0.403430	0.509850	0.199120
In71	In7	0.912370	0.159660	0.896100
In81	In8	0.897450	0.291030	0.199120
In91	In9	0.555760	0.808470	0.603900
In101	In10	0.990150	0.096570	0.300880
In111	In11	0.340340	0.587630	0.603900
In121	In12	0.208970	0.602550	0.300880
In131	In13	0.087630	0.055760	0.103900
In141	In14	0.102550	0.490150	0.800880
In151	In15	0.308470	0.840340	0.103900
In161	In16	0.596570	0.708970	0.800880
In171	In17	0.340340	0.808470	0.603900
In181	In18	0.208970	0.096570	0.300880
In191	In19	0.555760	0.587630	0.603900
In201	In20	0.990150	0.602550	0.300880
In211	In21	0.308470	0.055760	0.103900
In221	In22	0.596570	0.490150	0.800880
In231	In23	0.087630	0.840340	0.103900
In241	In24	0.102550	0.708970	0.800880
In251	In25	0.444240	0.191530	0.396100
In261	In26	0.009850	0.903430	0.699120
In271	In27	0.659660	0.412370	0.396100
In281	In28	0.791030	0.397450	0.699120
In291	In29	0.912370	0.944240	0.896100
In301	In30	0.897450	0.509850	0.199120
In311	In31	0.691530	0.159660	0.896100
In321	In32	0.403430	0.291030	0.199120
In331	In33	0.754760	0.000000	0.500000
In341	In34	0.245240	0.500000	0.500000
In351	In35	0.500000	0.745240	0.000000
In361	In36	0.000000	0.254760	0.000000
In371	In37	0.245240	0.000000	0.500000
In381	In38	0.754760	0.500000	0.500000
In391	In39	0.500000	0.254760	0.000000
In401	In40	0.000000	0.745240	0.000000
H11	H1	0.763500	0.243500	0.267000
H21	H2	0.765800	0.994600	0.602400
H31	H3	0.693800	0.104900	0.487400
H41	H4	0.469500	0.489500	0.267000
H51	H5	0.131800	0.403000	0.602400
H61	H6	0.318800	0.407700	0.487400
H71	H7	0.743500	0.969500	0.767000
H81	H8	0.494600	0.631800	0.102400
H91	H9	0.604900	0.818800	0.987400
H101	H10	0.989500	0.263500	0.767000
H111	H11	0.903000	0.265800	0.102400
H121	H12	0.907700	0.193800	0.987400
H131	H13	0.530500	0.756500	0.733000
H141	H14	0.868200	0.005400	0.397600
H151	H15	0.681200	0.895100	0.512600
H161	H16	0.236500	0.510500	0.733000
H171	H17	0.234200	0.597000	0.397600
H181	H18	0.306200	0.592300	0.512600
H191	H19	0.010500	0.030500	0.233000
H201	H20	0.097000	0.368200	0.897600
H211	H21	0.092300	0.181200	0.012600
H221	H22	0.256500	0.736500	0.233000
H231	H23	0.505400	0.734200	0.897600
H241	H24	0.395100	0.806200	0.012600
H251	H25	0.236500	0.756500	0.733000
H261	H26	0.234200	0.005400	0.397600
H271	H27	0.306200	0.895100	0.512600
H281	H28	0.530500	0.510500	0.733000
H291	H29	0.868200	0.597000	0.397600
H301	H30	0.681200	0.592300	0.512600
H311	H31	0.256500	0.030500	0.233000
H321	H32	0.505400	0.368200	0.897600
H331	H33	0.395100	0.181200	0.012600
H341	H34	0.010500	0.736500	0.233000
H351	H35	0.097000	0.734200	0.897600
H361	H36	0.092300	0.806200	0.012600
H371	H37	0.469500	0.243500	0.267000
H381	H38	0.131800	0.994600	0.602400
H391	H39	0.318800	0.104900	0.487400
H401	H40	0.763500	0.489500	0.267000
H411	H41	0.765800	0.403000	0.602400
H421	H42	0.693800	0.407700	0.487400
H431	H43	0.989500	0.969500	0.767000
H441	H44	0.903000	0.631800	0.102400
H451	H45	0.907700	0.818800	0.987400
H461	H46	0.743500	0.263500	0.767000
H471	H47	0.494600	0.265800	0.102400
H481	H48	0.604900	0.193800	0.987400
H491	H49	0.572400	0.179500	0.355200
H501	H50	0.572400	0.465300	0.355200
H511	H51	0.679500	0.072400	0.855200
H521	H52	0.965300	0.072400	0.855200
H531	H53	0.427600	0.820500	0.644800
H541	H54	0.427600	0.534700	0.644800
H551	H55	0.034700	0.927600	0.144800
H561	H56	0.320500	0.927600	0.144800
H571	H57	0.641300	0.277100	0.445800
H581	H58	0.412900	0.277100	0.445800
H591	H59	0.777100	0.912900	0.945800
H601	H60	0.777100	0.141300	0.945800
H611	H61	0.587100	0.722900	0.554200
H621	H62	0.358700	0.722900	0.554200
H631	H63	0.222900	0.087100	0.054200
H641	H64	0.222900	0.858700	0.054200
H651	H65	0.723700	0.776300	0.750000
H661	H66	0.026300	0.473700	0.750000
H671	H67	0.276300	0.526300	0.250000
H681	H68	0.973700	0.223700	0.250000
H691	H69	0.276300	0.223700	0.250000
H701	H70	0.973700	0.526300	0.250000
H711	H71	0.723700	0.473700	0.750000
H721	H72	0.026300	0.776300	0.750000
H731	H73	0.900300	0.856200	0.699400
H741	H74	0.900300	0.444400	0.699400
H751	H75	0.356200	0.400300	0.199400
H761	H76	0.944400	0.400300	0.199400
H771	H77	0.099700	0.143800	0.300600
H781	H78	0.099700	0.555600	0.300600
H791	H79	0.055600	0.599700	0.800600
H801	H80	0.643800	0.599700	0.800600
C11	C1	0.754600	0.226500	0.409400
C21	C2	0.776900	0.239100	0.355400
C31	C3	0.775100	0.245700	0.288600
C41	C4	0.825800	0.261300	0.313800
C51	C5	0.874900	0.275500	0.310400
C61	C6	0.821700	0.852700	0.628000
C71	C7	0.804000	0.897700	0.604600
C81	C8	0.777200	0.967300	0.596000
C91	C9	0.794800	0.915600	0.565400
C101	C10	0.800500	0.897800	0.528200
C111	C11	0.557100	0.155300	0.501000
C121	C12	0.540500	0.158500	0.464800
C131	C13	0.665200	0.293500	0.299600
C141	C14	0.655700	0.307000	0.339600
C151	C15	0.675900	0.924000	0.724400
C161	C16	0.672600	0.868600	0.738800
C171	C17	0.863900	0.010200	0.656000
C181	C18	0.894200	0.970900	0.665000
C191	C19	0.742000	0.016400	0.405000
C201	C20	0.722000	0.057400	0.417400
C211	C21	0.699300	0.095700	0.462000
C221	C22	0.698900	0.094600	0.398400
C231	C23	0.689000	0.110400	0.355800
C241	C24	0.336000	0.364100	0.409400
C251	C25	0.367700	0.405500	0.355400
C261	C26	0.436300	0.465700	0.288600
C271	C27	0.360400	0.424900	0.313800
C281	C28	0.314700	0.414100	0.310400
C291	C29	0.050300	0.519300	0.628000
C301	C30	0.091400	0.497700	0.604600
C311	C31	0.126800	0.436700	0.596000
C321	C32	0.139800	0.519000	0.565400
C331	C33	0.171300	0.574000	0.528200
C341	C34	0.441900	0.343700	0.501000
C351	C35	0.494700	0.376700	0.464800
C361	C36	0.535200	0.406900	0.299600
C371	C37	0.504700	0.353400	0.339600
C381	C38	0.099700	0.351600	0.724400
C391	C39	0.088600	0.392600	0.738800
C401	C40	0.980100	0.333800	0.656000
C411	C41	0.940800	0.364100	0.665000
C421	C42	0.353000	0.578600	0.405000
C431	C43	0.360600	0.525200	0.417400
C441	C44	0.338700	0.442300	0.462000
C451	C45	0.402700	0.507000	0.398400
C461	C46	0.455200	0.533800	0.355800
C471	C47	0.726500	0.836000	0.909400
C481	C48	0.739100	0.867700	0.855400
C491	C49	0.745700	0.936300	0.788600
C501	C50	0.761300	0.860400	0.813800
C511	C51	0.775500	0.814700	0.810400
C521	C52	0.352700	0.550300	0.128000
C531	C53	0.397700	0.591400	0.104600
C541	C54	0.467300	0.626800	0.096000
C551	C55	0.415600	0.639800	0.065400
C561	C56	0.397800	0.671300	0.028200
C571	C57	0.655300	0.941900	0.001000
C581	C58	0.658500	0.994700	0.964800
C591	C59	0.793500	0.035200	0.799600
C601	C60	0.807000	0.004700	0.839600
C611	C61	0.424000	0.599700	0.224400
C621	C62	0.368600	0.588600	0.238800
C631	C63	0.510200	0.480100	0.156000
C641	C64	0.470900	0.440800	0.165000
C651	C65	0.516400	0.853000	0.905000
C661	C66	0.557400	0.860600	0.917400
C671	C67	0.595700	0.838700	0.962000
C681	C68	0.594600	0.902700	0.898400
C691	C69	0.610400	0.955200	0.855800
C701	C70	0.864100	0.254600	0.909400
C711	C71	0.905500	0.276900	0.855400
C721	C72	0.965700	0.275100	0.788600
C731	C73	0.924900	0.325800	0.813800
C741	C74	0.914100	0.374900	0.810400
C751	C75	0.019300	0.321700	0.128000
C761	C76	0.997700	0.304000	0.104600
C771	C77	0.936700	0.277200	0.096000
C781	C78	0.019000	0.294800	0.065400
C791	C79	0.074000	0.300500	0.028200
C801	C80	0.843700	0.057100	0.001000
C811	C81	0.876700	0.040500	0.964800
C821	C82	0.906900	0.165200	0.799600
C831	C83	0.853400	0.155700	0.839600
C841	C84	0.851600	0.175900	0.224400
C851	C85	0.892600	0.172600	0.238800
C861	C86	0.833800	0.363900	0.156000
C871	C87	0.864100	0.394200	0.165000
C881	C88	0.078600	0.242000	0.905000
C891	C89	0.025200	0.222000	0.917400
C901	C90	0.942300	0.199300	0.962000
C911	C91	0.007000	0.198900	0.898400
C921	C92	0.033800	0.189000	0.855800
C931	C93	0.664000	0.773500	0.590600
C941	C94	0.632300	0.760900	0.644600
C951	C95	0.563700	0.754300	0.711400
C961	C96	0.639600	0.738700	0.686200
C971	C97	0.685300	0.724500	0.689600
C981	C98	0.949700	0.147300	0.372000
C991	C99	0.908600	0.102300	0.395400
C1001	C100	0.873200	0.032700	0.404000
C1011	C101	0.860200	0.084400	0.434600
C1021	C102	0.828700	0.102200	0.471800
C1031	C103	0.558100	0.844700	0.499000
C1041	C104	0.505300	0.841500	0.535200
C1051	C105	0.464800	0.706500	0.700400
C1061	C106	0.495300	0.693000	0.660400
C1071	C107	0.900300	0.076000	0.275600
C1081	C108	0.911400	0.131400	0.261200
C1091	C109	0.019900	0.989800	0.344000
C1101	C110	0.059200	0.029100	0.335000
C1111	C111	0.647000	0.983600	0.595000
C1121	C112	0.639400	0.942600	0.582600
C1131	C113	0.661300	0.904300	0.538000
C1141	C114	0.597300	0.905400	0.601600
C1151	C115	0.544800	0.889600	0.644200
C1161	C116	0.245400	0.635900	0.590600
C1171	C117	0.223100	0.594500	0.644600
C1181	C118	0.224900	0.534300	0.711400
C1191	C119	0.174200	0.575100	0.686200
C1201	C120	0.125100	0.585900	0.689600
C1211	C121	0.178300	0.480700	0.372000
C1221	C122	0.196000	0.502300	0.395400
C1231	C123	0.222800	0.563300	0.404000
C1241	C124	0.205200	0.481000	0.434600
C1251	C125	0.199500	0.426000	0.471800
C1261	C126	0.442900	0.656300	0.499000
C1271	C127	0.459500	0.623300	0.535200
C1281	C128	0.334800	0.593100	0.700400
C1291	C129	0.344300	0.646600	0.660400
C1301	C130	0.324100	0.648400	0.275600
C1311	C131	0.327400	0.607400	0.261200
C1321	C132	0.136100	0.666200	0.344000
C1331	C133	0.105800	0.635900	0.335000
C1341	C134	0.258000	0.421400	0.595000
C1351	C135	0.278000	0.474800	0.582600
C1361	C136	0.300700	0.557700	0.538000
C1371	C137	0.301100	0.493000	0.601600
C1381	C138	0.311000	0.466200	0.644200
C1391	C139	0.135900	0.164000	0.090600
C1401	C140	0.094500	0.132300	0.144600
C1411	C141	0.034300	0.063700	0.211400
C1421	C142	0.075100	0.139600	0.186200
C1431	C143	0.085900	0.185300	0.189600
C1441	C144	0.980700	0.449700	0.872000
C1451	C145	0.002300	0.408600	0.895400
C1461	C146	0.063300	0.373200	0.904000
C1471	C147	0.981000	0.360200	0.934600
C1481	C148	0.926000	0.328700	0.971800
C1491	C149	0.156300	0.058100	0.999000
C1501	C150	0.123300	0.005300	0.035200
C1511	C151	0.093100	0.964800	0.200400
C1521	C152	0.146600	0.995300	0.160400
C1531	C153	0.148400	0.400300	0.775600
C1541	C154	0.107400	0.411400	0.761200
C1551	C155	0.166200	0.519900	0.844000
C1561	C156	0.135900	0.559200	0.835000
C1571	C157	0.921400	0.147000	0.095000
C1581	C158	0.974800	0.139400	0.082600
C1591	C159	0.057700	0.161300	0.038000
C1601	C160	0.993000	0.097300	0.101600
C1611	C161	0.966200	0.044800	0.144200
C1621	C162	0.273500	0.745400	0.090600
C1631	C163	0.260900	0.723100	0.144600
C1641	C164	0.254300	0.724900	0.211400
C1651	C165	0.238700	0.674200	0.186200
C1661	C166	0.224500	0.625100	0.189600
C1671	C167	0.647300	0.678300	0.872000
C1681	C168	0.602300	0.696000	0.895400
C1691	C169	0.532700	0.722800	0.904000
C1701	C170	0.584400	0.705200	0.934600
C1711	C171	0.602200	0.699500	0.971800
C1721	C172	0.344700	0.942900	0.999000
C1731	C173	0.341500	0.959500	0.035200
C1741	C174	0.206500	0.834800	0.200400
C1751	C175	0.193000	0.844300	0.160400
C1761	C176	0.576000	0.824100	0.775600
C1771	C177	0.631400	0.827400	0.761200
C1781	C178	0.489800	0.636100	0.844000
C1791	C179	0.529100	0.605800	0.835000
C1801	C180	0.483600	0.758000	0.095000
C1811	C181	0.442600	0.778000	0.082600
C1821	C182	0.404300	0.800700	0.038000
C1831	C183	0.405400	0.801100	0.101600
C1841	C184	0.389600	0.811000	0.144200
C1851	C185	0.245400	0.773500	0.590600
C1861	C186	0.223100	0.760900	0.644600
C1871	C187	0.224900	0.754300	0.711400
C1881	C188	0.174200	0.738700	0.686200
C1891	C189	0.125100	0.724500	0.689600
C1901	C190	0.178300	0.147300	0.372000
C1911	C191	0.196000	0.102300	0.395400
C1921	C192	0.222800	0.032700	0.404000
C1931	C193	0.205200	0.084400	0.434600
C1941	C194	0.199500	0.102200	0.471800
C1951	C195	0.442900	0.844700	0.499000
C1961	C196	0.459500	0.841500	0.535200
C1971	C197	0.334800	0.706500	0.700400
C1981	C198	0.344300	0.693000	0.660400
C1991	C199	0.324100	0.076000	0.275600
C2001	C200	0.327400	0.131400	0.261200
C2011	C201	0.136100	0.989800	0.344000
C2021	C202	0.105800	0.029100	0.335000
C2031	C203	0.258000	0.983600	0.595000
C2041	C204	0.278000	0.942600	0.582600
C2051	C205	0.300700	0.904300	0.538000
C2061	C206	0.301100	0.905400	0.601600
C2071	C207	0.311000	0.889600	0.644200
C2081	C208	0.664000	0.635900	0.590600
C2091	C209	0.632300	0.594500	0.644600
C2101	C210	0.563700	0.534300	0.711400
C2111	C211	0.639600	0.575100	0.686200
C2121	C212	0.685300	0.585900	0.689600
C2131	C213	0.949700	0.480700	0.372000
C2141	C214	0.908600	0.502300	0.395400
C2151	C215	0.873200	0.563300	0.404000
C2161	C216	0.860200	0.481000	0.434600
C2171	C217	0.828700	0.426000	0.471800
C2181	C218	0.558100	0.656300	0.499000
C2191	C219	0.505300	0.623300	0.535200
C2201	C220	0.464800	0.593100	0.700400
C2211	C221	0.495300	0.646600	0.660400
C2221	C222	0.900300	0.648400	0.275600
C2231	C223	0.911400	0.607400	0.261200
C2241	C224	0.019900	0.666200	0.344000
C2251	C225	0.059200	0.635900	0.335000
C2261	C226	0.647000	0.421400	0.595000
C2271	C227	0.639400	0.474800	0.582600
C2281	C228	0.661300	0.557700	0.538000
C2291	C229	0.597300	0.493000	0.601600
C2301	C230	0.544800	0.466200	0.644200
C2311	C231	0.273500	0.164000	0.090600
C2321	C232	0.260900	0.132300	0.144600
C2331	C233	0.254300	0.063700	0.211400
C2341	C234	0.238700	0.139600	0.186200
C2351	C235	0.224500	0.185300	0.189600
C2361	C236	0.647300	0.449700	0.872000
C2371	C237	0.602300	0.408600	0.895400
C2381	C238	0.532700	0.373200	0.904000
C2391	C239	0.584400	0.360200	0.934600
C2401	C240	0.602200	0.328700	0.971800
C2411	C241	0.344700	0.058100	0.999000
C2421	C242	0.341500	0.005300	0.035200
C2431	C243	0.206500	0.964800	0.200400
C2441	C244	0.193000	0.995300	0.160400
C2451	C245	0.576000	0.400300	0.775600
C2461	C246	0.631400	0.411400	0.761200
C2471	C247	0.489800	0.519900	0.844000
C2481	C248	0.529100	0.559200	0.835000
C2491	C249	0.483600	0.147000	0.095000
C2501	C250	0.442600	0.139400	0.082600
C2511	C251	0.404300	0.161300	0.038000
C2521	C252	0.405400	0.097300	0.101600
C2531	C253	0.389600	0.044800	0.144200
C2541	C254	0.135900	0.745400	0.090600
C2551	C255	0.094500	0.723100	0.144600
C2561	C256	0.034300	0.724900	0.211400
C2571	C257	0.075100	0.674200	0.186200
C2581	C258	0.085900	0.625100	0.189600
C2591	C259	0.980700	0.678300	0.872000
C2601	C260	0.002300	0.696000	0.895400
C2611	C261	0.063300	0.722800	0.904000
C2621	C262	0.981000	0.705200	0.934600
C2631	C263	0.926000	0.699500	0.971800
C2641	C264	0.156300	0.942900	0.999000
C2651	C265	0.123300	0.959500	0.035200
C2661	C266	0.093100	0.834800	0.200400
C2671	C267	0.146600	0.844300	0.160400
C2681	C268	0.148400	0.824100	0.775600
C2691	C269	0.107400	0.827400	0.761200
C2701	C270	0.166200	0.636100	0.844000
C2711	C271	0.135900	0.605800	0.835000
C2721	C272	0.921400	0.758000	0.095000
C2731	C273	0.974800	0.778000	0.082600
C2741	C274	0.057700	0.800700	0.038000
C2751	C275	0.993000	0.801100	0.101600
C2761	C276	0.966200	0.811000	0.144200
C2771	C277	0.336000	0.226500	0.409400
C2781	C278	0.367700	0.239100	0.355400
C2791	C279	0.436300	0.245700	0.288600
C2801	C280	0.360400	0.261300	0.313800
C2811	C281	0.314700	0.275500	0.310400
C2821	C282	0.050300	0.852700	0.628000
C2831	C283	0.091400	0.897700	0.604600
C2841	C284	0.126800	0.967300	0.596000
C2851	C285	0.139800	0.915600	0.565400
C2861	C286	0.171300	0.897800	0.528200
C2871	C287	0.441900	0.155300	0.501000
C2881	C288	0.494700	0.158500	0.464800
C2891	C289	0.535200	0.293500	0.299600
C2901	C290	0.504700	0.307000	0.339600
C2911	C291	0.099700	0.924000	0.724400
C2921	C292	0.088600	0.868600	0.738800
C2931	C293	0.980100	0.010200	0.656000
C2941	C294	0.940800	0.970900	0.665000
C2951	C295	0.353000	0.016400	0.405000
C2961	C296	0.360600	0.057400	0.417400
C2971	C297	0.338700	0.095700	0.462000
C2981	C298	0.402700	0.094600	0.398400
C2991	C299	0.455200	0.110400	0.355800
C3001	C300	0.754600	0.364100	0.409400
C3011	C301	0.776900	0.405500	0.355400
C3021	C302	0.775100	0.465700	0.288600
C3031	C303	0.825800	0.424900	0.313800
C3041	C304	0.874900	0.414100	0.310400
C3051	C305	0.821700	0.519300	0.628000
C3061	C306	0.804000	0.497700	0.604600
C3071	C307	0.777200	0.436700	0.596000
C3081	C308	0.794800	0.519000	0.565400
C3091	C309	0.800500	0.574000	0.528200
C3101	C310	0.557100	0.343700	0.501000
C3111	C311	0.540500	0.376700	0.464800
C3121	C312	0.665200	0.406900	0.299600
C3131	C313	0.655700	0.353400	0.339600
C3141	C314	0.675900	0.351600	0.724400
C3151	C315	0.672600	0.392600	0.738800
C3161	C316	0.863900	0.333800	0.656000
C3171	C317	0.894200	0.364100	0.665000
C3181	C318	0.742000	0.578600	0.405000
C3191	C319	0.722000	0.525200	0.417400
C3201	C320	0.699300	0.442300	0.462000
C3211	C321	0.698900	0.507000	0.398400
C3221	C322	0.689000	0.533800	0.355800
C3231	C323	0.864100	0.836000	0.909400
C3241	C324	0.905500	0.867700	0.855400
C3251	C325	0.965700	0.936300	0.788600
C3261	C326	0.924900	0.860400	0.813800
C3271	C327	0.914100	0.814700	0.810400
C3281	C328	0.019300	0.550300	0.128000
C3291	C329	0.997700	0.591400	0.104600
C3301	C330	0.936700	0.626800	0.096000
C3311	C331	0.019000	0.639800	0.065400
C3321	C332	0.074000	0.671300	0.028200
C3331	C333	0.843700	0.941900	0.001000
C3341	C334	0.876700	0.994700	0.964800
C3351	C335	0.906900	0.035200	0.799600
C3361	C336	0.853400	0.004700	0.839600
C3371	C337	0.851600	0.599700	0.224400
C3381	C338	0.892600	0.588600	0.238800
C3391	C339	0.833800	0.480100	0.156000
C3401	C340	0.864100	0.440800	0.165000
C3411	C341	0.078600	0.853000	0.905000
C3421	C342	0.025200	0.860600	0.917400
C3431	C343	0.942300	0.838700	0.962000
C3441	C344	0.007000	0.902700	0.898400
C3451	C345	0.033800	0.955200	0.855800
C3461	C346	0.726500	0.254600	0.909400
C3471	C347	0.739100	0.276900	0.855400
C3481	C348	0.745700	0.275100	0.788600
C3491	C349	0.761300	0.325800	0.813800
C3501	C350	0.775500	0.374900	0.810400
C3511	C351	0.352700	0.321700	0.128000
C3521	C352	0.397700	0.304000	0.104600
C3531	C353	0.467300	0.277200	0.096000
C3541	C354	0.415600	0.294800	0.065400
C3551	C355	0.397800	0.300500	0.028200
C3561	C356	0.655300	0.057100	0.001000
C3571	C357	0.658500	0.040500	0.964800
C3581	C358	0.793500	0.165200	0.799600
C3591	C359	0.807000	0.155700	0.839600
C3601	C360	0.424000	0.175900	0.224400
C3611	C361	0.368600	0.172600	0.238800
C3621	C362	0.510200	0.363900	0.156000
C3631	C363	0.470900	0.394200	0.165000
C3641	C364	0.516400	0.242000	0.905000
C3651	C365	0.557400	0.222000	0.917400
C3661	C366	0.595700	0.199300	0.962000
C3671	C367	0.594600	0.198900	0.898400
C3681	C368	0.610400	0.189000	0.855800
C3691	C369	0.554900	0.171700	0.390200
C3701	C370	0.554900	0.438100	0.390200
C3711	C371	0.671700	0.054900	0.890200
C3721	C372	0.938100	0.054900	0.890200
C3731	C373	0.445100	0.828300	0.609800
C3741	C374	0.445100	0.561900	0.609800
C3751	C375	0.061900	0.945100	0.109800
C3761	C376	0.328300	0.945100	0.109800
C3771	C377	0.644300	0.293700	0.412600
C3781	C378	0.443100	0.293700	0.412600
C3791	C379	0.793700	0.943100	0.912600
C3801	C380	0.793700	0.144300	0.912600
C3811	C381	0.556900	0.706300	0.587400
C3821	C382	0.355700	0.706300	0.587400
C3831	C383	0.206300	0.056900	0.087400
C3841	C384	0.206300	0.855700	0.087400
C3851	C385	0.700900	0.799100	0.750000
C3861	C386	0.049100	0.450900	0.750000
C3871	C387	0.299100	0.549100	0.250000
C3881	C388	0.950900	0.200900	0.250000
C3891	C389	0.299100	0.200900	0.250000
C3901	C390	0.950900	0.549100	0.250000
C3911	C391	0.700900	0.450900	0.750000
C3921	C392	0.049100	0.799100	0.750000
C3931	C393	0.905900	0.892400	0.688200
C3941	C394	0.905900	0.419400	0.688200
C3951	C395	0.392400	0.405900	0.188200
C3961	C396	0.919400	0.405900	0.188200
C3971	C397	0.094100	0.107600	0.311800
C3981	C398	0.094100	0.580600	0.311800
C3991	C399	0.080600	0.594100	0.811800
C4001	C400	0.607600	0.594100	0.811800
N11	N1	0.743400	0.230200	0.338400
N21	N2	0.824010	0.264310	0.272180
N31	N3	0.794400	0.931300	0.624000
N41	N4	0.777470	0.961070	0.558860
N51	N5	0.578570	0.165370	0.418460
N61	N6	0.646740	0.268640	0.386920
N71	N7	0.717110	0.849510	0.732980
N81	N8	0.872140	0.920540	0.679520
N91	N9	0.722310	0.058310	0.457780
N101	N10	0.685100	0.119100	0.426400
N111	N11	0.418200	0.431400	0.338400
N121	N12	0.403810	0.463510	0.272180
N131	N13	0.081600	0.444700	0.624000
N141	N14	0.163670	0.480070	0.558860
N151	N15	0.502970	0.416170	0.418460
N161	N16	0.466340	0.344440	0.386920
N171	N17	0.049910	0.417510	0.732980
N181	N18	0.948340	0.399940	0.679520
N191	N19	0.319910	0.483910	0.457780
N201	N20	0.388500	0.454500	0.426400
N211	N21	0.730200	0.918200	0.838400
N221	N22	0.764310	0.903810	0.772180
N231	N23	0.431300	0.581600	0.124000
N241	N24	0.461070	0.663670	0.058860
N251	N25	0.665370	0.002970	0.918460
N261	N26	0.768640	0.966340	0.886920
N271	N27	0.349510	0.549910	0.232980
N281	N28	0.420540	0.448340	0.179520
N291	N29	0.558310	0.819910	0.957780
N301	N30	0.619100	0.888500	0.926400
N311	N31	0.931400	0.243400	0.838400
N321	N32	0.963510	0.324010	0.772180
N331	N33	0.944700	0.294400	0.124000
N341	N34	0.980070	0.277470	0.058860
N351	N35	0.916170	0.078570	0.918460
N361	N36	0.844440	0.146740	0.886920
N371	N37	0.917510	0.217110	0.232980
N381	N38	0.899940	0.372140	0.179520
N391	N39	0.983910	0.222310	0.957780
N401	N40	0.954500	0.185100	0.926400
N411	N41	0.581800	0.769800	0.661600
N421	N42	0.596190	0.735690	0.727820
N431	N43	0.918400	0.068700	0.376000
N441	N44	0.836330	0.038930	0.441140
N451	N45	0.497030	0.834630	0.581540
N461	N46	0.533660	0.731360	0.613080
N471	N47	0.950090	0.150490	0.267020
N481	N48	0.051660	0.079460	0.320480
N491	N49	0.680090	0.941690	0.542220
N501	N50	0.611500	0.880900	0.573600
N511	N51	0.256600	0.568600	0.661600
N521	N52	0.175990	0.536490	0.727820
N531	N53	0.205600	0.555300	0.376000
N541	N54	0.222530	0.519930	0.441140
N551	N55	0.421430	0.583830	0.581540
N561	N56	0.353260	0.655560	0.613080
N571	N57	0.282890	0.582490	0.267020
N581	N58	0.127860	0.600060	0.320480
N591	N59	0.277690	0.516090	0.542220
N601	N60	0.314900	0.545500	0.573600
N611	N61	0.068600	0.081800	0.161600
N621	N62	0.036490	0.096190	0.227820
N631	N63	0.055300	0.418400	0.876000
N641	N64	0.019930	0.336330	0.941140
N651	N65	0.083830	0.997030	0.081540
N661	N66	0.155560	0.033660	0.113080
N671	N67	0.082490	0.450090	0.767020
N681	N68	0.100060	0.551660	0.820480
N691	N69	0.016090	0.180090	0.042220
N701	N70	0.045500	0.111500	0.073600
N711	N71	0.269800	0.756600	0.161600
N721	N72	0.235690	0.675990	0.227820
N731	N73	0.568700	0.705600	0.876000
N741	N74	0.538930	0.722530	0.941140
N751	N75	0.334630	0.921430	0.081540
N761	N76	0.231360	0.853260	0.113080
N771	N77	0.650490	0.782890	0.767020
N781	N78	0.579460	0.627860	0.820480
N791	N79	0.441690	0.777690	0.042220
N801	N80	0.380900	0.814900	0.073600
N811	N81	0.256600	0.769800	0.661600
N821	N82	0.175990	0.735690	0.727820
N831	N83	0.205600	0.068700	0.376000
N841	N84	0.222530	0.038930	0.441140
N851	N85	0.421430	0.834630	0.581540
N861	N86	0.353260	0.731360	0.613080
N871	N87	0.282890	0.150490	0.267020
N881	N88	0.127860	0.079460	0.320480
N891	N89	0.277690	0.941690	0.542220
N901	N90	0.314900	0.880900	0.573600
N911	N91	0.581800	0.568600	0.661600
N921	N92	0.596190	0.536490	0.727820
N931	N93	0.918400	0.555300	0.376000
N941	N94	0.836330	0.519930	0.441140
N951	N95	0.497030	0.583830	0.581540
N961	N96	0.533660	0.655560	0.613080
N971	N97	0.950090	0.582490	0.267020
N981	N98	0.051660	0.600060	0.320480
N991	N99	0.680090	0.516090	0.542220
N1001	N100	0.611500	0.545500	0.573600
N1011	N101	0.269800	0.081800	0.161600
N1021	N102	0.235690	0.096190	0.227820
N1031	N103	0.568700	0.418400	0.876000
N1041	N104	0.538930	0.336330	0.941140
N1051	N105	0.334630	0.997030	0.081540
N1061	N106	0.231360	0.033660	0.113080
N1071	N107	0.650490	0.450090	0.767020
N1081	N108	0.579460	0.551660	0.820480
N1091	N109	0.441690	0.180090	0.042220
N1101	N110	0.380900	0.111500	0.073600
N1111	N111	0.068600	0.756600	0.161600
N1121	N112	0.036490	0.675990	0.227820
N1131	N113	0.055300	0.705600	0.876000
N1141	N114	0.019930	0.722530	0.941140
N1151	N115	0.083830	0.921430	0.081540
N1161	N116	0.155560	0.853260	0.113080
N1171	N117	0.082490	0.782890	0.767020
N1181	N118	0.100060	0.627860	0.820480
N1191	N119	0.016090	0.777690	0.042220
N1201	N120	0.045500	0.814900	0.073600
N1211	N121	0.418200	0.230200	0.338400
N1221	N122	0.403810	0.264310	0.272180
N1231	N123	0.081600	0.931300	0.624000
N1241	N124	0.163670	0.961070	0.558860
N1251	N125	0.502970	0.165370	0.418460
N1261	N126	0.466340	0.268640	0.386920
N1271	N127	0.049910	0.849510	0.732980
N1281	N128	0.948340	0.920540	0.679520
N1291	N129	0.319910	0.058310	0.457780
N1301	N130	0.388500	0.119100	0.426400
N1311	N131	0.743400	0.431400	0.338400
N1321	N132	0.824010	0.463510	0.272180
N1331	N133	0.794400	0.444700	0.624000
N1341	N134	0.777470	0.480070	0.558860
N1351	N135	0.578570	0.416170	0.418460
N1361	N136	0.646740	0.344440	0.386920
N1371	N137	0.717110	0.417510	0.732980
N1381	N138	0.872140	0.399940	0.679520
N1391	N139	0.722310	0.483910	0.457780
N1401	N140	0.685100	0.454500	0.426400
N1411	N141	0.931400	0.918200	0.838400
N1421	N142	0.963510	0.903810	0.772180
N1431	N143	0.944700	0.581600	0.124000
N1441	N144	0.980070	0.663670	0.058860
N1451	N145	0.916170	0.002970	0.918460
N1461	N146	0.844440	0.966340	0.886920
N1471	N147	0.917510	0.549910	0.232980
N1481	N148	0.899940	0.448340	0.179520
N1491	N149	0.983910	0.819910	0.957780
N1501	N150	0.954500	0.888500	0.926400
N1511	N151	0.730200	0.243400	0.838400
N1521	N152	0.764310	0.324010	0.772180
N1531	N153	0.431300	0.294400	0.124000
N1541	N154	0.461070	0.277470	0.058860
N1551	N155	0.665370	0.078570	0.918460
N1561	N156	0.768640	0.146740	0.886920
N1571	N157	0.349510	0.217110	0.232980
N1581	N158	0.420540	0.372140	0.179520
N1591	N159	0.558310	0.222310	0.957780
N1601	N160	0.619100	0.185100	0.926400
O11	O1	0.705320	0.208820	0.439560
O21	O2	0.785500	0.234500	0.424800
O31	O3	0.915030	0.294930	0.266140
O41	O4	0.874730	0.270630	0.350740
O51	O5	0.824400	0.843600	0.667200
O61	O6	0.831800	0.822600	0.608400
O71	O7	0.787640	0.923640	0.495320
O81	O8	0.817200	0.856400	0.534000
O91	O9	0.604350	0.163350	0.487100
O101	O10	0.521000	0.146800	0.546000
O111	O11	0.662510	0.248410	0.309780
O121	O12	0.675030	0.330930	0.255140
O131	O13	0.719670	0.951570	0.705860
O141	O14	0.633500	0.938100	0.732200
O151	O15	0.821140	0.997740	0.661720
O161	O16	0.887420	0.056220	0.640560
O171	O17	0.760050	0.986850	0.429900
O181	O18	0.739900	0.016500	0.366400
O191	O19	0.671120	0.149820	0.343360
O201	O20	0.701200	0.086900	0.329800
O211	O21	0.355120	0.351620	0.439560
O221	O22	0.289700	0.340700	0.424800
O231	O23	0.318830	0.438930	0.266140
O241	O24	0.274530	0.378630	0.350740
O251	O25	0.008400	0.489200	0.667200
O261	O26	0.059800	0.569000	0.608400
O271	O27	0.217040	0.581040	0.495320
O281	O28	0.148800	0.609600	0.534000
O291	O29	0.408550	0.349550	0.487100
O301	O30	0.433000	0.307200	0.546000
O311	O31	0.527710	0.441810	0.309780
O321	O32	0.569830	0.413930	0.255140
O331	O33	0.074470	0.342570	0.705860
O341	O34	0.134300	0.329700	0.732200
O351	O35	0.017140	0.340540	0.661720
O361	O36	0.972020	0.303220	0.640560
O371	O37	0.310050	0.583250	0.429900
O381	O38	0.393700	0.617100	0.366400
O391	O39	0.485520	0.506820	0.343360
O401	O40	0.469000	0.583300	0.329800
O411	O41	0.708820	0.855120	0.939560
O421	O42	0.734500	0.789700	0.924800
O431	O43	0.794930	0.818830	0.766140
O441	O44	0.770630	0.774530	0.850740
O451	O45	0.343600	0.508400	0.167200
O461	O46	0.322600	0.559800	0.108400
O471	O47	0.423640	0.717040	0.995320
O481	O48	0.356400	0.648800	0.034000
O491	O49	0.663350	0.908550	0.987100
O501	O50	0.646800	0.933000	0.046000
O511	O51	0.748410	0.027710	0.809780
O521	O52	0.830930	0.069830	0.755140
O531	O53	0.451570	0.574470	0.205860
O541	O54	0.438100	0.634300	0.232200
O551	O55	0.497740	0.517140	0.161720
O561	O56	0.556220	0.472020	0.140560
O571	O57	0.486850	0.810050	0.929900
O581	O58	0.516500	0.893700	0.866400
O591	O59	0.649820	0.985520	0.843360
O601	O60	0.586900	0.969000	0.829800
O611	O61	0.851620	0.205320	0.939560
O621	O62	0.840700	0.285500	0.924800
O631	O63	0.938930	0.415030	0.766140
O641	O64	0.878630	0.374730	0.850740
O651	O65	0.989200	0.324400	0.167200
O661	O66	0.069000	0.331800	0.108400
O671	O67	0.081040	0.287640	0.995320
O681	O68	0.109600	0.317200	0.034000
O691	O69	0.849550	0.104350	0.987100
O701	O70	0.807200	0.021000	0.046000
O711	O71	0.941810	0.162510	0.809780
O721	O72	0.913930	0.175030	0.755140
O731	O73	0.842570	0.219670	0.205860
O741	O74	0.829700	0.133500	0.232200
O751	O75	0.840540	0.321140	0.161720
O761	O76	0.803220	0.387420	0.140560
O771	O77	0.083250	0.260050	0.929900
O781	O78	0.117100	0.239900	0.866400
O791	O79	0.006820	0.171120	0.843360
O801	O80	0.083300	0.201200	0.829800
O811	O81	0.644880	0.791180	0.560440
O821	O82	0.710300	0.765500	0.575200
O831	O83	0.681170	0.705070	0.733860
O841	O84	0.725470	0.729370	0.649260
O851	O85	0.991600	0.156400	0.332800
O861	O86	0.940200	0.177400	0.391600
O871	O87	0.782960	0.076360	0.504680
O881	O88	0.851200	0.143600	0.466000
O891	O89	0.591450	0.836650	0.512900
O901	O90	0.567000	0.853200	0.454000
O911	O91	0.472290	0.751590	0.690220
O921	O92	0.430170	0.669070	0.744860
O931	O93	0.925530	0.048430	0.294140
O941	O94	0.865700	0.061900	0.267800
O951	O95	0.982860	0.002260	0.338280
O961	O96	0.027980	0.943780	0.359440
O971	O97	0.689950	0.013150	0.570100
O981	O98	0.606300	0.983500	0.633600
O991	O99	0.514480	0.850180	0.656640
O1001	O100	0.531000	0.913100	0.670200
O1011	O101	0.294680	0.648380	0.560440
O1021	O102	0.214500	0.659300	0.575200
O1031	O103	0.084970	0.561070	0.733860
O1041	O104	0.125270	0.621370	0.649260
O1051	O105	0.175600	0.510800	0.332800
O1061	O106	0.168200	0.431000	0.391600
O1071	O107	0.212360	0.418960	0.504680
O1081	O108	0.182800	0.390400	0.466000
O1091	O109	0.395650	0.650450	0.512900
O1101	O110	0.479000	0.692800	0.454000
O1111	O111	0.337490	0.558190	0.690220
O1121	O112	0.324970	0.586070	0.744860
O1131	O113	0.280330	0.657430	0.294140
O1141	O114	0.366500	0.670300	0.267800
O1151	O115	0.178860	0.659460	0.338280
O1161	O116	0.112580	0.696780	0.359440
O1171	O117	0.239950	0.416750	0.570100
O1181	O118	0.260100	0.382900	0.633600
O1191	O119	0.328880	0.493180	0.656640
O1201	O120	0.298800	0.416700	0.670200
O1211	O121	0.148380	0.144880	0.060440
O1221	O122	0.159300	0.210300	0.075200
O1231	O123	0.061070	0.181170	0.233860
O1241	O124	0.121370	0.225470	0.149260
O1251	O125	0.010800	0.491600	0.832800
O1261	O126	0.931000	0.440200	0.891600
O1271	O127	0.918960	0.282960	0.004680
O1281	O128	0.890400	0.351200	0.966000
O1291	O129	0.150450	0.091450	0.012900
O1301	O130	0.192800	0.067000	0.954000
O1311	O131	0.058190	0.972290	0.190220
O1321	O132	0.086070	0.930170	0.244860
O1331	O133	0.157430	0.425530	0.794140
O1341	O134	0.170300	0.365700	0.767800
O1351	O135	0.159460	0.482860	0.838280
O1361	O136	0.196780	0.527980	0.859440
O1371	O137	0.916750	0.189950	0.070100
O1381	O138	0.882900	0.106300	0.133600
O1391	O139	0.993180	0.014480	0.156640
O1401	O140	0.916700	0.031000	0.170200
O1411	O141	0.291180	0.794680	0.060440
O1421	O142	0.265500	0.714500	0.075200
O1431	O143	0.205070	0.584970	0.233860
O1441	O144	0.229370	0.625270	0.149260
O1451	O145	0.656400	0.675600	0.832800
O1461	O146	0.677400	0.668200	0.891600
O1471	O147	0.576360	0.712360	0.004680
O1481	O148	0.643600	0.682800	0.966000
O1491	O149	0.336650	0.895650	0.012900
O1501	O150	0.353200	0.979000	0.954000
O1511	O151	0.251590	0.837490	0.190220
O1521	O152	0.169070	0.824970	0.244860
O1531	O153	0.548430	0.780330	0.794140
O1541	O154	0.561900	0.866500	0.767800
O1551	O155	0.502260	0.678860	0.838280
O1561	O156	0.443780	0.612580	0.859440
O1571	O157	0.513150	0.739950	0.070100
O1581	O158	0.483500	0.760100	0.133600
O1591	O159	0.350180	0.828880	0.156640
O1601	O160	0.413100	0.798800	0.170200
O1611	O161	0.294680	0.791180	0.560440
O1621	O162	0.214500	0.765500	0.575200
O1631	O163	0.084970	0.705070	0.733860
O1641	O164	0.125270	0.729370	0.649260
O1651	O165	0.175600	0.156400	0.332800
O1661	O166	0.168200	0.177400	0.391600
O1671	O167	0.212360	0.076360	0.504680
O1681	O168	0.182800	0.143600	0.466000
O1691	O169	0.395650	0.836650	0.512900
O1701	O170	0.479000	0.853200	0.454000
O1711	O171	0.337490	0.751590	0.690220
O1721	O172	0.324970	0.669070	0.744860
O1731	O173	0.280330	0.048430	0.294140
O1741	O174	0.366500	0.061900	0.267800
O1751	O175	0.178860	0.002260	0.338280
O1761	O176	0.112580	0.943780	0.359440
O1771	O177	0.239950	0.013150	0.570100
O1781	O178	0.260100	0.983500	0.633600
O1791	O179	0.328880	0.850180	0.656640
O1801	O180	0.298800	0.913100	0.670200
O1811	O181	0.644880	0.648380	0.560440
O1821	O182	0.710300	0.659300	0.575200
O1831	O183	0.681170	0.561070	0.733860
O1841	O184	0.725470	0.621370	0.649260
O1851	O185	0.991600	0.510800	0.332800
O1861	O186	0.940200	0.431000	0.391600
O1871	O187	0.782960	0.418960	0.504680
O1881	O188	0.851200	0.390400	0.466000
O1891	O189	0.591450	0.650450	0.512900
O1901	O190	0.567000	0.692800	0.454000
O1911	O191	0.472290	0.558190	0.690220
O1921	O192	0.430170	0.586070	0.744860
O1931	O193	0.925530	0.657430	0.294140
O1941	O194	0.865700	0.670300	0.267800
O1951	O195	0.982860	0.659460	0.338280
O1961	O196	0.027980	0.696780	0.359440
O1971	O197	0.689950	0.416750	0.570100
O1981	O198	0.606300	0.382900	0.633600
O1991	O199	0.514480	0.493180	0.656640
O2001	O200	0.531000	0.416700	0.670200
O2011	O201	0.291180	0.144880	0.060440
O2021	O202	0.265500	0.210300	0.075200
O2031	O203	0.205070	0.181170	0.233860
O2041	O204	0.229370	0.225470	0.149260
O2051	O205	0.656400	0.491600	0.832800
O2061	O206	0.677400	0.440200	0.891600
O2071	O207	0.576360	0.282960	0.004680
O2081	O208	0.643600	0.351200	0.966000
O2091	O209	0.336650	0.091450	0.012900
O2101	O210	0.353200	0.067000	0.954000
O2111	O211	0.251590	0.972290	0.190220
O2121	O212	0.169070	0.930170	0.244860
O2131	O213	0.548430	0.425530	0.794140
O2141	O214	0.561900	0.365700	0.767800
O2151	O215	0.502260	0.482860	0.838280
O2161	O216	0.443780	0.527980	0.859440
O2171	O217	0.513150	0.189950	0.070100
O2181	O218	0.483500	0.106300	0.133600
O2191	O219	0.350180	0.014480	0.156640
O2201	O220	0.413100	0.031000	0.170200
O2211	O221	0.148380	0.794680	0.060440
O2221	O222	0.159300	0.714500	0.075200
O2231	O223	0.061070	0.584970	0.233860
O2241	O224	0.121370	0.625270	0.149260
O2251	O225	0.010800	0.675600	0.832800
O2261	O226	0.931000	0.668200	0.891600
O2271	O227	0.918960	0.712360	0.004680
O2281	O228	0.890400	0.682800	0.966000
O2291	O229	0.150450	0.895650	0.012900
O2301	O230	0.192800	0.979000	0.954000
O2311	O231	0.058190	0.837490	0.190220
O2321	O232	0.086070	0.824970	0.244860
O2331	O233	0.157430	0.780330	0.794140
O2341	O234	0.170300	0.866500	0.767800
O2351	O235	0.159460	0.678860	0.838280
O2361	O236	0.196780	0.612580	0.859440
O2371	O237	0.916750	0.739950	0.070100
O2381	O238	0.882900	0.760100	0.133600
O2391	O239	0.993180	0.828880	0.156640
O2401	O240	0.916700	0.798800	0.170200
O2411	O241	0.355120	0.208820	0.439560
O2421	O242	0.289700	0.234500	0.424800
O2431	O243	0.318830	0.294930	0.266140
O2441	O244	0.274530	0.270630	0.350740
O2451	O245	0.008400	0.843600	0.667200
O2461	O246	0.059800	0.822600	0.608400
O2471	O247	0.217040	0.923640	0.495320
O2481	O248	0.148800	0.856400	0.534000
O2491	O249	0.408550	0.163350	0.487100
O2501	O250	0.433000	0.146800	0.546000
O2511	O251	0.527710	0.248410	0.309780
O2521	O252	0.569830	0.330930	0.255140
O2531	O253	0.074470	0.951570	0.705860
O2541	O254	0.134300	0.938100	0.732200
O2551	O255	0.017140	0.997740	0.661720
O2561	O256	0.972020	0.056220	0.640560
O2571	O257	0.310050	0.986850	0.429900
O2581	O258	0.393700	0.016500	0.366400
O2591	O259	0.485520	0.149820	0.343360
O2601	O260	0.469000	0.086900	0.329800
O2611	O261	0.705320	0.351620	0.439560
O2621	O262	0.785500	0.340700	0.424800
O2631	O263	0.915030	0.438930	0.266140
O2641	O264	0.874730	0.378630	0.350740
O2651	O265	0.824400	0.489200	0.667200
O2661	O266	0.831800	0.569000	0.608400
O2671	O267	0.787640	0.581040	0.495320
O2681	O268	0.817200	0.609600	0.534000
O2691	O269	0.604350	0.349550	0.487100
O2701	O270	0.521000	0.307200	0.546000
O2711	O271	0.662510	0.441810	0.309780
O2721	O272	0.675030	0.413930	0.255140
O2731	O273	0.719670	0.342570	0.705860
O2741	O274	0.633500	0.329700	0.732200
O2751	O275	0.821140	0.340540	0.661720
O2761	O276	0.887420	0.303220	0.640560
O2771	O277	0.760050	0.583250	0.429900
O2781	O278	0.739900	0.617100	0.366400
O2791	O279	0.671120	0.506820	0.343360
O2801	O280	0.701200	0.583300	0.329800
O2811	O281	0.851620	0.855120	0.939560
O2821	O282	0.840700	0.789700	0.924800
O2831	O283	0.938930	0.818830	0.766140
O2841	O284	0.878630	0.774530	0.850740
O2851	O285	0.989200	0.508400	0.167200
O2861	O286	0.069000	0.559800	0.108400
O2871	O287	0.081040	0.717040	0.995320
O2881	O288	0.109600	0.648800	0.034000
O2891	O289	0.849550	0.908550	0.987100
O2901	O290	0.807200	0.933000	0.046000
O2911	O291	0.941810	0.027710	0.809780
O2921	O292	0.913930	0.069830	0.755140
O2931	O293	0.842570	0.574470	0.205860
O2941	O294	0.829700	0.634300	0.232200
O2951	O295	0.840540	0.517140	0.161720
O2961	O296	0.803220	0.472020	0.140560
O2971	O297	0.083250	0.810050	0.929900
O2981	O298	0.117100	0.893700	0.866400
O2991	O299	0.006820	0.985520	0.843360
O3001	O300	0.083300	0.969000	0.829800
O3011	O301	0.708820	0.205320	0.939560
O3021	O302	0.734500	0.285500	0.924800
O3031	O303	0.794930	0.415030	0.766140
O3041	O304	0.770630	0.374730	0.850740
O3051	O305	0.343600	0.324400	0.167200
O3061	O306	0.322600	0.331800	0.108400
O3071	O307	0.423640	0.287640	0.995320
O3081	O308	0.356400	0.317200	0.034000
O3091	O309	0.663350	0.104350	0.987100
O3101	O310	0.646800	0.021000	0.046000
O3111	O311	0.748410	0.162510	0.809780
O3121	O312	0.830930	0.175030	0.755140
O3131	O313	0.451570	0.219670	0.205860
O3141	O314	0.438100	0.133500	0.232200
O3151	O315	0.497740	0.321140	0.161720
O3161	O316	0.556220	0.387420	0.140560
O3171	O317	0.486850	0.260050	0.929900
O3181	O318	0.516500	0.239900	0.866400
O3191	O319	0.649820	0.171120	0.843360
O3201	O320	0.586900	0.201200	0.829800
