data_EHAGAX_freeONLY_PM
_symmetry_space_group_name_H-M	'P1'
_cell_length_a	10.670000
_cell_length_b	11.491100
_cell_length_c	13.444800
_cell_angle_alpha	69.159000
_cell_angle_beta	78.913000
_cell_angle_gamma	63.132000
_symmetry_Int_Tables_number 1

loop_
_symmetry_equiv_pos_as_xyz
'x,y,z'

loop_
_atom_site_label
_atom_site_type_symbol
_atom_site_fract_x
_atom_site_fract_y
_atom_site_fract_z
U11	U1	0.626750	0.710240	0.836130
Sm11	Sm1	0.605370	0.226110	0.752930
C11	C1	0.002400	0.340700	0.850800
C21	C2	0.114300	0.313700	0.908300
H11	H1	0.099000	0.360300	0.956700
C31	C3	0.249200	0.216500	0.892500
C41	C4	0.269500	0.140500	0.824900
C51	C5	0.153300	0.161500	0.775100
H21	H2	0.165300	0.105800	0.734900
C61	C6	0.020900	0.263900	0.784700
C71	C7	0.625500	0.000000	0.450100
H31	H3	0.709800	0.999900	0.415400
C81	C8	0.618600	0.874700	0.507100
C91	C9	0.490000	0.875000	0.556400
C101	C10	0.866800	0.462600	0.857200
C111	C11	0.361200	0.194900	0.957900
C121	C12	0.410400	0.038100	0.799700
C131	C13	0.902800	0.286800	0.724200
C141	C14	0.471300	0.744900	0.621200
C151	C15	0.746300	0.746300	0.509900
O11	O1	0.540000	0.631300	0.942600
O21	O2	0.718400	0.787400	0.730800
O31	O3	0.070300	0.501900	0.609000
O41	O4	0.853600	0.534400	0.912800
O51	O5	0.767400	0.492600	0.800800
O61	O6	0.824700	0.228500	0.769100
O71	O7	0.891400	0.361300	0.626000
O81	O8	0.419700	0.917100	0.822000
O91	O9	0.504000	0.071900	0.756900
O101	O10	0.481800	0.174600	0.918900
O111	O11	0.324000	0.201100	0.052000
O121	O12	0.505900	0.694400	0.716900
O131	O13	0.415600	0.701300	0.578700
O141	O14	0.736100	0.632800	0.535600
O151	O15	0.862600	0.749900	0.478600
O161	O16	0.776400	0.999100	0.837400
H41	H4	0.755400	0.926600	0.853800
H51	H5	0.860800	0.986600	0.852900
O171	O17	0.522500	0.415100	0.827000
H61	H6	0.437400	0.485100	0.810700
H71	H7	0.576900	0.414900	0.870700
O181	O18	0.369800	0.380600	0.677100
H81	H8	0.317700	0.458900	0.693600
H91	H9	0.336400	0.358200	0.633300
O191	O19	0.611600	0.422600	0.606500
H101	H10	0.532600	0.486400	0.572300
H111	H11	0.693200	0.431400	0.586300
O201	O20	0.718300	0.145500	0.605200
H121	H12	0.670300	0.175400	0.546400
H131	H13	0.809200	0.085300	0.608000
U21	U2	0.373250	0.289760	0.163870
Sm21	Sm2	0.394630	0.773890	0.247070
C161	C16	0.997600	0.659300	0.149200
C171	C17	0.885700	0.686300	0.091700
H141	H14	0.901000	0.639700	0.043300
C181	C18	0.750800	0.783500	0.107500
C191	C19	0.730500	0.859500	0.175100
C201	C20	0.846700	0.838500	0.224900
H151	H15	0.834700	0.894200	0.265100
C211	C21	0.979100	0.736100	0.215300
C221	C22	0.374500	0.000000	0.549900
H161	H16	0.290200	0.000100	0.584600
C231	C23	0.381400	0.125300	0.492900
C241	C24	0.510000	0.125000	0.443600
C251	C25	0.133200	0.537400	0.142800
C261	C26	0.638800	0.805100	0.042100
C271	C27	0.589600	0.961900	0.200300
C281	C28	0.097200	0.713200	0.275800
C291	C29	0.528700	0.255100	0.378800
C301	C30	0.253700	0.253700	0.490100
O211	O21	0.460000	0.368700	0.057400
O221	O22	0.281600	0.212600	0.269200
O231	O23	0.929700	0.498100	0.391000
O241	O24	0.146400	0.465600	0.087200
O251	O25	0.232600	0.507400	0.199200
O261	O26	0.175300	0.771500	0.230900
O271	O27	0.108600	0.638700	0.374000
O281	O28	0.580300	0.082900	0.178000
O291	O29	0.496000	0.928100	0.243100
O301	O30	0.518200	0.825400	0.081100
O311	O31	0.676000	0.798900	0.948000
O321	O32	0.494100	0.305600	0.283100
O331	O33	0.584400	0.298700	0.421300
O341	O34	0.263900	0.367200	0.464400
O351	O35	0.137400	0.250100	0.521400
O361	O36	0.223600	0.000900	0.162600
H171	H17	0.244600	0.073400	0.146200
H181	H18	0.139200	0.013400	0.147100
O371	O37	0.477500	0.584900	0.173000
H191	H19	0.562600	0.514900	0.189300
H201	H20	0.423100	0.585100	0.129300
O381	O38	0.630200	0.619400	0.322900
H211	H21	0.682300	0.541100	0.306400
H221	H22	0.663600	0.641800	0.366700
O391	O39	0.388400	0.577400	0.393500
H231	H23	0.467400	0.513600	0.427700
H241	H24	0.306800	0.568600	0.413700
O401	O40	0.281700	0.854500	0.394800
H251	H25	0.329700	0.824600	0.453600
H261	H26	0.190800	0.914700	0.392000
U31	U3	0.000000	0.500000	0.500000
