data_EHAGIF_freeONLY_PM
_symmetry_space_group_name_H-M	'P1'
_cell_length_a	10.587000
_cell_length_b	11.487000
_cell_length_c	13.372000
_cell_angle_alpha	69.301000
_cell_angle_beta	79.250000
_cell_angle_gamma	63.140000
_symmetry_Int_Tables_number 1

loop_
_symmetry_equiv_pos_as_xyz
'x,y,z'

loop_
_atom_site_label
_atom_site_type_symbol
_atom_site_fract_x
_atom_site_fract_y
_atom_site_fract_z
U11	U1	0.625330	0.712790	0.834660
Gd11	Gd1	0.603810	0.227740	0.754570
C11	C1	0.001800	0.342200	0.849900
C21	C2	0.113400	0.313200	0.906400
H11	H1	0.097400	0.361000	0.954300
C31	C3	0.247500	0.216900	0.895500
C41	C4	0.269300	0.141300	0.826300
C51	C5	0.152500	0.163600	0.776800
H21	H2	0.164500	0.107400	0.736700
C61	C6	0.019400	0.265700	0.784500
C71	C7	0.623800	0.999800	0.449800
H31	H3	0.709300	0.998900	0.416200
C81	C8	0.615300	0.875800	0.503700
C91	C9	0.490200	0.875200	0.555800
C101	C10	0.864200	0.464500	0.853400
C111	C11	0.360300	0.196900	0.957100
C121	C12	0.410000	0.037300	0.803100
C131	C13	0.900100	0.291400	0.724100
C141	C14	0.468600	0.749700	0.619400
C151	C15	0.743100	0.745700	0.503400
O11	O1	0.537900	0.632000	0.940900
O21	O2	0.716000	0.790100	0.729300
O31	O3	0.065000	0.502100	0.610500
O41	O4	0.852500	0.535700	0.909600
O51	O5	0.763900	0.495700	0.798900
O61	O6	0.824800	0.229500	0.767500
O71	O7	0.889300	0.364000	0.625400
O81	O8	0.419200	0.917900	0.823300
O91	O9	0.507600	0.071200	0.762100
O101	O10	0.479400	0.179700	0.920100
O111	O11	0.322400	0.200400	0.053700
O121	O12	0.503800	0.696600	0.716300
O131	O13	0.414200	0.704500	0.577700
O141	O14	0.732900	0.634600	0.532300
O151	O15	0.861000	0.748200	0.477000
O161	O16	0.771500	0.005200	0.842800
H41	H4	0.863300	0.977900	0.821200
H51	H5	0.743600	0.948000	0.897700
O171	O17	0.529400	0.412200	0.824600
H61	H6	0.524900	0.494300	0.781400
H71	H7	0.504800	0.400200	0.894400
O181	O18	0.373600	0.369300	0.679000
H81	H8	0.359300	0.446000	0.623500
H91	H9	0.301500	0.345100	0.706700
O191	O19	0.611800	0.421800	0.609700
H101	H10	0.532800	0.484100	0.573600
H111	H11	0.693200	0.432000	0.591300
O201	O20	0.714300	0.148200	0.607500
H121	H12	0.726600	0.206700	0.545000
H131	H13	0.744800	0.059000	0.613800
U21	U2	0.374670	0.287210	0.165340
Gd21	Gd2	0.396190	0.772260	0.245430
C161	C16	0.998200	0.657800	0.150100
C171	C17	0.886600	0.686800	0.093600
H141	H14	0.902600	0.639000	0.045700
C181	C18	0.752500	0.783100	0.104500
C191	C19	0.730700	0.858700	0.173700
C201	C20	0.847500	0.836400	0.223200
H151	H15	0.835500	0.892600	0.263300
C211	C21	0.980600	0.734300	0.215500
C221	C22	0.376200	0.000200	0.550200
H161	H16	0.290700	0.001100	0.583800
C231	C23	0.384700	0.124200	0.496300
C241	C24	0.509800	0.124800	0.444200
C251	C25	0.135800	0.535500	0.146600
C261	C26	0.639700	0.803100	0.042900
C271	C27	0.590000	0.962700	0.196900
C281	C28	0.099900	0.708600	0.275900
C291	C29	0.531400	0.250300	0.380600
C301	C30	0.256900	0.254300	0.496600
O211	O21	0.462100	0.368000	0.059100
O221	O22	0.284000	0.209900	0.270700
O231	O23	0.935000	0.497900	0.389500
O241	O24	0.147500	0.464300	0.090400
O251	O25	0.236100	0.504300	0.201100
O261	O26	0.175200	0.770500	0.232500
O271	O27	0.110700	0.636000	0.374600
O281	O28	0.580800	0.082100	0.176700
O291	O29	0.492400	0.928800	0.237900
O301	O30	0.520600	0.820300	0.079900
O311	O31	0.677600	0.799600	0.946300
O321	O32	0.496200	0.303400	0.283700
O331	O33	0.585800	0.295500	0.422300
O341	O34	0.267100	0.365400	0.467700
O351	O35	0.139000	0.251800	0.523000
O361	O36	0.228500	0.994800	0.157200
H171	H17	0.136700	0.022100	0.178800
H181	H18	0.256400	0.052000	0.102300
O371	O37	0.470600	0.587800	0.175400
H191	H19	0.475100	0.505700	0.218600
H201	H20	0.495200	0.599800	0.105600
O381	O38	0.626400	0.630700	0.321000
H211	H21	0.640700	0.554000	0.376500
H221	H22	0.698500	0.654900	0.293300
O391	O39	0.388200	0.578200	0.390300
H231	H23	0.467200	0.515900	0.426400
H241	H24	0.306800	0.568000	0.408700
O401	O40	0.285700	0.851800	0.392500
H251	H25	0.273400	0.793300	0.455000
H261	H26	0.255200	0.941000	0.386200
U31	U3	0.000000	0.500000	0.500000
