data_EHUCOA_freeONLY_PM
_symmetry_space_group_name_H-M	'P1'
_cell_length_a	11.633500
_cell_length_b	16.796100
_cell_length_c	18.157500
_cell_angle_alpha	90.000000
_cell_angle_beta	90.000000
_cell_angle_gamma	90.000000
_symmetry_Int_Tables_number 1

loop_
_symmetry_equiv_pos_as_xyz
'x,y,z'

loop_
_atom_site_label
_atom_site_type_symbol
_atom_site_fract_x
_atom_site_fract_y
_atom_site_fract_z
Mn11	Mn1	0.500000	0.890260	0.184340
Mn21	Mn2	0.500000	0.109740	0.815660
Mn31	Mn3	0.500000	0.609740	0.684340
Mn41	Mn4	0.500000	0.390260	0.315660
Mn51	Mn5	0.500000	0.500000	0.000000
Mn61	Mn6	0.500000	0.000000	0.500000
Cr11	Cr1	0.500000	0.803600	0.900960
Cr21	Cr2	0.500000	0.196400	0.099040
Cr31	Cr3	0.500000	0.696400	0.400960
Cr41	Cr4	0.500000	0.303600	0.599040
H11	H1	0.714200	0.829100	0.276300
H21	H2	0.912200	0.830900	0.281300
H31	H3	0.910200	0.960100	0.097000
H41	H4	0.712600	0.953600	0.097100
H51	H5	0.716100	0.575600	0.921400
H61	H6	0.913300	0.577100	0.918700
H71	H7	0.556500	0.402500	0.873200
H81	H8	0.714200	0.170900	0.723700
H91	H9	0.912200	0.169100	0.718700
H101	H10	0.910200	0.039900	0.903000
H111	H11	0.712600	0.046400	0.902900
H121	H12	0.716100	0.424400	0.078600
H131	H13	0.913300	0.422900	0.081300
H141	H14	0.556500	0.597500	0.126800
H151	H15	0.285800	0.670900	0.776300
H161	H16	0.087800	0.669100	0.781300
H171	H17	0.089800	0.539900	0.597000
H181	H18	0.287400	0.546400	0.597100
H191	H19	0.283900	0.924400	0.421400
H201	H20	0.086700	0.922900	0.418700
H211	H21	0.443500	0.097500	0.373200
H221	H22	0.285800	0.329100	0.223700
H231	H23	0.087800	0.330900	0.218700
H241	H24	0.089800	0.460100	0.403000
H251	H25	0.287400	0.453600	0.402900
H261	H26	0.283900	0.075600	0.578600
H271	H27	0.086700	0.077100	0.581300
H281	H28	0.443500	0.902500	0.626800
H291	H29	0.285800	0.170900	0.723700
H301	H30	0.087800	0.169100	0.718700
H311	H31	0.089800	0.039900	0.903000
H321	H32	0.287400	0.046400	0.902900
H331	H33	0.283900	0.424400	0.078600
H341	H34	0.086700	0.422900	0.081300
H351	H35	0.443500	0.597500	0.126800
H361	H36	0.285800	0.829100	0.276300
H371	H37	0.087800	0.830900	0.281300
H381	H38	0.089800	0.960100	0.097000
H391	H39	0.287400	0.953600	0.097100
H401	H40	0.283900	0.575600	0.921400
H411	H41	0.086700	0.577100	0.918700
H421	H42	0.443500	0.402500	0.873200
H431	H43	0.714200	0.329100	0.223700
H441	H44	0.912200	0.330900	0.218700
H451	H45	0.910200	0.460100	0.403000
H461	H46	0.712600	0.453600	0.402900
H471	H47	0.716100	0.075600	0.578600
H481	H48	0.913300	0.077100	0.581300
H491	H49	0.556500	0.902500	0.626800
H501	H50	0.714200	0.670900	0.776300
H511	H51	0.912200	0.669100	0.781300
H521	H52	0.910200	0.539900	0.597000
H531	H53	0.712600	0.546400	0.597100
H541	H54	0.716100	0.924400	0.421400
H551	H55	0.913300	0.922900	0.418700
H561	H56	0.556500	0.097500	0.373200
C11	C1	0.678900	0.802000	0.902300
C21	C2	0.754400	0.856100	0.239600
C31	C3	0.874000	0.856700	0.243100
C41	C4	0.935100	0.896200	0.189100
C51	C5	0.872500	0.932700	0.134400
C61	C6	0.753200	0.929000	0.134900
C71	C7	0.755600	0.543500	0.954600
C81	C8	0.875600	0.545000	0.952700
C91	C9	0.678900	0.198000	0.097700
C101	C10	0.754400	0.143900	0.760400
C111	C11	0.874000	0.143300	0.756900
C121	C12	0.935100	0.103800	0.810900
C131	C13	0.872500	0.067300	0.865600
C141	C14	0.753200	0.071000	0.865100
C151	C15	0.755600	0.456500	0.045400
C161	C16	0.875600	0.455000	0.047300
C171	C17	0.321100	0.698000	0.402300
C181	C18	0.245600	0.643900	0.739600
C191	C19	0.126000	0.643300	0.743100
C201	C20	0.064900	0.603800	0.689100
C211	C21	0.127500	0.567300	0.634400
C221	C22	0.246800	0.571000	0.634900
C231	C23	0.244400	0.956500	0.454600
C241	C24	0.124400	0.955000	0.452700
C251	C25	0.321100	0.302000	0.597700
C261	C26	0.245600	0.356100	0.260400
C271	C27	0.126000	0.356700	0.256900
C281	C28	0.064900	0.396200	0.310900
C291	C29	0.127500	0.432700	0.365600
C301	C30	0.246800	0.429000	0.365100
C311	C31	0.244400	0.043500	0.545400
C321	C32	0.124400	0.045000	0.547300
C331	C33	0.321100	0.198000	0.097700
C341	C34	0.245600	0.143900	0.760400
C351	C35	0.126000	0.143300	0.756900
C361	C36	0.064900	0.103800	0.810900
C371	C37	0.127500	0.067300	0.865600
C381	C38	0.246800	0.071000	0.865100
C391	C39	0.244400	0.456500	0.045400
C401	C40	0.124400	0.455000	0.047300
C411	C41	0.321100	0.802000	0.902300
C421	C42	0.245600	0.856100	0.239600
C431	C43	0.126000	0.856700	0.243100
C441	C44	0.064900	0.896200	0.189100
C451	C45	0.127500	0.932700	0.134400
C461	C46	0.246800	0.929000	0.134900
C471	C47	0.244400	0.543500	0.954600
C481	C48	0.124400	0.545000	0.952700
C491	C49	0.678900	0.302000	0.597700
C501	C50	0.754400	0.356100	0.260400
C511	C51	0.874000	0.356700	0.256900
C521	C52	0.935100	0.396200	0.310900
C531	C53	0.872500	0.432700	0.365600
C541	C54	0.753200	0.429000	0.365100
C551	C55	0.755600	0.043500	0.545400
C561	C56	0.875600	0.045000	0.547300
C571	C57	0.678900	0.698000	0.402300
C581	C58	0.754400	0.643900	0.739600
C591	C59	0.874000	0.643300	0.743100
C601	C60	0.935100	0.603800	0.689100
C611	C61	0.872500	0.567300	0.634400
C621	C62	0.753200	0.571000	0.634900
C631	C63	0.755600	0.956500	0.454600
C641	C64	0.875600	0.955000	0.452700
C651	C65	0.500000	0.838700	0.010400
C661	C66	0.500000	0.687100	0.936900
C671	C67	0.500000	0.760500	0.795000
C681	C68	0.500000	0.918900	0.864500
C691	C69	0.500000	0.161300	0.989600
C701	C70	0.500000	0.312900	0.063100
C711	C71	0.500000	0.239500	0.205000
C721	C72	0.500000	0.081100	0.135500
C731	C73	0.500000	0.661300	0.510400
C741	C74	0.500000	0.812900	0.436900
C751	C75	0.500000	0.739500	0.295000
C761	C76	0.500000	0.581100	0.364500
C771	C77	0.500000	0.338700	0.489600
C781	C78	0.500000	0.187100	0.563100
C791	C79	0.500000	0.260500	0.705000
C801	C80	0.500000	0.418900	0.635500
C811	C81	0.936900	0.500000	0.000000
C821	C82	0.063100	0.000000	0.500000
C831	C83	0.063100	0.500000	0.000000
C841	C84	0.936900	0.000000	0.500000
N11	N1	0.778500	0.800900	0.904600
N21	N2	0.695100	0.891600	0.187200
N31	N3	0.778500	0.199100	0.095400
N41	N4	0.695100	0.108400	0.812800
N51	N5	0.221500	0.699100	0.404600
N61	N6	0.304900	0.608400	0.687200
N71	N7	0.221500	0.300900	0.595400
N81	N8	0.304900	0.391600	0.312800
N91	N9	0.221500	0.199100	0.095400
N101	N10	0.304900	0.108400	0.812800
N111	N11	0.221500	0.800900	0.904600
N121	N12	0.304900	0.891600	0.187200
N131	N13	0.778500	0.300900	0.595400
N141	N14	0.695100	0.391600	0.312800
N151	N15	0.778500	0.699100	0.404600
N161	N16	0.695100	0.608400	0.687200
N171	N17	0.500000	0.854500	0.069600
N181	N18	0.500000	0.619900	0.952500
N191	N19	0.500000	0.727000	0.738800
N201	N20	0.500000	0.982500	0.843000
N211	N21	0.500000	0.145500	0.930400
N221	N22	0.500000	0.380100	0.047500
N231	N23	0.500000	0.273000	0.261200
N241	N24	0.500000	0.017500	0.157000
N251	N25	0.500000	0.645500	0.569600
N261	N26	0.500000	0.880100	0.452500
N271	N27	0.500000	0.773000	0.238800
N281	N28	0.500000	0.517500	0.343000
N291	N29	0.500000	0.354500	0.430400
N301	N30	0.500000	0.119900	0.547500
N311	N31	0.500000	0.227000	0.761200
N321	N32	0.500000	0.482500	0.657000
N331	N33	0.695300	0.500000	0.000000
N341	N34	0.304700	0.000000	0.500000
N351	N35	0.304700	0.500000	0.000000
N361	N36	0.695300	0.000000	0.500000
O11	O1	0.500000	0.936200	0.298900
O21	O2	0.500000	0.436900	0.890000
O31	O3	0.500000	0.063800	0.701100
O41	O4	0.500000	0.563100	0.110000
O51	O5	0.500000	0.563800	0.798900
O61	O6	0.500000	0.063100	0.390000
O71	O7	0.500000	0.436200	0.201100
O81	O8	0.500000	0.936900	0.610000
