data_EJEFOP_freeONLY_PM
_symmetry_space_group_name_H-M	'P1'
_cell_length_a	12.148000
_cell_length_b	13.123000
_cell_length_c	13.980000
_cell_angle_alpha	75.633000
_cell_angle_beta	64.450000
_cell_angle_gamma	67.616000
_symmetry_Int_Tables_number 1

loop_
_symmetry_equiv_pos_as_xyz
'x,y,z'

loop_
_atom_site_label
_atom_site_type_symbol
_atom_site_fract_x
_atom_site_fract_y
_atom_site_fract_z
Cd11	Cd1	0.150620	0.553850	0.449130
Cd21	Cd2	0.249780	0.491860	0.722870
Cd31	Cd3	0.849380	0.446150	0.550870
Cd41	Cd4	0.750220	0.508140	0.277130
H11	H1	0.449200	0.807700	0.315900
H21	H2	0.382200	0.658600	0.446400
H31	H3	0.096400	0.915100	0.189300
H41	H4	0.918200	0.921100	0.168400
H51	H5	0.832300	0.779500	0.240400
H61	H6	0.926800	0.634000	0.344000
H71	H7	0.412800	0.891500	0.138000
H81	H8	0.291200	0.887000	0.127900
H91	H9	0.282800	0.040800	0.243700
H101	H10	0.161600	0.036800	0.232000
H111	H11	0.373800	0.076600	0.053400
H121	H12	0.241700	0.088000	0.051100
H131	H13	0.263200	0.229900	0.161400
H141	H14	0.139700	0.245600	0.141800
H151	H15	0.453000	0.279000	0.013400
H161	H16	0.481800	0.386800	0.840200
H171	H17	0.028800	0.261500	0.071100
H181	H18	0.828300	0.311700	0.066700
H191	H19	0.774300	0.446600	0.936300
H201	H20	0.933800	0.519200	0.807400
H211	H21	0.763600	0.857500	0.521000
H221	H22	0.829000	0.010400	0.466800
H231	H23	0.099900	0.855300	0.591100
H241	H24	0.377000	0.148100	0.588600
H251	H25	0.678100	0.992400	0.352800
H261	H26	0.720200	0.154800	0.274800
H271	H27	0.550800	0.192300	0.684100
H281	H28	0.617800	0.341400	0.553600
H291	H29	0.903600	0.084900	0.810700
H301	H30	0.081800	0.078900	0.831600
H311	H31	0.167700	0.220500	0.759600
H321	H32	0.073200	0.366000	0.656000
H331	H33	0.587200	0.108500	0.862000
H341	H34	0.708800	0.113000	0.872100
H351	H35	0.717200	0.959200	0.756300
H361	H36	0.838400	0.963200	0.768000
H371	H37	0.626200	0.923400	0.946600
H381	H38	0.758300	0.912000	0.948900
H391	H39	0.736800	0.770100	0.838600
H401	H40	0.860300	0.754400	0.858200
H411	H41	0.547000	0.721000	0.986600
H421	H42	0.518200	0.613200	0.159800
H431	H43	0.971200	0.738500	0.928900
H441	H44	0.171700	0.688300	0.933300
H451	H45	0.225700	0.553400	0.063700
H461	H46	0.066200	0.480800	0.192600
H471	H47	0.236400	0.142500	0.479000
H481	H48	0.171000	0.989600	0.533200
H491	H49	0.900100	0.144700	0.408900
H501	H50	0.623000	0.851900	0.411400
H511	H51	0.321900	0.007600	0.647200
H521	H52	0.279800	0.845200	0.725200
C11	C1	0.382400	0.782900	0.326000
C21	C2	0.346200	0.700100	0.396700
C31	C3	0.216800	0.762500	0.311700
C41	C4	0.108500	0.770700	0.283400
C51	C5	0.059200	0.858800	0.221300
C61	C6	0.955200	0.860800	0.208300
C71	C7	0.903100	0.778900	0.250900
C81	C8	0.961300	0.691900	0.312400
C91	C9	0.321300	0.902800	0.174900
C101	C10	0.253500	0.023800	0.196800
C111	C11	0.281800	0.098200	0.093400
C121	C12	0.232900	0.221100	0.111100
C131	C13	0.395600	0.304700	0.978800
C141	C14	0.409600	0.365200	0.884000
C151	C15	0.221900	0.344200	0.940600
C161	C16	0.098500	0.362800	0.941600
C171	C17	0.007900	0.314300	0.018300
C181	C18	0.888400	0.344500	0.015700
C191	C19	0.856100	0.423600	0.937900
C201	C20	0.952000	0.467200	0.861700
C211	C21	0.069600	0.667200	0.658700
C221	C22	0.995500	0.764900	0.604800
C231	C23	0.896900	0.762700	0.582400
C241	C24	0.833700	0.856800	0.532800
C251	C25	0.872500	0.948500	0.500900
C261	C26	0.976700	0.951600	0.518200
C271	C27	0.033500	0.855700	0.574400
C281	C28	0.850300	0.660500	0.616600
C291	C29	0.370700	0.352500	0.529900
C301	C30	0.463900	0.249200	0.478700
C311	C31	0.443800	0.150200	0.522900
C321	C32	0.515300	0.053700	0.476800
C331	C33	0.622900	0.057500	0.383700
C341	C34	0.648600	0.154600	0.337200
C351	C35	0.568400	0.253800	0.382400
C361	C36	0.604400	0.360800	0.330900
C371	C37	0.617600	0.217100	0.674000
C381	C38	0.653800	0.299900	0.603300
C391	C39	0.783200	0.237500	0.688300
C401	C40	0.891500	0.229300	0.716600
C411	C41	0.940800	0.141200	0.778700
C421	C42	0.044800	0.139200	0.791700
C431	C43	0.096900	0.221100	0.749100
C441	C44	0.038700	0.308100	0.687600
C451	C45	0.678700	0.097200	0.825100
C461	C46	0.746500	0.976200	0.803200
C471	C47	0.718200	0.901800	0.906600
C481	C48	0.767100	0.778900	0.888900
C491	C49	0.604400	0.695300	0.021200
C501	C50	0.590400	0.634800	0.116000
C511	C51	0.778100	0.655800	0.059400
C521	C52	0.901500	0.637200	0.058400
C531	C53	0.992100	0.685700	0.981700
C541	C54	0.111600	0.655500	0.984300
C551	C55	0.143900	0.576400	0.062100
C561	C56	0.048000	0.532800	0.138300
C571	C57	0.930400	0.332800	0.341300
C581	C58	0.004500	0.235100	0.395200
C591	C59	0.103100	0.237300	0.417600
C601	C60	0.166300	0.143200	0.467200
C611	C61	0.127500	0.051500	0.499100
C621	C62	0.023300	0.048400	0.481800
C631	C63	0.966500	0.144300	0.425600
C641	C64	0.149700	0.339500	0.383400
C651	C65	0.629300	0.647500	0.470100
C661	C66	0.536100	0.750800	0.521300
C671	C67	0.556200	0.849800	0.477100
C681	C68	0.484700	0.946300	0.523200
C691	C69	0.377100	0.942500	0.616300
C701	C70	0.351400	0.845400	0.662800
C711	C71	0.431600	0.746200	0.617600
C721	C72	0.395600	0.639200	0.669100
N11	N1	0.063700	0.688300	0.327600
N21	N2	0.247500	0.687200	0.383200
N31	N3	0.300800	0.823400	0.271700
N41	N4	0.070600	0.436400	0.864400
N51	N5	0.303100	0.390800	0.860700
N61	N6	0.275000	0.288600	0.014600
N71	N7	0.936300	0.311700	0.672400
N81	N8	0.752500	0.312800	0.616800
N91	N9	0.699200	0.176600	0.728300
N101	N10	0.929400	0.563600	0.135600
N111	N11	0.696900	0.609200	0.139300
N121	N12	0.725000	0.711400	0.985400
O11	O1	0.095100	0.677500	0.731200
O21	O2	0.105500	0.571900	0.623900
O31	O3	0.906400	0.590800	0.550300
O41	O4	0.767000	0.651800	0.703600
O51	O5	0.333400	0.345700	0.628700
O61	O6	0.332400	0.435800	0.467400
O71	O7	0.621400	0.411000	0.381700
O81	O8	0.621900	0.383500	0.234100
O91	O9	0.904900	0.322500	0.268800
O101	O10	0.894500	0.428100	0.376100
O111	O11	0.093600	0.409200	0.449700
O121	O12	0.233000	0.348200	0.296400
O131	O13	0.666600	0.654300	0.371300
O141	O14	0.667600	0.564200	0.532600
O151	O15	0.378600	0.589000	0.618300
O161	O16	0.378100	0.616500	0.765900
