data_EJIDUW01_freeONLY_PM
_symmetry_space_group_name_H-M	'P1'
_cell_length_a	9.182000
_cell_length_b	9.687000
_cell_length_c	10.639000
_cell_angle_alpha	106.807000
_cell_angle_beta	95.625000
_cell_angle_gamma	118.060000
_symmetry_Int_Tables_number 1

loop_
_symmetry_equiv_pos_as_xyz
'x,y,z'

loop_
_atom_site_label
_atom_site_type_symbol
_atom_site_fract_x
_atom_site_fract_y
_atom_site_fract_z
Nd11	Nd1	0.234980	0.455020	0.981800
Nd21	Nd2	0.765020	0.544980	0.018200
H11	H1	0.576500	0.400800	0.651400
H21	H2	0.384100	0.262100	0.556800
H31	H3	0.532300	0.621400	0.630500
H41	H4	0.344400	0.479600	0.530300
H51	H5	0.981400	0.625800	0.628700
H61	H6	0.003000	0.468600	0.617600
H71	H7	0.294800	0.657300	0.748100
H81	H8	0.259700	0.687000	0.610900
H91	H9	0.279500	0.897100	0.873000
H101	H10	0.254600	0.929300	0.735000
H111	H11	0.521300	0.949800	0.716800
H121	H12	0.546700	0.944000	0.862900
H131	H13	0.912000	0.114000	0.825000
H141	H14	0.864000	0.207000	0.836000
H151	H15	0.126000	0.077000	0.898000
H161	H16	0.285000	0.176000	0.977000
H171	H17	0.423500	0.599200	0.348600
H181	H18	0.615900	0.737900	0.443200
H191	H19	0.467700	0.378600	0.369500
H201	H20	0.655600	0.520400	0.469700
H211	H21	0.018600	0.374200	0.371300
H221	H22	0.997000	0.531400	0.382400
H231	H23	0.705200	0.342700	0.251900
H241	H24	0.740300	0.313000	0.389100
H251	H25	0.720500	0.102900	0.127000
H261	H26	0.745400	0.070700	0.265000
H271	H27	0.478700	0.050200	0.283200
H281	H28	0.453300	0.056000	0.137100
H291	H29	0.088000	0.886000	0.175000
H301	H30	0.136000	0.793000	0.164000
H311	H31	0.874000	0.923000	0.102000
H321	H32	0.715000	0.824000	0.023000
C11	C1	0.392900	0.401600	0.747900
C21	C2	0.459200	0.379600	0.624500
C31	C3	0.462800	0.504800	0.560400
C41	C4	0.990700	0.585000	0.807600
C51	C5	0.041500	0.585800	0.677200
C61	C6	0.235100	0.698300	0.700700
C71	C7	0.307600	0.884600	0.784500
C81	C8	0.502500	0.985500	0.809600
C91	C9	0.583200	0.174900	0.877700
C101	C10	0.607100	0.598400	0.252100
C111	C11	0.540800	0.620400	0.375500
C121	C12	0.537200	0.495200	0.439600
C131	C13	0.009300	0.415000	0.192400
C141	C14	0.958500	0.414200	0.322800
C151	C15	0.764900	0.301700	0.299300
C161	C16	0.692400	0.115400	0.215500
C171	C17	0.497500	0.014500	0.190400
C181	C18	0.416800	0.825100	0.122300
O11	O1	0.237400	0.362000	0.733800
O21	O2	0.491600	0.465700	0.867100
O31	O3	0.062100	0.549300	0.889500
O41	O4	0.875400	0.617700	0.830400
O51	O5	0.691800	0.271800	0.830100
O61	O6	0.545600	0.237300	0.982100
O71	O7	0.949900	0.203900	0.852900
O81	O8	0.226900	0.190300	0.962200
O91	O9	0.762600	0.638000	0.266200
O101	O10	0.508400	0.534300	0.132900
O111	O11	0.937900	0.450700	0.110500
O121	O12	0.124600	0.382300	0.169600
O131	O13	0.308200	0.728200	0.169900
O141	O14	0.454400	0.762700	0.017900
O151	O15	0.050100	0.796100	0.147100
O161	O16	0.773100	0.809700	0.037800
