data_EJOZOU_freeONLY_PM
_symmetry_space_group_name_H-M	'P1'
_cell_length_a	39.900000
_cell_length_b	9.992500
_cell_length_c	28.728000
_cell_angle_alpha	90.000000
_cell_angle_beta	133.799000
_cell_angle_gamma	90.000000
_symmetry_Int_Tables_number 1

loop_
_symmetry_equiv_pos_as_xyz
'x,y,z'

loop_
_atom_site_label
_atom_site_type_symbol
_atom_site_fract_x
_atom_site_fract_y
_atom_site_fract_z
Cu11	Cu1	0.425330	0.857430	0.084970
Cu21	Cu2	0.406460	0.894000	0.234890
O11	O1	0.581130	0.015300	0.461030
O21	O2	0.509000	0.901000	0.342350
O31	O3	0.423400	0.469800	0.871760
O41	O4	0.430260	0.708700	0.134960
O51	O5	0.415040	0.850300	0.177270
O61	O6	0.451910	0.041300	0.272710
O71	O7	0.342340	0.536600	0.158300
N11	N1	0.436420	0.301300	0.935880
H11	H1	0.444500	0.285400	0.972700
N21	N2	0.413970	0.088700	0.811650
C11	C1	0.556020	0.120600	0.433570
C21	C2	0.526000	0.139700	0.360600
O81	O8	0.557000	0.210300	0.463670
C31	C3	0.493610	0.018600	0.322620
N31	N3	0.430920	0.716000	0.030320
C41	C4	0.458570	0.609400	0.058280
H21	H2	0.478300	0.598400	0.103500
C51	C5	0.460130	0.513900	0.025050
H31	H3	0.480500	0.439500	0.047100
C61	C6	0.431690	0.528000	0.959340
C71	C7	0.429860	0.430900	0.917860
C81	C8	0.431710	0.188900	0.902150
C91	C9	0.402830	0.639500	0.929620
H41	H4	0.383100	0.653500	0.884600
C101	C10	0.403370	0.729600	0.966670
H51	H5	0.383200	0.804700	0.945900
N41	N4	0.144500	0.659600	0.976870
C111	C11	0.164250	0.781800	0.993240
H61	H6	0.145400	0.859000	0.979000
C121	C12	0.210540	0.796900	0.029700
H71	H7	0.223600	0.884000	0.040200
C131	C13	0.238320	0.686100	0.051300
H81	H8	0.270600	0.695900	0.076700
C141	C14	0.218600	0.559200	0.035710
C151	C15	0.171080	0.551500	0.997440
H91	H9	0.156900	0.465700	0.985400
N51	N5	0.248000	0.448200	0.061060
H101	H10	0.277400	0.464100	0.083000
C161	C16	0.420380	0.732100	0.167350
N61	N6	0.347550	0.035800	0.171940
C171	C17	0.350140	0.141000	0.146300
H111	H11	0.377600	0.152200	0.154700
C181	C18	0.315340	0.235000	0.108090
H121	H12	0.318800	0.307600	0.090300
C191	C19	0.275650	0.222000	0.096160
C201	C20	0.235580	0.318200	0.055090
O91	O9	0.195670	0.279600	0.019950
C211	C21	0.272430	0.113400	0.123300
H131	H13	0.245500	0.101100	0.116000
C221	C22	0.308710	0.024300	0.160700
H141	H14	0.306400	0.951200	0.179400
C231	C23	0.498270	0.269700	0.336880
H151	H15	0.477300	0.266000	0.343600
H161	H16	0.480100	0.281200	0.290800
H171	H17	0.519600	0.345300	0.361000
C241	C24	0.559540	0.146500	0.351080
H181	H18	0.582800	0.216100	0.379100
H191	H19	0.542000	0.167800	0.306000
H201	H20	0.575000	0.059900	0.362200
C251	C25	0.418820	0.966900	0.835900
H211	H21	0.413600	0.889300	0.812400
C261	C26	0.431110	0.952100	0.893500
H221	H22	0.434700	0.865100	0.909800
C271	C27	0.438320	0.063500	0.928000
H231	H23	0.447600	0.054400	0.968500
C281	C28	0.420190	0.197900	0.844290
H241	H24	0.416600	0.283900	0.827200
O101	O10	0.367240	0.735700	0.204400
C291	C29	0.370710	0.629400	0.183120
C301	C30	0.414180	0.611600	0.194050
C311	C31	0.411450	0.481100	0.163620
H251	H25	0.384500	0.484100	0.116900
H261	H26	0.408200	0.405500	0.182000
H271	H27	0.439800	0.470200	0.172500
C321	C32	0.456580	0.605600	0.267720
H281	H28	0.484500	0.583400	0.276500
H291	H29	0.451400	0.536900	0.286500
H301	H30	0.460800	0.692700	0.286800
Cu31	Cu3	0.925330	0.357430	0.084970
Cu41	Cu4	0.906460	0.394000	0.234890
O111	O11	0.081130	0.515300	0.461030
O121	O12	0.009000	0.401000	0.342350
O131	O13	0.923400	0.969800	0.871760
O141	O14	0.930260	0.208700	0.134960
O151	O15	0.915040	0.350300	0.177270
O161	O16	0.951910	0.541300	0.272710
O171	O17	0.842340	0.036600	0.158300
N71	N7	0.936420	0.801300	0.935880
H311	H31	0.944500	0.785400	0.972700
N81	N8	0.913970	0.588700	0.811650
C331	C33	0.056020	0.620600	0.433570
C341	C34	0.026000	0.639700	0.360600
O181	O18	0.057000	0.710300	0.463670
C351	C35	0.993610	0.518600	0.322620
N91	N9	0.930920	0.216000	0.030320
C361	C36	0.958570	0.109400	0.058280
H321	H32	0.978300	0.098400	0.103500
C371	C37	0.960130	0.013900	0.025050
H331	H33	0.980500	0.939500	0.047100
C381	C38	0.931690	0.028000	0.959340
C391	C39	0.929860	0.930900	0.917860
C401	C40	0.931710	0.688900	0.902150
C411	C41	0.902830	0.139500	0.929620
H341	H34	0.883100	0.153500	0.884600
C421	C42	0.903370	0.229600	0.966670
H351	H35	0.883200	0.304700	0.945900
N101	N10	0.644500	0.159600	0.976870
C431	C43	0.664250	0.281800	0.993240
H361	H36	0.645400	0.359000	0.979000
C441	C44	0.710540	0.296900	0.029700
H371	H37	0.723600	0.384000	0.040200
C451	C45	0.738320	0.186100	0.051300
H381	H38	0.770600	0.195900	0.076700
C461	C46	0.718600	0.059200	0.035710
C471	C47	0.671080	0.051500	0.997440
H391	H39	0.656900	0.965700	0.985400
N111	N11	0.748000	0.948200	0.061060
H401	H40	0.777400	0.964100	0.083000
C481	C48	0.920380	0.232100	0.167350
N121	N12	0.847550	0.535800	0.171940
C491	C49	0.850140	0.641000	0.146300
H411	H41	0.877600	0.652200	0.154700
C501	C50	0.815340	0.735000	0.108090
H421	H42	0.818800	0.807600	0.090300
C511	C51	0.775650	0.722000	0.096160
C521	C52	0.735580	0.818200	0.055090
O191	O19	0.695670	0.779600	0.019950
C531	C53	0.772430	0.613400	0.123300
H431	H43	0.745500	0.601100	0.116000
C541	C54	0.808710	0.524300	0.160700
H441	H44	0.806400	0.451200	0.179400
C551	C55	0.998270	0.769700	0.336880
H451	H45	0.977300	0.766000	0.343600
H461	H46	0.980100	0.781200	0.290800
H471	H47	0.019600	0.845300	0.361000
C561	C56	0.059540	0.646500	0.351080
H481	H48	0.082800	0.716100	0.379100
H491	H49	0.042000	0.667800	0.306000
H501	H50	0.075000	0.559900	0.362200
C571	C57	0.918820	0.466900	0.835900
H511	H51	0.913600	0.389300	0.812400
C581	C58	0.931110	0.452100	0.893500
H521	H52	0.934700	0.365100	0.909800
C591	C59	0.938320	0.563500	0.928000
H531	H53	0.947600	0.554400	0.968500
C601	C60	0.920190	0.697900	0.844290
H541	H54	0.916600	0.783900	0.827200
O201	O20	0.867240	0.235700	0.204400
C611	C61	0.870710	0.129400	0.183120
C621	C62	0.914180	0.111600	0.194050
C631	C63	0.911450	0.981100	0.163620
H551	H55	0.884500	0.984100	0.116900
H561	H56	0.908200	0.905500	0.182000
H571	H57	0.939800	0.970200	0.172500
C641	C64	0.956580	0.105600	0.267720
H581	H58	0.984500	0.083400	0.276500
H591	H59	0.951400	0.036900	0.286500
H601	H60	0.960800	0.192700	0.286800
Cu51	Cu5	0.574670	0.857430	0.415030
Cu61	Cu6	0.593540	0.894000	0.265110
O211	O21	0.418870	0.015300	0.038970
O221	O22	0.491000	0.901000	0.157650
O231	O23	0.576600	0.469800	0.628240
O241	O24	0.569740	0.708700	0.365040
O251	O25	0.584960	0.850300	0.322730
O261	O26	0.548090	0.041300	0.227290
O271	O27	0.657660	0.536600	0.341700
N131	N13	0.563580	0.301300	0.564120
H611	H61	0.555500	0.285400	0.527300
N141	N14	0.586030	0.088700	0.688350
C651	C65	0.443980	0.120600	0.066430
C661	C66	0.474000	0.139700	0.139400
O281	O28	0.443000	0.210300	0.036330
C671	C67	0.506390	0.018600	0.177380
N151	N15	0.569080	0.716000	0.469680
C681	C68	0.541430	0.609400	0.441720
H621	H62	0.521700	0.598400	0.396500
C691	C69	0.539870	0.513900	0.474950
H631	H63	0.519500	0.439500	0.452900
C701	C70	0.568310	0.528000	0.540660
C711	C71	0.570140	0.430900	0.582140
C721	C72	0.568290	0.188900	0.597850
C731	C73	0.597170	0.639500	0.570380
H641	H64	0.616900	0.653500	0.615400
C741	C74	0.596630	0.729600	0.533330
H651	H65	0.616800	0.804700	0.554100
N161	N16	0.855500	0.659600	0.523130
C751	C75	0.835750	0.781800	0.506760
H661	H66	0.854600	0.859000	0.521000
C761	C76	0.789460	0.796900	0.470300
H671	H67	0.776400	0.884000	0.459800
C771	C77	0.761680	0.686100	0.448700
H681	H68	0.729400	0.695900	0.423300
C781	C78	0.781400	0.559200	0.464290
C791	C79	0.828920	0.551500	0.502560
H691	H69	0.843100	0.465700	0.514600
N171	N17	0.752000	0.448200	0.438940
H701	H70	0.722600	0.464100	0.417000
C801	C80	0.579620	0.732100	0.332650
N181	N18	0.652450	0.035800	0.328060
C811	C81	0.649860	0.141000	0.353700
H711	H71	0.622400	0.152200	0.345300
C821	C82	0.684660	0.235000	0.391910
H721	H72	0.681200	0.307600	0.409700
C831	C83	0.724350	0.222000	0.403840
C841	C84	0.764420	0.318200	0.444910
O291	O29	0.804330	0.279600	0.480050
C851	C85	0.727570	0.113400	0.376700
H731	H73	0.754500	0.101100	0.384000
C861	C86	0.691290	0.024300	0.339300
H741	H74	0.693600	0.951200	0.320600
C871	C87	0.501730	0.269700	0.163120
H751	H75	0.522700	0.266000	0.156400
H761	H76	0.519900	0.281200	0.209200
H771	H77	0.480400	0.345300	0.139000
C881	C88	0.440460	0.146500	0.148920
H781	H78	0.417200	0.216100	0.120900
H791	H79	0.458000	0.167800	0.194000
H801	H80	0.425000	0.059900	0.137800
C891	C89	0.581180	0.966900	0.664100
H811	H81	0.586400	0.889300	0.687600
C901	C90	0.568890	0.952100	0.606500
H821	H82	0.565300	0.865100	0.590200
C911	C91	0.561680	0.063500	0.572000
H831	H83	0.552400	0.054400	0.531500
C921	C92	0.579810	0.197900	0.655710
H841	H84	0.583400	0.283900	0.672800
O301	O30	0.632760	0.735700	0.295600
C931	C93	0.629290	0.629400	0.316880
C941	C94	0.585820	0.611600	0.305950
C951	C95	0.588550	0.481100	0.336380
H851	H85	0.615500	0.484100	0.383100
H861	H86	0.591800	0.405500	0.318000
H871	H87	0.560200	0.470200	0.327500
C961	C96	0.543420	0.605600	0.232280
H881	H88	0.515500	0.583400	0.223500
H891	H89	0.548600	0.536900	0.213500
H901	H90	0.539200	0.692700	0.213200
Cu71	Cu7	0.074670	0.357430	0.415030
Cu81	Cu8	0.093540	0.394000	0.265110
O311	O31	0.918870	0.515300	0.038970
O321	O32	0.991000	0.401000	0.157650
O331	O33	0.076600	0.969800	0.628240
O341	O34	0.069740	0.208700	0.365040
O351	O35	0.084960	0.350300	0.322730
O361	O36	0.048090	0.541300	0.227290
O371	O37	0.157660	0.036600	0.341700
N191	N19	0.063580	0.801300	0.564120
H911	H91	0.055500	0.785400	0.527300
N201	N20	0.086030	0.588700	0.688350
C971	C97	0.943980	0.620600	0.066430
C981	C98	0.974000	0.639700	0.139400
O381	O38	0.943000	0.710300	0.036330
C991	C99	0.006390	0.518600	0.177380
N211	N21	0.069080	0.216000	0.469680
C1001	C100	0.041430	0.109400	0.441720
H921	H92	0.021700	0.098400	0.396500
C1011	C101	0.039870	0.013900	0.474950
H931	H93	0.019500	0.939500	0.452900
C1021	C102	0.068310	0.028000	0.540660
C1031	C103	0.070140	0.930900	0.582140
C1041	C104	0.068290	0.688900	0.597850
C1051	C105	0.097170	0.139500	0.570380
H941	H94	0.116900	0.153500	0.615400
C1061	C106	0.096630	0.229600	0.533330
H951	H95	0.116800	0.304700	0.554100
N221	N22	0.355500	0.159600	0.523130
C1071	C107	0.335750	0.281800	0.506760
H961	H96	0.354600	0.359000	0.521000
C1081	C108	0.289460	0.296900	0.470300
H971	H97	0.276400	0.384000	0.459800
C1091	C109	0.261680	0.186100	0.448700
H981	H98	0.229400	0.195900	0.423300
C1101	C110	0.281400	0.059200	0.464290
C1111	C111	0.328920	0.051500	0.502560
H991	H99	0.343100	0.965700	0.514600
N231	N23	0.252000	0.948200	0.438940
H1001	H100	0.222600	0.964100	0.417000
C1121	C112	0.079620	0.232100	0.332650
N241	N24	0.152450	0.535800	0.328060
C1131	C113	0.149860	0.641000	0.353700
H1011	H101	0.122400	0.652200	0.345300
C1141	C114	0.184660	0.735000	0.391910
H1021	H102	0.181200	0.807600	0.409700
C1151	C115	0.224350	0.722000	0.403840
C1161	C116	0.264420	0.818200	0.444910
O391	O39	0.304330	0.779600	0.480050
C1171	C117	0.227570	0.613400	0.376700
H1031	H103	0.254500	0.601100	0.384000
C1181	C118	0.191290	0.524300	0.339300
H1041	H104	0.193600	0.451200	0.320600
C1191	C119	0.001730	0.769700	0.163120
H1051	H105	0.022700	0.766000	0.156400
H1061	H106	0.019900	0.781200	0.209200
H1071	H107	0.980400	0.845300	0.139000
C1201	C120	0.940460	0.646500	0.148920
H1081	H108	0.917200	0.716100	0.120900
H1091	H109	0.958000	0.667800	0.194000
H1101	H110	0.925000	0.559900	0.137800
C1211	C121	0.081180	0.466900	0.664100
H1111	H111	0.086400	0.389300	0.687600
C1221	C122	0.068890	0.452100	0.606500
H1121	H112	0.065300	0.365100	0.590200
C1231	C123	0.061680	0.563500	0.572000
H1131	H113	0.052400	0.554400	0.531500
C1241	C124	0.079810	0.697900	0.655710
H1141	H114	0.083400	0.783900	0.672800
O401	O40	0.132760	0.235700	0.295600
C1251	C125	0.129290	0.129400	0.316880
C1261	C126	0.085820	0.111600	0.305950
C1271	C127	0.088550	0.981100	0.336380
H1151	H115	0.115500	0.984100	0.383100
H1161	H116	0.091800	0.905500	0.318000
H1171	H117	0.060200	0.970200	0.327500
C1281	C128	0.043420	0.105600	0.232280
H1181	H118	0.015500	0.083400	0.223500
H1191	H119	0.048600	0.036900	0.213500
H1201	H120	0.039200	0.192700	0.213200
Cu91	Cu9	0.574670	0.142570	0.915030
Cu101	Cu10	0.593540	0.106000	0.765110
O411	O41	0.418870	0.984700	0.538970
O421	O42	0.491000	0.099000	0.657650
O431	O43	0.576600	0.530200	0.128240
O441	O44	0.569740	0.291300	0.865040
O451	O45	0.584960	0.149700	0.822730
O461	O46	0.548090	0.958700	0.727290
O471	O47	0.657660	0.463400	0.841700
N251	N25	0.563580	0.698700	0.064120
H1211	H121	0.555500	0.714600	0.027300
N261	N26	0.586030	0.911300	0.188350
C1291	C129	0.443980	0.879400	0.566430
C1301	C130	0.474000	0.860300	0.639400
O481	O48	0.443000	0.789700	0.536330
C1311	C131	0.506390	0.981400	0.677380
N271	N27	0.569080	0.284000	0.969680
C1321	C132	0.541430	0.390600	0.941720
H1221	H122	0.521700	0.401600	0.896500
C1331	C133	0.539870	0.486100	0.974950
H1231	H123	0.519500	0.560500	0.952900
C1341	C134	0.568310	0.472000	0.040660
C1351	C135	0.570140	0.569100	0.082140
C1361	C136	0.568290	0.811100	0.097850
C1371	C137	0.597170	0.360500	0.070380
H1241	H124	0.616900	0.346500	0.115400
C1381	C138	0.596630	0.270400	0.033330
H1251	H125	0.616800	0.195300	0.054100
N281	N28	0.855500	0.340400	0.023130
C1391	C139	0.835750	0.218200	0.006760
H1261	H126	0.854600	0.141000	0.021000
C1401	C140	0.789460	0.203100	0.970300
H1271	H127	0.776400	0.116000	0.959800
C1411	C141	0.761680	0.313900	0.948700
H1281	H128	0.729400	0.304100	0.923300
C1421	C142	0.781400	0.440800	0.964290
C1431	C143	0.828920	0.448500	0.002560
H1291	H129	0.843100	0.534300	0.014600
N291	N29	0.752000	0.551800	0.938940
H1301	H130	0.722600	0.535900	0.917000
C1441	C144	0.579620	0.267900	0.832650
N301	N30	0.652450	0.964200	0.828060
C1451	C145	0.649860	0.859000	0.853700
H1311	H131	0.622400	0.847800	0.845300
C1461	C146	0.684660	0.765000	0.891910
H1321	H132	0.681200	0.692400	0.909700
C1471	C147	0.724350	0.778000	0.903840
C1481	C148	0.764420	0.681800	0.944910
O491	O49	0.804330	0.720400	0.980050
C1491	C149	0.727570	0.886600	0.876700
H1331	H133	0.754500	0.898900	0.884000
C1501	C150	0.691290	0.975700	0.839300
H1341	H134	0.693600	0.048800	0.820600
C1511	C151	0.501730	0.730300	0.663120
H1351	H135	0.522700	0.734000	0.656400
H1361	H136	0.519900	0.718800	0.709200
H1371	H137	0.480400	0.654700	0.639000
C1521	C152	0.440460	0.853500	0.648920
H1381	H138	0.417200	0.783900	0.620900
H1391	H139	0.458000	0.832200	0.694000
H1401	H140	0.425000	0.940100	0.637800
C1531	C153	0.581180	0.033100	0.164100
H1411	H141	0.586400	0.110700	0.187600
C1541	C154	0.568890	0.047900	0.106500
H1421	H142	0.565300	0.134900	0.090200
C1551	C155	0.561680	0.936500	0.072000
H1431	H143	0.552400	0.945600	0.031500
C1561	C156	0.579810	0.802100	0.155710
H1441	H144	0.583400	0.716100	0.172800
O501	O50	0.632760	0.264300	0.795600
C1571	C157	0.629290	0.370600	0.816880
C1581	C158	0.585820	0.388400	0.805950
C1591	C159	0.588550	0.518900	0.836380
H1451	H145	0.615500	0.515900	0.883100
H1461	H146	0.591800	0.594500	0.818000
H1471	H147	0.560200	0.529800	0.827500
C1601	C160	0.543420	0.394400	0.732280
H1481	H148	0.515500	0.416600	0.723500
H1491	H149	0.548600	0.463100	0.713500
H1501	H150	0.539200	0.307300	0.713200
Cu111	Cu11	0.074670	0.642570	0.915030
Cu121	Cu12	0.093540	0.606000	0.765110
O511	O51	0.918870	0.484700	0.538970
O521	O52	0.991000	0.599000	0.657650
O531	O53	0.076600	0.030200	0.128240
O541	O54	0.069740	0.791300	0.865040
O551	O55	0.084960	0.649700	0.822730
O561	O56	0.048090	0.458700	0.727290
O571	O57	0.157660	0.963400	0.841700
N311	N31	0.063580	0.198700	0.064120
H1511	H151	0.055500	0.214600	0.027300
N321	N32	0.086030	0.411300	0.188350
C1611	C161	0.943980	0.379400	0.566430
C1621	C162	0.974000	0.360300	0.639400
O581	O58	0.943000	0.289700	0.536330
C1631	C163	0.006390	0.481400	0.677380
N331	N33	0.069080	0.784000	0.969680
C1641	C164	0.041430	0.890600	0.941720
H1521	H152	0.021700	0.901600	0.896500
C1651	C165	0.039870	0.986100	0.974950
H1531	H153	0.019500	0.060500	0.952900
C1661	C166	0.068310	0.972000	0.040660
C1671	C167	0.070140	0.069100	0.082140
C1681	C168	0.068290	0.311100	0.097850
C1691	C169	0.097170	0.860500	0.070380
H1541	H154	0.116900	0.846500	0.115400
C1701	C170	0.096630	0.770400	0.033330
H1551	H155	0.116800	0.695300	0.054100
N341	N34	0.355500	0.840400	0.023130
C1711	C171	0.335750	0.718200	0.006760
H1561	H156	0.354600	0.641000	0.021000
C1721	C172	0.289460	0.703100	0.970300
H1571	H157	0.276400	0.616000	0.959800
C1731	C173	0.261680	0.813900	0.948700
H1581	H158	0.229400	0.804100	0.923300
C1741	C174	0.281400	0.940800	0.964290
C1751	C175	0.328920	0.948500	0.002560
H1591	H159	0.343100	0.034300	0.014600
N351	N35	0.252000	0.051800	0.938940
H1601	H160	0.222600	0.035900	0.917000
C1761	C176	0.079620	0.767900	0.832650
N361	N36	0.152450	0.464200	0.828060
C1771	C177	0.149860	0.359000	0.853700
H1611	H161	0.122400	0.347800	0.845300
C1781	C178	0.184660	0.265000	0.891910
H1621	H162	0.181200	0.192400	0.909700
C1791	C179	0.224350	0.278000	0.903840
C1801	C180	0.264420	0.181800	0.944910
O591	O59	0.304330	0.220400	0.980050
C1811	C181	0.227570	0.386600	0.876700
H1631	H163	0.254500	0.398900	0.884000
C1821	C182	0.191290	0.475700	0.839300
H1641	H164	0.193600	0.548800	0.820600
C1831	C183	0.001730	0.230300	0.663120
H1651	H165	0.022700	0.234000	0.656400
H1661	H166	0.019900	0.218800	0.709200
H1671	H167	0.980400	0.154700	0.639000
C1841	C184	0.940460	0.353500	0.648920
H1681	H168	0.917200	0.283900	0.620900
H1691	H169	0.958000	0.332200	0.694000
H1701	H170	0.925000	0.440100	0.637800
C1851	C185	0.081180	0.533100	0.164100
H1711	H171	0.086400	0.610700	0.187600
C1861	C186	0.068890	0.547900	0.106500
H1721	H172	0.065300	0.634900	0.090200
C1871	C187	0.061680	0.436500	0.072000
H1731	H173	0.052400	0.445600	0.031500
C1881	C188	0.079810	0.302100	0.155710
H1741	H174	0.083400	0.216100	0.172800
O601	O60	0.132760	0.764300	0.795600
C1891	C189	0.129290	0.870600	0.816880
C1901	C190	0.085820	0.888400	0.805950
C1911	C191	0.088550	0.018900	0.836380
H1751	H175	0.115500	0.015900	0.883100
H1761	H176	0.091800	0.094500	0.818000
H1771	H177	0.060200	0.029800	0.827500
C1921	C192	0.043420	0.894400	0.732280
H1781	H178	0.015500	0.916600	0.723500
H1791	H179	0.048600	0.963100	0.713500
H1801	H180	0.039200	0.807300	0.713200
Cu131	Cu13	0.425330	0.142570	0.584970
Cu141	Cu14	0.406460	0.106000	0.734890
O611	O61	0.581130	0.984700	0.961030
O621	O62	0.509000	0.099000	0.842350
O631	O63	0.423400	0.530200	0.371760
O641	O64	0.430260	0.291300	0.634960
O651	O65	0.415040	0.149700	0.677270
O661	O66	0.451910	0.958700	0.772710
O671	O67	0.342340	0.463400	0.658300
N371	N37	0.436420	0.698700	0.435880
H1811	H181	0.444500	0.714600	0.472700
N381	N38	0.413970	0.911300	0.311650
C1931	C193	0.556020	0.879400	0.933570
C1941	C194	0.526000	0.860300	0.860600
O681	O68	0.557000	0.789700	0.963670
C1951	C195	0.493610	0.981400	0.822620
N391	N39	0.430920	0.284000	0.530320
C1961	C196	0.458570	0.390600	0.558280
H1821	H182	0.478300	0.401600	0.603500
C1971	C197	0.460130	0.486100	0.525050
H1831	H183	0.480500	0.560500	0.547100
C1981	C198	0.431690	0.472000	0.459340
C1991	C199	0.429860	0.569100	0.417860
C2001	C200	0.431710	0.811100	0.402150
C2011	C201	0.402830	0.360500	0.429620
H1841	H184	0.383100	0.346500	0.384600
C2021	C202	0.403370	0.270400	0.466670
H1851	H185	0.383200	0.195300	0.445900
N401	N40	0.144500	0.340400	0.476870
C2031	C203	0.164250	0.218200	0.493240
H1861	H186	0.145400	0.141000	0.479000
C2041	C204	0.210540	0.203100	0.529700
H1871	H187	0.223600	0.116000	0.540200
C2051	C205	0.238320	0.313900	0.551300
H1881	H188	0.270600	0.304100	0.576700
C2061	C206	0.218600	0.440800	0.535710
C2071	C207	0.171080	0.448500	0.497440
H1891	H189	0.156900	0.534300	0.485400
N411	N41	0.248000	0.551800	0.561060
H1901	H190	0.277400	0.535900	0.583000
C2081	C208	0.420380	0.267900	0.667350
N421	N42	0.347550	0.964200	0.671940
C2091	C209	0.350140	0.859000	0.646300
H1911	H191	0.377600	0.847800	0.654700
C2101	C210	0.315340	0.765000	0.608090
H1921	H192	0.318800	0.692400	0.590300
C2111	C211	0.275650	0.778000	0.596160
C2121	C212	0.235580	0.681800	0.555090
O691	O69	0.195670	0.720400	0.519950
C2131	C213	0.272430	0.886600	0.623300
H1931	H193	0.245500	0.898900	0.616000
C2141	C214	0.308710	0.975700	0.660700
H1941	H194	0.306400	0.048800	0.679400
C2151	C215	0.498270	0.730300	0.836880
H1951	H195	0.477300	0.734000	0.843600
H1961	H196	0.480100	0.718800	0.790800
H1971	H197	0.519600	0.654700	0.861000
C2161	C216	0.559540	0.853500	0.851080
H1981	H198	0.582800	0.783900	0.879100
H1991	H199	0.542000	0.832200	0.806000
H2001	H200	0.575000	0.940100	0.862200
C2171	C217	0.418820	0.033100	0.335900
H2011	H201	0.413600	0.110700	0.312400
C2181	C218	0.431110	0.047900	0.393500
H2021	H202	0.434700	0.134900	0.409800
C2191	C219	0.438320	0.936500	0.428000
H2031	H203	0.447600	0.945600	0.468500
C2201	C220	0.420190	0.802100	0.344290
H2041	H204	0.416600	0.716100	0.327200
O701	O70	0.367240	0.264300	0.704400
C2211	C221	0.370710	0.370600	0.683120
C2221	C222	0.414180	0.388400	0.694050
C2231	C223	0.411450	0.518900	0.663620
H2051	H205	0.384500	0.515900	0.616900
H2061	H206	0.408200	0.594500	0.682000
H2071	H207	0.439800	0.529800	0.672500
C2241	C224	0.456580	0.394400	0.767720
H2081	H208	0.484500	0.416600	0.776500
H2091	H209	0.451400	0.463100	0.786500
H2101	H210	0.460800	0.307300	0.786800
Cu151	Cu15	0.925330	0.642570	0.584970
Cu161	Cu16	0.906460	0.606000	0.734890
O711	O71	0.081130	0.484700	0.961030
O721	O72	0.009000	0.599000	0.842350
O731	O73	0.923400	0.030200	0.371760
O741	O74	0.930260	0.791300	0.634960
O751	O75	0.915040	0.649700	0.677270
O761	O76	0.951910	0.458700	0.772710
O771	O77	0.842340	0.963400	0.658300
N431	N43	0.936420	0.198700	0.435880
H2111	H211	0.944500	0.214600	0.472700
N441	N44	0.913970	0.411300	0.311650
C2251	C225	0.056020	0.379400	0.933570
C2261	C226	0.026000	0.360300	0.860600
O781	O78	0.057000	0.289700	0.963670
C2271	C227	0.993610	0.481400	0.822620
N451	N45	0.930920	0.784000	0.530320
C2281	C228	0.958570	0.890600	0.558280
H2121	H212	0.978300	0.901600	0.603500
C2291	C229	0.960130	0.986100	0.525050
H2131	H213	0.980500	0.060500	0.547100
C2301	C230	0.931690	0.972000	0.459340
C2311	C231	0.929860	0.069100	0.417860
C2321	C232	0.931710	0.311100	0.402150
C2331	C233	0.902830	0.860500	0.429620
H2141	H214	0.883100	0.846500	0.384600
C2341	C234	0.903370	0.770400	0.466670
H2151	H215	0.883200	0.695300	0.445900
N461	N46	0.644500	0.840400	0.476870
C2351	C235	0.664250	0.718200	0.493240
H2161	H216	0.645400	0.641000	0.479000
C2361	C236	0.710540	0.703100	0.529700
H2171	H217	0.723600	0.616000	0.540200
C2371	C237	0.738320	0.813900	0.551300
H2181	H218	0.770600	0.804100	0.576700
C2381	C238	0.718600	0.940800	0.535710
C2391	C239	0.671080	0.948500	0.497440
H2191	H219	0.656900	0.034300	0.485400
N471	N47	0.748000	0.051800	0.561060
H2201	H220	0.777400	0.035900	0.583000
C2401	C240	0.920380	0.767900	0.667350
N481	N48	0.847550	0.464200	0.671940
C2411	C241	0.850140	0.359000	0.646300
H2211	H221	0.877600	0.347800	0.654700
C2421	C242	0.815340	0.265000	0.608090
H2221	H222	0.818800	0.192400	0.590300
C2431	C243	0.775650	0.278000	0.596160
C2441	C244	0.735580	0.181800	0.555090
O791	O79	0.695670	0.220400	0.519950
C2451	C245	0.772430	0.386600	0.623300
H2231	H223	0.745500	0.398900	0.616000
C2461	C246	0.808710	0.475700	0.660700
H2241	H224	0.806400	0.548800	0.679400
C2471	C247	0.998270	0.230300	0.836880
H2251	H225	0.977300	0.234000	0.843600
H2261	H226	0.980100	0.218800	0.790800
H2271	H227	0.019600	0.154700	0.861000
C2481	C248	0.059540	0.353500	0.851080
H2281	H228	0.082800	0.283900	0.879100
H2291	H229	0.042000	0.332200	0.806000
H2301	H230	0.075000	0.440100	0.862200
C2491	C249	0.918820	0.533100	0.335900
H2311	H231	0.913600	0.610700	0.312400
C2501	C250	0.931110	0.547900	0.393500
H2321	H232	0.934700	0.634900	0.409800
C2511	C251	0.938320	0.436500	0.428000
H2331	H233	0.947600	0.445600	0.468500
C2521	C252	0.920190	0.302100	0.344290
H2341	H234	0.916600	0.216100	0.327200
O801	O80	0.867240	0.764300	0.704400
C2531	C253	0.870710	0.870600	0.683120
C2541	C254	0.914180	0.888400	0.694050
C2551	C255	0.911450	0.018900	0.663620
H2351	H235	0.884500	0.015900	0.616900
H2361	H236	0.908200	0.094500	0.682000
H2371	H237	0.939800	0.029800	0.672500
C2561	C256	0.956580	0.894400	0.767720
H2381	H238	0.984500	0.916600	0.776500
H2391	H239	0.951400	0.963100	0.786500
H2401	H240	0.960800	0.807300	0.786800
