data_EJUVOU_freeONLY_PM
_symmetry_space_group_name_H-M	'P1'
_cell_length_a	7.259000
_cell_length_b	13.407000
_cell_length_c	18.031000
_cell_angle_alpha	90.000000
_cell_angle_beta	90.000000
_cell_angle_gamma	90.000000
_symmetry_Int_Tables_number 1

loop_
_symmetry_equiv_pos_as_xyz
'x,y,z'

loop_
_atom_site_label
_atom_site_type_symbol
_atom_site_fract_x
_atom_site_fract_y
_atom_site_fract_z
Zn11	Zn1	0.486500	0.614940	0.206590
Zn21	Zn2	0.499200	0.370660	0.222910
Zn31	Zn3	0.857200	0.498460	0.418770
Zn41	Zn4	0.053600	0.857940	0.302790
Zn51	Zn5	0.942400	0.611900	0.186090
P11	P1	0.682300	0.480400	0.093400
P21	P2	0.739600	0.690800	0.329100
P31	P3	0.240400	0.788700	0.152600
P41	P4	0.189500	0.496100	0.293000
O11	O1	0.406000	0.720900	0.142300
O21	O2	0.531300	0.485500	0.156900
O31	O3	0.303000	0.589300	0.281400
O41	O4	0.304600	0.403300	0.290400
O51	O5	0.573000	0.764200	0.339100
O61	O6	0.711800	0.612200	0.386500
O71	O7	0.581900	0.476700	0.021200
O81	O8	0.238400	0.862900	0.091100
O91	O9	0.093600	0.505200	0.366600
O101	O10	0.929000	0.740500	0.335500
O111	O11	0.259000	0.840800	0.228700
O121	O12	0.798500	0.387200	0.109900
O131	O13	0.043400	0.488800	0.230600
O141	O14	0.799000	0.571900	0.098700
O151	O15	0.726300	0.647900	0.249500
O161	O16	0.060000	0.730900	0.152500
Zn61	Zn6	0.013500	0.385060	0.706590
Zn71	Zn7	0.000800	0.629340	0.722910
Zn81	Zn8	0.642800	0.501540	0.918770
Zn91	Zn9	0.446400	0.142060	0.802790
Zn101	Zn10	0.557600	0.388100	0.686090
P51	P5	0.817700	0.519600	0.593400
P61	P6	0.760400	0.309200	0.829100
P71	P7	0.259600	0.211300	0.652600
P81	P8	0.310500	0.503900	0.793000
O171	O17	0.094000	0.279100	0.642300
O181	O18	0.968700	0.514500	0.656900
O191	O19	0.197000	0.410700	0.781400
O201	O20	0.195400	0.596700	0.790400
O211	O21	0.927000	0.235800	0.839100
O221	O22	0.788200	0.387800	0.886500
O231	O23	0.918100	0.523300	0.521200
O241	O24	0.261600	0.137100	0.591100
O251	O25	0.406400	0.494800	0.866600
O261	O26	0.571000	0.259500	0.835500
O271	O27	0.241000	0.159200	0.728700
O281	O28	0.701500	0.612800	0.609900
O291	O29	0.456600	0.511200	0.730600
O301	O30	0.701000	0.428100	0.598700
O311	O31	0.773700	0.352100	0.749500
O321	O32	0.440000	0.269100	0.652500
Zn111	Zn11	0.513500	0.114940	0.293410
Zn121	Zn12	0.500800	0.870660	0.277090
Zn131	Zn13	0.142800	0.998460	0.081230
Zn141	Zn14	0.946400	0.357940	0.197210
Zn151	Zn15	0.057600	0.111900	0.313910
P91	P9	0.317700	0.980400	0.406600
P101	P10	0.260400	0.190800	0.170900
P111	P11	0.759600	0.288700	0.347400
P121	P12	0.810500	0.996100	0.207000
O331	O33	0.594000	0.220900	0.357700
O341	O34	0.468700	0.985500	0.343100
O351	O35	0.697000	0.089300	0.218600
O361	O36	0.695400	0.903300	0.209600
O371	O37	0.427000	0.264200	0.160900
O381	O38	0.288200	0.112200	0.113500
O391	O39	0.418100	0.976700	0.478800
O401	O40	0.761600	0.362900	0.408900
O411	O41	0.906400	0.005200	0.133400
O421	O42	0.071000	0.240500	0.164500
O431	O43	0.741000	0.340800	0.271300
O441	O44	0.201500	0.887200	0.390100
O451	O45	0.956600	0.988800	0.269400
O461	O46	0.201000	0.071900	0.401300
O471	O47	0.273700	0.147900	0.250500
O481	O48	0.940000	0.230900	0.347500
Zn161	Zn16	0.986500	0.885060	0.793410
Zn171	Zn17	0.999200	0.129340	0.777090
Zn181	Zn18	0.357200	0.001540	0.581230
Zn191	Zn19	0.553600	0.642060	0.697210
Zn201	Zn20	0.442400	0.888100	0.813910
P131	P13	0.182300	0.019600	0.906600
P141	P14	0.239600	0.809200	0.670900
P151	P15	0.740400	0.711300	0.847400
P161	P16	0.689500	0.003900	0.707000
O491	O49	0.906000	0.779100	0.857700
O501	O50	0.031300	0.014500	0.843100
O511	O51	0.803000	0.910700	0.718600
O521	O52	0.804600	0.096700	0.709600
O531	O53	0.073000	0.735800	0.660900
O541	O54	0.211800	0.887800	0.613500
O551	O55	0.081900	0.023300	0.978800
O561	O56	0.738400	0.637100	0.908900
O571	O57	0.593600	0.994800	0.633400
O581	O58	0.429000	0.759500	0.664500
O591	O59	0.759000	0.659200	0.771300
O601	O60	0.298500	0.112800	0.890100
O611	O61	0.543400	0.011200	0.769400
O621	O62	0.299000	0.928100	0.901300
O631	O63	0.226300	0.852100	0.750500
O641	O64	0.560000	0.769100	0.847500
