data_EKIGIQ_freeONLY_PM
_symmetry_space_group_name_H-M	'P1'
_cell_length_a	17.365500
_cell_length_b	17.365500
_cell_length_c	11.550800
_cell_angle_alpha	90.000000
_cell_angle_beta	90.000000
_cell_angle_gamma	90.000000
_symmetry_Int_Tables_number 1

loop_
_symmetry_equiv_pos_as_xyz
'x,y,z'

loop_
_atom_site_label
_atom_site_type_symbol
_atom_site_fract_x
_atom_site_fract_y
_atom_site_fract_z
N11	N1	0.167240	0.329860	0.140800
N21	N2	0.104500	0.421410	0.038800
N31	N3	0.179120	0.410820	0.862000
N41	N4	0.197380	0.335760	0.031400
O11	O1	0.290640	0.244630	0.057200
C11	C1	0.112650	0.382250	0.138900
H11	H1	0.081500	0.391800	0.202800
C21	C2	0.238800	0.370200	0.818000
C31	C3	0.278100	0.313400	0.876800
H21	H2	0.317900	0.287400	0.839500
C41	C4	0.259810	0.293750	0.990700
C51	C5	0.262100	0.392000	0.696500
H31	H3	0.223300	0.374900	0.643100
H41	H4	0.310300	0.367900	0.677900
H51	H5	0.267400	0.446900	0.691300
C61	C6	0.160390	0.391930	0.969500
N51	N5	0.667240	0.829860	0.640800
N61	N6	0.604500	0.921410	0.538800
N71	N7	0.679120	0.910820	0.362000
N81	N8	0.697380	0.835760	0.531400
O21	O2	0.790640	0.744630	0.557200
C71	C7	0.612650	0.882250	0.638900
H61	H6	0.581500	0.891800	0.702800
C81	C8	0.738800	0.870200	0.318000
C91	C9	0.778100	0.813400	0.376800
H71	H7	0.817900	0.787400	0.339500
C101	C10	0.759810	0.793750	0.490700
C111	C11	0.762100	0.892000	0.196500
H81	H8	0.723300	0.874900	0.143100
H91	H9	0.810300	0.867900	0.177900
H101	H10	0.767400	0.946900	0.191300
C121	C12	0.660390	0.891930	0.469500
N91	N9	0.332760	0.670140	0.640800
N101	N10	0.395500	0.578590	0.538800
N111	N11	0.320880	0.589180	0.362000
N121	N12	0.302620	0.664240	0.531400
O31	O3	0.209360	0.755370	0.557200
C131	C13	0.387350	0.617750	0.638900
H111	H11	0.418500	0.608200	0.702800
C141	C14	0.261200	0.629800	0.318000
C151	C15	0.221900	0.686600	0.376800
H121	H12	0.182100	0.712600	0.339500
C161	C16	0.240190	0.706250	0.490700
C171	C17	0.237900	0.608000	0.196500
H131	H13	0.276700	0.625100	0.143100
H141	H14	0.189700	0.632100	0.177900
H151	H15	0.232600	0.553100	0.191300
C181	C18	0.339610	0.608070	0.469500
N131	N13	0.832760	0.170140	0.140800
N141	N14	0.895500	0.078590	0.038800
N151	N15	0.820880	0.089180	0.862000
N161	N16	0.802620	0.164240	0.031400
O41	O4	0.709360	0.255370	0.057200
C191	C19	0.887350	0.117750	0.138900
H161	H16	0.918500	0.108200	0.202800
C201	C20	0.761200	0.129800	0.818000
C211	C21	0.721900	0.186600	0.876800
H171	H17	0.682100	0.212600	0.839500
C221	C22	0.740190	0.206250	0.990700
C231	C23	0.737900	0.108000	0.696500
H181	H18	0.776700	0.125100	0.643100
H191	H19	0.689700	0.132100	0.677900
H201	H20	0.732600	0.053100	0.691300
C241	C24	0.839610	0.108070	0.969500
N171	N17	0.420140	0.417240	0.390800
N181	N18	0.328590	0.354500	0.288800
N191	N19	0.339180	0.429120	0.112000
N201	N20	0.414240	0.447380	0.281400
O51	O5	0.505370	0.540640	0.307200
C251	C25	0.367750	0.362650	0.388900
H211	H21	0.358200	0.331500	0.452800
C261	C26	0.379800	0.488800	0.068000
C271	C27	0.436600	0.528100	0.126800
H221	H22	0.462600	0.567900	0.089500
C281	C28	0.456250	0.509810	0.240700
C291	C29	0.358000	0.512100	0.946500
H231	H23	0.375100	0.473300	0.893100
H241	H24	0.382100	0.560300	0.927900
H251	H25	0.303100	0.517400	0.941300
C301	C30	0.358070	0.410390	0.219500
N211	N21	0.920140	0.917240	0.890800
N221	N22	0.828590	0.854500	0.788800
N231	N23	0.839180	0.929120	0.612000
N241	N24	0.914240	0.947380	0.781400
O61	O6	0.005370	0.040640	0.807200
C311	C31	0.867750	0.862650	0.888900
H261	H26	0.858200	0.831500	0.952800
C321	C32	0.879800	0.988800	0.568000
C331	C33	0.936600	0.028100	0.626800
H271	H27	0.962600	0.067900	0.589500
C341	C34	0.956250	0.009810	0.740700
C351	C35	0.858000	0.012100	0.446500
H281	H28	0.875100	0.973300	0.393100
H291	H29	0.882100	0.060300	0.427900
H301	H30	0.803100	0.017400	0.441300
C361	C36	0.858070	0.910390	0.719500
N251	N25	0.079860	0.582760	0.890800
N261	N26	0.171410	0.645500	0.788800
N271	N27	0.160820	0.570880	0.612000
N281	N28	0.085760	0.552620	0.781400
O71	O7	0.994630	0.459360	0.807200
C371	C37	0.132250	0.637350	0.888900
H311	H31	0.141800	0.668500	0.952800
C381	C38	0.120200	0.511200	0.568000
C391	C39	0.063400	0.471900	0.626800
H321	H32	0.037400	0.432100	0.589500
C401	C40	0.043750	0.490190	0.740700
C411	C41	0.142000	0.487900	0.446500
H331	H33	0.124900	0.526700	0.393100
H341	H34	0.117900	0.439700	0.427900
H351	H35	0.196900	0.482600	0.441300
C421	C42	0.141930	0.589610	0.719500
N291	N29	0.579860	0.082760	0.390800
N301	N30	0.671410	0.145500	0.288800
N311	N31	0.660820	0.070880	0.112000
N321	N32	0.585760	0.052620	0.281400
O81	O8	0.494630	0.959360	0.307200
C431	C43	0.632250	0.137350	0.388900
H361	H36	0.641800	0.168500	0.452800
C441	C44	0.620200	0.011200	0.068000
C451	C45	0.563400	0.971900	0.126800
H371	H37	0.537400	0.932100	0.089500
C461	C46	0.543750	0.990190	0.240700
C471	C47	0.642000	0.987900	0.946500
H381	H38	0.624900	0.026700	0.893100
H391	H39	0.617900	0.939700	0.927900
H401	H40	0.696900	0.982600	0.941300
C481	C48	0.641930	0.089610	0.219500
N331	N33	0.832760	0.670140	0.859200
N341	N34	0.895500	0.578590	0.961200
N351	N35	0.820880	0.589180	0.138000
N361	N36	0.802620	0.664240	0.968600
O91	O9	0.709360	0.755370	0.942800
C491	C49	0.887350	0.617750	0.861100
H411	H41	0.918500	0.608200	0.797200
C501	C50	0.761200	0.629800	0.182000
C511	C51	0.721900	0.686600	0.123200
H421	H42	0.682100	0.712600	0.160500
C521	C52	0.740190	0.706250	0.009300
C531	C53	0.737900	0.608000	0.303500
H431	H43	0.776700	0.625100	0.356900
H441	H44	0.689700	0.632100	0.322100
H451	H45	0.732600	0.553100	0.308700
C541	C54	0.839610	0.608070	0.030500
N371	N37	0.332760	0.170140	0.359200
N381	N38	0.395500	0.078590	0.461200
N391	N39	0.320880	0.089180	0.638000
N401	N40	0.302620	0.164240	0.468600
O101	O10	0.209360	0.255370	0.442800
C551	C55	0.387350	0.117750	0.361100
H461	H46	0.418500	0.108200	0.297200
C561	C56	0.261200	0.129800	0.682000
C571	C57	0.221900	0.186600	0.623200
H471	H47	0.182100	0.212600	0.660500
C581	C58	0.240190	0.206250	0.509300
C591	C59	0.237900	0.108000	0.803500
H481	H48	0.276700	0.125100	0.856900
H491	H49	0.189700	0.132100	0.822100
H501	H50	0.232600	0.053100	0.808700
C601	C60	0.339610	0.108070	0.530500
N411	N41	0.667240	0.329860	0.359200
N421	N42	0.604500	0.421410	0.461200
N431	N43	0.679120	0.410820	0.638000
N441	N44	0.697380	0.335760	0.468600
O111	O11	0.790640	0.244630	0.442800
C611	C61	0.612650	0.382250	0.361100
H511	H51	0.581500	0.391800	0.297200
C621	C62	0.738800	0.370200	0.682000
C631	C63	0.778100	0.313400	0.623200
H521	H52	0.817900	0.287400	0.660500
C641	C64	0.759810	0.293750	0.509300
C651	C65	0.762100	0.392000	0.803500
H531	H53	0.723300	0.374900	0.856900
H541	H54	0.810300	0.367900	0.822100
H551	H55	0.767400	0.446900	0.808700
C661	C66	0.660390	0.391930	0.530500
N451	N45	0.167240	0.829860	0.859200
N461	N46	0.104500	0.921410	0.961200
N471	N47	0.179120	0.910820	0.138000
N481	N48	0.197380	0.835760	0.968600
O121	O12	0.290640	0.744630	0.942800
C671	C67	0.112650	0.882250	0.861100
H561	H56	0.081500	0.891800	0.797200
C681	C68	0.238800	0.870200	0.182000
C691	C69	0.278100	0.813400	0.123200
H571	H57	0.317900	0.787400	0.160500
C701	C70	0.259810	0.793750	0.009300
C711	C71	0.262100	0.892000	0.303500
H581	H58	0.223300	0.874900	0.356900
H591	H59	0.310300	0.867900	0.322100
H601	H60	0.267400	0.946900	0.308700
C721	C72	0.160390	0.891930	0.030500
N491	N49	0.579860	0.582760	0.609200
N501	N50	0.671410	0.645500	0.711200
N511	N51	0.660820	0.570880	0.888000
N521	N52	0.585760	0.552620	0.718600
O131	O13	0.494630	0.459360	0.692800
C731	C73	0.632250	0.637350	0.611100
H611	H61	0.641800	0.668500	0.547200
C741	C74	0.620200	0.511200	0.932000
C751	C75	0.563400	0.471900	0.873200
H621	H62	0.537400	0.432100	0.910500
C761	C76	0.543750	0.490190	0.759300
C771	C77	0.642000	0.487900	0.053500
H631	H63	0.624900	0.526700	0.106900
H641	H64	0.617900	0.439700	0.072100
H651	H65	0.696900	0.482600	0.058700
C781	C78	0.641930	0.589610	0.780500
N531	N53	0.079860	0.082760	0.109200
N541	N54	0.171410	0.145500	0.211200
N551	N55	0.160820	0.070880	0.388000
N561	N56	0.085760	0.052620	0.218600
O141	O14	0.994630	0.959360	0.192800
C791	C79	0.132250	0.137350	0.111100
H661	H66	0.141800	0.168500	0.047200
C801	C80	0.120200	0.011200	0.432000
C811	C81	0.063400	0.971900	0.373200
H671	H67	0.037400	0.932100	0.410500
C821	C82	0.043750	0.990190	0.259300
C831	C83	0.142000	0.987900	0.553500
H681	H68	0.124900	0.026700	0.606900
H691	H69	0.117900	0.939700	0.572100
H701	H70	0.196900	0.982600	0.558700
C841	C84	0.141930	0.089610	0.280500
N571	N57	0.920140	0.417240	0.109200
N581	N58	0.828590	0.354500	0.211200
N591	N59	0.839180	0.429120	0.388000
N601	N60	0.914240	0.447380	0.218600
O151	O15	0.005370	0.540640	0.192800
C851	C85	0.867750	0.362650	0.111100
H711	H71	0.858200	0.331500	0.047200
C861	C86	0.879800	0.488800	0.432000
C871	C87	0.936600	0.528100	0.373200
H721	H72	0.962600	0.567900	0.410500
C881	C88	0.956250	0.509810	0.259300
C891	C89	0.858000	0.512100	0.553500
H731	H73	0.875100	0.473300	0.606900
H741	H74	0.882100	0.560300	0.572100
H751	H75	0.803100	0.517400	0.558700
C901	C90	0.858070	0.410390	0.280500
N611	N61	0.420140	0.917240	0.609200
N621	N62	0.328590	0.854500	0.711200
N631	N63	0.339180	0.929120	0.888000
N641	N64	0.414240	0.947380	0.718600
O161	O16	0.505370	0.040640	0.692800
C911	C91	0.367750	0.862650	0.611100
H761	H76	0.358200	0.831500	0.547200
C921	C92	0.379800	0.988800	0.932000
C931	C93	0.436600	0.028100	0.873200
H771	H77	0.462600	0.067900	0.910500
C941	C94	0.456250	0.009810	0.759300
C951	C95	0.358000	0.012100	0.053500
H781	H78	0.375100	0.973300	0.106900
H791	H79	0.382100	0.060300	0.072100
H801	H80	0.303100	0.017400	0.058700
C961	C96	0.358070	0.910390	0.780500
Cd11	Cd1	0.000000	0.500000	0.000000
Cd21	Cd2	0.500000	0.000000	0.500000
Cd31	Cd3	0.500000	0.500000	0.500000
Cd41	Cd4	0.000000	0.000000	0.000000
Cd51	Cd5	0.250000	0.250000	0.250000
Cd61	Cd6	0.250000	0.750000	0.750000
Cd71	Cd7	0.750000	0.750000	0.750000
Cd81	Cd8	0.750000	0.250000	0.250000
