data_EKOPUQ_freeONLY_PM
_symmetry_space_group_name_H-M	'P1'
_cell_length_a	9.959300
_cell_length_b	19.822700
_cell_length_c	19.822700
_cell_angle_alpha	90.000000
_cell_angle_beta	90.000000
_cell_angle_gamma	90.000000
_symmetry_Int_Tables_number 1

loop_
_symmetry_equiv_pos_as_xyz
'x,y,z'

loop_
_atom_site_label
_atom_site_type_symbol
_atom_site_fract_x
_atom_site_fract_y
_atom_site_fract_z
Ca11	Ca1	0.000000	0.000000	0.500000
Ca21	Ca2	0.000000	0.500000	0.000000
Cd11	Cd1	0.000000	0.070810	0.657520
Cd21	Cd2	0.000000	0.929190	0.342480
Cd31	Cd3	0.000000	0.342480	0.070810
Cd41	Cd4	0.000000	0.657520	0.929190
H11	H1	0.128500	0.690900	0.473100
H21	H2	0.121700	0.764700	0.501300
H31	H3	0.204500	0.709500	0.539800
H41	H4	0.078700	0.618300	0.600900
H51	H5	0.700800	0.889500	0.534300
H61	H6	0.421300	0.766100	0.595000
H71	H7	0.385400	0.862800	0.700900
H81	H8	0.383600	0.929100	0.657900
H91	H9	0.302900	0.865700	0.633600
H101	H10	0.128500	0.309100	0.526900
H111	H11	0.121700	0.235300	0.498700
H121	H12	0.204500	0.290500	0.460200
H131	H13	0.078700	0.381700	0.399100
H141	H14	0.700800	0.110500	0.465700
H151	H15	0.421300	0.233900	0.405000
H161	H16	0.385400	0.137200	0.299100
H171	H17	0.383600	0.070900	0.342100
H181	H18	0.302900	0.134300	0.366400
H191	H19	0.128500	0.526900	0.690900
H201	H20	0.121700	0.498700	0.764700
H211	H21	0.204500	0.460200	0.709500
H221	H22	0.078700	0.399100	0.618300
H231	H23	0.700800	0.465700	0.889500
H241	H24	0.421300	0.405000	0.766100
H251	H25	0.385400	0.299100	0.862800
H261	H26	0.383600	0.342100	0.929100
H271	H27	0.302900	0.366400	0.865700
H281	H28	0.128500	0.473100	0.309100
H291	H29	0.121700	0.501300	0.235300
H301	H30	0.204500	0.539800	0.290500
H311	H31	0.078700	0.600900	0.381700
H321	H32	0.700800	0.534300	0.110500
H331	H33	0.421300	0.595000	0.233900
H341	H34	0.385400	0.700900	0.137200
H351	H35	0.383600	0.657900	0.070900
H361	H36	0.302900	0.633600	0.134300
H371	H37	0.871500	0.309100	0.526900
H381	H38	0.878300	0.235300	0.498700
H391	H39	0.795500	0.290500	0.460200
H401	H40	0.921300	0.381700	0.399100
H411	H41	0.299200	0.110500	0.465700
H421	H42	0.578700	0.233900	0.405000
H431	H43	0.614600	0.137200	0.299100
H441	H44	0.616400	0.070900	0.342100
H451	H45	0.697100	0.134300	0.366400
H461	H46	0.871500	0.690900	0.473100
H471	H47	0.878300	0.764700	0.501300
H481	H48	0.795500	0.709500	0.539800
H491	H49	0.921300	0.618300	0.600900
H501	H50	0.299200	0.889500	0.534300
H511	H51	0.578700	0.766100	0.595000
H521	H52	0.614600	0.862800	0.700900
H531	H53	0.616400	0.929100	0.657900
H541	H54	0.697100	0.865700	0.633600
H551	H55	0.871500	0.473100	0.309100
H561	H56	0.878300	0.501300	0.235300
H571	H57	0.795500	0.539800	0.290500
H581	H58	0.921300	0.600900	0.381700
H591	H59	0.299200	0.534300	0.110500
H601	H60	0.578700	0.595000	0.233900
H611	H61	0.614600	0.700900	0.137200
H621	H62	0.616400	0.657900	0.070900
H631	H63	0.697100	0.633600	0.134300
H641	H64	0.871500	0.526900	0.690900
H651	H65	0.878300	0.498700	0.764700
H661	H66	0.795500	0.460200	0.709500
H671	H67	0.921300	0.399100	0.618300
H681	H68	0.299200	0.465700	0.889500
H691	H69	0.578700	0.405000	0.766100
H701	H70	0.614600	0.299100	0.862800
H711	H71	0.616400	0.342100	0.929100
H721	H72	0.697100	0.366400	0.865700
H731	H73	0.000000	0.852600	0.774200
H741	H74	0.000000	0.669700	0.687000
H751	H75	0.000000	0.833400	0.571900
H761	H76	0.000000	0.599800	0.534900
H771	H77	0.000000	0.147400	0.225800
H781	H78	0.000000	0.330300	0.313000
H791	H79	0.000000	0.166600	0.428100
H801	H80	0.000000	0.400200	0.465100
H811	H81	0.000000	0.225800	0.852600
H821	H82	0.000000	0.313000	0.669700
H831	H83	0.000000	0.428100	0.833400
H841	H84	0.000000	0.465100	0.599800
H851	H85	0.000000	0.774200	0.147400
H861	H86	0.000000	0.687000	0.330300
H871	H87	0.000000	0.571900	0.166600
H881	H88	0.000000	0.534900	0.400200
H891	H89	0.500000	0.933900	0.364800
H901	H90	0.500000	0.765500	0.663500
H911	H91	0.500000	0.066100	0.635200
H921	H92	0.500000	0.234500	0.336500
H931	H93	0.500000	0.635200	0.933900
H941	H94	0.500000	0.336500	0.765500
H951	H95	0.500000	0.364800	0.066100
H961	H96	0.500000	0.663500	0.234500
C11	C1	0.751100	0.924800	0.410200
C21	C2	0.125500	0.717800	0.513300
C31	C3	0.620600	0.913900	0.444200
C41	C4	0.619400	0.895100	0.512000
C51	C5	0.383100	0.880700	0.655900
C61	C6	0.751100	0.075200	0.589800
C71	C7	0.125500	0.282200	0.486700
C81	C8	0.620600	0.086100	0.555800
C91	C9	0.619400	0.104900	0.488000
C101	C10	0.383100	0.119300	0.344100
C111	C11	0.751100	0.589800	0.924800
C121	C12	0.125500	0.486700	0.717800
C131	C13	0.620600	0.555800	0.913900
C141	C14	0.619400	0.488000	0.895100
C151	C15	0.383100	0.344100	0.880700
C161	C16	0.751100	0.410200	0.075200
C171	C17	0.125500	0.513300	0.282200
C181	C18	0.620600	0.444200	0.086100
C191	C19	0.619400	0.512000	0.104900
C201	C20	0.383100	0.655900	0.119300
C211	C21	0.248900	0.075200	0.589800
C221	C22	0.874500	0.282200	0.486700
C231	C23	0.379400	0.086100	0.555800
C241	C24	0.380600	0.104900	0.488000
C251	C25	0.616900	0.119300	0.344100
C261	C26	0.248900	0.924800	0.410200
C271	C27	0.874500	0.717800	0.513300
C281	C28	0.379400	0.913900	0.444200
C291	C29	0.380600	0.895100	0.512000
C301	C30	0.616900	0.880700	0.655900
C311	C31	0.248900	0.410200	0.075200
C321	C32	0.874500	0.513300	0.282200
C331	C33	0.379400	0.444200	0.086100
C341	C34	0.380600	0.512000	0.104900
C351	C35	0.616900	0.655900	0.119300
C361	C36	0.248900	0.589800	0.924800
C371	C37	0.874500	0.486700	0.717800
C381	C38	0.379400	0.555800	0.913900
C391	C39	0.380600	0.488000	0.895100
C401	C40	0.616900	0.344100	0.880700
C411	C41	0.000000	0.929000	0.662600
C421	C42	0.000000	0.722500	0.809600
C431	C43	0.000000	0.854100	0.670900
C441	C44	0.000000	0.825400	0.735900
C451	C45	0.000000	0.755800	0.741400
C461	C46	0.000000	0.716500	0.683000
C471	C47	0.000000	0.744500	0.619900
C481	C48	0.000000	0.813600	0.614400
C491	C49	0.000000	0.699100	0.554600
C501	C50	0.000000	0.627700	0.574500
C511	C51	0.000000	0.071000	0.337400
C521	C52	0.000000	0.277500	0.190400
C531	C53	0.000000	0.145900	0.329100
C541	C54	0.000000	0.174600	0.264100
C551	C55	0.000000	0.244200	0.258600
C561	C56	0.000000	0.283500	0.317000
C571	C57	0.000000	0.255500	0.380100
C581	C58	0.000000	0.186400	0.385600
C591	C59	0.000000	0.300900	0.445400
C601	C60	0.000000	0.372300	0.425500
C611	C61	0.000000	0.337400	0.929000
C621	C62	0.000000	0.190400	0.722500
C631	C63	0.000000	0.329100	0.854100
C641	C64	0.000000	0.264100	0.825400
C651	C65	0.000000	0.258600	0.755800
C661	C66	0.000000	0.317000	0.716500
C671	C67	0.000000	0.380100	0.744500
C681	C68	0.000000	0.385600	0.813600
C691	C69	0.000000	0.445400	0.699100
C701	C70	0.000000	0.425500	0.627700
C711	C71	0.000000	0.662600	0.071000
C721	C72	0.000000	0.809600	0.277500
C731	C73	0.000000	0.670900	0.145900
C741	C74	0.000000	0.735900	0.174600
C751	C75	0.000000	0.741400	0.244200
C761	C76	0.000000	0.683000	0.283500
C771	C77	0.000000	0.619900	0.255500
C781	C78	0.000000	0.614400	0.186400
C791	C79	0.000000	0.554600	0.300900
C801	C80	0.000000	0.574500	0.372300
C811	C81	0.500000	0.922400	0.410300
C821	C82	0.500000	0.884500	0.547700
C831	C83	0.500000	0.857400	0.618700
C841	C84	0.500000	0.782000	0.618000
C851	C85	0.500000	0.077600	0.589700
C861	C86	0.500000	0.115500	0.452300
C871	C87	0.500000	0.142600	0.381300
C881	C88	0.500000	0.218000	0.382000
C891	C89	0.500000	0.589700	0.922400
C901	C90	0.500000	0.452300	0.884500
C911	C91	0.500000	0.381300	0.857400
C921	C92	0.500000	0.382000	0.782000
C931	C93	0.500000	0.410300	0.077600
C941	C94	0.500000	0.547700	0.115500
C951	C95	0.500000	0.618700	0.142600
C961	C96	0.500000	0.618000	0.218000
O11	O1	0.856000	0.926300	0.446300
O21	O2	0.758100	0.930100	0.347400
O31	O3	0.856000	0.073700	0.553700
O41	O4	0.758100	0.069900	0.652600
O51	O5	0.856000	0.553700	0.926300
O61	O6	0.758100	0.652600	0.930100
O71	O7	0.856000	0.446300	0.073700
O81	O8	0.758100	0.347400	0.069900
O91	O9	0.144000	0.073700	0.553700
O101	O10	0.241900	0.069900	0.652600
O111	O11	0.144000	0.926300	0.446300
O121	O12	0.241900	0.930100	0.347400
O131	O13	0.144000	0.446300	0.073700
O141	O14	0.241900	0.347400	0.069900
O151	O15	0.144000	0.553700	0.926300
O161	O16	0.241900	0.652600	0.930100
O171	O17	0.000000	0.951900	0.604100
O181	O18	0.000000	0.967100	0.713100
O191	O19	0.000000	0.660200	0.812600
O201	O20	0.000000	0.758100	0.861300
O211	O21	0.000000	0.048100	0.395900
O221	O22	0.000000	0.032900	0.286900
O231	O23	0.000000	0.339800	0.187400
O241	O24	0.000000	0.241900	0.138700
O251	O25	0.000000	0.395900	0.951900
O261	O26	0.000000	0.286900	0.967100
O271	O27	0.000000	0.187400	0.660200
O281	O28	0.000000	0.138700	0.758100
O291	O29	0.000000	0.604100	0.048100
O301	O30	0.000000	0.713100	0.032900
O311	O31	0.000000	0.812600	0.339800
O321	O32	0.000000	0.861300	0.241900
