data_ELIKIU_freeONLY_PM
_symmetry_space_group_name_H-M	'P1'
_cell_length_a	9.341000
_cell_length_b	9.865000
_cell_length_c	11.415000
_cell_angle_alpha	94.033000
_cell_angle_beta	98.332000
_cell_angle_gamma	110.809000
_symmetry_Int_Tables_number 1

loop_
_symmetry_equiv_pos_as_xyz
'x,y,z'

loop_
_atom_site_label
_atom_site_type_symbol
_atom_site_fract_x
_atom_site_fract_y
_atom_site_fract_z
Sm11	Sm1	0.782610	0.545650	0.484970
Sm21	Sm2	0.217390	0.454350	0.515030
H11	H1	0.434500	0.394500	0.077100
H21	H2	0.346300	0.273400	0.884300
H31	H3	0.676500	0.101700	0.931100
H41	H4	0.767300	0.224400	0.119500
H51	H5	0.695700	0.286400	0.721300
H61	H6	0.818100	0.997400	0.535800
H71	H7	0.419500	0.862100	0.664900
H81	H8	0.565500	0.605500	0.922900
H91	H9	0.653700	0.726600	0.115700
H101	H10	0.323500	0.898300	0.068900
H111	H11	0.232700	0.775600	0.880500
H121	H12	0.304300	0.713600	0.278700
H131	H13	0.181900	0.002600	0.464200
H141	H14	0.580500	0.137900	0.335100
C11	C1	0.676700	0.412000	0.239100
C21	C2	0.616500	0.328000	0.119500
C31	C3	0.485300	0.337800	0.047100
C41	C4	0.431100	0.264100	0.931900
C51	C5	0.503300	0.177900	0.889200
C61	C6	0.629400	0.162400	0.960300
C71	C7	0.683300	0.236000	0.072600
C81	C8	0.547300	0.077900	0.707900
C91	C9	0.676800	0.190700	0.690100
C101	C10	0.777600	0.160900	0.626000
C111	C11	0.747700	0.018100	0.576900
C121	C12	0.611400	0.906700	0.590100
C131	C13	0.510700	0.936300	0.655800
C141	C14	0.919800	0.280200	0.602600
C151	C15	0.576400	0.753800	0.532500
C161	C16	0.323300	0.588000	0.760900
C171	C17	0.383500	0.672000	0.880500
C181	C18	0.514700	0.662200	0.952900
C191	C19	0.568900	0.735900	0.068100
C201	C20	0.496700	0.822100	0.110800
C211	C21	0.370600	0.837600	0.039700
C221	C22	0.316700	0.764000	0.927400
C231	C23	0.452700	0.922100	0.292100
C241	C24	0.323200	0.809300	0.309900
C251	C25	0.222400	0.839100	0.374000
C261	C26	0.252300	0.981900	0.423100
C271	C27	0.388600	0.093300	0.409900
C281	C28	0.489300	0.063700	0.344200
C291	C29	0.080200	0.719800	0.397400
C301	C30	0.423600	0.246200	0.467500
O11	O1	0.784800	0.390200	0.306400
O21	O2	0.622000	0.503400	0.276300
O31	O3	0.689500	0.542400	0.682400
O41	O4	0.047300	0.258900	0.611500
O51	O5	0.989000	0.717900	0.644600
O61	O6	0.911400	0.398100	0.574300
O71	O7	0.681800	0.729800	0.488900
O81	O8	0.444700	0.659700	0.532500
O91	O9	0.442700	0.104800	0.774100
O101	O10	0.215200	0.609800	0.693600
O111	O11	0.378000	0.496600	0.723700
O121	O12	0.310500	0.457600	0.317600
O131	O13	0.952700	0.741100	0.388500
O141	O14	0.011000	0.282100	0.355400
O151	O15	0.088600	0.601900	0.425700
O161	O16	0.318200	0.270200	0.511100
O171	O17	0.555300	0.340300	0.467500
O181	O18	0.557300	0.895200	0.225900
