data_ELILER_freeONLY_PM
_symmetry_space_group_name_H-M	'P1'
_cell_length_a	9.349000
_cell_length_b	9.800000
_cell_length_c	11.379000
_cell_angle_alpha	94.441000
_cell_angle_beta	99.305000
_cell_angle_gamma	111.527000
_symmetry_Int_Tables_number 1

loop_
_symmetry_equiv_pos_as_xyz
'x,y,z'

loop_
_atom_site_label
_atom_site_type_symbol
_atom_site_fract_x
_atom_site_fract_y
_atom_site_fract_z
Er11	Er1	0.724190	0.454900	0.011310
Er21	Er2	0.275810	0.545100	0.988690
H11	H1	0.729400	0.772300	0.375800
H21	H2	0.823200	0.898400	0.565500
H31	H3	0.153000	0.725600	0.616800
H41	H4	0.066400	0.606400	0.420800
H51	H5	0.076800	0.140500	0.837300
H61	H6	0.678100	0.996400	0.960900
H71	H7	0.802900	0.707600	0.776900
H81	H8	0.270600	0.227700	0.624200
H91	H9	0.176800	0.101600	0.434500
H101	H10	0.847000	0.274400	0.383200
H111	H11	0.933600	0.393600	0.579200
H121	H12	0.923200	0.859500	0.162700
H131	H13	0.321900	0.003600	0.039100
H141	H14	0.197100	0.292400	0.223100
C11	C1	0.823900	0.587000	0.253000
C21	C2	0.883000	0.669800	0.374100
C31	C3	0.814900	0.762400	0.423300
C41	C4	0.869400	0.836900	0.536700
C51	C5	0.995300	0.821000	0.610200
C61	C6	0.068400	0.734900	0.567600
C71	C7	0.014600	0.662200	0.450400
C81	C8	0.950700	0.922200	0.793500
C91	C9	0.985700	0.064000	0.845600
C101	C10	0.884400	0.092900	0.910600
C111	C11	0.749500	0.976900	0.921100
C121	C12	0.718900	0.832000	0.873200
C131	C13	0.821000	0.804100	0.809100
C141	C14	0.918500	0.245800	0.966400
C151	C15	0.583100	0.708500	0.896800
C161	C16	0.176100	0.413000	0.747000
C171	C17	0.117000	0.330200	0.625900
C181	C18	0.185100	0.237600	0.576700
C191	C19	0.130600	0.163100	0.463300
C201	C20	0.004700	0.179000	0.389800
C211	C21	0.931600	0.265100	0.432400
C221	C22	0.985400	0.337800	0.549600
C231	C23	0.049300	0.077800	0.206500
C241	C24	0.014300	0.936000	0.154400
C251	C25	0.115600	0.907100	0.089400
C261	C26	0.250500	0.023100	0.078900
C271	C27	0.281100	0.168000	0.126800
C281	C28	0.179000	0.195900	0.190900
C291	C29	0.081500	0.754200	0.033600
C301	C30	0.416900	0.291500	0.103200
O11	O1	0.877800	0.494800	0.216700
O21	O2	0.719800	0.611500	0.182600
O31	O3	0.514000	0.283500	0.855600
O41	O4	0.452400	0.722600	0.893900
O51	O5	0.808800	0.452500	0.819100
O61	O6	0.600200	0.590600	0.921900
O71	O7	0.810200	0.268700	0.009000
O81	O8	0.050300	0.344700	0.970700
O91	O9	0.056500	0.895600	0.727300
O101	O10	0.122200	0.505200	0.783300
O111	O11	0.280200	0.388500	0.817400
O121	O12	0.486000	0.716500	0.144400
O131	O13	0.547600	0.277400	0.106100
O141	O14	0.191200	0.547500	0.180900
O151	O15	0.399800	0.409400	0.078100
O161	O16	0.189800	0.731300	0.991000
O171	O17	0.949700	0.655300	0.029300
O181	O18	0.943500	0.104400	0.272700
