data_ELILAN_freeONLY_PM
_symmetry_space_group_name_H-M	'P1'
_cell_length_a	9.341000
_cell_length_b	9.813000
_cell_length_c	11.395000
_cell_angle_alpha	94.247000
_cell_angle_beta	99.087000
_cell_angle_gamma	111.259000
_symmetry_Int_Tables_number 1

loop_
_symmetry_equiv_pos_as_xyz
'x,y,z'

loop_
_atom_site_label
_atom_site_type_symbol
_atom_site_fract_x
_atom_site_fract_y
_atom_site_fract_z
Dy11	Dy1	0.221850	0.454830	0.012710
Dy21	Dy2	0.778150	0.545170	0.987290
H11	H1	0.567500	0.607200	0.421500
H21	H2	0.654200	0.727200	0.617600
H31	H3	0.320600	0.896900	0.566700
H41	H4	0.230800	0.773100	0.377200
H51	H5	0.303000	0.709800	0.776500
H61	H6	0.177600	0.998800	0.960600
H71	H7	0.580200	0.140500	0.837200
H81	H8	0.432500	0.392800	0.578500
H91	H9	0.345800	0.272800	0.382400
H101	H10	0.679400	0.103100	0.433300
H111	H11	0.769200	0.226900	0.622800
H121	H12	0.697000	0.290200	0.223500
H131	H13	0.822400	0.001200	0.039400
H141	H14	0.419800	0.859500	0.162800
C11	C1	0.324300	0.588300	0.255800
C21	C2	0.384400	0.671500	0.376600
C31	C3	0.515600	0.662900	0.451300
C41	C4	0.569300	0.736100	0.568800
C51	C5	0.495200	0.821200	0.611300
C61	C6	0.368300	0.836600	0.537900
C71	C7	0.315800	0.762900	0.424900
C81	C8	0.451300	0.921800	0.792700
C91	C9	0.322000	0.806100	0.808700
C101	C10	0.220400	0.835400	0.873700
C111	C11	0.249300	0.978900	0.921200
C121	C12	0.384800	0.093100	0.910100
C131	C13	0.488600	0.064900	0.845000
C141	C14	0.080400	0.711400	0.897000
C151	C15	0.421200	0.247300	0.968400
C161	C16	0.675700	0.411700	0.744200
C171	C17	0.615600	0.328500	0.623400
C181	C18	0.484400	0.337100	0.548700
C191	C19	0.430700	0.263900	0.431200
C201	C20	0.504800	0.178800	0.388700
C211	C21	0.631700	0.163400	0.462100
C221	C22	0.684200	0.237100	0.575100
C231	C23	0.548700	0.078200	0.207300
C241	C24	0.678000	0.193900	0.191300
C251	C25	0.779600	0.164600	0.126300
C261	C26	0.750700	0.021100	0.078800
C271	C27	0.615200	0.906900	0.089900
C281	C28	0.511400	0.935100	0.155000
C291	C29	0.919600	0.288600	0.103000
C301	C30	0.578800	0.752700	0.031600
O11	O1	0.378700	0.495200	0.219000
O21	O2	0.218400	0.610100	0.185500
O31	O3	0.012200	0.283600	0.856000
O41	O4	0.096400	0.595400	0.924300
O51	O5	0.308200	0.454300	0.817700
O61	O6	0.953200	0.729400	0.892100
O71	O7	0.552100	0.344500	0.969700
O81	O8	0.313000	0.269000	0.009800
O91	O9	0.555800	0.894900	0.726500
O101	O10	0.621300	0.504800	0.781000
O111	O11	0.781600	0.389900	0.814500
O121	O12	0.987800	0.716400	0.144000
O131	O13	0.903600	0.404600	0.075700
O141	O14	0.691800	0.545700	0.182300
O151	O15	0.046800	0.270600	0.107900
O161	O16	0.447900	0.655500	0.030300
O171	O17	0.687000	0.731000	0.990200
O181	O18	0.444200	0.105100	0.273500
