data_ELOZEK_freeONLY_PM
_symmetry_space_group_name_H-M	'P1'
_cell_length_a	10.351500
_cell_length_b	21.377600
_cell_length_c	21.377600
_cell_angle_alpha	62.553400
_cell_angle_beta	80.711400
_cell_angle_gamma	99.288600
_symmetry_Int_Tables_number 1

loop_
_symmetry_equiv_pos_as_xyz
'x,y,z'

loop_
_atom_site_label
_atom_site_type_symbol
_atom_site_fract_x
_atom_site_fract_y
_atom_site_fract_z
P11	P1	0.469190	0.598210	0.943140
P21	P2	0.498980	0.781940	0.724600
P31	P3	0.031730	0.434480	0.964090
P41	P4	0.303170	0.545440	0.722730
P51	P5	0.412330	0.943140	0.458650
P61	P6	0.223580	0.724600	0.493460
P71	P7	0.995820	0.964090	0.601430
P81	P8	0.025900	0.722730	0.731830
P91	P9	0.870980	0.458650	0.598210
P101	P10	0.717040	0.493460	0.781940
P111	P11	0.597250	0.601430	0.434480
P121	P12	0.757730	0.731830	0.545440
P131	P13	0.530810	0.401790	0.056860
P141	P14	0.501020	0.218060	0.275400
P151	P15	0.968270	0.565520	0.035910
P161	P16	0.696830	0.454560	0.277270
P171	P17	0.587670	0.056860	0.541350
P181	P18	0.776420	0.275400	0.506540
P191	P19	0.004180	0.035910	0.398570
P201	P20	0.974100	0.277270	0.268170
P211	P21	0.129020	0.541350	0.401790
P221	P22	0.282960	0.506540	0.218060
P231	P23	0.402750	0.398570	0.565520
P241	P24	0.242270	0.268170	0.454560
H11	H1	0.493300	0.830600	0.802000
H21	H2	0.347600	0.811000	0.793200
H31	H3	0.535900	0.716600	0.924400
H41	H4	0.577300	0.718300	0.849900
H51	H5	0.223800	0.739700	0.928000
H61	H6	0.302000	0.693700	0.981000
H71	H7	0.038400	0.334000	0.948900
H81	H8	0.957600	0.381400	0.898200
H91	H9	0.082000	0.499300	0.805500
H101	H10	0.092300	0.455700	0.763700
H111	H11	0.263900	0.381500	0.790600
H121	H12	0.221100	0.323600	0.874000
H131	H13	0.295300	0.802000	0.367400
H141	H14	0.140800	0.793200	0.395800
H151	H15	0.460300	0.924400	0.359000
H161	H16	0.427200	0.849900	0.431800
H171	H17	0.151800	0.928000	0.332300
H181	H18	0.283000	0.981000	0.325300
H191	H19	0.987300	0.948900	0.717100
H201	H20	0.855800	0.898200	0.720400
H211	H21	0.887500	0.805500	0.695200
H221	H22	0.856000	0.763700	0.780600
H231	H23	0.054500	0.790600	0.827900
H241	H24	0.095100	0.874000	0.802400
H251	H25	0.662700	0.367400	0.830600
H261	H26	0.536600	0.395800	0.811000
H271	H27	0.819300	0.359000	0.716600
H281	H28	0.859000	0.431800	0.718300
H291	H29	0.484100	0.332300	0.739700
H301	H30	0.608300	0.325300	0.693700
H311	H31	0.704400	0.717100	0.334000
H321	H32	0.576200	0.720400	0.381400
H331	H33	0.582700	0.695200	0.499300
H341	H34	0.636600	0.780600	0.455700
H351	H35	0.882400	0.827900	0.381500
H361	H36	0.897500	0.802400	0.323600
H371	H37	0.506700	0.169400	0.198000
H381	H38	0.652400	0.189000	0.206800
H391	H39	0.464100	0.283400	0.075600
H401	H40	0.422700	0.281700	0.150100
H411	H41	0.776200	0.260300	0.072000
H421	H42	0.698000	0.306300	0.019000
H431	H43	0.961600	0.666000	0.051100
H441	H44	0.042400	0.618600	0.101800
H451	H45	0.918000	0.500700	0.194500
H461	H46	0.907700	0.544300	0.236300
H471	H47	0.736100	0.618500	0.209400
H481	H48	0.778900	0.676400	0.126000
H491	H49	0.704700	0.198000	0.632600
H501	H50	0.859200	0.206800	0.604200
H511	H51	0.539700	0.075600	0.641000
H521	H52	0.572800	0.150100	0.568200
H531	H53	0.848200	0.072000	0.667700
H541	H54	0.717000	0.019000	0.674700
H551	H55	0.012700	0.051100	0.282900
H561	H56	0.144200	0.101800	0.279600
H571	H57	0.112500	0.194500	0.304800
H581	H58	0.144000	0.236300	0.219400
H591	H59	0.945500	0.209400	0.172100
H601	H60	0.904900	0.126000	0.197600
H611	H61	0.337300	0.632600	0.169400
H621	H62	0.463400	0.604200	0.189000
H631	H63	0.180700	0.641000	0.283400
H641	H64	0.141000	0.568200	0.281700
H651	H65	0.515900	0.667700	0.260300
H661	H66	0.391700	0.674700	0.306300
H671	H67	0.295600	0.282900	0.666000
H681	H68	0.423800	0.279600	0.618600
H691	H69	0.417300	0.304800	0.500700
H701	H70	0.363400	0.219400	0.544300
H711	H71	0.117600	0.172100	0.618500
H721	H72	0.102500	0.197600	0.676400
Pb11	Pb1	0.385810	0.458590	0.900480
Pb21	Pb2	0.789010	0.544960	0.910890
Pb31	Pb3	0.348430	0.736790	0.615310
Pb41	Pb4	0.201110	0.618600	0.864020
Pb51	Pb5	0.286290	0.900480	0.640930
Pb61	Pb6	0.699900	0.910890	0.544150
Pb71	Pb7	0.963740	0.615310	0.647900
Pb81	Pb8	0.065130	0.864020	0.517380
Pb91	Pb9	0.927220	0.640930	0.458590
Pb101	Pb10	0.244050	0.544150	0.544960
Pb111	Pb11	0.611640	0.647900	0.736790
Pb121	Pb12	0.582510	0.517380	0.618600
Pb131	Pb13	0.614190	0.541410	0.099520
Pb141	Pb14	0.210990	0.455040	0.089110
Pb151	Pb15	0.651570	0.263210	0.384690
Pb161	Pb16	0.798890	0.381400	0.135980
Pb171	Pb17	0.713710	0.099520	0.359070
Pb181	Pb18	0.300100	0.089110	0.455850
Pb191	Pb19	0.036260	0.384690	0.352100
Pb201	Pb20	0.934870	0.135980	0.482620
Pb211	Pb21	0.072780	0.359070	0.541410
Pb221	Pb22	0.755950	0.455850	0.455040
Pb231	Pb23	0.388360	0.352100	0.263210
Pb241	Pb24	0.417490	0.482620	0.381400
C11	C1	0.427000	0.793300	0.801300
C21	C2	0.504500	0.698500	0.894000
C31	C3	0.313900	0.737100	0.934400
C41	C4	0.374700	0.802200	0.940100
C51	C5	0.301600	0.853200	0.913400
C61	C6	0.476500	0.810000	0.954500
C71	C7	0.038600	0.383800	0.915000
C81	C8	0.139900	0.475000	0.789300
C91	C9	0.189600	0.357400	0.834600
C101	C10	0.075600	0.313300	0.823500
C111	C11	0.113600	0.336200	0.744400
C121	C12	0.114900	0.240800	0.852100
C131	C13	0.228300	0.801300	0.405400
C141	C14	0.398500	0.894000	0.407500
C151	C15	0.248300	0.934400	0.328500
C161	C16	0.314800	0.940100	0.257700
C171	C17	0.215000	0.913400	0.233400
C181	C18	0.431000	0.954500	0.235500
C191	C19	0.953600	0.915000	0.701200
C201	C20	0.929200	0.789300	0.735700
C211	C21	0.024200	0.834600	0.808000
C221	C22	0.899100	0.823500	0.863200
C231	C23	0.858000	0.744400	0.919400
C241	C24	0.967000	0.852100	0.907100
C251	C25	0.633700	0.405400	0.793300
C261	C26	0.806000	0.407500	0.698500
C271	C27	0.576800	0.328500	0.737100
C281	C28	0.572500	0.257700	0.802200
C291	C29	0.448400	0.233400	0.853200
C301	C30	0.666500	0.235500	0.810000
C311	C31	0.654800	0.701200	0.383800
C321	C32	0.664900	0.735700	0.475000
C331	C33	0.832200	0.808000	0.357400
C341	C34	0.762300	0.863200	0.313300
C351	C35	0.777400	0.919400	0.336200
C361	C36	0.874100	0.907100	0.240800
C371	C37	0.573000	0.206700	0.198700
C381	C38	0.495500	0.301500	0.106000
C391	C39	0.686100	0.262900	0.065600
C401	C40	0.625300	0.197800	0.059900
C411	C41	0.698400	0.146800	0.086600
C421	C42	0.523500	0.190000	0.045500
C431	C43	0.961400	0.616200	0.085000
C441	C44	0.860100	0.525000	0.210700
C451	C45	0.810400	0.642600	0.165400
C461	C46	0.924400	0.686700	0.176500
C471	C47	0.886400	0.663800	0.255600
C481	C48	0.885100	0.759200	0.147900
C491	C49	0.771700	0.198700	0.594600
C501	C50	0.601500	0.106000	0.592500
C511	C51	0.751700	0.065600	0.671500
C521	C52	0.685200	0.059900	0.742300
C531	C53	0.785000	0.086600	0.766600
C541	C54	0.569000	0.045500	0.764500
C551	C55	0.046400	0.085000	0.298800
C561	C56	0.070800	0.210700	0.264300
C571	C57	0.975800	0.165400	0.192000
C581	C58	0.100900	0.176500	0.136800
C591	C59	0.142000	0.255600	0.080600
C601	C60	0.033000	0.147900	0.092900
C611	C61	0.366300	0.594600	0.206700
C621	C62	0.194000	0.592500	0.301500
C631	C63	0.423200	0.671500	0.262900
C641	C64	0.427500	0.742300	0.197800
C651	C65	0.551600	0.766600	0.146800
C661	C66	0.333500	0.764500	0.190000
C671	C67	0.345200	0.298800	0.616200
C681	C68	0.335100	0.264300	0.525000
C691	C69	0.167800	0.192000	0.642600
C701	C70	0.237700	0.136800	0.686700
C711	C71	0.222600	0.080600	0.663800
C721	C72	0.125900	0.092900	0.759200
N11	N1	0.388700	0.725400	0.874100
N21	N2	0.156300	0.414700	0.852900
N31	N3	0.262800	0.874100	0.400500
N41	N4	0.009200	0.852900	0.732400
N51	N5	0.663300	0.400500	0.725400
N61	N6	0.741600	0.732400	0.414700
N71	N7	0.611300	0.274600	0.125900
N81	N8	0.843700	0.585300	0.147100
N91	N9	0.737200	0.125900	0.599500
N101	N10	0.990800	0.147100	0.267600
N111	N11	0.336700	0.599500	0.274600
N121	N12	0.258400	0.267600	0.585300
O11	O1	0.454300	0.575200	0.885600
O21	O2	0.589600	0.580600	0.974100
O31	O3	0.334400	0.569600	0.001200
O41	O4	0.416700	0.708800	0.736900
O51	O5	0.485300	0.844900	0.657000
O61	O6	0.644800	0.782100	0.720800
O71	O7	0.988000	0.503200	0.918900
O81	O8	0.177400	0.459000	0.968600
O91	O9	0.932000	0.381800	0.038100
O101	O10	0.251200	0.613000	0.678000
O111	O11	0.365500	0.514600	0.678000
O121	O12	0.389900	0.555900	0.771200
O131	O13	0.339900	0.885600	0.539200
O141	O14	0.563700	0.974100	0.445300
O151	O15	0.335600	0.001200	0.429200
O161	O16	0.153600	0.736900	0.554300
O171	O17	0.142300	0.657000	0.498100
O181	O18	0.365600	0.720800	0.497100
O191	O19	0.906900	0.918900	0.577900
O201	O20	0.146000	0.968600	0.572400
O211	O21	0.970100	0.038100	0.580100
O221	O22	0.929200	0.678000	0.709000
O231	O23	0.043500	0.678000	0.807400
O241	O24	0.161100	0.771200	0.672900
O251	O25	0.879100	0.539200	0.575200
O261	O26	0.009000	0.445300	0.580600
O271	O27	0.764800	0.429200	0.569600
O281	O28	0.707900	0.554300	0.708800
O291	O29	0.640400	0.498100	0.844900
O301	O30	0.862700	0.497100	0.782100
O311	O31	0.484800	0.577900	0.503200
O321	O32	0.718400	0.572400	0.459000
O331	O33	0.550200	0.580100	0.381800
O341	O34	0.638200	0.709000	0.613000
O351	O35	0.850900	0.807400	0.514600
O361	O36	0.834000	0.672900	0.555900
O371	O37	0.545700	0.424800	0.114400
O381	O38	0.410400	0.419400	0.025900
O391	O39	0.665600	0.430400	0.998800
O401	O40	0.583300	0.291200	0.263100
O411	O41	0.514700	0.155100	0.343000
O421	O42	0.355200	0.217900	0.279200
O431	O43	0.012000	0.496800	0.081100
O441	O44	0.822600	0.541000	0.031400
O451	O45	0.068000	0.618200	0.961900
O461	O46	0.748800	0.387000	0.322000
O471	O47	0.634500	0.485400	0.322000
O481	O48	0.610100	0.444100	0.228800
O491	O49	0.660100	0.114400	0.460800
O501	O50	0.436300	0.025900	0.554700
O511	O51	0.664400	0.998800	0.570800
O521	O52	0.846400	0.263100	0.445700
O531	O53	0.857700	0.343000	0.501900
O541	O54	0.634400	0.279200	0.502900
O551	O55	0.093100	0.081100	0.422100
O561	O56	0.854000	0.031400	0.427600
O571	O57	0.029900	0.961900	0.419900
O581	O58	0.070800	0.322000	0.291000
O591	O59	0.956500	0.322000	0.192600
O601	O60	0.838900	0.228800	0.327100
O611	O61	0.120900	0.460800	0.424800
O621	O62	0.991000	0.554700	0.419400
O631	O63	0.235200	0.570800	0.430400
O641	O64	0.292100	0.445700	0.291200
O651	O65	0.359600	0.501900	0.155100
O661	O66	0.137300	0.502900	0.217900
O671	O67	0.515200	0.422100	0.496800
O681	O68	0.281600	0.427600	0.541000
O691	O69	0.449800	0.419900	0.618200
O701	O70	0.361800	0.291000	0.387000
O711	O71	0.149100	0.192600	0.485400
O721	O72	0.166000	0.327100	0.444100
