data_EMAFII_charged_PM
_symmetry_space_group_name_H-M	'P1'
_cell_length_a	19.893100
_cell_length_b	19.893100
_cell_length_c	19.893100
_cell_angle_alpha	90.000000
_cell_angle_beta	90.000000
_cell_angle_gamma	90.000000
_symmetry_Int_Tables_number 1

loop_
_symmetry_equiv_pos_as_xyz
'x,y,z'

loop_
_atom_site_label
_atom_site_type_symbol
_atom_site_fract_x
_atom_site_fract_y
_atom_site_fract_z
Ag11	Ag1	0.997030	0.997030	0.997030
Ag21	Ag2	0.502970	0.002970	0.497030
Ag31	Ag3	0.002970	0.497030	0.502970
Ag41	Ag4	0.497030	0.502970	0.002970
Ag51	Ag5	0.247030	0.747030	0.752970
Ag61	Ag6	0.252970	0.252970	0.252970
Ag71	Ag7	0.747030	0.752970	0.247030
Ag81	Ag8	0.752970	0.247030	0.747030
H11	H1	0.102800	0.182400	0.837900
H21	H2	0.097900	0.181200	0.987600
H31	H3	0.021000	0.199300	0.972600
H41	H4	0.039300	0.133200	0.014700
H51	H5	0.051500	0.067900	0.711000
H61	H6	0.112800	0.119300	0.719500
H71	H7	0.124000	0.040800	0.733100
H81	H8	0.981100	0.961200	0.847400
H91	H9	0.021700	0.969300	0.778500
H101	H10	0.153200	0.983800	0.856800
H111	H11	0.924500	0.750900	0.850100
H121	H12	0.956600	0.860700	0.828600
H131	H13	0.397200	0.817600	0.337900
H141	H14	0.402100	0.818800	0.487600
H151	H15	0.479000	0.800700	0.472600
H161	H16	0.460700	0.866800	0.514700
H171	H17	0.448500	0.932100	0.211000
H181	H18	0.387200	0.880700	0.219500
H191	H19	0.376000	0.959200	0.233100
H201	H20	0.518900	0.038800	0.347400
H211	H21	0.478300	0.030700	0.278500
H221	H22	0.346800	0.016200	0.356800
H231	H23	0.575500	0.249100	0.350100
H241	H24	0.543400	0.139300	0.328600
H251	H25	0.897200	0.682400	0.662100
H261	H26	0.902100	0.681200	0.512400
H271	H27	0.979000	0.699300	0.527400
H281	H28	0.960700	0.633200	0.485300
H291	H29	0.948500	0.567900	0.789000
H301	H30	0.887200	0.619300	0.780500
H311	H31	0.876000	0.540800	0.766900
H321	H32	0.018900	0.461200	0.652600
H331	H33	0.978300	0.469300	0.721500
H341	H34	0.846800	0.483800	0.643200
H351	H35	0.075500	0.250900	0.649900
H361	H36	0.043400	0.360700	0.671400
H371	H37	0.602800	0.317600	0.162100
H381	H38	0.597900	0.318800	0.012400
H391	H39	0.521000	0.300700	0.027400
H401	H40	0.539300	0.366800	0.985300
H411	H41	0.551500	0.432100	0.289000
H421	H42	0.612800	0.380700	0.280500
H431	H43	0.624000	0.459200	0.266900
H441	H44	0.481100	0.538800	0.152600
H451	H45	0.521700	0.530700	0.221500
H461	H46	0.653200	0.516200	0.143200
H471	H47	0.424500	0.749100	0.149900
H481	H48	0.456600	0.639300	0.171400
H491	H49	0.837900	0.102800	0.182400
H501	H50	0.987600	0.097900	0.181200
H511	H51	0.972600	0.021000	0.199300
H521	H52	0.014700	0.039300	0.133200
H531	H53	0.711000	0.051500	0.067900
H541	H54	0.719500	0.112800	0.119300
H551	H55	0.733100	0.124000	0.040800
H561	H56	0.847400	0.981100	0.961200
H571	H57	0.778500	0.021700	0.969300
H581	H58	0.856800	0.153200	0.983800
H591	H59	0.850100	0.924500	0.750900
H601	H60	0.828600	0.956600	0.860700
H611	H61	0.337900	0.397200	0.817600
H621	H62	0.487600	0.402100	0.818800
H631	H63	0.472600	0.479000	0.800700
H641	H64	0.514700	0.460700	0.866800
H651	H65	0.211000	0.448500	0.932100
H661	H66	0.219500	0.387200	0.880700
H671	H67	0.233100	0.376000	0.959200
H681	H68	0.347400	0.518900	0.038800
H691	H69	0.278500	0.478300	0.030700
H701	H70	0.356800	0.346800	0.016200
H711	H71	0.350100	0.575500	0.249100
H721	H72	0.328600	0.543400	0.139300
H731	H73	0.662100	0.897200	0.682400
H741	H74	0.512400	0.902100	0.681200
H751	H75	0.527400	0.979000	0.699300
H761	H76	0.485300	0.960700	0.633200
H771	H77	0.789000	0.948500	0.567900
H781	H78	0.780500	0.887200	0.619300
H791	H79	0.766900	0.876000	0.540800
H801	H80	0.652600	0.018900	0.461200
H811	H81	0.721500	0.978300	0.469300
H821	H82	0.643200	0.846800	0.483800
H831	H83	0.649900	0.075500	0.250900
H841	H84	0.671400	0.043400	0.360700
H851	H85	0.162100	0.602800	0.317600
H861	H86	0.012400	0.597900	0.318800
H871	H87	0.027400	0.521000	0.300700
H881	H88	0.985300	0.539300	0.366800
H891	H89	0.289000	0.551500	0.432100
H901	H90	0.280500	0.612800	0.380700
H911	H91	0.266900	0.624000	0.459200
H921	H92	0.152600	0.481100	0.538800
H931	H93	0.221500	0.521700	0.530700
H941	H94	0.143200	0.653200	0.516200
H951	H95	0.149900	0.424500	0.749100
H961	H96	0.171400	0.456600	0.639300
H971	H97	0.182400	0.837900	0.102800
H981	H98	0.181200	0.987600	0.097900
H991	H99	0.199300	0.972600	0.021000
H1001	H100	0.133200	0.014700	0.039300
H1011	H101	0.067900	0.711000	0.051500
H1021	H102	0.119300	0.719500	0.112800
H1031	H103	0.040800	0.733100	0.124000
H1041	H104	0.961200	0.847400	0.981100
H1051	H105	0.969300	0.778500	0.021700
H1061	H106	0.983800	0.856800	0.153200
H1071	H107	0.750900	0.850100	0.924500
H1081	H108	0.860700	0.828600	0.956600
H1091	H109	0.817600	0.337900	0.397200
H1101	H110	0.818800	0.487600	0.402100
H1111	H111	0.800700	0.472600	0.479000
H1121	H112	0.866800	0.514700	0.460700
H1131	H113	0.932100	0.211000	0.448500
H1141	H114	0.880700	0.219500	0.387200
H1151	H115	0.959200	0.233100	0.376000
H1161	H116	0.038800	0.347400	0.518900
H1171	H117	0.030700	0.278500	0.478300
H1181	H118	0.016200	0.356800	0.346800
H1191	H119	0.249100	0.350100	0.575500
H1201	H120	0.139300	0.328600	0.543400
H1211	H121	0.682400	0.662100	0.897200
H1221	H122	0.681200	0.512400	0.902100
H1231	H123	0.699300	0.527400	0.979000
H1241	H124	0.633200	0.485300	0.960700
H1251	H125	0.567900	0.789000	0.948500
H1261	H126	0.619300	0.780500	0.887200
H1271	H127	0.540800	0.766900	0.876000
H1281	H128	0.461200	0.652600	0.018900
H1291	H129	0.469300	0.721500	0.978300
H1301	H130	0.483800	0.643200	0.846800
H1311	H131	0.250900	0.649900	0.075500
H1321	H132	0.360700	0.671400	0.043400
H1331	H133	0.317600	0.162100	0.602800
H1341	H134	0.318800	0.012400	0.597900
H1351	H135	0.300700	0.027400	0.521000
H1361	H136	0.366800	0.985300	0.539300
H1371	H137	0.432100	0.289000	0.551500
H1381	H138	0.380700	0.280500	0.612800
H1391	H139	0.459200	0.266900	0.624000
H1401	H140	0.538800	0.152600	0.481100
H1411	H141	0.530700	0.221500	0.521700
H1421	H142	0.516200	0.143200	0.653200
H1431	H143	0.749100	0.149900	0.424500
H1441	H144	0.639300	0.171400	0.456600
H1451	H145	0.432400	0.852800	0.912100
H1461	H146	0.431200	0.847900	0.762400
H1471	H147	0.449300	0.771000	0.777400
H1481	H148	0.383200	0.789300	0.735300
H1491	H149	0.317900	0.801500	0.039000
H1501	H150	0.369300	0.862800	0.030500
H1511	H151	0.290800	0.874000	0.016900
H1521	H152	0.211200	0.731100	0.902600
H1531	H153	0.219300	0.771700	0.971500
H1541	H154	0.233800	0.903200	0.893200
H1551	H155	0.000900	0.674500	0.899900
H1561	H156	0.110700	0.706600	0.921400
H1571	H157	0.067600	0.147200	0.412100
H1581	H158	0.068800	0.152100	0.262400
H1591	H159	0.050700	0.229000	0.277400
H1601	H160	0.116800	0.210700	0.235300
H1611	H161	0.182100	0.198500	0.539000
H1621	H162	0.130700	0.137200	0.530500
H1631	H163	0.209200	0.126000	0.516900
H1641	H164	0.288800	0.268900	0.402600
H1651	H165	0.280700	0.228300	0.471500
H1661	H166	0.266200	0.096800	0.393200
H1671	H167	0.499100	0.325500	0.399900
H1681	H168	0.389300	0.293400	0.421400
H1691	H169	0.932400	0.647200	0.087900
H1701	H170	0.931200	0.652100	0.237600
H1711	H171	0.949300	0.729000	0.222600
H1721	H172	0.883200	0.710700	0.264700
H1731	H173	0.817900	0.698500	0.961000
H1741	H174	0.869300	0.637200	0.969500
H1751	H175	0.790800	0.626000	0.983100
H1761	H176	0.711200	0.768900	0.097400
H1771	H177	0.719300	0.728300	0.028500
H1781	H178	0.733800	0.596800	0.106800
H1791	H179	0.500900	0.825500	0.100100
H1801	H180	0.610700	0.793400	0.078600
H1811	H181	0.567600	0.352800	0.587900
H1821	H182	0.568800	0.347900	0.737600
H1831	H183	0.550700	0.271000	0.722600
H1841	H184	0.616800	0.289300	0.764700
H1851	H185	0.682100	0.301500	0.461000
H1861	H186	0.630700	0.362800	0.469500
H1871	H187	0.709200	0.374000	0.483100
H1881	H188	0.788800	0.231100	0.597400
H1891	H189	0.780700	0.271700	0.528500
H1901	H190	0.766200	0.403200	0.606800
H1911	H191	0.999100	0.174500	0.600100
H1921	H192	0.889300	0.206600	0.578600
H1931	H193	0.352800	0.587900	0.567600
H1941	H194	0.347900	0.737600	0.568800
H1951	H195	0.271000	0.722600	0.550700
H1961	H196	0.289300	0.764700	0.616800
H1971	H197	0.301500	0.461000	0.682100
H1981	H198	0.362800	0.469500	0.630700
H1991	H199	0.374000	0.483100	0.709200
H2001	H200	0.231100	0.597400	0.788800
H2011	H201	0.271700	0.528500	0.780700
H2021	H202	0.403200	0.606800	0.766200
H2031	H203	0.174500	0.600100	0.999100
H2041	H204	0.206600	0.578600	0.889300
H2051	H205	0.647200	0.087900	0.932400
H2061	H206	0.652100	0.237600	0.931200
H2071	H207	0.729000	0.222600	0.949300
H2081	H208	0.710700	0.264700	0.883200
H2091	H209	0.698500	0.961000	0.817900
H2101	H210	0.637200	0.969500	0.869300
H2111	H211	0.626000	0.983100	0.790800
H2121	H212	0.768900	0.097400	0.711200
H2131	H213	0.728300	0.028500	0.719300
H2141	H214	0.596800	0.106800	0.733800
H2151	H215	0.825500	0.100100	0.500900
H2161	H216	0.793400	0.078600	0.610700
H2171	H217	0.147200	0.412100	0.067600
H2181	H218	0.152100	0.262400	0.068800
H2191	H219	0.229000	0.277400	0.050700
H2201	H220	0.210700	0.235300	0.116800
H2211	H221	0.198500	0.539000	0.182100
H2221	H222	0.137200	0.530500	0.130700
H2231	H223	0.126000	0.516900	0.209200
H2241	H224	0.268900	0.402600	0.288800
H2251	H225	0.228300	0.471500	0.280700
H2261	H226	0.096800	0.393200	0.266200
H2271	H227	0.325500	0.399900	0.499100
H2281	H228	0.293400	0.421400	0.389300
H2291	H229	0.852800	0.912100	0.432400
H2301	H230	0.847900	0.762400	0.431200
H2311	H231	0.771000	0.777400	0.449300
H2321	H232	0.789300	0.735300	0.383200
H2331	H233	0.801500	0.039000	0.317900
H2341	H234	0.862800	0.030500	0.369300
H2351	H235	0.874000	0.016900	0.290800
H2361	H236	0.731100	0.902600	0.211200
H2371	H237	0.771700	0.971500	0.219300
H2381	H238	0.903200	0.893200	0.233800
H2391	H239	0.674500	0.899900	0.000900
H2401	H240	0.706600	0.921400	0.110700
H2411	H241	0.087900	0.932400	0.647200
H2421	H242	0.237600	0.931200	0.652100
H2431	H243	0.222600	0.949300	0.729000
H2441	H244	0.264700	0.883200	0.710700
H2451	H245	0.961000	0.817900	0.698500
H2461	H246	0.969500	0.869300	0.637200
H2471	H247	0.983100	0.790800	0.626000
H2481	H248	0.097400	0.711200	0.768900
H2491	H249	0.028500	0.719300	0.728300
H2501	H250	0.106800	0.733800	0.596800
H2511	H251	0.100100	0.500900	0.825500
H2521	H252	0.078600	0.610700	0.793400
H2531	H253	0.587900	0.567600	0.352800
H2541	H254	0.737600	0.568800	0.347900
H2551	H255	0.722600	0.550700	0.271000
H2561	H256	0.764700	0.616800	0.289300
H2571	H257	0.461000	0.682100	0.301500
H2581	H258	0.469500	0.630700	0.362800
H2591	H259	0.483100	0.709200	0.374000
H2601	H260	0.597400	0.788800	0.231100
H2611	H261	0.528500	0.780700	0.271700
H2621	H262	0.606800	0.766200	0.403200
H2631	H263	0.600100	0.999100	0.174500
H2641	H264	0.578600	0.889300	0.206600
H2651	H265	0.912100	0.432400	0.852800
H2661	H266	0.762400	0.431200	0.847900
H2671	H267	0.777400	0.449300	0.771000
H2681	H268	0.735300	0.383200	0.789300
H2691	H269	0.039000	0.317900	0.801500
H2701	H270	0.030500	0.369300	0.862800
H2711	H271	0.016900	0.290800	0.874000
H2721	H272	0.902600	0.211200	0.731100
H2731	H273	0.971500	0.219300	0.771700
H2741	H274	0.893200	0.233800	0.903200
H2751	H275	0.899900	0.000900	0.674500
H2761	H276	0.921400	0.110700	0.706600
H2771	H277	0.412100	0.067600	0.147200
H2781	H278	0.262400	0.068800	0.152100
H2791	H279	0.277400	0.050700	0.229000
H2801	H280	0.235300	0.116800	0.210700
H2811	H281	0.539000	0.182100	0.198500
H2821	H282	0.530500	0.130700	0.137200
H2831	H283	0.516900	0.209200	0.126000
H2841	H284	0.402600	0.288800	0.268900
H2851	H285	0.471500	0.280700	0.228300
H2861	H286	0.393200	0.266200	0.096800
H2871	H287	0.399900	0.499100	0.325500
H2881	H288	0.421400	0.389300	0.293400
C11	C1	0.056500	0.122600	0.913800
C21	C2	0.082700	0.140700	0.849600
C31	C3	0.073800	0.088100	0.809100
C41	C4	0.053400	0.162500	0.977700
C51	C5	0.092100	0.078200	0.737000
C61	C6	0.025600	0.972100	0.828100
C71	C7	0.076200	0.920000	0.851800
C81	C8	0.140000	0.938400	0.863600
C91	C9	0.055000	0.852400	0.862200
C101	C10	0.968900	0.765100	0.860500
C111	C11	0.988100	0.830100	0.847500
C121	C12	0.443500	0.877400	0.413800
C131	C13	0.417300	0.859300	0.349600
C141	C14	0.426200	0.911900	0.309100
C151	C15	0.446600	0.837500	0.477700
C161	C16	0.407900	0.921800	0.237000
C171	C17	0.474400	0.027900	0.328100
C181	C18	0.423800	0.080000	0.351800
C191	C19	0.360000	0.061600	0.363600
C201	C20	0.445000	0.147600	0.362200
C211	C21	0.531100	0.234900	0.360500
C221	C22	0.511900	0.169900	0.347500
C231	C23	0.943500	0.622600	0.586200
C241	C24	0.917300	0.640700	0.650400
C251	C25	0.926200	0.588100	0.690900
C261	C26	0.946600	0.662500	0.522300
C271	C27	0.907900	0.578200	0.763000
C281	C28	0.974400	0.472100	0.671900
C291	C29	0.923800	0.420000	0.648200
C301	C30	0.860000	0.438400	0.636400
C311	C31	0.945000	0.352400	0.637800
C321	C32	0.031100	0.265100	0.639500
C331	C33	0.011900	0.330100	0.652500
C341	C34	0.556500	0.377400	0.086200
C351	C35	0.582700	0.359300	0.150400
C361	C36	0.573800	0.411900	0.190900
C371	C37	0.553400	0.337500	0.022300
C381	C38	0.592100	0.421800	0.263000
C391	C39	0.525600	0.527900	0.171900
C401	C40	0.576200	0.580000	0.148200
C411	C41	0.640000	0.561600	0.136400
C421	C42	0.555000	0.647600	0.137800
C431	C43	0.468900	0.734900	0.139500
C441	C44	0.488100	0.669900	0.152500
C451	C45	0.913800	0.056500	0.122600
C461	C46	0.849600	0.082700	0.140700
C471	C47	0.809100	0.073800	0.088100
C481	C48	0.977700	0.053400	0.162500
C491	C49	0.737000	0.092100	0.078200
C501	C50	0.828100	0.025600	0.972100
C511	C51	0.851800	0.076200	0.920000
C521	C52	0.863600	0.140000	0.938400
C531	C53	0.862200	0.055000	0.852400
C541	C54	0.860500	0.968900	0.765100
C551	C55	0.847500	0.988100	0.830100
C561	C56	0.413800	0.443500	0.877400
C571	C57	0.349600	0.417300	0.859300
C581	C58	0.309100	0.426200	0.911900
C591	C59	0.477700	0.446600	0.837500
C601	C60	0.237000	0.407900	0.921800
C611	C61	0.328100	0.474400	0.027900
C621	C62	0.351800	0.423800	0.080000
C631	C63	0.363600	0.360000	0.061600
C641	C64	0.362200	0.445000	0.147600
C651	C65	0.360500	0.531100	0.234900
C661	C66	0.347500	0.511900	0.169900
C671	C67	0.586200	0.943500	0.622600
C681	C68	0.650400	0.917300	0.640700
C691	C69	0.690900	0.926200	0.588100
C701	C70	0.522300	0.946600	0.662500
C711	C71	0.763000	0.907900	0.578200
C721	C72	0.671900	0.974400	0.472100
C731	C73	0.648200	0.923800	0.420000
C741	C74	0.636400	0.860000	0.438400
C751	C75	0.637800	0.945000	0.352400
C761	C76	0.639500	0.031100	0.265100
C771	C77	0.652500	0.011900	0.330100
C781	C78	0.086200	0.556500	0.377400
C791	C79	0.150400	0.582700	0.359300
C801	C80	0.190900	0.573800	0.411900
C811	C81	0.022300	0.553400	0.337500
C821	C82	0.263000	0.592100	0.421800
C831	C83	0.171900	0.525600	0.527900
C841	C84	0.148200	0.576200	0.580000
C851	C85	0.136400	0.640000	0.561600
C861	C86	0.137800	0.555000	0.647600
C871	C87	0.139500	0.468900	0.734900
C881	C88	0.152500	0.488100	0.669900
C891	C89	0.122600	0.913800	0.056500
C901	C90	0.140700	0.849600	0.082700
C911	C91	0.088100	0.809100	0.073800
C921	C92	0.162500	0.977700	0.053400
C931	C93	0.078200	0.737000	0.092100
C941	C94	0.972100	0.828100	0.025600
C951	C95	0.920000	0.851800	0.076200
C961	C96	0.938400	0.863600	0.140000
C971	C97	0.852400	0.862200	0.055000
C981	C98	0.765100	0.860500	0.968900
C991	C99	0.830100	0.847500	0.988100
C1001	C100	0.877400	0.413800	0.443500
C1011	C101	0.859300	0.349600	0.417300
C1021	C102	0.911900	0.309100	0.426200
C1031	C103	0.837500	0.477700	0.446600
C1041	C104	0.921800	0.237000	0.407900
C1051	C105	0.027900	0.328100	0.474400
C1061	C106	0.080000	0.351800	0.423800
C1071	C107	0.061600	0.363600	0.360000
C1081	C108	0.147600	0.362200	0.445000
C1091	C109	0.234900	0.360500	0.531100
C1101	C110	0.169900	0.347500	0.511900
C1111	C111	0.622600	0.586200	0.943500
C1121	C112	0.640700	0.650400	0.917300
C1131	C113	0.588100	0.690900	0.926200
C1141	C114	0.662500	0.522300	0.946600
C1151	C115	0.578200	0.763000	0.907900
C1161	C116	0.472100	0.671900	0.974400
C1171	C117	0.420000	0.648200	0.923800
C1181	C118	0.438400	0.636400	0.860000
C1191	C119	0.352400	0.637800	0.945000
C1201	C120	0.265100	0.639500	0.031100
C1211	C121	0.330100	0.652500	0.011900
C1221	C122	0.377400	0.086200	0.556500
C1231	C123	0.359300	0.150400	0.582700
C1241	C124	0.411900	0.190900	0.573800
C1251	C125	0.337500	0.022300	0.553400
C1261	C126	0.421800	0.263000	0.592100
C1271	C127	0.527900	0.171900	0.525600
C1281	C128	0.580000	0.148200	0.576200
C1291	C129	0.561600	0.136400	0.640000
C1301	C130	0.647600	0.137800	0.555000
C1311	C131	0.734900	0.139500	0.468900
C1321	C132	0.669900	0.152500	0.488100
C1331	C133	0.372600	0.806500	0.836200
C1341	C134	0.390700	0.832700	0.900400
C1351	C135	0.338100	0.823800	0.940900
C1361	C136	0.412500	0.803400	0.772300
C1371	C137	0.328200	0.842100	0.013000
C1381	C138	0.222100	0.775600	0.921900
C1391	C139	0.170000	0.826200	0.898200
C1401	C140	0.188400	0.890000	0.886400
C1411	C141	0.102400	0.805000	0.887800
C1421	C142	0.015100	0.718900	0.889500
C1431	C143	0.080100	0.738100	0.902500
C1441	C144	0.127400	0.193500	0.336200
C1451	C145	0.109300	0.167300	0.400400
C1461	C146	0.161900	0.176200	0.440900
C1471	C147	0.087500	0.196600	0.272300
C1481	C148	0.171800	0.157900	0.513000
C1491	C149	0.277900	0.224400	0.421900
C1501	C150	0.330000	0.173800	0.398200
C1511	C151	0.311600	0.110000	0.386400
C1521	C152	0.397600	0.195000	0.387800
C1531	C153	0.484900	0.281100	0.389500
C1541	C154	0.419900	0.261900	0.402500
C1551	C155	0.872600	0.693500	0.163800
C1561	C156	0.890700	0.667300	0.099600
C1571	C157	0.838100	0.676200	0.059100
C1581	C158	0.912500	0.696600	0.227700
C1591	C159	0.828200	0.657900	0.987000
C1601	C160	0.722100	0.724400	0.078100
C1611	C161	0.670000	0.673800	0.101800
C1621	C162	0.688400	0.610000	0.113600
C1631	C163	0.602400	0.695000	0.112200
C1641	C164	0.515100	0.781100	0.110500
C1651	C165	0.580100	0.761900	0.097500
C1661	C166	0.627400	0.306500	0.663800
C1671	C167	0.609300	0.332700	0.599600
C1681	C168	0.661900	0.323800	0.559100
C1691	C169	0.587500	0.303400	0.727700
C1701	C170	0.671800	0.342100	0.487000
C1711	C171	0.777900	0.275600	0.578100
C1721	C172	0.830000	0.326200	0.601800
C1731	C173	0.811600	0.390000	0.613600
C1741	C174	0.897600	0.305000	0.612200
C1751	C175	0.984900	0.218900	0.610500
C1761	C176	0.919900	0.238100	0.597500
C1771	C177	0.306500	0.663800	0.627400
C1781	C178	0.332700	0.599600	0.609300
C1791	C179	0.323800	0.559100	0.661900
C1801	C180	0.303400	0.727700	0.587500
C1811	C181	0.342100	0.487000	0.671800
C1821	C182	0.275600	0.578100	0.777900
C1831	C183	0.326200	0.601800	0.830000
C1841	C184	0.390000	0.613600	0.811600
C1851	C185	0.305000	0.612200	0.897600
C1861	C186	0.218900	0.610500	0.984900
C1871	C187	0.238100	0.597500	0.919900
C1881	C188	0.693500	0.163800	0.872600
C1891	C189	0.667300	0.099600	0.890700
C1901	C190	0.676200	0.059100	0.838100
C1911	C191	0.696600	0.227700	0.912500
C1921	C192	0.657900	0.987000	0.828200
C1931	C193	0.724400	0.078100	0.722100
C1941	C194	0.673800	0.101800	0.670000
C1951	C195	0.610000	0.113600	0.688400
C1961	C196	0.695000	0.112200	0.602400
C1971	C197	0.781100	0.110500	0.515100
C1981	C198	0.761900	0.097500	0.580100
C1991	C199	0.193500	0.336200	0.127400
C2001	C200	0.167300	0.400400	0.109300
C2011	C201	0.176200	0.440900	0.161900
C2021	C202	0.196600	0.272300	0.087500
C2031	C203	0.157900	0.513000	0.171800
C2041	C204	0.224400	0.421900	0.277900
C2051	C205	0.173800	0.398200	0.330000
C2061	C206	0.110000	0.386400	0.311600
C2071	C207	0.195000	0.387800	0.397600
C2081	C208	0.281100	0.389500	0.484900
C2091	C209	0.261900	0.402500	0.419900
C2101	C210	0.806500	0.836200	0.372600
C2111	C211	0.832700	0.900400	0.390700
C2121	C212	0.823800	0.940900	0.338100
C2131	C213	0.803400	0.772300	0.412500
C2141	C214	0.842100	0.013000	0.328200
C2151	C215	0.775600	0.921900	0.222100
C2161	C216	0.826200	0.898200	0.170000
C2171	C217	0.890000	0.886400	0.188400
C2181	C218	0.805000	0.887800	0.102400
C2191	C219	0.718900	0.889500	0.015100
C2201	C220	0.738100	0.902500	0.080100
C2211	C221	0.163800	0.872600	0.693500
C2221	C222	0.099600	0.890700	0.667300
C2231	C223	0.059100	0.838100	0.676200
C2241	C224	0.227700	0.912500	0.696600
C2251	C225	0.987000	0.828200	0.657900
C2261	C226	0.078100	0.722100	0.724400
C2271	C227	0.101800	0.670000	0.673800
C2281	C228	0.113600	0.688400	0.610000
C2291	C229	0.112200	0.602400	0.695000
C2301	C230	0.110500	0.515100	0.781100
C2311	C231	0.097500	0.580100	0.761900
C2321	C232	0.663800	0.627400	0.306500
C2331	C233	0.599600	0.609300	0.332700
C2341	C234	0.559100	0.661900	0.323800
C2351	C235	0.727700	0.587500	0.303400
C2361	C236	0.487000	0.671800	0.342100
C2371	C237	0.578100	0.777900	0.275600
C2381	C238	0.601800	0.830000	0.326200
C2391	C239	0.613600	0.811600	0.390000
C2401	C240	0.612200	0.897600	0.305000
C2411	C241	0.610500	0.984900	0.218900
C2421	C242	0.597500	0.919900	0.238100
C2431	C243	0.836200	0.372600	0.806500
C2441	C244	0.900400	0.390700	0.832700
C2451	C245	0.940900	0.338100	0.823800
C2461	C246	0.772300	0.412500	0.803400
C2471	C247	0.013000	0.328200	0.842100
C2481	C248	0.921900	0.222100	0.775600
C2491	C249	0.898200	0.170000	0.826200
C2501	C250	0.886400	0.188400	0.890000
C2511	C251	0.887800	0.102400	0.805000
C2521	C252	0.889500	0.015100	0.718900
C2531	C253	0.902500	0.080100	0.738100
C2541	C254	0.336200	0.127400	0.193500
C2551	C255	0.400400	0.109300	0.167300
C2561	C256	0.440900	0.161900	0.176200
C2571	C257	0.272300	0.087500	0.196600
C2581	C258	0.513000	0.171800	0.157900
C2591	C259	0.421900	0.277900	0.224400
C2601	C260	0.398200	0.330000	0.173800
C2611	C261	0.386400	0.311600	0.110000
C2621	C262	0.387800	0.397600	0.195000
C2631	C263	0.389500	0.484900	0.281100
C2641	C264	0.402500	0.419900	0.261900
N11	N1	0.043300	0.040300	0.846400
N21	N2	0.033100	0.059800	0.910500
N31	N3	0.456700	0.959700	0.346400
N41	N4	0.466900	0.940200	0.410500
N51	N5	0.956700	0.540300	0.653600
N61	N6	0.966900	0.559800	0.589500
N71	N7	0.543300	0.459700	0.153600
N81	N8	0.533100	0.440200	0.089500
N91	N9	0.846400	0.043300	0.040300
N101	N10	0.910500	0.033100	0.059800
N111	N11	0.346400	0.456700	0.959700
N121	N12	0.410500	0.466900	0.940200
N131	N13	0.653600	0.956700	0.540300
N141	N14	0.589500	0.966900	0.559800
N151	N15	0.153600	0.543300	0.459700
N161	N16	0.089500	0.533100	0.440200
N171	N17	0.040300	0.846400	0.043300
N181	N18	0.059800	0.910500	0.033100
N191	N19	0.959700	0.346400	0.456700
N201	N20	0.940200	0.410500	0.466900
N211	N21	0.540300	0.653600	0.956700
N221	N22	0.559800	0.589500	0.966900
N231	N23	0.459700	0.153600	0.543300
N241	N24	0.440200	0.089500	0.533100
N251	N25	0.290300	0.793300	0.903600
N261	N26	0.309800	0.783100	0.839500
N271	N27	0.209700	0.206700	0.403600
N281	N28	0.190200	0.216900	0.339500
N291	N29	0.790300	0.706700	0.096400
N301	N30	0.809800	0.716900	0.160500
N311	N31	0.709700	0.293300	0.596400
N321	N32	0.690200	0.283100	0.660500
N331	N33	0.293300	0.596400	0.709700
N341	N34	0.283100	0.660500	0.690200
N351	N35	0.706700	0.096400	0.790300
N361	N36	0.716900	0.160500	0.809800
N371	N37	0.206700	0.403600	0.209700
N381	N38	0.216900	0.339500	0.190200
N391	N39	0.793300	0.903600	0.290300
N401	N40	0.783100	0.839500	0.309800
N411	N41	0.096400	0.790300	0.706700
N421	N42	0.160500	0.809800	0.716900
N431	N43	0.596400	0.709700	0.293300
N441	N44	0.660500	0.690200	0.283100
N451	N45	0.903600	0.290300	0.793300
N461	N46	0.839500	0.309800	0.783100
N471	N47	0.403600	0.209700	0.206700
N481	N48	0.339500	0.190200	0.216900
P11	P1	0.526030	0.973970	0.026030
F11	F1	0.544300	0.921900	0.967300
F21	F2	0.478000	0.913300	0.014000
F31	F3	0.467300	0.955700	0.078100
F41	F4	0.514000	0.022000	0.086700
F51	F5	0.578100	0.032700	0.044300
F61	F6	0.586700	0.986000	0.978000
P21	P2	0.973970	0.026030	0.526030
F71	F7	0.955700	0.078100	0.467300
F81	F8	0.022000	0.086700	0.514000
F91	F9	0.032700	0.044300	0.578100
F101	F10	0.986000	0.978000	0.586700
F111	F11	0.921900	0.967300	0.544300
F121	F12	0.913300	0.014000	0.478000
P31	P3	0.473970	0.473970	0.473970
F131	F13	0.455700	0.421900	0.532700
F141	F14	0.522000	0.413300	0.486000
F151	F15	0.532700	0.455700	0.421900
F161	F16	0.486000	0.522000	0.413300
F171	F17	0.421900	0.532700	0.455700
F181	F18	0.413300	0.486000	0.522000
P41	P4	0.026030	0.526030	0.973970
F191	F19	0.044300	0.578100	0.032700
F201	F20	0.978000	0.586700	0.986000
F211	F21	0.967300	0.544300	0.921900
F221	F22	0.014000	0.478000	0.913300
F231	F23	0.078100	0.467300	0.955700
F241	F24	0.086700	0.514000	0.022000
P51	P5	0.223970	0.276030	0.723970
F251	F25	0.171900	0.294300	0.782700
F261	F26	0.163300	0.228000	0.736000
F271	F27	0.205700	0.217300	0.671900
F281	F28	0.272000	0.264000	0.663300
F291	F29	0.282700	0.328100	0.705700
F301	F30	0.236000	0.336700	0.772000
P61	P6	0.276030	0.723970	0.223970
F311	F31	0.328100	0.705700	0.282700
F321	F32	0.336700	0.772000	0.236000
F331	F33	0.294300	0.782700	0.171900
F341	F34	0.228000	0.736000	0.163300
F351	F35	0.217300	0.671900	0.205700
F361	F36	0.264000	0.663300	0.272000
P71	P7	0.723970	0.223970	0.276030
F371	F37	0.671900	0.205700	0.217300
F381	F38	0.663300	0.272000	0.264000
F391	F39	0.705700	0.282700	0.328100
F401	F40	0.772000	0.236000	0.336700
F411	F41	0.782700	0.171900	0.294300
F421	F42	0.736000	0.163300	0.228000
P81	P8	0.776030	0.776030	0.776030
F431	F43	0.828100	0.794300	0.717300
F441	F44	0.836700	0.728000	0.764000
F451	F45	0.794300	0.717300	0.828100
F461	F46	0.728000	0.764000	0.836700
F471	F47	0.717300	0.828100	0.794300
F481	F48	0.764000	0.836700	0.728000
