data_EMAMOW_freeONLY_PM
_symmetry_space_group_name_H-M	'P1'
_cell_length_a	37.060000
_cell_length_b	13.328000
_cell_length_c	9.373000
_cell_angle_alpha	90.000000
_cell_angle_beta	102.153000
_cell_angle_gamma	90.000000
_symmetry_Int_Tables_number 1

loop_
_symmetry_equiv_pos_as_xyz
'x,y,z'

loop_
_atom_site_label
_atom_site_type_symbol
_atom_site_fract_x
_atom_site_fract_y
_atom_site_fract_z
Ni11	Ni1	0.862120	0.216470	0.165630
O11	O1	0.893840	0.205800	0.377100
H11	H1	0.890200	0.251000	0.448300
H21	H2	0.911600	0.155700	0.400200
O21	O2	0.820720	0.128600	0.219900
O31	O3	0.887340	0.083600	0.111200
H31	H3	0.880900	0.057800	0.017000
H41	H4	0.904900	0.050900	0.181300
O41	O4	0.666510	0.837600	0.284200
O51	O5	0.852030	0.056300	0.424900
N11	N1	0.831580	0.224300	0.954900
O61	O6	0.640460	0.863300	0.050900
N21	N2	0.903260	0.308600	0.111900
C11	C1	0.773850	0.254500	0.791700
H51	H5	0.749000	0.270600	0.779600
C21	C2	0.795620	0.247100	0.928400
H61	H6	0.784800	0.258700	0.007800
C31	C3	0.726160	0.957100	0.253600
H71	H7	0.725800	0.927500	0.343200
C41	C4	0.696540	0.945300	0.148600
H81	H8	0.695200	0.980300	0.061900
C51	C5	0.826500	0.215000	0.697800
H91	H9	0.838200	0.204500	0.620300
C61	C6	0.758880	0.011800	0.241700
H101	H10	0.758400	0.047400	0.156100
C71	C7	0.789280	0.015000	0.342600
H111	H11	0.789700	0.980600	0.429200
C81	C8	0.767860	0.243300	0.518800
H121	H12	0.780800	0.236700	0.444300
C91	C9	0.789300	0.237800	0.670500
C101	C10	0.665240	0.878500	0.162300
C111	C11	0.823170	0.070400	0.327200
C121	C12	0.846200	0.207900	0.837800
H131	H13	0.871000	0.190800	0.852700
C131	C13	0.964600	0.338700	0.085000
H141	H14	0.988300	0.313700	0.090500
C141	C14	0.937390	0.277700	0.120300
H151	H15	0.943500	0.212400	0.151000
C151	C15	0.956300	0.437900	0.041200
C161	C16	0.983100	0.508700	0.998800
H161	H16	0.974300	0.572000	0.967500
C171	C17	0.921400	0.467200	0.033900
H171	H17	0.914300	0.532000	0.003800
C181	C18	0.896030	0.402600	0.070300
H181	H18	0.872200	0.426300	0.065500
Ni21	Ni2	0.362120	0.716470	0.165630
O71	O7	0.393840	0.705800	0.377100
H191	H19	0.390200	0.751000	0.448300
H201	H20	0.411600	0.655700	0.400200
O81	O8	0.320720	0.628600	0.219900
O91	O9	0.387340	0.583600	0.111200
H211	H21	0.380900	0.557800	0.017000
H221	H22	0.404900	0.550900	0.181300
O101	O10	0.166510	0.337600	0.284200
O111	O11	0.352030	0.556300	0.424900
N31	N3	0.331580	0.724300	0.954900
O121	O12	0.140460	0.363300	0.050900
N41	N4	0.403260	0.808600	0.111900
C191	C19	0.273850	0.754500	0.791700
H231	H23	0.249000	0.770600	0.779600
C201	C20	0.295620	0.747100	0.928400
H241	H24	0.284800	0.758700	0.007800
C211	C21	0.226160	0.457100	0.253600
H251	H25	0.225800	0.427500	0.343200
C221	C22	0.196540	0.445300	0.148600
H261	H26	0.195200	0.480300	0.061900
C231	C23	0.326500	0.715000	0.697800
H271	H27	0.338200	0.704500	0.620300
C241	C24	0.258880	0.511800	0.241700
H281	H28	0.258400	0.547400	0.156100
C251	C25	0.289280	0.515000	0.342600
H291	H29	0.289700	0.480600	0.429200
C261	C26	0.267860	0.743300	0.518800
H301	H30	0.280800	0.736700	0.444300
C271	C27	0.289300	0.737800	0.670500
C281	C28	0.165240	0.378500	0.162300
C291	C29	0.323170	0.570400	0.327200
C301	C30	0.346200	0.707900	0.837800
H311	H31	0.371000	0.690800	0.852700
C311	C31	0.464600	0.838700	0.085000
H321	H32	0.488300	0.813700	0.090500
C321	C32	0.437390	0.777700	0.120300
H331	H33	0.443500	0.712400	0.151000
C331	C33	0.456300	0.937900	0.041200
C341	C34	0.483100	0.008700	0.998800
H341	H34	0.474300	0.072000	0.967500
C351	C35	0.421400	0.967200	0.033900
H351	H35	0.414300	0.032000	0.003800
C361	C36	0.396030	0.902600	0.070300
H361	H36	0.372200	0.926300	0.065500
Ni31	Ni3	0.137880	0.216470	0.334370
O131	O13	0.106160	0.205800	0.122900
H371	H37	0.109800	0.251000	0.051700
H381	H38	0.088400	0.155700	0.099800
O141	O14	0.179280	0.128600	0.280100
O151	O15	0.112660	0.083600	0.388800
H391	H39	0.119100	0.057800	0.483000
H401	H40	0.095100	0.050900	0.318700
O161	O16	0.333490	0.837600	0.215800
O171	O17	0.147970	0.056300	0.075100
N51	N5	0.168420	0.224300	0.545100
O181	O18	0.359540	0.863300	0.449100
N61	N6	0.096740	0.308600	0.388100
C371	C37	0.226150	0.254500	0.708300
H411	H41	0.251000	0.270600	0.720400
C381	C38	0.204380	0.247100	0.571600
H421	H42	0.215200	0.258700	0.492200
C391	C39	0.273840	0.957100	0.246400
H431	H43	0.274200	0.927500	0.156800
C401	C40	0.303460	0.945300	0.351400
H441	H44	0.304800	0.980300	0.438100
C411	C41	0.173500	0.215000	0.802200
H451	H45	0.161800	0.204500	0.879700
C421	C42	0.241120	0.011800	0.258300
H461	H46	0.241600	0.047400	0.343900
C431	C43	0.210720	0.015000	0.157400
H471	H47	0.210300	0.980600	0.070800
C441	C44	0.232140	0.243300	0.981200
H481	H48	0.219200	0.236700	0.055700
C451	C45	0.210700	0.237800	0.829500
C461	C46	0.334760	0.878500	0.337700
C471	C47	0.176830	0.070400	0.172800
C481	C48	0.153800	0.207900	0.662200
H491	H49	0.129000	0.190800	0.647300
C491	C49	0.035400	0.338700	0.415000
H501	H50	0.011700	0.313700	0.409500
C501	C50	0.062610	0.277700	0.379700
H511	H51	0.056500	0.212400	0.349000
C511	C51	0.043700	0.437900	0.458800
C521	C52	0.016900	0.508700	0.501200
H521	H52	0.025700	0.572000	0.532500
C531	C53	0.078600	0.467200	0.466100
H531	H53	0.085700	0.532000	0.496200
C541	C54	0.103970	0.402600	0.429700
H541	H54	0.127800	0.426300	0.434500
Ni41	Ni4	0.637880	0.716470	0.334370
O191	O19	0.606160	0.705800	0.122900
H551	H55	0.609800	0.751000	0.051700
H561	H56	0.588400	0.655700	0.099800
O201	O20	0.679280	0.628600	0.280100
O211	O21	0.612660	0.583600	0.388800
H571	H57	0.619100	0.557800	0.483000
H581	H58	0.595100	0.550900	0.318700
O221	O22	0.833490	0.337600	0.215800
O231	O23	0.647970	0.556300	0.075100
N71	N7	0.668420	0.724300	0.545100
O241	O24	0.859540	0.363300	0.449100
N81	N8	0.596740	0.808600	0.388100
C551	C55	0.726150	0.754500	0.708300
H591	H59	0.751000	0.770600	0.720400
C561	C56	0.704380	0.747100	0.571600
H601	H60	0.715200	0.758700	0.492200
C571	C57	0.773840	0.457100	0.246400
H611	H61	0.774200	0.427500	0.156800
C581	C58	0.803460	0.445300	0.351400
H621	H62	0.804800	0.480300	0.438100
C591	C59	0.673500	0.715000	0.802200
H631	H63	0.661800	0.704500	0.879700
C601	C60	0.741120	0.511800	0.258300
H641	H64	0.741600	0.547400	0.343900
C611	C61	0.710720	0.515000	0.157400
H651	H65	0.710300	0.480600	0.070800
C621	C62	0.732140	0.743300	0.981200
H661	H66	0.719200	0.736700	0.055700
C631	C63	0.710700	0.737800	0.829500
C641	C64	0.834760	0.378500	0.337700
C651	C65	0.676830	0.570400	0.172800
C661	C66	0.653800	0.707900	0.662200
H671	H67	0.629000	0.690800	0.647300
C671	C67	0.535400	0.838700	0.415000
H681	H68	0.511700	0.813700	0.409500
C681	C68	0.562610	0.777700	0.379700
H691	H69	0.556500	0.712400	0.349000
C691	C69	0.543700	0.937900	0.458800
C701	C70	0.516900	0.008700	0.501200
H701	H70	0.525700	0.072000	0.532500
C711	C71	0.578600	0.967200	0.466100
H711	H71	0.585700	0.032000	0.496200
C721	C72	0.603970	0.902600	0.429700
H721	H72	0.627800	0.926300	0.434500
Ni51	Ni5	0.137880	0.783530	0.834370
O251	O25	0.106160	0.794200	0.622900
H731	H73	0.109800	0.749000	0.551700
H741	H74	0.088400	0.844300	0.599800
O261	O26	0.179280	0.871400	0.780100
O271	O27	0.112660	0.916400	0.888800
H751	H75	0.119100	0.942200	0.983000
H761	H76	0.095100	0.949100	0.818700
O281	O28	0.333490	0.162400	0.715800
O291	O29	0.147970	0.943700	0.575100
N91	N9	0.168420	0.775700	0.045100
O301	O30	0.359540	0.136700	0.949100
N101	N10	0.096740	0.691400	0.888100
C731	C73	0.226150	0.745500	0.208300
H771	H77	0.251000	0.729400	0.220400
C741	C74	0.204380	0.752900	0.071600
H781	H78	0.215200	0.741300	0.992200
C751	C75	0.273840	0.042900	0.746400
H791	H79	0.274200	0.072500	0.656800
C761	C76	0.303460	0.054700	0.851400
H801	H80	0.304800	0.019700	0.938100
C771	C77	0.173500	0.785000	0.302200
H811	H81	0.161800	0.795500	0.379700
C781	C78	0.241120	0.988200	0.758300
H821	H82	0.241600	0.952600	0.843900
C791	C79	0.210720	0.985000	0.657400
H831	H83	0.210300	0.019400	0.570800
C801	C80	0.232140	0.756700	0.481200
H841	H84	0.219200	0.763300	0.555700
C811	C81	0.210700	0.762200	0.329500
C821	C82	0.334760	0.121500	0.837700
C831	C83	0.176830	0.929600	0.672800
C841	C84	0.153800	0.792100	0.162200
H851	H85	0.129000	0.809200	0.147300
C851	C85	0.035400	0.661300	0.915000
H861	H86	0.011700	0.686300	0.909500
C861	C86	0.062610	0.722300	0.879700
H871	H87	0.056500	0.787600	0.849000
C871	C87	0.043700	0.562100	0.958800
C881	C88	0.016900	0.491300	0.001200
H881	H88	0.025700	0.428000	0.032500
C891	C89	0.078600	0.532800	0.966100
H891	H89	0.085700	0.468000	0.996200
C901	C90	0.103970	0.597400	0.929700
H901	H90	0.127800	0.573700	0.934500
Ni61	Ni6	0.637880	0.283530	0.834370
O311	O31	0.606160	0.294200	0.622900
H911	H91	0.609800	0.249000	0.551700
H921	H92	0.588400	0.344300	0.599800
O321	O32	0.679280	0.371400	0.780100
O331	O33	0.612660	0.416400	0.888800
H931	H93	0.619100	0.442200	0.983000
H941	H94	0.595100	0.449100	0.818700
O341	O34	0.833490	0.662400	0.715800
O351	O35	0.647970	0.443700	0.575100
N111	N11	0.668420	0.275700	0.045100
O361	O36	0.859540	0.636700	0.949100
N121	N12	0.596740	0.191400	0.888100
C911	C91	0.726150	0.245500	0.208300
H951	H95	0.751000	0.229400	0.220400
C921	C92	0.704380	0.252900	0.071600
H961	H96	0.715200	0.241300	0.992200
C931	C93	0.773840	0.542900	0.746400
H971	H97	0.774200	0.572500	0.656800
C941	C94	0.803460	0.554700	0.851400
H981	H98	0.804800	0.519700	0.938100
C951	C95	0.673500	0.285000	0.302200
H991	H99	0.661800	0.295500	0.379700
C961	C96	0.741120	0.488200	0.758300
H1001	H100	0.741600	0.452600	0.843900
C971	C97	0.710720	0.485000	0.657400
H1011	H101	0.710300	0.519400	0.570800
C981	C98	0.732140	0.256700	0.481200
H1021	H102	0.719200	0.263300	0.555700
C991	C99	0.710700	0.262200	0.329500
C1001	C100	0.834760	0.621500	0.837700
C1011	C101	0.676830	0.429600	0.672800
C1021	C102	0.653800	0.292100	0.162200
H1031	H103	0.629000	0.309200	0.147300
C1031	C103	0.535400	0.161300	0.915000
H1041	H104	0.511700	0.186300	0.909500
C1041	C104	0.562610	0.222300	0.879700
H1051	H105	0.556500	0.287600	0.849000
C1051	C105	0.543700	0.062100	0.958800
C1061	C106	0.516900	0.991300	0.001200
H1061	H106	0.525700	0.928000	0.032500
C1071	C107	0.578600	0.032800	0.966100
H1071	H107	0.585700	0.968000	0.996200
C1081	C108	0.603970	0.097400	0.929700
H1081	H108	0.627800	0.073700	0.934500
Ni71	Ni7	0.862120	0.783530	0.665630
O371	O37	0.893840	0.794200	0.877100
H1091	H109	0.890200	0.749000	0.948300
H1101	H110	0.911600	0.844300	0.900200
O381	O38	0.820720	0.871400	0.719900
O391	O39	0.887340	0.916400	0.611200
H1111	H111	0.880900	0.942200	0.517000
H1121	H112	0.904900	0.949100	0.681300
O401	O40	0.666510	0.162400	0.784200
O411	O41	0.852030	0.943700	0.924900
N131	N13	0.831580	0.775700	0.454900
O421	O42	0.640460	0.136700	0.550900
N141	N14	0.903260	0.691400	0.611900
C1091	C109	0.773850	0.745500	0.291700
H1131	H113	0.749000	0.729400	0.279600
C1101	C110	0.795620	0.752900	0.428400
H1141	H114	0.784800	0.741300	0.507800
C1111	C111	0.726160	0.042900	0.753600
H1151	H115	0.725800	0.072500	0.843200
C1121	C112	0.696540	0.054700	0.648600
H1161	H116	0.695200	0.019700	0.561900
C1131	C113	0.826500	0.785000	0.197800
H1171	H117	0.838200	0.795500	0.120300
C1141	C114	0.758880	0.988200	0.741700
H1181	H118	0.758400	0.952600	0.656100
C1151	C115	0.789280	0.985000	0.842600
H1191	H119	0.789700	0.019400	0.929200
C1161	C116	0.767860	0.756700	0.018800
H1201	H120	0.780800	0.763300	0.944300
C1171	C117	0.789300	0.762200	0.170500
C1181	C118	0.665240	0.121500	0.662300
C1191	C119	0.823170	0.929600	0.827200
C1201	C120	0.846200	0.792100	0.337800
H1211	H121	0.871000	0.809200	0.352700
C1211	C121	0.964600	0.661300	0.585000
H1221	H122	0.988300	0.686300	0.590500
C1221	C122	0.937390	0.722300	0.620300
H1231	H123	0.943500	0.787600	0.651000
C1231	C123	0.956300	0.562100	0.541200
C1241	C124	0.983100	0.491300	0.498800
H1241	H124	0.974300	0.428000	0.467500
C1251	C125	0.921400	0.532800	0.533900
H1251	H125	0.914300	0.468000	0.503800
C1261	C126	0.896030	0.597400	0.570300
H1261	H126	0.872200	0.573700	0.565500
Ni81	Ni8	0.362120	0.283530	0.665630
O431	O43	0.393840	0.294200	0.877100
H1271	H127	0.390200	0.249000	0.948300
H1281	H128	0.411600	0.344300	0.900200
O441	O44	0.320720	0.371400	0.719900
O451	O45	0.387340	0.416400	0.611200
H1291	H129	0.380900	0.442200	0.517000
H1301	H130	0.404900	0.449100	0.681300
O461	O46	0.166510	0.662400	0.784200
O471	O47	0.352030	0.443700	0.924900
N151	N15	0.331580	0.275700	0.454900
O481	O48	0.140460	0.636700	0.550900
N161	N16	0.403260	0.191400	0.611900
C1271	C127	0.273850	0.245500	0.291700
H1311	H131	0.249000	0.229400	0.279600
C1281	C128	0.295620	0.252900	0.428400
H1321	H132	0.284800	0.241300	0.507800
C1291	C129	0.226160	0.542900	0.753600
H1331	H133	0.225800	0.572500	0.843200
C1301	C130	0.196540	0.554700	0.648600
H1341	H134	0.195200	0.519700	0.561900
C1311	C131	0.326500	0.285000	0.197800
H1351	H135	0.338200	0.295500	0.120300
C1321	C132	0.258880	0.488200	0.741700
H1361	H136	0.258400	0.452600	0.656100
C1331	C133	0.289280	0.485000	0.842600
H1371	H137	0.289700	0.519400	0.929200
C1341	C134	0.267860	0.256700	0.018800
H1381	H138	0.280800	0.263300	0.944300
C1351	C135	0.289300	0.262200	0.170500
C1361	C136	0.165240	0.621500	0.662300
C1371	C137	0.323170	0.429600	0.827200
C1381	C138	0.346200	0.292100	0.337800
H1391	H139	0.371000	0.309200	0.352700
C1391	C139	0.464600	0.161300	0.585000
H1401	H140	0.488300	0.186300	0.590500
C1401	C140	0.437390	0.222300	0.620300
H1411	H141	0.443500	0.287600	0.651000
C1411	C141	0.456300	0.062100	0.541200
C1421	C142	0.483100	0.991300	0.498800
H1421	H142	0.474300	0.928000	0.467500
C1431	C143	0.421400	0.032800	0.533900
H1431	H143	0.414300	0.968000	0.503800
C1441	C144	0.396030	0.097400	0.570300
H1441	H144	0.372200	0.073700	0.565500
