data_EMEJAJ_freeONLY_PM
_symmetry_space_group_name_H-M	'P1'
_cell_length_a	11.103700
_cell_length_b	11.103700
_cell_length_c	15.939500
_cell_angle_alpha	90.000000
_cell_angle_beta	90.000000
_cell_angle_gamma	90.000000
_symmetry_Int_Tables_number 1

loop_
_symmetry_equiv_pos_as_xyz
'x,y,z'

loop_
_atom_site_label
_atom_site_type_symbol
_atom_site_fract_x
_atom_site_fract_y
_atom_site_fract_z
C11	C1	0.963600	0.246300	0.317080
C21	C2	0.964500	0.371300	0.321010
H11	H1	0.936800	0.191500	0.369900
H21	H2	0.931200	0.414300	0.377100
C31	C3	0.036400	0.753700	0.317080
C41	C4	0.035500	0.628700	0.321010
H31	H3	0.063200	0.808500	0.369900
H41	H4	0.068800	0.585700	0.377100
C51	C5	0.753700	0.963600	0.317080
C61	C6	0.628700	0.964500	0.321010
H51	H5	0.808500	0.936800	0.369900
H61	H6	0.585700	0.931200	0.377100
C71	C7	0.246300	0.036400	0.317080
C81	C8	0.371300	0.035500	0.321010
H71	H7	0.191500	0.063200	0.369900
H81	H8	0.414300	0.068800	0.377100
C91	C9	0.036400	0.246300	0.182920
C101	C10	0.035500	0.371300	0.178990
H91	H9	0.063200	0.191500	0.130100
H101	H10	0.068800	0.414300	0.122900
C111	C11	0.963600	0.753700	0.182920
C121	C12	0.964500	0.628700	0.178990
H111	H11	0.936800	0.808500	0.130100
H121	H12	0.931200	0.585700	0.122900
C131	C13	0.246300	0.963600	0.182920
C141	C14	0.371300	0.964500	0.178990
H131	H13	0.191500	0.936800	0.130100
H141	H14	0.414300	0.931200	0.122900
C151	C15	0.753700	0.036400	0.182920
C161	C16	0.628700	0.035500	0.178990
H151	H15	0.808500	0.063200	0.130100
H161	H16	0.585700	0.068800	0.122900
C171	C17	0.036400	0.753700	0.682920
C181	C18	0.035500	0.628700	0.678990
H171	H17	0.063200	0.808500	0.630100
H181	H18	0.068800	0.585700	0.622900
C191	C19	0.963600	0.246300	0.682920
C201	C20	0.964500	0.371300	0.678990
H191	H19	0.936800	0.191500	0.630100
H201	H20	0.931200	0.414300	0.622900
C211	C21	0.246300	0.036400	0.682920
C221	C22	0.371300	0.035500	0.678990
H211	H21	0.191500	0.063200	0.630100
H221	H22	0.414300	0.068800	0.622900
C231	C23	0.753700	0.963600	0.682920
C241	C24	0.628700	0.964500	0.678990
H231	H23	0.808500	0.936800	0.630100
H241	H24	0.585700	0.931200	0.622900
C251	C25	0.963600	0.753700	0.817080
C261	C26	0.964500	0.628700	0.821010
H251	H25	0.936800	0.808500	0.869900
H261	H26	0.931200	0.585700	0.877100
C271	C27	0.036400	0.246300	0.817080
C281	C28	0.035500	0.371300	0.821010
H271	H27	0.063200	0.191500	0.869900
H281	H28	0.068800	0.414300	0.877100
C291	C29	0.753700	0.036400	0.817080
C301	C30	0.628700	0.035500	0.821010
H291	H29	0.808500	0.063200	0.869900
H301	H30	0.585700	0.068800	0.877100
C311	C31	0.246300	0.963600	0.817080
C321	C32	0.371300	0.964500	0.821010
H311	H31	0.191500	0.936800	0.869900
H321	H32	0.414300	0.931200	0.877100
F11	F1	0.109100	0.106000	0.500000
F21	F2	0.890900	0.894000	0.500000
F31	F3	0.894000	0.109100	0.500000
F41	F4	0.106000	0.890900	0.500000
F51	F5	0.890900	0.106000	0.000000
F61	F6	0.109100	0.894000	0.000000
F71	F7	0.106000	0.109100	0.000000
F81	F8	0.894000	0.890900	0.000000
C331	C33	0.000000	0.433900	0.250000
N11	N1	0.000000	0.182100	0.250000
C341	C34	0.000000	0.566100	0.250000
N21	N2	0.000000	0.817900	0.250000
C351	C35	0.566100	0.000000	0.250000
N31	N3	0.817900	0.000000	0.250000
C361	C36	0.433900	0.000000	0.250000
N41	N4	0.182100	0.000000	0.250000
C371	C37	0.000000	0.566100	0.750000
N51	N5	0.000000	0.817900	0.750000
C381	C38	0.000000	0.433900	0.750000
N61	N6	0.000000	0.182100	0.750000
C391	C39	0.433900	0.000000	0.750000
N71	N7	0.182100	0.000000	0.750000
C401	C40	0.566100	0.000000	0.750000
N81	N8	0.817900	0.000000	0.750000
Cu11	Cu1	0.000000	0.000000	0.250000
Cu21	Cu2	0.000000	0.000000	0.750000
Si11	Si1	0.000000	0.000000	0.500000
Si21	Si2	0.000000	0.000000	0.000000
F91	F9	0.000000	0.000000	0.391700
F101	F10	0.000000	0.000000	0.108300
F111	F11	0.000000	0.000000	0.608300
F121	F12	0.000000	0.000000	0.891700
