data_EMEJUD_freeONLY_PM
_symmetry_space_group_name_H-M	'P1'
_cell_length_a	23.882200
_cell_length_b	23.882200
_cell_length_c	46.851400
_cell_angle_alpha	90.000000
_cell_angle_beta	90.000000
_cell_angle_gamma	90.000000
_symmetry_Int_Tables_number 1

loop_
_symmetry_equiv_pos_as_xyz
'x,y,z'

loop_
_atom_site_label
_atom_site_type_symbol
_atom_site_fract_x
_atom_site_fract_y
_atom_site_fract_z
N11	N1	0.184500	0.818400	0.717290
N21	N2	0.077000	0.800000	0.748440
N31	N3	0.095000	0.911000	0.717890
C11	C1	0.192700	0.763400	0.718650
C21	C2	0.203700	0.844700	0.693870
C31	C3	0.041000	0.779200	0.754400
C41	C4	0.219700	0.733100	0.697290
H11	H1	0.179500	0.743800	0.735000
H21	H2	0.197600	0.883900	0.692400
C51	C5	0.231300	0.819200	0.672290
S11	S1	0.982900	0.748700	0.764400
C61	C6	0.239300	0.760200	0.673200
H31	H3	0.224700	0.693800	0.699300
H41	H4	0.245100	0.840400	0.656700
C71	C7	0.264300	0.729700	0.648660
N41	N4	0.275200	0.760800	0.625130
C81	C8	0.274300	0.672600	0.650020
C91	C9	0.296000	0.734300	0.602140
C101	C10	0.296000	0.645100	0.626080
H51	H5	0.266500	0.652400	0.667000
C111	C11	0.306500	0.677500	0.601840
C121	C12	0.308700	0.769700	0.576670
C131	C13	0.306400	0.584100	0.625890
H61	H6	0.320800	0.660300	0.585100
C141	C14	0.306500	0.828000	0.577650
C151	C15	0.325100	0.745900	0.551290
C161	C16	0.297000	0.552800	0.601020
C171	C17	0.325400	0.556500	0.649780
H71	H7	0.293700	0.846500	0.594400
C181	C18	0.322900	0.858500	0.554350
C191	C19	0.341100	0.779300	0.528790
H81	H8	0.325400	0.706300	0.549300
H91	H9	0.283400	0.571200	0.584400
C201	C20	0.307000	0.496100	0.600230
C211	C21	0.336800	0.498900	0.649610
H101	H10	0.331000	0.577100	0.666900
N51	N5	0.340900	0.835500	0.529780
H111	H11	0.321500	0.898200	0.555600
H121	H12	0.353000	0.761700	0.511700
H131	H13	0.300400	0.475700	0.583200
C221	C22	0.326900	0.468600	0.624530
H141	H14	0.350900	0.480800	0.666200
Co11	Co1	0.381810	0.879860	0.495380
O11	O1	0.336800	0.412730	0.621670
N61	N6	0.335810	0.828760	0.464920
N71	N7	0.444300	0.817700	0.495920
N81	N8	0.428500	0.929400	0.526070
N91	N9	0.320900	0.940900	0.492480
N101	N10	0.427400	0.920200	0.461000
C231	C23	0.362800	0.384900	0.644920
C241	C24	0.281100	0.821200	0.467660
C251	C25	0.360700	0.806500	0.441850
C261	C26	0.472800	0.784300	0.485200
C271	C27	0.455000	0.903600	0.547880
C281	C28	0.430300	0.984900	0.524350
C291	C29	0.287000	0.972500	0.485270
H151	H15	0.337300	0.384200	0.661600
H161	H16	0.397500	0.404800	0.650500
C301	C30	0.376400	0.325900	0.635700
C311	C31	0.249000	0.790900	0.448300
H171	H17	0.262900	0.837400	0.483700
H181	H18	0.400000	0.810800	0.439800
C321	C32	0.331600	0.777400	0.420670
S21	S2	0.516300	0.741000	0.470130
C331	C33	0.482700	0.933700	0.568830
H191	H19	0.454600	0.863900	0.548900
H201	H20	0.412500	0.002700	0.508700
C341	C34	0.457100	0.017900	0.544390
S31	S3	0.237970	0.016010	0.475150
H211	H21	0.341500	0.303500	0.635700
H221	H22	0.390500	0.326800	0.615800
C351	C35	0.419000	0.297200	0.654200
C361	C36	0.274100	0.769500	0.423840
H231	H23	0.210300	0.784900	0.451800
H241	H24	0.350600	0.763300	0.404400
C371	C37	0.484100	0.992300	0.567380
H251	H25	0.500700	0.914800	0.584100
H261	H26	0.457200	0.057500	0.542500
H271	H27	0.426700	0.259900	0.645900
H281	H28	0.454200	0.318900	0.653200
C381	C38	0.404400	0.289500	0.684700
C391	C39	0.241300	0.742700	0.400370
C401	C40	0.511600	0.025400	0.590450
H291	H29	0.392300	0.325500	0.693200
H301	H30	0.437000	0.275400	0.695500
C411	C41	0.357700	0.247900	0.685400
N111	N11	0.269700	0.729600	0.376600
C421	C42	0.183800	0.732800	0.403450
N121	N12	0.520850	0.996900	0.614730
C431	C43	0.523000	0.081800	0.587480
H311	H31	0.322000	0.265600	0.679500
H321	H32	0.365700	0.216200	0.672400
C441	C44	0.354200	0.228300	0.715400
C451	C45	0.241700	0.707300	0.354900
C461	C46	0.154700	0.709200	0.380550
H331	H33	0.165100	0.741900	0.420700
C471	C47	0.542600	0.025200	0.636860
H341	H34	0.515900	0.100400	0.569900
C481	C48	0.545100	0.111300	0.610790
H351	H35	0.342000	0.259800	0.727600
H361	H36	0.392000	0.216600	0.721800
C491	C49	0.313600	0.179400	0.719100
C501	C50	0.184500	0.697900	0.355880
C511	C51	0.276300	0.692000	0.329220
C521	C52	0.093600	0.697200	0.382150
C531	C53	0.554600	0.081800	0.635640
C541	C54	0.552700	0.992400	0.662920
C551	C55	0.557200	0.172100	0.609660
H371	H37	0.326900	0.146200	0.708500
H381	H38	0.275800	0.189600	0.712100
C561	C56	0.312600	0.167700	0.751200
H391	H39	0.165700	0.683800	0.339500
C571	C57	0.332600	0.697600	0.328950
C581	C58	0.250800	0.670000	0.304900
C591	C59	0.059700	0.702000	0.358430
C601	C60	0.069000	0.681300	0.407550
H401	H40	0.569400	0.100400	0.651900
C611	C61	0.569100	0.016500	0.688640
C621	C62	0.549200	0.932900	0.662620
C631	C63	0.575000	0.198600	0.584430
C641	C64	0.550900	0.205400	0.634030
H411	H41	0.324200	0.200800	0.762500
H421	H42	0.336300	0.135200	0.756400
C651	C65	0.248400	0.155000	0.754900
H431	H43	0.350900	0.714200	0.344900
C661	C66	0.364400	0.679500	0.305690
C671	C67	0.284300	0.652900	0.282920
H441	H44	0.211200	0.667000	0.303700
H451	H45	0.075500	0.713300	0.340700
C681	C68	0.003400	0.690500	0.359960
C691	C69	0.012700	0.669400	0.409670
H461	H46	0.091700	0.678600	0.424200
H471	H47	0.571200	0.056100	0.690300
C701	C70	0.582300	0.983300	0.711520
C711	C71	0.561900	0.903400	0.686970
H481	H48	0.538100	0.913800	0.645800
H491	H49	0.579800	0.177100	0.567500
C721	C72	0.585800	0.256700	0.583900
C731	C73	0.561700	0.262500	0.633700
H501	H50	0.538800	0.188400	0.651300
H511	H51	0.240500	0.145900	0.774900
H521	H52	0.226400	0.187200	0.749000
H531	H53	0.238300	0.122400	0.743000
N131	N13	0.340600	0.656500	0.282480
H541	H54	0.404000	0.683500	0.306300
H551	H55	0.266500	0.637300	0.266600
H561	H56	0.981000	0.693700	0.343300
C741	C74	0.979300	0.674600	0.385260
H571	H57	0.996900	0.657900	0.427300
H581	H58	0.593900	0.001000	0.728700
H591	H59	0.557800	0.863900	0.686600
H601	H60	0.598100	0.274300	0.566800
C751	C75	0.578300	0.287600	0.608400
H611	H61	0.557800	0.284100	0.650600
O21	O2	0.923000	0.664900	0.385110
O31	O3	0.586700	0.343900	0.610370
N141	N14	0.429600	0.565000	0.282900
N151	N15	0.450300	0.673400	0.252570
C761	C76	0.897100	0.648400	0.411000
C771	C77	0.602900	0.371900	0.585300
C781	C78	0.403600	0.544000	0.305360
C791	C79	0.486000	0.559600	0.282070
C801	C80	0.483000	0.702800	0.262860
H621	H62	0.902400	0.678000	0.425500
H631	H63	0.914800	0.613700	0.418100
C811	C81	0.834900	0.638500	0.406300
H641	H64	0.574000	0.367700	0.570300
H651	H65	0.638800	0.356900	0.578100
C821	C82	0.609400	0.434400	0.594100
C831	C83	0.430100	0.519100	0.328130
H661	H66	0.363900	0.546200	0.305800
H671	H67	0.505600	0.574300	0.266100
C841	C84	0.516200	0.533700	0.303390
S41	S4	0.528520	0.742900	0.279430
H681	H68	0.830300	0.610200	0.391100
H691	H69	0.817700	0.673800	0.399500
C851	C85	0.803300	0.618700	0.432900
H701	H70	0.577400	0.445400	0.606300
H711	H71	0.608600	0.458100	0.576700
C861	C86	0.665200	0.444400	0.610400
C871	C87	0.488800	0.513400	0.327740
H721	H72	0.409100	0.506000	0.344000
H731	H73	0.555700	0.529700	0.301600
H741	H74	0.819400	0.583100	0.439900
H751	H75	0.806500	0.647000	0.448200
C881	C88	0.742900	0.610500	0.425000
H761	H76	0.694100	0.457300	0.596800
H771	H77	0.678100	0.408500	0.618800
C891	C89	0.658500	0.489200	0.635000
C901	C90	0.519400	0.489300	0.352560
H781	H78	0.738400	0.575500	0.413900
H791	H79	0.729500	0.642200	0.413200
C911	C91	0.709000	0.607100	0.453100
H801	H80	0.629800	0.475900	0.648700
H811	H81	0.694400	0.492200	0.645500
C921	C92	0.641900	0.546900	0.624200
N161	N16	0.488700	0.477800	0.375480
C931	C93	0.577100	0.480500	0.351580
H821	H82	0.727800	0.631100	0.467400
H831	H83	0.711100	0.568100	0.460100
C941	C94	0.645600	0.624400	0.451800
H841	H84	0.670700	0.560200	0.610600
H851	H85	0.606100	0.543800	0.613600
C951	C95	0.635400	0.589000	0.647300
C961	C96	0.515000	0.457100	0.398590
H861	H86	0.597300	0.488200	0.334600
C971	C97	0.605000	0.460600	0.375500
H871	H87	0.641000	0.655200	0.465700
H881	H88	0.639700	0.641100	0.432700
C981	C98	0.595300	0.584100	0.456800
H891	H89	0.607900	0.574500	0.661300
H901	H90	0.671700	0.592800	0.657300
C991	C99	0.617100	0.645100	0.638200
C1001	C100	0.571800	0.448500	0.399330
C1011	C101	0.478200	0.443300	0.423180
C1021	C102	0.665800	0.449500	0.375470
H911	H91	0.602500	0.580600	0.477500
H921	H92	0.615000	0.551300	0.448700
C1031	C103	0.536600	0.552500	0.458500
H931	H93	0.586300	0.641300	0.624200
H941	H94	0.648600	0.664500	0.628700
C1041	C104	0.596200	0.681400	0.664300
H951	H95	0.588700	0.434200	0.416200
C1051	C105	0.500800	0.422500	0.448480
C1061	C106	0.420800	0.448500	0.421840
C1071	C107	0.693500	0.432400	0.351380
C1081	C108	0.697400	0.457500	0.400430
H961	H96	0.522600	0.555000	0.438700
H971	H97	0.547800	0.512900	0.461000
C1091	C109	0.481600	0.556600	0.476700
H981	H98	0.626100	0.682900	0.678900
H991	H99	0.563100	0.663300	0.672900
C1101	C110	0.580500	0.742900	0.655000
H1001	H100	0.540200	0.420200	0.450900
C1111	C111	0.465100	0.405000	0.470090
C1121	C112	0.388700	0.429100	0.444860
H1011	H101	0.403400	0.464900	0.405700
H1021	H102	0.672900	0.427500	0.334200
C1131	C113	0.751600	0.421900	0.351110
C1141	C114	0.754900	0.448100	0.400820
H1031	H103	0.679200	0.469500	0.417400
H1041	H104	0.455100	0.527800	0.470300
H1051	H105	0.490400	0.550900	0.496900
H1061	H106	0.464800	0.593700	0.474100
H1071	H107	0.596100	0.750600	0.636100
H1081	H108	0.596000	0.769600	0.668800
H1091	H109	0.539700	0.746800	0.654400
H1101	H110	0.481300	0.392300	0.487500
H1111	H111	0.349200	0.433400	0.444000
H1121	H112	0.769500	0.409200	0.334200
C1151	C115	0.782300	0.430400	0.376230
H1131	H113	0.775400	0.453700	0.417900
O41	O4	0.838100	0.421800	0.379170
C1161	C116	0.866500	0.402100	0.355400
H1141	H114	0.866400	0.430800	0.340200
H1151	H115	0.848100	0.367900	0.348000
C1171	C117	0.927000	0.388700	0.364300
H1161	H116	0.943700	0.421900	0.373600
H1171	H117	0.926900	0.357600	0.378300
C1181	C118	0.962200	0.372300	0.338400
H1181	H118	0.941800	0.342800	0.327900
H1191	H119	0.964800	0.405300	0.325700
C1191	C119	0.018700	0.352300	0.343800
H1201	H120	0.036400	0.346600	0.324900
H1211	H121	0.015000	0.314800	0.352600
C1201	C120	0.059900	0.384900	0.361800
H1221	H122	0.068300	0.420600	0.352000
H1231	H123	0.041700	0.394200	0.380200
C1211	C121	0.111100	0.356900	0.367600
H1241	H124	0.123400	0.340400	0.349200
H1251	H125	0.101600	0.325200	0.380200
C1221	C122	0.162500	0.384400	0.380500
H1261	H126	0.195400	0.360200	0.376900
H1271	H127	0.169100	0.420600	0.370700
C1231	C123	0.157900	0.394900	0.412100
H1281	H128	0.150200	0.359700	0.422500
H1291	H129	0.127700	0.422100	0.416200
C1241	C124	0.215800	0.419100	0.420500
H1301	H130	0.243700	0.389000	0.420500
H1311	H131	0.213500	0.435600	0.439600
H1321	H132	0.226800	0.447900	0.406700
N171	N17	0.815500	0.181600	0.217290
N181	N18	0.923000	0.200000	0.248440
N191	N19	0.905000	0.089000	0.217890
C1251	C125	0.807300	0.236600	0.218650
C1261	C126	0.796300	0.155300	0.193870
C1271	C127	0.959000	0.220800	0.254400
C1281	C128	0.780300	0.266900	0.197290
H1331	H133	0.820500	0.256200	0.235000
H1341	H134	0.802400	0.116100	0.192400
C1291	C129	0.768700	0.180800	0.172290
S51	S5	0.017100	0.251300	0.264400
C1301	C130	0.760700	0.239800	0.173200
H1351	H135	0.775300	0.306200	0.199300
H1361	H136	0.754900	0.159600	0.156700
C1311	C131	0.735700	0.270300	0.148660
N201	N20	0.724800	0.239200	0.125130
C1321	C132	0.725700	0.327400	0.150020
C1331	C133	0.704000	0.265700	0.102140
C1341	C134	0.704000	0.354900	0.126080
H1371	H137	0.733500	0.347600	0.167000
C1351	C135	0.693500	0.322500	0.101840
C1361	C136	0.691300	0.230300	0.076670
C1371	C137	0.693600	0.415900	0.125890
H1381	H138	0.679200	0.339700	0.085100
C1381	C138	0.693500	0.172000	0.077650
C1391	C139	0.674900	0.254100	0.051290
C1401	C140	0.703000	0.447200	0.101020
C1411	C141	0.674600	0.443500	0.149780
H1391	H139	0.706300	0.153500	0.094400
C1421	C142	0.677100	0.141500	0.054350
C1431	C143	0.658900	0.220700	0.028790
H1401	H140	0.674600	0.293700	0.049300
H1411	H141	0.716600	0.428800	0.084400
C1441	C144	0.693000	0.503900	0.100230
C1451	C145	0.663200	0.501100	0.149610
H1421	H142	0.669000	0.422900	0.166900
N211	N21	0.659100	0.164500	0.029780
H1431	H143	0.678500	0.101800	0.055600
H1441	H144	0.647000	0.238300	0.011700
H1451	H145	0.699600	0.524300	0.083200
C1461	C146	0.673100	0.531400	0.124530
H1461	H146	0.649100	0.519200	0.166200
Co21	Co2	0.618190	0.120140	0.995380
O51	O5	0.663200	0.587270	0.121670
N221	N22	0.664190	0.171240	0.964920
N231	N23	0.555700	0.182300	0.995920
N241	N24	0.571500	0.070600	0.026070
N251	N25	0.679100	0.059100	0.992480
N261	N26	0.572600	0.079800	0.961000
C1471	C147	0.637200	0.615100	0.144920
C1481	C148	0.718900	0.178800	0.967660
C1491	C149	0.639300	0.193500	0.941850
C1501	C150	0.527200	0.215700	0.985200
C1511	C151	0.545000	0.096400	0.047880
C1521	C152	0.569700	0.015100	0.024350
C1531	C153	0.713000	0.027500	0.985270
H1471	H147	0.662700	0.615800	0.161600
H1481	H148	0.602500	0.595200	0.150500
C1541	C154	0.623600	0.674100	0.135700
C1551	C155	0.751000	0.209100	0.948300
H1491	H149	0.737100	0.162600	0.983700
H1501	H150	0.600000	0.189200	0.939800
C1561	C156	0.668400	0.222600	0.920670
S61	S6	0.483700	0.259000	0.970130
C1571	C157	0.517300	0.066300	0.068830
H1511	H151	0.545400	0.136100	0.048900
H1521	H152	0.587500	0.997300	0.008700
C1581	C158	0.542900	0.982100	0.044390
S71	S7	0.762030	0.983990	0.975150
H1531	H153	0.658500	0.696500	0.135700
H1541	H154	0.609500	0.673200	0.115800
C1591	C159	0.581000	0.702800	0.154200
C1601	C160	0.725900	0.230500	0.923840
H1551	H155	0.789700	0.215100	0.951800
H1561	H156	0.649400	0.236700	0.904400
C1611	C161	0.515900	0.007700	0.067380
H1571	H157	0.499300	0.085200	0.084100
H1581	H158	0.542800	0.942500	0.042500
H1591	H159	0.573300	0.740100	0.145900
H1601	H160	0.545800	0.681100	0.153200
C1621	C162	0.595600	0.710500	0.184700
C1631	C163	0.758700	0.257300	0.900370
C1641	C164	0.488400	0.974600	0.090450
H1611	H161	0.607700	0.674500	0.193200
H1621	H162	0.563000	0.724600	0.195500
C1651	C165	0.642300	0.752100	0.185400
N271	N27	0.730300	0.270400	0.876600
C1661	C166	0.816200	0.267200	0.903450
N281	N28	0.479150	0.003100	0.114730
C1671	C167	0.477000	0.918200	0.087480
H1631	H163	0.678000	0.734400	0.179500
H1641	H164	0.634300	0.783800	0.172400
C1681	C168	0.645800	0.771700	0.215400
C1691	C169	0.758300	0.292700	0.854900
C1701	C170	0.845300	0.290800	0.880550
H1651	H165	0.834900	0.258100	0.920700
C1711	C171	0.457400	0.974800	0.136860
H1661	H166	0.484100	0.899600	0.069900
C1721	C172	0.454900	0.888700	0.110790
H1671	H167	0.658000	0.740200	0.227600
H1681	H168	0.608000	0.783400	0.221800
C1731	C173	0.686400	0.820600	0.219100
C1741	C174	0.815500	0.302100	0.855880
C1751	C175	0.723700	0.308000	0.829220
C1761	C176	0.906400	0.302800	0.882150
C1771	C177	0.445400	0.918200	0.135640
C1781	C178	0.447300	0.007600	0.162920
C1791	C179	0.442800	0.827900	0.109660
H1691	H169	0.673100	0.853800	0.208500
H1701	H170	0.724200	0.810400	0.212100
C1801	C180	0.687400	0.832300	0.251200
H1711	H171	0.834300	0.316200	0.839500
C1811	C181	0.667400	0.302400	0.828950
C1821	C182	0.749200	0.330000	0.804900
C1831	C183	0.940300	0.298000	0.858430
C1841	C184	0.931000	0.318700	0.907550
H1721	H172	0.430600	0.899600	0.151900
C1851	C185	0.430900	0.983500	0.188640
C1861	C186	0.450800	0.067100	0.162620
C1871	C187	0.425000	0.801400	0.084430
C1881	C188	0.449100	0.794600	0.134030
H1731	H173	0.675800	0.799200	0.262500
H1741	H174	0.663700	0.864800	0.256400
C1891	C189	0.751600	0.845000	0.254900
H1751	H175	0.649100	0.285800	0.844900
C1901	C190	0.635600	0.320500	0.805690
C1911	C191	0.715700	0.347100	0.782920
H1761	H176	0.788800	0.333000	0.803700
H1771	H177	0.924500	0.286700	0.840700
C1921	C192	0.996600	0.309500	0.859960
C1931	C193	0.987300	0.330600	0.909670
H1781	H178	0.908300	0.321400	0.924200
H1791	H179	0.428800	0.943900	0.190300
C1941	C194	0.417700	0.016700	0.211520
C1951	C195	0.438100	0.096600	0.186970
H1801	H180	0.461900	0.086200	0.145800
H1811	H181	0.420200	0.822900	0.067500
C1961	C196	0.414200	0.743300	0.083900
C1971	C197	0.438300	0.737500	0.133700
H1821	H182	0.461200	0.811600	0.151300
H1831	H183	0.759500	0.854100	0.274900
H1841	H184	0.773600	0.812800	0.249000
H1851	H185	0.761700	0.877600	0.243000
N291	N29	0.659400	0.343500	0.782480
H1861	H186	0.596000	0.316500	0.806300
H1871	H187	0.733500	0.362700	0.766600
H1881	H188	0.019000	0.306300	0.843300
C1981	C198	0.020700	0.325400	0.885260
H1891	H189	0.003100	0.342100	0.927300
H1901	H190	0.406100	0.999000	0.228700
H1911	H191	0.442200	0.136100	0.186600
H1921	H192	0.401900	0.725700	0.066800
C1991	C199	0.421700	0.712400	0.108400
H1931	H193	0.442200	0.715900	0.150600
O61	O6	0.077000	0.335100	0.885110
O71	O7	0.413300	0.656100	0.110370
N301	N30	0.570400	0.435000	0.782900
N311	N31	0.549700	0.326600	0.752570
C2001	C200	0.102900	0.351600	0.911000
C2011	C201	0.397100	0.628100	0.085300
C2021	C202	0.596400	0.456000	0.805360
C2031	C203	0.514000	0.440400	0.782070
C2041	C204	0.517000	0.297200	0.762860
H1941	H194	0.097600	0.322000	0.925500
H1951	H195	0.085200	0.386300	0.918100
C2051	C205	0.165100	0.361500	0.906300
H1961	H196	0.426000	0.632300	0.070300
H1971	H197	0.361200	0.643100	0.078100
C2061	C206	0.390600	0.565600	0.094100
C2071	C207	0.569900	0.480900	0.828130
H1981	H198	0.636100	0.453800	0.805800
H1991	H199	0.494400	0.425700	0.766100
C2081	C208	0.483800	0.466300	0.803390
S81	S8	0.471480	0.257100	0.779430
H2001	H200	0.169700	0.389800	0.891100
H2011	H201	0.182300	0.326200	0.899500
C2091	C209	0.196700	0.381300	0.932900
H2021	H202	0.422600	0.554600	0.106300
H2031	H203	0.391400	0.541900	0.076700
C2101	C210	0.334800	0.555600	0.110400
C2111	C211	0.511200	0.486600	0.827740
H2041	H204	0.590900	0.494000	0.844000
H2051	H205	0.444300	0.470300	0.801600
H2061	H206	0.180600	0.416900	0.939900
H2071	H207	0.193500	0.353000	0.948200
C2121	C212	0.257100	0.389500	0.925000
H2081	H208	0.305900	0.542700	0.096800
H2091	H209	0.321900	0.591500	0.118800
C2131	C213	0.341500	0.510800	0.135000
C2141	C214	0.480600	0.510700	0.852560
H2101	H210	0.261600	0.424500	0.913900
H2111	H211	0.270500	0.357800	0.913200
C2151	C215	0.291000	0.392900	0.953100
H2121	H212	0.370200	0.524100	0.148700
H2131	H213	0.305600	0.507800	0.145500
C2161	C216	0.358100	0.453100	0.124200
N321	N32	0.511300	0.522200	0.875480
C2171	C217	0.422900	0.519500	0.851580
H2141	H214	0.272200	0.368900	0.967400
H2151	H215	0.288900	0.431900	0.960100
C2181	C218	0.354400	0.375600	0.951800
H2161	H216	0.329300	0.439800	0.110600
H2171	H217	0.393900	0.456200	0.113600
C2191	C219	0.364600	0.411000	0.147300
C2201	C220	0.485000	0.542900	0.898590
H2181	H218	0.402700	0.511800	0.834600
C2211	C221	0.395000	0.539400	0.875500
H2191	H219	0.359000	0.344800	0.965700
H2201	H220	0.360300	0.358900	0.932700
C2221	C222	0.404700	0.415900	0.956800
H2211	H221	0.392100	0.425500	0.161300
H2221	H222	0.328300	0.407200	0.157300
C2231	C223	0.382900	0.354900	0.138200
C2241	C224	0.428200	0.551500	0.899330
C2251	C225	0.521800	0.556700	0.923180
C2261	C226	0.334200	0.550500	0.875470
H2231	H223	0.397500	0.419400	0.977500
H2241	H224	0.385000	0.448700	0.948700
C2271	C227	0.463400	0.447500	0.958500
H2251	H225	0.413700	0.358700	0.124200
H2261	H226	0.351400	0.335500	0.128700
C2281	C228	0.403800	0.318600	0.164300
H2271	H227	0.411300	0.565800	0.916200
C2291	C229	0.499200	0.577500	0.948480
C2301	C230	0.579200	0.551500	0.921840
C2311	C231	0.306500	0.567600	0.851380
C2321	C232	0.302600	0.542500	0.900430
H2281	H228	0.477400	0.445000	0.938700
H2291	H229	0.452200	0.487100	0.961000
C2331	C233	0.518400	0.443400	0.976700
H2301	H230	0.373900	0.317100	0.178900
H2311	H231	0.436900	0.336700	0.172900
C2341	C234	0.419500	0.257100	0.155000
H2321	H232	0.459800	0.579800	0.950900
C2351	C235	0.534900	0.595000	0.970090
C2361	C236	0.611300	0.570900	0.944860
H2331	H233	0.596600	0.535100	0.905700
H2341	H234	0.327100	0.572500	0.834200
C2371	C237	0.248400	0.578100	0.851110
C2381	C238	0.245100	0.551900	0.900820
H2351	H235	0.320800	0.530500	0.917400
H2361	H236	0.544900	0.472200	0.970300
H2371	H237	0.509600	0.449100	0.996900
H2381	H238	0.535200	0.406300	0.974100
H2391	H239	0.403900	0.249400	0.136100
H2401	H240	0.404000	0.230400	0.168800
H2411	H241	0.460300	0.253200	0.154400
H2421	H242	0.518700	0.607700	0.987500
H2431	H243	0.650800	0.566600	0.944000
H2441	H244	0.230500	0.590800	0.834200
C2391	C239	0.217700	0.569600	0.876230
H2451	H245	0.224600	0.546300	0.917900
O81	O8	0.161900	0.578200	0.879170
C2401	C240	0.133500	0.597900	0.855400
H2461	H246	0.133600	0.569200	0.840200
H2471	H247	0.151900	0.632100	0.848000
C2411	C241	0.073000	0.611300	0.864300
H2481	H248	0.056300	0.578100	0.873600
H2491	H249	0.073100	0.642400	0.878300
C2421	C242	0.037800	0.627700	0.838400
H2501	H250	0.058200	0.657200	0.827900
H2511	H251	0.035200	0.594700	0.825700
C2431	C243	0.981300	0.647700	0.843800
H2521	H252	0.963600	0.653400	0.824900
H2531	H253	0.985000	0.685200	0.852600
C2441	C244	0.940100	0.615100	0.861800
H2541	H254	0.931700	0.579400	0.852000
H2551	H255	0.958300	0.605800	0.880200
C2451	C245	0.888900	0.643100	0.867600
H2561	H256	0.876600	0.659600	0.849200
H2571	H257	0.898400	0.674800	0.880200
C2461	C246	0.837500	0.615600	0.880500
H2581	H258	0.804600	0.639800	0.876900
H2591	H259	0.830900	0.579400	0.870700
C2471	C247	0.842100	0.605100	0.912100
H2601	H260	0.849800	0.640300	0.922500
H2611	H261	0.872300	0.577900	0.916200
C2481	C248	0.784200	0.580900	0.920500
H2621	H262	0.756300	0.611000	0.920500
H2631	H263	0.786500	0.564400	0.939600
H2641	H264	0.773200	0.552100	0.906700
N331	N33	0.681600	0.684500	0.967290
N341	N34	0.700000	0.577000	0.998440
N351	N35	0.589000	0.595000	0.967890
C2491	C249	0.736600	0.692700	0.968650
C2501	C250	0.655300	0.703700	0.943870
C2511	C251	0.720800	0.541000	0.004400
C2521	C252	0.766900	0.719700	0.947290
H2651	H265	0.756200	0.679500	0.985000
H2661	H266	0.616100	0.697600	0.942400
C2531	C253	0.680800	0.731300	0.922290
S91	S9	0.751300	0.482900	0.014400
C2541	C254	0.739800	0.739300	0.923200
H2671	H267	0.806200	0.724700	0.949300
H2681	H268	0.659600	0.745100	0.906700
C2551	C255	0.770300	0.764300	0.898660
N361	N36	0.739200	0.775200	0.875130
C2561	C256	0.827400	0.774300	0.900020
C2571	C257	0.765700	0.796000	0.852140
C2581	C258	0.854900	0.796000	0.876080
H2691	H269	0.847600	0.766500	0.917000
C2591	C259	0.822500	0.806500	0.851840
C2601	C260	0.730300	0.808700	0.826670
C2611	C261	0.915900	0.806400	0.875890
H2701	H270	0.839700	0.820800	0.835100
C2621	C262	0.672000	0.806500	0.827650
C2631	C263	0.754100	0.825100	0.801290
C2641	C264	0.947200	0.797000	0.851020
C2651	C265	0.943500	0.825400	0.899780
H2711	H271	0.653500	0.793700	0.844400
C2661	C266	0.641500	0.822900	0.804350
C2671	C267	0.720700	0.841100	0.778790
H2721	H272	0.793700	0.825400	0.799300
H2731	H273	0.928800	0.783400	0.834400
C2681	C268	0.003900	0.807000	0.850230
C2691	C269	0.001100	0.836800	0.899610
H2741	H274	0.922900	0.831000	0.916900
N371	N37	0.664500	0.840900	0.779780
H2751	H275	0.601800	0.821500	0.805600
H2761	H276	0.738300	0.853000	0.761700
H2771	H277	0.024300	0.800400	0.833200
C2701	C270	0.031400	0.826900	0.874530
H2781	H278	0.019200	0.850900	0.916200
Co31	Co3	0.620140	0.881810	0.745380
O91	O9	0.087270	0.836800	0.871670
N381	N38	0.671240	0.835810	0.714920
N391	N39	0.682300	0.944300	0.745920
N401	N40	0.570600	0.928500	0.776070
N411	N41	0.559100	0.820900	0.742480
N421	N42	0.579800	0.927400	0.711000
C2711	C271	0.115100	0.862800	0.894920
C2721	C272	0.678800	0.781100	0.717660
C2731	C273	0.693500	0.860700	0.691850
C2741	C274	0.715700	0.972800	0.735200
C2751	C275	0.596400	0.955000	0.797880
C2761	C276	0.515100	0.930300	0.774350
C2771	C277	0.527500	0.787000	0.735270
H2791	H279	0.115800	0.837300	0.911600
H2801	H280	0.095200	0.897500	0.900500
C2781	C278	0.174100	0.876400	0.885700
C2791	C279	0.709100	0.749000	0.698300
H2811	H281	0.662600	0.762900	0.733700
H2821	H282	0.689200	0.900000	0.689800
C2801	C280	0.722600	0.831600	0.670670
S101	S10	0.759000	0.016300	0.720130
C2811	C281	0.566300	0.982700	0.818830
H2831	H283	0.636100	0.954600	0.798900
H2841	H284	0.497300	0.912500	0.758700
C2821	C282	0.482100	0.957100	0.794390
S111	S11	0.483990	0.737970	0.725150
H2851	H285	0.196500	0.841500	0.885700
H2861	H286	0.173200	0.890500	0.865800
C2831	C283	0.202800	0.919000	0.904200
C2841	C284	0.730500	0.774100	0.673840
H2871	H287	0.715100	0.710300	0.701800
H2881	H288	0.736700	0.850600	0.654400
C2851	C285	0.507700	0.984100	0.817380
H2891	H289	0.585200	0.000700	0.834100
H2901	H290	0.442500	0.957200	0.792500
H2911	H291	0.240100	0.926700	0.895900
H2921	H292	0.181100	0.954200	0.903200
C2861	C286	0.210500	0.904400	0.934700
C2871	C287	0.757300	0.741300	0.650370
C2881	C288	0.474600	0.011600	0.840450
H2931	H293	0.174500	0.892300	0.943200
H2941	H294	0.224600	0.937000	0.945500
C2891	C289	0.252100	0.857700	0.935400
N431	N43	0.770400	0.769700	0.626600
C2901	C290	0.767200	0.683800	0.653450
N441	N44	0.503100	0.020850	0.864730
C2911	C291	0.418200	0.023000	0.837480
H2951	H295	0.234400	0.822000	0.929500
H2961	H296	0.283800	0.865700	0.922400
C2921	C292	0.271700	0.854200	0.965400
C2931	C293	0.792700	0.741700	0.604900
C2941	C294	0.790800	0.654700	0.630550
H2971	H297	0.758100	0.665100	0.670700
C2951	C295	0.474800	0.042600	0.886860
H2981	H298	0.399600	0.015900	0.819900
C2961	C296	0.388700	0.045100	0.860790
H2991	H299	0.240200	0.842000	0.977600
H3001	H300	0.283400	0.892000	0.971800
C2971	C297	0.320600	0.813600	0.969100
C2981	C298	0.802100	0.684500	0.605880
C2991	C299	0.808000	0.776300	0.579220
C3001	C300	0.802800	0.593600	0.632150
C3011	C301	0.418200	0.054600	0.885640
C3021	C302	0.507600	0.052700	0.912920
C3031	C303	0.327900	0.057200	0.859660
H3011	H301	0.353800	0.826900	0.958500
H3021	H302	0.310400	0.775800	0.962100
C3041	C304	0.332300	0.812600	0.001200
H3031	H303	0.816200	0.665700	0.589500
C3051	C305	0.802400	0.832600	0.578950
C3061	C306	0.830000	0.750800	0.554900
C3071	C307	0.798000	0.559700	0.608430
C3081	C308	0.818700	0.569000	0.657550
H3041	H304	0.399600	0.069400	0.901900
C3091	C309	0.483500	0.069100	0.938640
C3101	C310	0.567100	0.049200	0.912620
C3111	C311	0.301400	0.075000	0.834430
C3121	C312	0.294600	0.050900	0.884030
H3051	H305	0.299200	0.824200	0.012500
H3061	H306	0.364800	0.836300	0.006400
C3131	C313	0.345000	0.748400	0.004900
H3071	H307	0.785800	0.850900	0.594900
C3141	C314	0.820500	0.864400	0.555690
C3151	C315	0.847100	0.784300	0.532920
H3081	H308	0.833000	0.711200	0.553700
H3091	H309	0.786700	0.575500	0.590700
C3161	C316	0.809500	0.503400	0.609960
C3171	C317	0.830600	0.512700	0.659670
H3101	H310	0.821400	0.591700	0.674200
H3111	H311	0.443900	0.071200	0.940300
C3181	C318	0.516700	0.082300	0.961520
C3191	C319	0.596600	0.061900	0.936970
H3121	H312	0.586200	0.038100	0.895800
H3131	H313	0.322900	0.079800	0.817500
C3201	C320	0.243300	0.085800	0.833900
C3211	C321	0.237500	0.061700	0.883700
H3141	H314	0.311600	0.038800	0.901300
H3151	H315	0.354100	0.740500	0.024900
H3161	H316	0.312800	0.726400	0.999000
H3171	H317	0.377600	0.738300	0.993000
N451	N45	0.843500	0.840600	0.532480
H3181	H318	0.816500	0.904000	0.556300
H3191	H319	0.862700	0.766500	0.516600
H3201	H320	0.806300	0.481000	0.593300
C3221	C322	0.825400	0.479300	0.635260
H3211	H321	0.842100	0.496900	0.677300
H3221	H322	0.499000	0.093900	0.978700
H3231	H323	0.636100	0.057800	0.936600
H3241	H324	0.225700	0.098100	0.816800
C3231	C323	0.212400	0.078300	0.858400
H3251	H325	0.215900	0.057800	0.900600
O101	O10	0.835100	0.423000	0.635110
O111	O11	0.156100	0.086700	0.860370
N461	N46	0.935000	0.929600	0.532900
N471	N47	0.826600	0.950300	0.502570
C3241	C324	0.851600	0.397100	0.661000
C3251	C325	0.128100	0.102900	0.835300
C3261	C326	0.956000	0.903600	0.555360
C3271	C327	0.940400	0.986000	0.532070
C3281	C328	0.797200	0.983000	0.512860
H3261	H326	0.822000	0.402400	0.675500
H3271	H327	0.886300	0.414800	0.668100
C3291	C329	0.861500	0.334900	0.656300
H3281	H328	0.132300	0.074000	0.820300
H3291	H329	0.143100	0.138800	0.828100
C3301	C330	0.065600	0.109400	0.844100
C3311	C331	0.980900	0.930100	0.578130
H3301	H330	0.953800	0.863900	0.555800
H3311	H331	0.925700	0.005600	0.516100
C3321	C332	0.966300	0.016200	0.553390
S121	S12	0.757100	0.028520	0.529430
H3321	H332	0.889800	0.330300	0.641100
H3331	H333	0.826200	0.317700	0.649500
C3331	C333	0.881300	0.303300	0.682900
H3341	H334	0.054600	0.077400	0.856300
H3351	H335	0.041900	0.108600	0.826700
C3341	C334	0.055600	0.165200	0.860400
C3351	C335	0.986600	0.988800	0.577740
H3361	H336	0.994000	0.909100	0.594000
H3371	H337	0.970300	0.055700	0.551600
H3381	H338	0.916900	0.319400	0.689900
H3391	H339	0.853000	0.306500	0.698200
C3361	C336	0.889500	0.242900	0.675000
H3401	H340	0.042700	0.194100	0.846800
H3411	H341	0.091500	0.178100	0.868800
C3371	C337	0.010800	0.158500	0.885000
C3381	C338	0.010700	0.019400	0.602560
H3421	H342	0.924500	0.238400	0.663900
H3431	H343	0.857800	0.229500	0.663200
C3391	C339	0.892900	0.209000	0.703100
H3441	H344	0.024100	0.129800	0.898700
H3451	H345	0.007800	0.194400	0.895500
C3401	C340	0.953100	0.141900	0.874200
N481	N48	0.022200	0.988700	0.625480
C3411	C341	0.019500	0.077100	0.601580
H3461	H346	0.868900	0.227800	0.717400
H3471	H347	0.931900	0.211100	0.710100
C3421	C342	0.875600	0.145600	0.701800
H3481	H348	0.939800	0.170700	0.860600
H3491	H349	0.956200	0.106100	0.863600
C3431	C343	0.911000	0.135400	0.897300
C3441	C344	0.042900	0.015000	0.648590
H3501	H350	0.011800	0.097300	0.584600
C3451	C345	0.039400	0.105000	0.625500
H3511	H351	0.844800	0.141000	0.715700
H3521	H352	0.858900	0.139700	0.682700
C3461	C346	0.915900	0.095300	0.706800
H3531	H353	0.925500	0.107900	0.911300
H3541	H354	0.907200	0.171700	0.907300
C3471	C347	0.854900	0.117100	0.888200
C3481	C348	0.051500	0.071800	0.649330
C3491	C349	0.056700	0.978200	0.673180
C3501	C350	0.050500	0.165800	0.625470
H3551	H355	0.919400	0.102500	0.727500
H3561	H356	0.948700	0.115000	0.698700
C3511	C351	0.947500	0.036600	0.708500
H3571	H357	0.858700	0.086300	0.874200
H3581	H358	0.835500	0.148600	0.878700
C3521	C352	0.818600	0.096200	0.914300
H3591	H359	0.065800	0.088700	0.666200
C3531	C353	0.077500	0.000800	0.698480
C3541	C354	0.051500	0.920800	0.671840
C3551	C355	0.067600	0.193500	0.601380
C3561	C356	0.042500	0.197400	0.650430
H3601	H360	0.945000	0.022600	0.688700
H3611	H361	0.987100	0.047800	0.711000
C3571	C357	0.943400	0.981600	0.726700
H3621	H362	0.817100	0.126100	0.928900
H3631	H363	0.836700	0.063100	0.922900
C3581	C358	0.757100	0.080500	0.905000
H3641	H364	0.079800	0.040200	0.700900
C3591	C359	0.095000	0.965100	0.720090
C3601	C360	0.070900	0.888700	0.694860
H3651	H365	0.035100	0.903400	0.655700
H3661	H366	0.072500	0.172900	0.584200
C3611	C361	0.078100	0.251600	0.601110
C3621	C362	0.051900	0.254900	0.650820
H3671	H367	0.030500	0.179200	0.667400
H3681	H368	0.972200	0.955100	0.720300
H3691	H369	0.949100	0.990400	0.746900
H3701	H370	0.906300	0.964800	0.724100
H3711	H371	0.749400	0.096100	0.886100
H3721	H372	0.730400	0.096000	0.918800
H3731	H373	0.753200	0.039700	0.904400
H3741	H374	0.107700	0.981300	0.737500
H3751	H375	0.066600	0.849200	0.694000
H3761	H376	0.090800	0.269500	0.584200
C3631	C363	0.069600	0.282300	0.626230
H3771	H377	0.046300	0.275400	0.667900
O121	O12	0.078200	0.338100	0.629170
C3641	C364	0.097900	0.366500	0.605400
H3781	H378	0.069200	0.366400	0.590200
H3791	H379	0.132100	0.348100	0.598000
C3651	C365	0.111300	0.427000	0.614300
H3801	H380	0.078100	0.443700	0.623600
H3811	H381	0.142400	0.426900	0.628300
C3661	C366	0.127700	0.462200	0.588400
H3821	H382	0.157200	0.441800	0.577900
H3831	H383	0.094700	0.464800	0.575700
C3671	C367	0.147700	0.518700	0.593800
H3841	H384	0.153400	0.536400	0.574900
H3851	H385	0.185200	0.515000	0.602600
C3681	C368	0.115100	0.559900	0.611800
H3861	H386	0.079400	0.568300	0.602000
H3871	H387	0.105800	0.541700	0.630200
C3691	C369	0.143100	0.611100	0.617600
H3881	H388	0.159600	0.623400	0.599200
H3891	H389	0.174800	0.601600	0.630200
C3701	C370	0.115600	0.662500	0.630500
H3901	H390	0.139800	0.695400	0.626900
H3911	H391	0.079400	0.669100	0.620700
C3711	C371	0.105100	0.657900	0.662100
H3921	H392	0.140300	0.650200	0.672500
H3931	H393	0.077900	0.627700	0.666200
C3721	C372	0.080900	0.715800	0.670500
H3941	H394	0.111000	0.743700	0.670500
H3951	H395	0.064400	0.713500	0.689600
H3961	H396	0.052100	0.726800	0.656700
N491	N49	0.318400	0.315500	0.467290
N501	N50	0.300000	0.423000	0.498440
N511	N51	0.411000	0.405000	0.467890
C3731	C373	0.263400	0.307300	0.468650
C3741	C374	0.344700	0.296300	0.443870
C3751	C375	0.279200	0.459000	0.504400
C3761	C376	0.233100	0.280300	0.447290
H3971	H397	0.243800	0.320500	0.485000
H3981	H398	0.383900	0.302400	0.442400
C3771	C377	0.319200	0.268700	0.422290
S131	S13	0.248700	0.517100	0.514400
C3781	C378	0.260200	0.260700	0.423200
H3991	H399	0.193800	0.275300	0.449300
H4001	H400	0.340400	0.254900	0.406700
C3791	C379	0.229700	0.235700	0.398660
N521	N52	0.260800	0.224800	0.375130
C3801	C380	0.172600	0.225700	0.400020
C3811	C381	0.234300	0.204000	0.352140
C3821	C382	0.145100	0.204000	0.376080
H4011	H401	0.152400	0.233500	0.417000
C3831	C383	0.177500	0.193500	0.351840
C3841	C384	0.269700	0.191300	0.326670
C3851	C385	0.084100	0.193600	0.375890
H4021	H402	0.160300	0.179200	0.335100
C3861	C386	0.328000	0.193500	0.327650
C3871	C387	0.245900	0.174900	0.301290
C3881	C388	0.052800	0.203000	0.351020
C3891	C389	0.056500	0.174600	0.399780
H4031	H403	0.346500	0.206300	0.344400
C3901	C390	0.358500	0.177100	0.304350
C3911	C391	0.279300	0.158900	0.278790
H4041	H404	0.206300	0.174600	0.299300
H4051	H405	0.071200	0.216600	0.334400
C3921	C392	0.996100	0.193000	0.350230
C3931	C393	0.998900	0.163200	0.399610
H4061	H406	0.077100	0.169000	0.416900
N531	N53	0.335500	0.159100	0.279780
H4071	H407	0.398200	0.178500	0.305600
H4081	H408	0.261700	0.147000	0.261700
H4091	H409	0.975700	0.199600	0.333200
C3941	C394	0.968600	0.173100	0.374530
H4101	H410	0.980800	0.149100	0.416200
Co41	Co4	0.379860	0.118190	0.245380
O131	O13	0.912730	0.163200	0.371670
N541	N54	0.328760	0.164190	0.214920
N551	N55	0.317700	0.055700	0.245920
N561	N56	0.429400	0.071500	0.276070
N571	N57	0.440900	0.179100	0.242480
N581	N58	0.420200	0.072600	0.211000
C3951	C395	0.884900	0.137200	0.394920
C3961	C396	0.321200	0.218900	0.217660
C3971	C397	0.306500	0.139300	0.191850
C3981	C398	0.284300	0.027200	0.235200
C3991	C399	0.403600	0.045000	0.297880
C4001	C400	0.484900	0.069700	0.274350
C4011	C401	0.472500	0.213000	0.235270
H4111	H411	0.884200	0.162700	0.411600
H4121	H412	0.904800	0.102500	0.400500
C4021	C402	0.825900	0.123600	0.385700
C4031	C403	0.290900	0.251000	0.198300
H4131	H413	0.337400	0.237100	0.233700
H4141	H414	0.310800	0.100000	0.189800
C4041	C404	0.277400	0.168400	0.170670
S141	S14	0.241000	0.983700	0.220130
C4051	C405	0.433700	0.017300	0.318830
H4151	H415	0.363900	0.045400	0.298900
H4161	H416	0.502700	0.087500	0.258700
C4061	C406	0.517900	0.042900	0.294390
S151	S15	0.516010	0.262030	0.225150
H4171	H417	0.803500	0.158500	0.385700
H4181	H418	0.826800	0.109500	0.365800
C4071	C407	0.797200	0.081000	0.404200
C4081	C408	0.269500	0.225900	0.173840
H4191	H419	0.284900	0.289700	0.201800
H4201	H420	0.263300	0.149400	0.154400
C4091	C409	0.492300	0.015900	0.317380
H4211	H421	0.414800	0.999300	0.334100
H4221	H422	0.557500	0.042800	0.292500
H4231	H423	0.759900	0.073300	0.395900
H4241	H424	0.818900	0.045800	0.403200
C4101	C410	0.789500	0.095600	0.434700
C4111	C411	0.242700	0.258700	0.150370
C4121	C412	0.525400	0.988400	0.340450
H4251	H425	0.825500	0.107700	0.443200
H4261	H426	0.775400	0.063000	0.445500
C4131	C413	0.747900	0.142300	0.435400
N591	N59	0.229600	0.230300	0.126600
C4141	C414	0.232800	0.316200	0.153450
N601	N60	0.496900	0.979150	0.364730
C4151	C415	0.581800	0.977000	0.337480
H4271	H427	0.765600	0.178000	0.429500
H4281	H428	0.716200	0.134300	0.422400
C4161	C416	0.728300	0.145800	0.465400
C4171	C417	0.207300	0.258300	0.104900
C4181	C418	0.209200	0.345300	0.130550
H4291	H429	0.241900	0.334900	0.170700
C4191	C419	0.525200	0.957400	0.386860
H4301	H430	0.600400	0.984100	0.319900
C4201	C420	0.611300	0.954900	0.360790
H4311	H431	0.759800	0.158000	0.477600
H4321	H432	0.716600	0.108000	0.471800
C4211	C421	0.679400	0.186400	0.469100
C4221	C422	0.197900	0.315500	0.105880
C4231	C423	0.192000	0.223700	0.079220
C4241	C424	0.197200	0.406400	0.132150
C4251	C425	0.581800	0.945400	0.385640
C4261	C426	0.492400	0.947300	0.412920
C4271	C427	0.672100	0.942800	0.359660
H4331	H433	0.646200	0.173100	0.458500
H4341	H434	0.689600	0.224200	0.462100
C4281	C428	0.667700	0.187400	0.501200
H4351	H435	0.183800	0.334300	0.089500
C4291	C429	0.197600	0.167400	0.078950
C4301	C430	0.170000	0.249200	0.054900
C4311	C431	0.202000	0.440300	0.108430
C4321	C432	0.181300	0.431000	0.157550
H4361	H436	0.600400	0.930600	0.401900
C4331	C433	0.516500	0.930900	0.438640
C4341	C434	0.432900	0.950800	0.412620
C4351	C435	0.698600	0.925000	0.334430
C4361	C436	0.705400	0.949100	0.384030
H4371	H437	0.700800	0.175800	0.512500
H4381	H438	0.635200	0.163700	0.506400
C4371	C437	0.655000	0.251600	0.504900
H4391	H439	0.214200	0.149100	0.094900
C4381	C438	0.179500	0.135600	0.055690
C4391	C439	0.152900	0.215700	0.032920
H4401	H440	0.167000	0.288800	0.053700
H4411	H441	0.213300	0.424500	0.090700
C4401	C440	0.190500	0.496600	0.109960
C4411	C441	0.169400	0.487300	0.159670
H4421	H442	0.178600	0.408300	0.174200
H4431	H443	0.556100	0.928800	0.440300
C4421	C442	0.483300	0.917700	0.461520
C4431	C443	0.403400	0.938100	0.436970
H4441	H444	0.413800	0.961900	0.395800
H4451	H445	0.677100	0.920200	0.317500
C4441	C444	0.756700	0.914200	0.333900
C4451	C445	0.762500	0.938300	0.383700
H4461	H446	0.688400	0.961200	0.401300
H4471	H447	0.645900	0.259500	0.524900
H4481	H448	0.687200	0.273600	0.499000
H4491	H449	0.622400	0.261700	0.493000
N611	N61	0.156500	0.159400	0.032480
H4501	H450	0.183500	0.096000	0.056300
H4511	H451	0.137300	0.233500	0.016600
H4521	H452	0.193700	0.519000	0.093300
C4461	C446	0.174600	0.520700	0.135260
H4531	H453	0.157900	0.503100	0.177300
H4541	H454	0.501000	0.906100	0.478700
H4551	H455	0.363900	0.942200	0.436600
H4561	H456	0.774300	0.901900	0.316800
C4471	C447	0.787600	0.921700	0.358400
H4571	H457	0.784100	0.942200	0.400600
O141	O14	0.164900	0.577000	0.135110
O151	O15	0.843900	0.913300	0.360370
N621	N62	0.065000	0.070400	0.032900
N631	N63	0.173400	0.049700	0.002570
C4481	C448	0.148400	0.602900	0.161000
C4491	C449	0.871900	0.897100	0.335300
C4501	C450	0.044000	0.096400	0.055360
C4511	C451	0.059600	0.014000	0.032070
C4521	C452	0.202800	0.017000	0.012860
H4581	H458	0.178000	0.597600	0.175500
H4591	H459	0.113700	0.585200	0.168100
C4531	C453	0.138500	0.665100	0.156300
H4601	H460	0.867700	0.926000	0.320300
H4611	H461	0.856900	0.861200	0.328100
C4541	C454	0.934400	0.890600	0.344100
C4551	C455	0.019100	0.069900	0.078130
H4621	H462	0.046200	0.136100	0.055800
H4631	H463	0.074300	0.994400	0.016100
C4561	C456	0.033700	0.983800	0.053390
S161	S16	0.242900	0.971480	0.029430
H4641	H464	0.110200	0.669700	0.141100
H4651	H465	0.173800	0.682300	0.149500
C4571	C457	0.118700	0.696700	0.182900
H4661	H466	0.945400	0.922600	0.356300
H4671	H467	0.958100	0.891400	0.326700
C4581	C458	0.944400	0.834800	0.360400
C4591	C459	0.013400	0.011200	0.077740
H4681	H468	0.006000	0.090900	0.094000
H4691	H469	0.029700	0.944300	0.051600
H4701	H470	0.083100	0.680600	0.189900
H4711	H471	0.147000	0.693500	0.198200
C4601	C460	0.110500	0.757100	0.175000
H4721	H472	0.957300	0.805900	0.346800
H4731	H473	0.908500	0.821900	0.368800
C4611	C461	0.989200	0.841500	0.385000
C4621	C462	0.989300	0.980600	0.102560
H4741	H474	0.075500	0.761600	0.163900
H4751	H475	0.142200	0.770500	0.163200
C4631	C463	0.107100	0.791000	0.203100
H4761	H476	0.975900	0.870200	0.398700
H4771	H477	0.992200	0.805600	0.395500
C4641	C464	0.046900	0.858100	0.374200
N641	N64	0.977800	0.011300	0.125480
C4651	C465	0.980500	0.922900	0.101580
H4781	H478	0.131100	0.772200	0.217400
H4791	H479	0.068100	0.788900	0.210100
C4661	C466	0.124400	0.854400	0.201800
H4801	H480	0.060200	0.829300	0.360600
H4811	H481	0.043800	0.893900	0.363600
C4671	C467	0.089000	0.864600	0.397300
C4681	C468	0.957100	0.985000	0.148590
H4821	H482	0.988200	0.902700	0.084600
C4691	C469	0.960600	0.895000	0.125500
H4831	H483	0.155200	0.859000	0.215700
H4841	H484	0.141100	0.860300	0.182700
C4701	C470	0.084100	0.904700	0.206800
H4851	H485	0.074500	0.892100	0.411300
H4861	H486	0.092800	0.828300	0.407300
C4711	C471	0.145100	0.882900	0.388200
C4721	C472	0.948500	0.928200	0.149330
C4731	C473	0.943300	0.021800	0.173180
C4741	C474	0.949500	0.834200	0.125470
H4871	H487	0.080600	0.897500	0.227500
H4881	H488	0.051300	0.885000	0.198700
C4751	C475	0.052500	0.963400	0.208500
H4891	H489	0.141300	0.913700	0.374200
H4901	H490	0.164500	0.851400	0.378700
C4761	C476	0.181400	0.903800	0.414300
H4911	H491	0.934200	0.911300	0.166200
C4771	C477	0.922500	0.999200	0.198480
C4781	C478	0.948500	0.079200	0.171840
C4791	C479	0.932400	0.806500	0.101380
C4801	C480	0.957500	0.802600	0.150430
H4921	H492	0.055000	0.977400	0.188700
H4931	H493	0.012900	0.952200	0.211000
C4811	C481	0.056600	0.018400	0.226700
H4941	H494	0.182900	0.873900	0.428900
H4951	H495	0.163300	0.936900	0.422900
C4821	C482	0.242900	0.919500	0.405000
H4961	H496	0.920200	0.959800	0.200900
C4831	C483	0.905000	0.034900	0.220090
C4841	C484	0.929100	0.111300	0.194860
H4971	H497	0.964900	0.096600	0.155700
H4981	H498	0.927500	0.827100	0.084200
C4851	C485	0.921900	0.748400	0.101110
C4861	C486	0.948100	0.745100	0.150820
H4991	H499	0.969500	0.820800	0.167400
H5001	H500	0.027800	0.044900	0.220300
H5011	H501	0.050900	0.009600	0.246900
H5021	H502	0.093700	0.035200	0.224100
H5031	H503	0.250600	0.903900	0.386100
H5041	H504	0.269600	0.904000	0.418800
H5051	H505	0.246800	0.960300	0.404400
H5061	H506	0.892300	0.018700	0.237500
H5071	H507	0.933400	0.150800	0.194000
H5081	H508	0.909200	0.730500	0.084200
C4871	C487	0.930400	0.717700	0.126230
H5091	H509	0.953700	0.724600	0.167900
O161	O16	0.921800	0.661900	0.129170
C4881	C488	0.902100	0.633500	0.105400
H5101	H510	0.930800	0.633600	0.090200
H5111	H511	0.867900	0.651900	0.098000
C4891	C489	0.888700	0.573000	0.114300
H5121	H512	0.921900	0.556300	0.123600
H5131	H513	0.857600	0.573100	0.128300
C4901	C490	0.872300	0.537800	0.088400
H5141	H514	0.842800	0.558200	0.077900
H5151	H515	0.905300	0.535200	0.075700
C4911	C491	0.852300	0.481300	0.093800
H5161	H516	0.846600	0.463600	0.074900
H5171	H517	0.814800	0.485000	0.102600
C4921	C492	0.884900	0.440100	0.111800
H5181	H518	0.920600	0.431700	0.102000
H5191	H519	0.894200	0.458300	0.130200
C4931	C493	0.856900	0.388900	0.117600
H5201	H520	0.840400	0.376600	0.099200
H5211	H521	0.825200	0.398400	0.130200
C4941	C494	0.884400	0.337500	0.130500
H5221	H522	0.860200	0.304600	0.126900
H5231	H523	0.920600	0.330900	0.120700
C4951	C495	0.894900	0.342100	0.162100
H5241	H524	0.859700	0.349800	0.172500
H5251	H525	0.922100	0.372300	0.166200
C4961	C496	0.919100	0.284200	0.170500
H5261	H526	0.889000	0.256300	0.170500
H5271	H527	0.935600	0.286500	0.189600
H5281	H528	0.947900	0.273200	0.156700
N651	N65	0.315500	0.318400	0.532710
N661	N66	0.423000	0.300000	0.501560
N671	N67	0.405000	0.411000	0.532110
C4971	C497	0.307300	0.263400	0.531350
C4981	C498	0.296300	0.344700	0.556130
C4991	C499	0.459000	0.279200	0.495600
C5001	C500	0.280300	0.233100	0.552710
H5291	H529	0.320500	0.243800	0.515000
H5301	H530	0.302400	0.383900	0.557600
C5011	C501	0.268700	0.319200	0.577710
S171	S17	0.517100	0.248700	0.485600
C5021	C502	0.260700	0.260200	0.576800
H5311	H531	0.275300	0.193800	0.550700
H5321	H532	0.254900	0.340400	0.593300
C5031	C503	0.235700	0.229700	0.601340
N681	N68	0.224800	0.260800	0.624870
C5041	C504	0.225700	0.172600	0.599980
C5051	C505	0.204000	0.234300	0.647860
C5061	C506	0.204000	0.145100	0.623920
H5331	H533	0.233500	0.152400	0.583000
C5071	C507	0.193500	0.177500	0.648160
C5081	C508	0.191300	0.269700	0.673330
C5091	C509	0.193600	0.084100	0.624110
H5341	H534	0.179200	0.160300	0.664900
C5101	C510	0.193500	0.328000	0.672350
C5111	C511	0.174900	0.245900	0.698710
C5121	C512	0.203000	0.052800	0.648980
C5131	C513	0.174600	0.056500	0.600220
H5351	H535	0.206300	0.346500	0.655600
C5141	C514	0.177100	0.358500	0.695650
C5151	C515	0.158900	0.279300	0.721210
H5361	H536	0.174600	0.206300	0.700700
H5371	H537	0.216600	0.071200	0.665600
C5161	C516	0.193000	0.996100	0.649770
C5171	C517	0.163200	0.998900	0.600390
H5381	H538	0.169000	0.077100	0.583100
N691	N69	0.159100	0.335500	0.720220
H5391	H539	0.178500	0.398200	0.694400
H5401	H540	0.147000	0.261700	0.738300
H5411	H541	0.199600	0.975700	0.666800
C5181	C518	0.173100	0.968600	0.625470
H5421	H542	0.149100	0.980800	0.583800
Co51	Co5	0.118190	0.379860	0.754620
O171	O17	0.163200	0.912730	0.628330
N701	N70	0.164190	0.328760	0.785080
N711	N71	0.055700	0.317700	0.754080
N721	N72	0.071500	0.429400	0.723930
N731	N73	0.179100	0.440900	0.757520
N741	N74	0.072600	0.420200	0.789000
C5191	C519	0.137200	0.884900	0.605080
C5201	C520	0.218900	0.321200	0.782340
C5211	C521	0.139300	0.306500	0.808150
C5221	C522	0.027200	0.284300	0.764800
C5231	C523	0.045000	0.403600	0.702120
C5241	C524	0.069700	0.484900	0.725650
C5251	C525	0.213000	0.472500	0.764730
H5431	H543	0.162700	0.884200	0.588400
H5441	H544	0.102500	0.904800	0.599500
C5261	C526	0.123600	0.825900	0.614300
C5271	C527	0.251000	0.290900	0.801700
H5451	H545	0.237100	0.337400	0.766300
H5461	H546	0.100000	0.310800	0.810200
C5281	C528	0.168400	0.277400	0.829330
S181	S18	0.983700	0.241000	0.779870
C5291	C529	0.017300	0.433700	0.681170
H5471	H547	0.045400	0.363900	0.701100
H5481	H548	0.087500	0.502700	0.741300
C5301	C530	0.042900	0.517900	0.705610
S191	S19	0.262030	0.516010	0.774850
H5491	H549	0.158500	0.803500	0.614300
H5501	H550	0.109500	0.826800	0.634200
C5311	C531	0.081000	0.797200	0.595800
C5321	C532	0.225900	0.269500	0.826160
H5511	H551	0.289700	0.284900	0.798200
H5521	H552	0.149400	0.263300	0.845600
C5331	C533	0.015900	0.492300	0.682620
H5531	H553	0.999300	0.414800	0.665900
H5541	H554	0.042800	0.557500	0.707500
H5551	H555	0.073300	0.759900	0.604100
H5561	H556	0.045800	0.818900	0.596800
C5341	C534	0.095600	0.789500	0.565300
C5351	C535	0.258700	0.242700	0.849630
C5361	C536	0.988400	0.525400	0.659550
H5571	H557	0.107700	0.825500	0.556800
H5581	H558	0.063000	0.775400	0.554500
C5371	C537	0.142300	0.747900	0.564600
N751	N75	0.230300	0.229600	0.873400
C5381	C538	0.316200	0.232800	0.846550
N761	N76	0.979150	0.496900	0.635270
C5391	C539	0.977000	0.581800	0.662520
H5591	H559	0.178000	0.765600	0.570500
H5601	H560	0.134300	0.716200	0.577600
C5401	C540	0.145800	0.728300	0.534600
C5411	C541	0.258300	0.207300	0.895100
C5421	C542	0.345300	0.209200	0.869450
H5611	H561	0.334900	0.241900	0.829300
C5431	C543	0.957400	0.525200	0.613140
H5621	H562	0.984100	0.600400	0.680100
C5441	C544	0.954900	0.611300	0.639210
H5631	H563	0.158000	0.759800	0.522400
H5641	H564	0.108000	0.716600	0.528200
C5451	C545	0.186400	0.679400	0.530900
C5461	C546	0.315500	0.197900	0.894120
C5471	C547	0.223700	0.192000	0.920780
C5481	C548	0.406400	0.197200	0.867850
C5491	C549	0.945400	0.581800	0.614360
C5501	C550	0.947300	0.492400	0.587080
C5511	C551	0.942800	0.672100	0.640340
H5651	H565	0.173100	0.646200	0.541500
H5661	H566	0.224200	0.689600	0.537900
C5521	C552	0.187400	0.667700	0.498800
H5671	H567	0.334300	0.183800	0.910500
C5531	C553	0.167400	0.197600	0.921050
C5541	C554	0.249200	0.170000	0.945100
C5551	C555	0.440300	0.202000	0.891570
C5561	C556	0.431000	0.181300	0.842450
H5681	H568	0.930600	0.600400	0.598100
C5571	C557	0.930900	0.516500	0.561360
C5581	C558	0.950800	0.432900	0.587380
C5591	C559	0.925000	0.698600	0.665570
C5601	C560	0.949100	0.705400	0.615970
H5691	H569	0.175800	0.700800	0.487500
H5701	H570	0.163700	0.635200	0.493600
C5611	C561	0.251600	0.655000	0.495100
H5711	H571	0.149100	0.214200	0.905100
C5621	C562	0.135600	0.179500	0.944310
C5631	C563	0.215700	0.152900	0.967080
H5721	H572	0.288800	0.167000	0.946300
H5731	H573	0.424500	0.213300	0.909300
C5641	C564	0.496600	0.190500	0.890040
C5651	C565	0.487300	0.169400	0.840330
H5741	H574	0.408300	0.178600	0.825800
H5751	H575	0.928800	0.556100	0.559700
C5661	C566	0.917700	0.483300	0.538480
C5671	C567	0.938100	0.403400	0.563030
H5761	H576	0.961900	0.413800	0.604200
H5771	H577	0.920200	0.677100	0.682500
C5681	C568	0.914200	0.756700	0.666100
C5691	C569	0.938300	0.762500	0.616300
H5781	H578	0.961200	0.688400	0.598700
H5791	H579	0.259500	0.645900	0.475100
H5801	H580	0.273600	0.687200	0.501000
H5811	H581	0.261700	0.622400	0.507000
N771	N77	0.159400	0.156500	0.967520
H5821	H582	0.096000	0.183500	0.943700
H5831	H583	0.233500	0.137300	0.983400
H5841	H584	0.519000	0.193700	0.906700
C5701	C570	0.520700	0.174600	0.864740
H5851	H585	0.503100	0.157900	0.822700
H5861	H586	0.906100	0.501000	0.521300
H5871	H587	0.942200	0.363900	0.563400
H5881	H588	0.901900	0.774300	0.683200
C5711	C571	0.921700	0.787600	0.641600
H5891	H589	0.942200	0.784100	0.599400
O181	O18	0.577000	0.164900	0.864890
O191	O19	0.913300	0.843900	0.639630
N781	N78	0.070400	0.065000	0.967100
N791	N79	0.049700	0.173400	0.997430
C5721	C572	0.602900	0.148400	0.839000
C5731	C573	0.897100	0.871900	0.664700
C5741	C574	0.096400	0.044000	0.944640
C5751	C575	0.014000	0.059600	0.967930
C5761	C576	0.017000	0.202800	0.987140
H5901	H590	0.597600	0.178000	0.824500
H5911	H591	0.585200	0.113700	0.831900
C5771	C577	0.665100	0.138500	0.843700
H5921	H592	0.926000	0.867700	0.679700
H5931	H593	0.861200	0.856900	0.671900
C5781	C578	0.890600	0.934400	0.655900
C5791	C579	0.069900	0.019100	0.921870
H5941	H594	0.136100	0.046200	0.944200
H5951	H595	0.994400	0.074300	0.983900
C5801	C580	0.983800	0.033700	0.946610
S201	S20	0.971480	0.242900	0.970570
H5961	H596	0.669700	0.110200	0.858900
H5971	H597	0.682300	0.173800	0.850500
C5811	C581	0.696700	0.118700	0.817100
H5981	H598	0.922600	0.945400	0.643700
H5991	H599	0.891400	0.958100	0.673300
C5821	C582	0.834800	0.944400	0.639600
C5831	C583	0.011200	0.013400	0.922260
H6001	H600	0.090900	0.006000	0.906000
H6011	H601	0.944300	0.029700	0.948400
H6021	H602	0.680600	0.083100	0.810100
H6031	H603	0.693500	0.147000	0.801800
C5841	C584	0.757100	0.110500	0.825000
H6041	H604	0.805900	0.957300	0.653200
H6051	H605	0.821900	0.908500	0.631200
C5851	C585	0.841500	0.989200	0.615000
C5861	C586	0.980600	0.989300	0.897440
H6061	H606	0.761600	0.075500	0.836100
H6071	H607	0.770500	0.142200	0.836800
C5871	C587	0.791000	0.107100	0.796900
H6081	H608	0.870200	0.975900	0.601300
H6091	H609	0.805600	0.992200	0.604500
C5881	C588	0.858100	0.046900	0.625800
N801	N80	0.011300	0.977800	0.874520
C5891	C589	0.922900	0.980500	0.898420
H6101	H610	0.772200	0.131100	0.782600
H6111	H611	0.788900	0.068100	0.789900
C5901	C590	0.854400	0.124400	0.798200
H6121	H612	0.829300	0.060200	0.639400
H6131	H613	0.893900	0.043800	0.636400
C5911	C591	0.864600	0.089000	0.602700
C5921	C592	0.985000	0.957100	0.851410
H6141	H614	0.902700	0.988200	0.915400
C5931	C593	0.895000	0.960600	0.874500
H6151	H615	0.859000	0.155200	0.784300
H6161	H616	0.860300	0.141100	0.817300
C5941	C594	0.904700	0.084100	0.793200
H6171	H617	0.892100	0.074500	0.588700
H6181	H618	0.828300	0.092800	0.592700
C5951	C595	0.882900	0.145100	0.611800
C5961	C596	0.928200	0.948500	0.850670
C5971	C597	0.021800	0.943300	0.826820
C5981	C598	0.834200	0.949500	0.874530
H6191	H619	0.897500	0.080600	0.772500
H6201	H620	0.885000	0.051300	0.801300
C5991	C599	0.963400	0.052500	0.791500
H6211	H621	0.913700	0.141300	0.625800
H6221	H622	0.851400	0.164500	0.621300
C6001	C600	0.903800	0.181400	0.585700
H6231	H623	0.911300	0.934200	0.833800
C6011	C601	0.999200	0.922500	0.801520
C6021	C602	0.079200	0.948500	0.828160
C6031	C603	0.806500	0.932400	0.898620
C6041	C604	0.802600	0.957500	0.849570
H6241	H624	0.977400	0.055000	0.811300
H6251	H625	0.952200	0.012900	0.789000
C6051	C605	0.018400	0.056600	0.773300
H6261	H626	0.873900	0.182900	0.571100
H6271	H627	0.936900	0.163300	0.577100
C6061	C606	0.919500	0.242900	0.595000
H6281	H628	0.959800	0.920200	0.799100
C6071	C607	0.034900	0.905000	0.779910
C6081	C608	0.111300	0.929100	0.805140
H6291	H629	0.096600	0.964900	0.844300
H6301	H630	0.827100	0.927500	0.915800
C6091	C609	0.748400	0.921900	0.898890
C6101	C610	0.745100	0.948100	0.849180
H6311	H631	0.820800	0.969500	0.832600
H6321	H632	0.044900	0.027800	0.779700
H6331	H633	0.009600	0.050900	0.753100
H6341	H634	0.035200	0.093700	0.775900
H6351	H635	0.903900	0.250600	0.613900
H6361	H636	0.904000	0.269600	0.581200
H6371	H637	0.960300	0.246800	0.595600
H6381	H638	0.018700	0.892300	0.762500
H6391	H639	0.150800	0.933400	0.806000
H6401	H640	0.730500	0.909200	0.915800
C6111	C611	0.717700	0.930400	0.873770
H6411	H641	0.724600	0.953700	0.832100
O201	O20	0.661900	0.921800	0.870830
C6121	C612	0.633500	0.902100	0.894600
H6421	H642	0.633600	0.930800	0.909800
H6431	H643	0.651900	0.867900	0.902000
C6131	C613	0.573000	0.888700	0.885700
H6441	H644	0.556300	0.921900	0.876400
H6451	H645	0.573100	0.857600	0.871700
C6141	C614	0.537800	0.872300	0.911600
H6461	H646	0.558200	0.842800	0.922100
H6471	H647	0.535200	0.905300	0.924300
C6151	C615	0.481300	0.852300	0.906200
H6481	H648	0.463600	0.846600	0.925100
H6491	H649	0.485000	0.814800	0.897400
C6161	C616	0.440100	0.884900	0.888200
H6501	H650	0.431700	0.920600	0.898000
H6511	H651	0.458300	0.894200	0.869800
C6171	C617	0.388900	0.856900	0.882400
H6521	H652	0.376600	0.840400	0.900800
H6531	H653	0.398400	0.825200	0.869800
C6181	C618	0.337500	0.884400	0.869500
H6541	H654	0.304600	0.860200	0.873100
H6551	H655	0.330900	0.920600	0.879300
C6191	C619	0.342100	0.894900	0.837900
H6561	H656	0.349800	0.859700	0.827500
H6571	H657	0.372300	0.922100	0.833800
C6201	C620	0.284200	0.919100	0.829500
H6581	H658	0.256300	0.889000	0.829500
H6591	H659	0.286500	0.935600	0.810400
H6601	H660	0.273200	0.947900	0.843300
N811	N81	0.684500	0.681600	0.032710
N821	N82	0.577000	0.700000	0.001560
N831	N83	0.595000	0.589000	0.032110
C6211	C621	0.692700	0.736600	0.031350
C6221	C622	0.703700	0.655300	0.056130
C6231	C623	0.541000	0.720800	0.995600
C6241	C624	0.719700	0.766900	0.052710
H6611	H661	0.679500	0.756200	0.015000
H6621	H662	0.697600	0.616100	0.057600
C6251	C625	0.731300	0.680800	0.077710
S211	S21	0.482900	0.751300	0.985600
C6261	C626	0.739300	0.739800	0.076800
H6631	H663	0.724700	0.806200	0.050700
H6641	H664	0.745100	0.659600	0.093300
C6271	C627	0.764300	0.770300	0.101340
N841	N84	0.775200	0.739200	0.124870
C6281	C628	0.774300	0.827400	0.099980
C6291	C629	0.796000	0.765700	0.147860
C6301	C630	0.796000	0.854900	0.123920
H6651	H665	0.766500	0.847600	0.083000
C6311	C631	0.806500	0.822500	0.148160
C6321	C632	0.808700	0.730300	0.173330
C6331	C633	0.806400	0.915900	0.124110
H6661	H666	0.820800	0.839700	0.164900
C6341	C634	0.806500	0.672000	0.172350
C6351	C635	0.825100	0.754100	0.198710
C6361	C636	0.797000	0.947200	0.148980
C6371	C637	0.825400	0.943500	0.100220
H6671	H667	0.793700	0.653500	0.155600
C6381	C638	0.822900	0.641500	0.195650
C6391	C639	0.841100	0.720700	0.221210
H6681	H668	0.825400	0.793700	0.200700
H6691	H669	0.783400	0.928800	0.165600
C6401	C640	0.807000	0.003900	0.149770
C6411	C641	0.836800	0.001100	0.100390
H6701	H670	0.831000	0.922900	0.083100
N851	N85	0.840900	0.664500	0.220220
H6711	H671	0.821500	0.601800	0.194400
H6721	H672	0.853000	0.738300	0.238300
H6731	H673	0.800400	0.024300	0.166800
C6421	C642	0.826900	0.031400	0.125470
H6741	H674	0.850900	0.019200	0.083800
Co61	Co6	0.881810	0.620140	0.254620
O211	O21	0.836800	0.087270	0.128330
N861	N86	0.835810	0.671240	0.285080
N871	N87	0.944300	0.682300	0.254080
N881	N88	0.928500	0.570600	0.223930
N891	N89	0.820900	0.559100	0.257520
N901	N90	0.927400	0.579800	0.289000
C6431	C643	0.862800	0.115100	0.105080
C6441	C644	0.781100	0.678800	0.282340
C6451	C645	0.860700	0.693500	0.308150
C6461	C646	0.972800	0.715700	0.264800
C6471	C647	0.955000	0.596400	0.202120
C6481	C648	0.930300	0.515100	0.225650
C6491	C649	0.787000	0.527500	0.264730
H6751	H675	0.837300	0.115800	0.088400
H6761	H676	0.897500	0.095200	0.099500
C6501	C650	0.876400	0.174100	0.114300
C6511	C651	0.749000	0.709100	0.301700
H6771	H677	0.762900	0.662600	0.266300
H6781	H678	0.900000	0.689200	0.310200
C6521	C652	0.831600	0.722600	0.329330
S221	S22	0.016300	0.759000	0.279870
C6531	C653	0.982700	0.566300	0.181170
H6791	H679	0.954600	0.636100	0.201100
H6801	H680	0.912500	0.497300	0.241300
C6541	C654	0.957100	0.482100	0.205610
S231	S23	0.737970	0.483990	0.274850
H6811	H681	0.841500	0.196500	0.114300
H6821	H682	0.890500	0.173200	0.134200
C6551	C655	0.919000	0.202800	0.095800
C6561	C656	0.774100	0.730500	0.326160
H6831	H683	0.710300	0.715100	0.298200
H6841	H684	0.850600	0.736700	0.345600
C6571	C657	0.984100	0.507700	0.182620
H6851	H685	0.000700	0.585200	0.165900
H6861	H686	0.957200	0.442500	0.207500
H6871	H687	0.926700	0.240100	0.104100
H6881	H688	0.954200	0.181100	0.096800
C6581	C658	0.904400	0.210500	0.065300
C6591	C659	0.741300	0.757300	0.349630
C6601	C660	0.011600	0.474600	0.159550
H6891	H689	0.892300	0.174500	0.056800
H6901	H690	0.937000	0.224600	0.054500
C6611	C661	0.857700	0.252100	0.064600
N911	N91	0.769700	0.770400	0.373400
C6621	C662	0.683800	0.767200	0.346550
N921	N92	0.020850	0.503100	0.135270
C6631	C663	0.023000	0.418200	0.162520
H6911	H691	0.822000	0.234400	0.070500
H6921	H692	0.865700	0.283800	0.077600
C6641	C664	0.854200	0.271700	0.034600
C6651	C665	0.741700	0.792700	0.395100
C6661	C666	0.654700	0.790800	0.369450
H6931	H693	0.665100	0.758100	0.329300
C6671	C667	0.042600	0.474800	0.113140
H6941	H694	0.015900	0.399600	0.180100
C6681	C668	0.045100	0.388700	0.139210
H6951	H695	0.842000	0.240200	0.022400
H6961	H696	0.892000	0.283400	0.028200
C6691	C669	0.813600	0.320600	0.030900
C6701	C670	0.684500	0.802100	0.394120
C6711	C671	0.776300	0.808000	0.420780
C6721	C672	0.593600	0.802800	0.367850
C6731	C673	0.054600	0.418200	0.114360
C6741	C674	0.052700	0.507600	0.087080
C6751	C675	0.057200	0.327900	0.140340
H6971	H697	0.826900	0.353800	0.041500
H6981	H698	0.775800	0.310400	0.037900
C6761	C676	0.812600	0.332300	0.998800
H6991	H699	0.665700	0.816200	0.410500
C6771	C677	0.832600	0.802400	0.421050
C6781	C678	0.750800	0.830000	0.445100
C6791	C679	0.559700	0.798000	0.391570
C6801	C680	0.569000	0.818700	0.342450
H7001	H700	0.069400	0.399600	0.098100
C6811	C681	0.069100	0.483500	0.061360
C6821	C682	0.049200	0.567100	0.087380
C6831	C683	0.075000	0.301400	0.165570
C6841	C684	0.050900	0.294600	0.115970
H7011	H701	0.824200	0.299200	0.987500
H7021	H702	0.836300	0.364800	0.993600
C6851	C685	0.748400	0.345000	0.995100
H7031	H703	0.850900	0.785800	0.405100
C6861	C686	0.864400	0.820500	0.444310
C6871	C687	0.784300	0.847100	0.467080
H7041	H704	0.711200	0.833000	0.446300
H7051	H705	0.575500	0.786700	0.409300
C6881	C688	0.503400	0.809500	0.390040
C6891	C689	0.512700	0.830600	0.340330
H7061	H706	0.591700	0.821400	0.325800
H7071	H707	0.071200	0.443900	0.059700
C6901	C690	0.082300	0.516700	0.038480
C6911	C691	0.061900	0.596600	0.063030
H7081	H708	0.038100	0.586200	0.104200
H7091	H709	0.079800	0.322900	0.182500
C6921	C692	0.085800	0.243300	0.166100
C6931	C693	0.061700	0.237500	0.116300
H7101	H710	0.038800	0.311600	0.098700
H7111	H711	0.740500	0.354100	0.975100
H7121	H712	0.726400	0.312800	0.001000
H7131	H713	0.738300	0.377600	0.007000
N931	N93	0.840600	0.843500	0.467520
H7141	H714	0.904000	0.816500	0.443700
H7151	H715	0.766500	0.862700	0.483400
H7161	H716	0.481000	0.806300	0.406700
C6941	C694	0.479300	0.825400	0.364740
H7171	H717	0.496900	0.842100	0.322700
H7181	H718	0.093900	0.499000	0.021300
H7191	H719	0.057800	0.636100	0.063400
H7201	H720	0.098100	0.225700	0.183200
C6951	C695	0.078300	0.212400	0.141600
H7211	H721	0.057800	0.215900	0.099400
O221	O22	0.423000	0.835100	0.364890
O231	O23	0.086700	0.156100	0.139630
N941	N94	0.929600	0.935000	0.467100
N951	N95	0.950300	0.826600	0.497430
C6961	C696	0.397100	0.851600	0.339000
C6971	C697	0.102900	0.128100	0.164700
C6981	C698	0.903600	0.956000	0.444640
C6991	C699	0.986000	0.940400	0.467930
C7001	C700	0.983000	0.797200	0.487140
H7221	H722	0.402400	0.822000	0.324500
H7231	H723	0.414800	0.886300	0.331900
C7011	C701	0.334900	0.861500	0.343700
H7241	H724	0.074000	0.132300	0.179700
H7251	H725	0.138800	0.143100	0.171900
C7021	C702	0.109400	0.065600	0.155900
C7031	C703	0.930100	0.980900	0.421870
H7261	H726	0.863900	0.953800	0.444200
H7271	H727	0.005600	0.925700	0.483900
C7041	C704	0.016200	0.966300	0.446610
S241	S24	0.028520	0.757100	0.470570
H7281	H728	0.330300	0.889800	0.358900
H7291	H729	0.317700	0.826200	0.350500
C7051	C705	0.303300	0.881300	0.317100
H7301	H730	0.077400	0.054600	0.143700
H7311	H731	0.108600	0.041900	0.173300
C7061	C706	0.165200	0.055600	0.139600
C7071	C707	0.988800	0.986600	0.422260
H7321	H732	0.909100	0.994000	0.406000
H7331	H733	0.055700	0.970300	0.448400
H7341	H734	0.319400	0.916900	0.310100
H7351	H735	0.306500	0.853000	0.301800
C7081	C708	0.242900	0.889500	0.325000
H7361	H736	0.194100	0.042700	0.153200
H7371	H737	0.178100	0.091500	0.131200
C7091	C709	0.158500	0.010800	0.115000
C7101	C710	0.019400	0.010700	0.397440
H7381	H738	0.238400	0.924500	0.336100
H7391	H739	0.229500	0.857800	0.336800
C7111	C711	0.209000	0.892900	0.296900
H7401	H740	0.129800	0.024100	0.101300
H7411	H741	0.194400	0.007800	0.104500
C7121	C712	0.141900	0.953100	0.125800
N961	N96	0.988700	0.022200	0.374520
C7131	C713	0.077100	0.019500	0.398420
H7421	H742	0.227800	0.868900	0.282600
H7431	H743	0.211100	0.931900	0.289900
C7141	C714	0.145600	0.875600	0.298200
H7441	H744	0.170700	0.939800	0.139400
H7451	H745	0.106100	0.956200	0.136400
C7151	C715	0.135400	0.911000	0.102700
C7161	C716	0.015000	0.042900	0.351410
H7461	H746	0.097300	0.011800	0.415400
C7171	C717	0.105000	0.039400	0.374500
H7471	H747	0.141000	0.844800	0.284300
H7481	H748	0.139700	0.858900	0.317300
C7181	C718	0.095300	0.915900	0.293200
H7491	H749	0.107900	0.925500	0.088700
H7501	H750	0.171700	0.907200	0.092700
C7191	C719	0.117100	0.854900	0.111800
C7201	C720	0.071800	0.051500	0.350670
C7211	C721	0.978200	0.056700	0.326820
C7221	C722	0.165800	0.050500	0.374530
H7511	H751	0.102500	0.919400	0.272500
H7521	H752	0.115000	0.948700	0.301300
C7231	C723	0.036600	0.947500	0.291500
H7531	H753	0.086300	0.858700	0.125800
H7541	H754	0.148600	0.835500	0.121300
C7241	C724	0.096200	0.818600	0.085700
H7551	H755	0.088700	0.065800	0.333800
C7251	C725	0.000800	0.077500	0.301520
C7261	C726	0.920800	0.051500	0.328160
C7271	C727	0.193500	0.067600	0.398620
C7281	C728	0.197400	0.042500	0.349570
H7561	H756	0.022600	0.945000	0.311300
H7571	H757	0.047800	0.987100	0.289000
C7291	C729	0.981600	0.943400	0.273300
H7581	H758	0.126100	0.817100	0.071100
H7591	H759	0.063100	0.836700	0.077100
C7301	C730	0.080500	0.757100	0.095000
H7601	H760	0.040200	0.079800	0.299100
C7311	C731	0.965100	0.095000	0.279910
C7321	C732	0.888700	0.070900	0.305140
H7611	H761	0.903400	0.035100	0.344300
H7621	H762	0.172900	0.072500	0.415800
C7331	C733	0.251600	0.078100	0.398890
C7341	C734	0.254900	0.051900	0.349180
H7631	H763	0.179200	0.030500	0.332600
H7641	H764	0.955100	0.972200	0.279700
H7651	H765	0.990400	0.949100	0.253100
H7661	H766	0.964800	0.906300	0.275900
H7671	H767	0.096100	0.749400	0.113900
H7681	H768	0.096000	0.730400	0.081200
H7691	H769	0.039700	0.753200	0.095600
H7701	H770	0.981300	0.107700	0.262500
H7711	H771	0.849200	0.066600	0.306000
H7721	H772	0.269500	0.090800	0.415800
C7351	C735	0.282300	0.069600	0.373770
H7731	H773	0.275400	0.046300	0.332100
O241	O24	0.338100	0.078200	0.370830
C7361	C736	0.366500	0.097900	0.394600
H7741	H774	0.366400	0.069200	0.409800
H7751	H775	0.348100	0.132100	0.402000
C7371	C737	0.427000	0.111300	0.385700
H7761	H776	0.443700	0.078100	0.376400
H7771	H777	0.426900	0.142400	0.371700
C7381	C738	0.462200	0.127700	0.411600
H7781	H778	0.441800	0.157200	0.422100
H7791	H779	0.464800	0.094700	0.424300
C7391	C739	0.518700	0.147700	0.406200
H7801	H780	0.536400	0.153400	0.425100
H7811	H781	0.515000	0.185200	0.397400
C7401	C740	0.559900	0.115100	0.388200
H7821	H782	0.568300	0.079400	0.398000
H7831	H783	0.541700	0.105800	0.369800
C7411	C741	0.611100	0.143100	0.382400
H7841	H784	0.623400	0.159600	0.400800
H7851	H785	0.601600	0.174800	0.369800
C7421	C742	0.662500	0.115600	0.369500
H7861	H786	0.695400	0.139800	0.373100
H7871	H787	0.669100	0.079400	0.379300
C7431	C743	0.657900	0.105100	0.337900
H7881	H788	0.650200	0.140300	0.327500
H7891	H789	0.627700	0.077900	0.333800
C7441	C744	0.715800	0.080900	0.329500
H7901	H790	0.743700	0.111000	0.329500
H7911	H791	0.713500	0.064400	0.310400
H7921	H792	0.726800	0.052100	0.343300
N971	N97	0.818400	0.184500	0.282710
N981	N98	0.800000	0.077000	0.251560
N991	N99	0.911000	0.095000	0.282110
C7451	C745	0.763400	0.192700	0.281350
C7461	C746	0.844700	0.203700	0.306130
C7471	C747	0.779200	0.041000	0.245600
C7481	C748	0.733100	0.219700	0.302710
H7931	H793	0.743800	0.179500	0.265000
H7941	H794	0.883900	0.197600	0.307600
C7491	C749	0.819200	0.231300	0.327710
S251	S25	0.748700	0.982900	0.235600
C7501	C750	0.760200	0.239300	0.326800
H7951	H795	0.693800	0.224700	0.300700
H7961	H796	0.840400	0.245100	0.343300
C7511	C751	0.729700	0.264300	0.351340
N1001	N100	0.760800	0.275200	0.374870
C7521	C752	0.672600	0.274300	0.349980
C7531	C753	0.734300	0.296000	0.397860
C7541	C754	0.645100	0.296000	0.373920
H7971	H797	0.652400	0.266500	0.333000
C7551	C755	0.677500	0.306500	0.398160
C7561	C756	0.769700	0.308700	0.423330
C7571	C757	0.584100	0.306400	0.374110
H7981	H798	0.660300	0.320800	0.414900
C7581	C758	0.828000	0.306500	0.422350
C7591	C759	0.745900	0.325100	0.448710
C7601	C760	0.552800	0.297000	0.398980
C7611	C761	0.556500	0.325400	0.350220
H7991	H799	0.846500	0.293700	0.405600
C7621	C762	0.858500	0.322900	0.445650
C7631	C763	0.779300	0.341100	0.471210
H8001	H800	0.706300	0.325400	0.450700
H8011	H801	0.571200	0.283400	0.415600
C7641	C764	0.496100	0.307000	0.399770
C7651	C765	0.498900	0.336800	0.350390
H8021	H802	0.577100	0.331000	0.333100
N1011	N101	0.835500	0.340900	0.470220
H8031	H803	0.898200	0.321500	0.444400
H8041	H804	0.761700	0.353000	0.488300
H8051	H805	0.475700	0.300400	0.416800
C7661	C766	0.468600	0.326900	0.375470
H8061	H806	0.480800	0.350900	0.333800
Co71	Co7	0.879860	0.381810	0.504620
O251	O25	0.412730	0.336800	0.378330
N1021	N102	0.828760	0.335810	0.535080
N1031	N103	0.817700	0.444300	0.504080
N1041	N104	0.929400	0.428500	0.473930
N1051	N105	0.940900	0.320900	0.507520
N1061	N106	0.920200	0.427400	0.539000
C7671	C767	0.384900	0.362800	0.355080
C7681	C768	0.821200	0.281100	0.532340
C7691	C769	0.806500	0.360700	0.558150
C7701	C770	0.784300	0.472800	0.514800
C7711	C771	0.903600	0.455000	0.452120
C7721	C772	0.984900	0.430300	0.475650
C7731	C773	0.972500	0.287000	0.514730
H8071	H807	0.384200	0.337300	0.338400
H8081	H808	0.404800	0.397500	0.349500
C7741	C774	0.325900	0.376400	0.364300
C7751	C775	0.790900	0.249000	0.551700
H8091	H809	0.837400	0.262900	0.516300
H8101	H810	0.810800	0.400000	0.560200
C7761	C776	0.777400	0.331600	0.579330
S261	S26	0.741000	0.516300	0.529870
C7771	C777	0.933700	0.482700	0.431170
H8111	H811	0.863900	0.454600	0.451100
H8121	H812	0.002700	0.412500	0.491300
C7781	C778	0.017900	0.457100	0.455610
S271	S27	0.016010	0.237970	0.524850
H8131	H813	0.303500	0.341500	0.364300
H8141	H814	0.326800	0.390500	0.384200
C7791	C779	0.297200	0.419000	0.345800
C7801	C780	0.769500	0.274100	0.576160
H8151	H815	0.784900	0.210300	0.548200
H8161	H816	0.763300	0.350600	0.595600
C7811	C781	0.992300	0.484100	0.432620
H8171	H817	0.914800	0.500700	0.415900
H8181	H818	0.057500	0.457200	0.457500
H8191	H819	0.259900	0.426700	0.354100
H8201	H820	0.318900	0.454200	0.346800
C7821	C782	0.289500	0.404400	0.315300
C7831	C783	0.742700	0.241300	0.599630
C7841	C784	0.025400	0.511600	0.409550
H8211	H821	0.325500	0.392300	0.306800
H8221	H822	0.275400	0.437000	0.304500
C7851	C785	0.247900	0.357700	0.314600
N1071	N107	0.729600	0.269700	0.623400
C7861	C786	0.732800	0.183800	0.596550
N1081	N108	0.996900	0.520850	0.385270
C7871	C787	0.081800	0.523000	0.412520
H8231	H823	0.265600	0.322000	0.320500
H8241	H824	0.216200	0.365700	0.327600
C7881	C788	0.228300	0.354200	0.284600
C7891	C789	0.707300	0.241700	0.645100
C7901	C790	0.709200	0.154700	0.619450
H8251	H825	0.741900	0.165100	0.579300
C7911	C791	0.025200	0.542600	0.363140
H8261	H826	0.100400	0.515900	0.430100
C7921	C792	0.111300	0.545100	0.389210
H8271	H827	0.259800	0.342000	0.272400
H8281	H828	0.216600	0.392000	0.278200
C7931	C793	0.179400	0.313600	0.280900
C7941	C794	0.697900	0.184500	0.644120
C7951	C795	0.692000	0.276300	0.670780
C7961	C796	0.697200	0.093600	0.617850
C7971	C797	0.081800	0.554600	0.364360
C7981	C798	0.992400	0.552700	0.337080
C7991	C799	0.172100	0.557200	0.390340
H8291	H829	0.146200	0.326900	0.291500
H8301	H830	0.189600	0.275800	0.287900
C8001	C800	0.167700	0.312600	0.248800
H8311	H831	0.683800	0.165700	0.660500
C8011	C801	0.697600	0.332600	0.671050
C8021	C802	0.670000	0.250800	0.695100
C8031	C803	0.702000	0.059700	0.641570
C8041	C804	0.681300	0.069000	0.592450
H8321	H832	0.100400	0.569400	0.348100
C8051	C805	0.016500	0.569100	0.311360
C8061	C806	0.932900	0.549200	0.337380
C8071	C807	0.198600	0.575000	0.415570
C8081	C808	0.205400	0.550900	0.365970
H8331	H833	0.200800	0.324200	0.237500
H8341	H834	0.135200	0.336300	0.243600
C8091	C809	0.155000	0.248400	0.245100
H8351	H835	0.714200	0.350900	0.655100
C8101	C810	0.679500	0.364400	0.694310
C8111	C811	0.652900	0.284300	0.717080
H8361	H836	0.667000	0.211200	0.696300
H8371	H837	0.713300	0.075500	0.659300
C8121	C812	0.690500	0.003400	0.640040
C8131	C813	0.669400	0.012700	0.590330
H8381	H838	0.678600	0.091700	0.575800
H8391	H839	0.056100	0.571200	0.309700
C8141	C814	0.983300	0.582300	0.288480
C8151	C815	0.903400	0.561900	0.313030
H8401	H840	0.913800	0.538100	0.354200
H8411	H841	0.177100	0.579800	0.432500
C8161	C816	0.256700	0.585800	0.416100
C8171	C817	0.262500	0.561700	0.366300
H8421	H842	0.188400	0.538800	0.348700
H8431	H843	0.145900	0.240500	0.225100
H8441	H844	0.187200	0.226400	0.251000
H8451	H845	0.122400	0.238300	0.257000
N1091	N109	0.656500	0.340600	0.717520
H8461	H846	0.683500	0.404000	0.693700
H8471	H847	0.637300	0.266500	0.733400
H8481	H848	0.693700	0.981000	0.656700
C8181	C818	0.674600	0.979300	0.614740
H8491	H849	0.657900	0.996900	0.572700
H8501	H850	0.001000	0.593900	0.271300
H8511	H851	0.863900	0.557800	0.313400
H8521	H852	0.274300	0.598100	0.433200
C8191	C819	0.287600	0.578300	0.391600
H8531	H853	0.284100	0.557800	0.349400
O261	O26	0.664900	0.923000	0.614890
O271	O27	0.343900	0.586700	0.389630
N1101	N110	0.565000	0.429600	0.717100
N1111	N111	0.673400	0.450300	0.747430
C8201	C820	0.648400	0.897100	0.589000
C8211	C821	0.371900	0.602900	0.414700
C8221	C822	0.544000	0.403600	0.694640
C8231	C823	0.559600	0.486000	0.717930
C8241	C824	0.702800	0.483000	0.737140
H8541	H854	0.678000	0.902400	0.574500
H8551	H855	0.613700	0.914800	0.581900
C8251	C825	0.638500	0.834900	0.593700
H8561	H856	0.367700	0.574000	0.429700
H8571	H857	0.356900	0.638800	0.421900
C8261	C826	0.434400	0.609400	0.405900
C8271	C827	0.519100	0.430100	0.671870
H8581	H858	0.546200	0.363900	0.694200
H8591	H859	0.574300	0.505600	0.733900
C8281	C828	0.533700	0.516200	0.696610
S281	S28	0.742900	0.528520	0.720570
H8601	H860	0.610200	0.830300	0.608900
H8611	H861	0.673800	0.817700	0.600500
C8291	C829	0.618700	0.803300	0.567100
H8621	H862	0.445400	0.577400	0.393700
H8631	H863	0.458100	0.608600	0.423300
C8301	C830	0.444400	0.665200	0.389600
C8311	C831	0.513400	0.488800	0.672260
H8641	H864	0.506000	0.409100	0.656000
H8651	H865	0.529700	0.555700	0.698400
H8661	H866	0.583100	0.819400	0.560100
H8671	H867	0.647000	0.806500	0.551800
C8321	C832	0.610500	0.742900	0.575000
H8681	H868	0.457300	0.694100	0.403200
H8691	H869	0.408500	0.678100	0.381200
C8331	C833	0.489200	0.658500	0.365000
C8341	C834	0.489300	0.519400	0.647440
H8701	H870	0.575500	0.738400	0.586100
H8711	H871	0.642200	0.729500	0.586800
C8351	C835	0.607100	0.709000	0.546900
H8721	H872	0.475900	0.629800	0.351300
H8731	H873	0.492200	0.694400	0.354500
C8361	C836	0.546900	0.641900	0.375800
N1121	N112	0.477800	0.488700	0.624520
C8371	C837	0.480500	0.577100	0.648420
H8741	H874	0.631100	0.727800	0.532600
H8751	H875	0.568100	0.711100	0.539900
C8381	C838	0.624400	0.645600	0.548200
H8761	H876	0.560200	0.670700	0.389400
H8771	H877	0.543800	0.606100	0.386400
C8391	C839	0.589000	0.635400	0.352700
C8401	C840	0.457100	0.515000	0.601410
H8781	H878	0.488200	0.597300	0.665400
C8411	C841	0.460600	0.605000	0.624500
H8791	H879	0.655200	0.641000	0.534300
H8801	H880	0.641100	0.639700	0.567300
C8421	C842	0.584100	0.595300	0.543200
H8811	H881	0.574500	0.607900	0.338700
H8821	H882	0.592800	0.671700	0.342700
C8431	C843	0.645100	0.617100	0.361800
C8441	C844	0.448500	0.571800	0.600670
C8451	C845	0.443300	0.478200	0.576820
C8461	C846	0.449500	0.665800	0.624530
H8831	H883	0.580600	0.602500	0.522500
H8841	H884	0.551300	0.615000	0.551300
C8471	C847	0.552500	0.536600	0.541500
H8851	H885	0.641300	0.586300	0.375800
H8861	H886	0.664500	0.648600	0.371300
C8481	C848	0.681400	0.596200	0.335700
H8871	H887	0.434200	0.588700	0.583800
C8491	C849	0.422500	0.500800	0.551520
C8501	C850	0.448500	0.420800	0.578160
C8511	C851	0.432400	0.693500	0.648620
C8521	C852	0.457500	0.697400	0.599570
H8881	H888	0.555000	0.522600	0.561300
H8891	H889	0.512900	0.547800	0.539000
C8531	C853	0.556600	0.481600	0.523300
H8901	H890	0.682900	0.626100	0.321100
H8911	H891	0.663300	0.563100	0.327100
C8541	C854	0.742900	0.580500	0.345000
H8921	H892	0.420200	0.540200	0.549100
C8551	C855	0.405000	0.465100	0.529910
C8561	C856	0.429100	0.388700	0.555140
H8931	H893	0.464900	0.403400	0.594300
H8941	H894	0.427500	0.672900	0.665800
C8571	C857	0.421900	0.751600	0.648890
C8581	C858	0.448100	0.754900	0.599180
H8951	H895	0.469500	0.679200	0.582600
H8961	H896	0.527800	0.455100	0.529700
H8971	H897	0.550900	0.490400	0.503100
H8981	H898	0.593700	0.464800	0.525900
H8991	H899	0.750600	0.596100	0.363900
H9001	H900	0.769600	0.596000	0.331200
H9011	H901	0.746800	0.539700	0.345600
H9021	H902	0.392300	0.481300	0.512500
H9031	H903	0.433400	0.349200	0.556000
H9041	H904	0.409200	0.769500	0.665800
C8591	C859	0.430400	0.782300	0.623770
H9051	H905	0.453700	0.775400	0.582100
O281	O28	0.421800	0.838100	0.620830
C8601	C860	0.402100	0.866500	0.644600
H9061	H906	0.430800	0.866400	0.659800
H9071	H907	0.367900	0.848100	0.652000
C8611	C861	0.388700	0.927000	0.635700
H9081	H908	0.421900	0.943700	0.626400
H9091	H909	0.357600	0.926900	0.621700
C8621	C862	0.372300	0.962200	0.661600
H9101	H910	0.342800	0.941800	0.672100
H9111	H911	0.405300	0.964800	0.674300
C8631	C863	0.352300	0.018700	0.656200
H9121	H912	0.346600	0.036400	0.675100
H9131	H913	0.314800	0.015000	0.647400
C8641	C864	0.384900	0.059900	0.638200
H9141	H914	0.420600	0.068300	0.648000
H9151	H915	0.394200	0.041700	0.619800
C8651	C865	0.356900	0.111100	0.632400
H9161	H916	0.340400	0.123400	0.650800
H9171	H917	0.325200	0.101600	0.619800
C8661	C866	0.384400	0.162500	0.619500
H9181	H918	0.360200	0.195400	0.623100
H9191	H919	0.420600	0.169100	0.629300
C8671	C867	0.394900	0.157900	0.587900
H9201	H920	0.359700	0.150200	0.577500
H9211	H921	0.422100	0.127700	0.583800
C8681	C868	0.419100	0.215800	0.579500
H9221	H922	0.389000	0.243700	0.579500
H9231	H923	0.435600	0.213500	0.560400
H9241	H924	0.447900	0.226800	0.593300
N1131	N113	0.181600	0.815500	0.782710
N1141	N114	0.200000	0.923000	0.751560
N1151	N115	0.089000	0.905000	0.782110
C8691	C869	0.236600	0.807300	0.781350
C8701	C870	0.155300	0.796300	0.806130
C8711	C871	0.220800	0.959000	0.745600
C8721	C872	0.266900	0.780300	0.802710
H9251	H925	0.256200	0.820500	0.765000
H9261	H926	0.116100	0.802400	0.807600
C8731	C873	0.180800	0.768700	0.827710
S291	S29	0.251300	0.017100	0.735600
C8741	C874	0.239800	0.760700	0.826800
H9271	H927	0.306200	0.775300	0.800700
H9281	H928	0.159600	0.754900	0.843300
C8751	C875	0.270300	0.735700	0.851340
N1161	N116	0.239200	0.724800	0.874870
C8761	C876	0.327400	0.725700	0.849980
C8771	C877	0.265700	0.704000	0.897860
C8781	C878	0.354900	0.704000	0.873920
H9291	H929	0.347600	0.733500	0.833000
C8791	C879	0.322500	0.693500	0.898160
C8801	C880	0.230300	0.691300	0.923330
C8811	C881	0.415900	0.693600	0.874110
H9301	H930	0.339700	0.679200	0.914900
C8821	C882	0.172000	0.693500	0.922350
C8831	C883	0.254100	0.674900	0.948710
C8841	C884	0.447200	0.703000	0.898980
C8851	C885	0.443500	0.674600	0.850220
H9311	H931	0.153500	0.706300	0.905600
C8861	C886	0.141500	0.677100	0.945650
C8871	C887	0.220700	0.658900	0.971210
H9321	H932	0.293700	0.674600	0.950700
H9331	H933	0.428800	0.716600	0.915600
C8881	C888	0.503900	0.693000	0.899770
C8891	C889	0.501100	0.663200	0.850390
H9341	H934	0.422900	0.669000	0.833100
N1171	N117	0.164500	0.659100	0.970220
H9351	H935	0.101800	0.678500	0.944400
H9361	H936	0.238300	0.647000	0.988300
H9371	H937	0.524300	0.699600	0.916800
C8901	C890	0.531400	0.673100	0.875470
H9381	H938	0.519200	0.649100	0.833800
Co81	Co8	0.120140	0.618190	0.004620
O291	O29	0.587270	0.663200	0.878330
N1181	N118	0.171240	0.664190	0.035080
N1191	N119	0.182300	0.555700	0.004080
N1201	N120	0.070600	0.571500	0.973930
N1211	N121	0.059100	0.679100	0.007520
N1221	N122	0.079800	0.572600	0.039000
C8911	C891	0.615100	0.637200	0.855080
C8921	C892	0.178800	0.718900	0.032340
C8931	C893	0.193500	0.639300	0.058150
C8941	C894	0.215700	0.527200	0.014800
C8951	C895	0.096400	0.545000	0.952120
C8961	C896	0.015100	0.569700	0.975650
C8971	C897	0.027500	0.713000	0.014730
H9391	H939	0.615800	0.662700	0.838400
H9401	H940	0.595200	0.602500	0.849500
C8981	C898	0.674100	0.623600	0.864300
C8991	C899	0.209100	0.751000	0.051700
H9411	H941	0.162600	0.737100	0.016300
H9421	H942	0.189200	0.600000	0.060200
C9001	C900	0.222600	0.668400	0.079330
S301	S30	0.259000	0.483700	0.029870
C9011	C901	0.066300	0.517300	0.931170
H9431	H943	0.136100	0.545400	0.951100
H9441	H944	0.997300	0.587500	0.991300
C9021	C902	0.982100	0.542900	0.955610
S311	S31	0.983990	0.762030	0.024850
H9451	H945	0.696500	0.658500	0.864300
H9461	H946	0.673200	0.609500	0.884200
C9031	C903	0.702800	0.581000	0.845800
C9041	C904	0.230500	0.725900	0.076160
H9471	H947	0.215100	0.789700	0.048200
H9481	H948	0.236700	0.649400	0.095600
C9051	C905	0.007700	0.515900	0.932620
H9491	H949	0.085200	0.499300	0.915900
H9501	H950	0.942500	0.542800	0.957500
H9511	H951	0.740100	0.573300	0.854100
H9521	H952	0.681100	0.545800	0.846800
C9061	C906	0.710500	0.595600	0.815300
C9071	C907	0.257300	0.758700	0.099630
C9081	C908	0.974600	0.488400	0.909550
H9531	H953	0.674500	0.607700	0.806800
H9541	H954	0.724600	0.563000	0.804500
C9091	C909	0.752100	0.642300	0.814600
N1231	N123	0.270400	0.730300	0.123400
C9101	C910	0.267200	0.816200	0.096550
N1241	N124	0.003100	0.479150	0.885270
C9111	C911	0.918200	0.477000	0.912520
H9551	H955	0.734400	0.678000	0.820500
H9561	H956	0.783800	0.634300	0.827600
C9121	C912	0.771700	0.645800	0.784600
C9131	C913	0.292700	0.758300	0.145100
C9141	C914	0.290800	0.845300	0.119450
H9571	H957	0.258100	0.834900	0.079300
C9151	C915	0.974800	0.457400	0.863140
H9581	H958	0.899600	0.484100	0.930100
C9161	C916	0.888700	0.454900	0.889210
H9591	H959	0.740200	0.658000	0.772400
H9601	H960	0.783400	0.608000	0.778200
C9171	C917	0.820600	0.686400	0.780900
C9181	C918	0.302100	0.815500	0.144120
C9191	C919	0.308000	0.723700	0.170780
C9201	C920	0.302800	0.906400	0.117850
C9211	C921	0.918200	0.445400	0.864360
C9221	C922	0.007600	0.447300	0.837080
C9231	C923	0.827900	0.442800	0.890340
H9611	H961	0.853800	0.673100	0.791500
H9621	H962	0.810400	0.724200	0.787900
C9241	C924	0.832300	0.687400	0.748800
H9631	H963	0.316200	0.834300	0.160500
C9251	C925	0.302400	0.667400	0.171050
C9261	C926	0.330000	0.749200	0.195100
C9271	C927	0.298000	0.940300	0.141570
C9281	C928	0.318700	0.931000	0.092450
H9641	H964	0.899600	0.430600	0.848100
C9291	C929	0.983500	0.430900	0.811360
C9301	C930	0.067100	0.450800	0.837380
C9311	C931	0.801400	0.425000	0.915570
C9321	C932	0.794600	0.449100	0.865970
H9651	H965	0.799200	0.675800	0.737500
H9661	H966	0.864800	0.663700	0.743600
C9331	C933	0.845000	0.751600	0.745100
H9671	H967	0.285800	0.649100	0.155100
C9341	C934	0.320500	0.635600	0.194310
C9351	C935	0.347100	0.715700	0.217080
H9681	H968	0.333000	0.788800	0.196300
H9691	H969	0.286700	0.924500	0.159300
C9361	C936	0.309500	0.996600	0.140040
C9371	C937	0.330600	0.987300	0.090330
H9701	H970	0.321400	0.908300	0.075800
H9711	H971	0.943900	0.428800	0.809700
C9381	C938	0.016700	0.417700	0.788480
C9391	C939	0.096600	0.438100	0.813030
H9721	H972	0.086200	0.461900	0.854200
H9731	H973	0.822900	0.420200	0.932500
C9401	C940	0.743300	0.414200	0.916100
C9411	C941	0.737500	0.438300	0.866300
H9741	H974	0.811600	0.461200	0.848700
H9751	H975	0.854100	0.759500	0.725100
H9761	H976	0.812800	0.773600	0.751000
H9771	H977	0.877600	0.761700	0.757000
N1251	N125	0.343500	0.659400	0.217520
H9781	H978	0.316500	0.596000	0.193700
H9791	H979	0.362700	0.733500	0.233400
H9801	H980	0.306300	0.019000	0.156700
C9421	C942	0.325400	0.020700	0.114740
H9811	H981	0.342100	0.003100	0.072700
H9821	H982	0.999000	0.406100	0.771300
H9831	H983	0.136100	0.442200	0.813400
H9841	H984	0.725700	0.401900	0.933200
C9431	C943	0.712400	0.421700	0.891600
H9851	H985	0.715900	0.442200	0.849400
O301	O30	0.335100	0.077000	0.114890
O311	O31	0.656100	0.413300	0.889630
N1261	N126	0.435000	0.570400	0.217100
N1271	N127	0.326600	0.549700	0.247430
C9441	C944	0.351600	0.102900	0.089000
C9451	C945	0.628100	0.397100	0.914700
C9461	C946	0.456000	0.596400	0.194640
C9471	C947	0.440400	0.514000	0.217930
C9481	C948	0.297200	0.517000	0.237140
H9861	H986	0.322000	0.097600	0.074500
H9871	H987	0.386300	0.085200	0.081900
C9491	C949	0.361500	0.165100	0.093700
H9881	H988	0.632300	0.426000	0.929700
H9891	H989	0.643100	0.361200	0.921900
C9501	C950	0.565600	0.390600	0.905900
C9511	C951	0.480900	0.569900	0.171870
H9901	H990	0.453800	0.636100	0.194200
H9911	H991	0.425700	0.494400	0.233900
C9521	C952	0.466300	0.483800	0.196610
S321	S32	0.257100	0.471480	0.220570
H9921	H992	0.389800	0.169700	0.108900
H9931	H993	0.326200	0.182300	0.100500
C9531	C953	0.381300	0.196700	0.067100
H9941	H994	0.554600	0.422600	0.893700
H9951	H995	0.541900	0.391400	0.923300
C9541	C954	0.555600	0.334800	0.889600
C9551	C955	0.486600	0.511200	0.172260
H9961	H996	0.494000	0.590900	0.156000
H9971	H997	0.470300	0.444300	0.198400
H9981	H998	0.416900	0.180600	0.060100
H9991	H999	0.353000	0.193500	0.051800
C9561	C956	0.389500	0.257100	0.075000
H10001	H1000	0.542700	0.305900	0.903200
H10011	H1001	0.591500	0.321900	0.881200
C9571	C957	0.510800	0.341500	0.865000
C9581	C958	0.510700	0.480600	0.147440
H10021	H1002	0.424500	0.261600	0.086100
H10031	H1003	0.357800	0.270500	0.086800
C9591	C959	0.392900	0.291000	0.046900
H10041	H1004	0.524100	0.370200	0.851300
H10051	H1005	0.507800	0.305600	0.854500
C9601	C960	0.453100	0.358100	0.875800
N1281	N128	0.522200	0.511300	0.124520
C9611	C961	0.519500	0.422900	0.148420
H10061	H1006	0.368900	0.272200	0.032600
H10071	H1007	0.431900	0.288900	0.039900
C9621	C962	0.375600	0.354400	0.048200
H10081	H1008	0.439800	0.329300	0.889400
H10091	H1009	0.456200	0.393900	0.886400
C9631	C963	0.411000	0.364600	0.852700
C9641	C964	0.542900	0.485000	0.101410
H10101	H1010	0.511800	0.402700	0.165400
C9651	C965	0.539400	0.395000	0.124500
H10111	H1011	0.344800	0.359000	0.034300
H10121	H1012	0.358900	0.360300	0.067300
C9661	C966	0.415900	0.404700	0.043200
H10131	H1013	0.425500	0.392100	0.838700
H10141	H1014	0.407200	0.328300	0.842700
C9671	C967	0.354900	0.382900	0.861800
C9681	C968	0.551500	0.428200	0.100670
C9691	C969	0.556700	0.521800	0.076820
C9701	C970	0.550500	0.334200	0.124530
H10151	H1015	0.419400	0.397500	0.022500
H10161	H1016	0.448700	0.385000	0.051300
C9711	C971	0.447500	0.463400	0.041500
H10171	H1017	0.358700	0.413700	0.875800
H10181	H1018	0.335500	0.351400	0.871300
C9721	C972	0.318600	0.403800	0.835700
H10191	H1019	0.565800	0.411300	0.083800
C9731	C973	0.577500	0.499200	0.051520
C9741	C974	0.551500	0.579200	0.078160
C9751	C975	0.567600	0.306500	0.148620
C9761	C976	0.542500	0.302600	0.099570
H10201	H1020	0.445000	0.477400	0.061300
H10211	H1021	0.487100	0.452200	0.039000
C9771	C977	0.443400	0.518400	0.023300
H10221	H1022	0.317100	0.373900	0.821100
H10231	H1023	0.336700	0.436900	0.827100
C9781	C978	0.257100	0.419500	0.845000
H10241	H1024	0.579800	0.459800	0.049100
C9791	C979	0.595000	0.534900	0.029910
C9801	C980	0.570900	0.611300	0.055140
H10251	H1025	0.535100	0.596600	0.094300
H10261	H1026	0.572500	0.327100	0.165800
C9811	C981	0.578100	0.248400	0.148890
C9821	C982	0.551900	0.245100	0.099180
H10271	H1027	0.530500	0.320800	0.082600
H10281	H1028	0.472200	0.544900	0.029700
H10291	H1029	0.449100	0.509600	0.003100
H10301	H1030	0.406300	0.535200	0.025900
H10311	H1031	0.249400	0.403900	0.863900
H10321	H1032	0.230400	0.404000	0.831200
H10331	H1033	0.253200	0.460300	0.845600
H10341	H1034	0.607700	0.518700	0.012500
H10351	H1035	0.566600	0.650800	0.056000
H10361	H1036	0.590800	0.230500	0.165800
C9831	C983	0.569600	0.217700	0.123770
H10371	H1037	0.546300	0.224600	0.082100
O321	O32	0.578200	0.161900	0.120830
C9841	C984	0.597900	0.133500	0.144600
H10381	H1038	0.569200	0.133600	0.159800
H10391	H1039	0.632100	0.151900	0.152000
C9851	C985	0.611300	0.073000	0.135700
H10401	H1040	0.578100	0.056300	0.126400
H10411	H1041	0.642400	0.073100	0.121700
C9861	C986	0.627700	0.037800	0.161600
H10421	H1042	0.657200	0.058200	0.172100
H10431	H1043	0.594700	0.035200	0.174300
C9871	C987	0.647700	0.981300	0.156200
H10441	H1044	0.653400	0.963600	0.175100
H10451	H1045	0.685200	0.985000	0.147400
C9881	C988	0.615100	0.940100	0.138200
H10461	H1046	0.579400	0.931700	0.148000
H10471	H1047	0.605800	0.958300	0.119800
C9891	C989	0.643100	0.888900	0.132400
H10481	H1048	0.659600	0.876600	0.150800
H10491	H1049	0.674800	0.898400	0.119800
C9901	C990	0.615600	0.837500	0.119500
H10501	H1050	0.639800	0.804600	0.123100
H10511	H1051	0.579400	0.830900	0.129300
C9911	C991	0.605100	0.842100	0.087900
H10521	H1052	0.640300	0.849800	0.077500
H10531	H1053	0.577900	0.872300	0.083800
C9921	C992	0.580900	0.784200	0.079500
H10541	H1054	0.611000	0.756300	0.079500
H10551	H1055	0.564400	0.786500	0.060400
H10561	H1056	0.552100	0.773200	0.093300
Co91	Co9	0.138310	0.861690	0.750000
Co101	Co10	0.861690	0.138310	0.250000
Co111	Co11	0.638310	0.638310	0.000000
Co121	Co12	0.361690	0.361690	0.500000
Co131	Co13	0.387400	0.612600	0.250000
Co141	Co14	0.612600	0.387400	0.750000
Co151	Co15	0.887400	0.887400	0.500000
Co161	Co16	0.112600	0.112600	0.000000
