data_EMIFOW_freeONLY_PM
_symmetry_space_group_name_H-M	'P1'
_cell_length_a	22.512100
_cell_length_b	22.661000
_cell_length_c	33.340900
_cell_angle_alpha	90.000000
_cell_angle_beta	90.000000
_cell_angle_gamma	90.000000
_symmetry_Int_Tables_number 1

loop_
_symmetry_equiv_pos_as_xyz
'x,y,z'

loop_
_atom_site_label
_atom_site_type_symbol
_atom_site_fract_x
_atom_site_fract_y
_atom_site_fract_z
In11	In1	0.913610	0.301020	0.255500
In21	In2	0.822060	0.231960	0.335330
In31	In3	0.984010	0.310120	0.356870
In41	In4	0.976210	0.158830	0.291990
In51	In5	0.752700	0.154950	0.422510
In61	In6	0.892060	0.233070	0.448540
In71	In7	0.041840	0.301500	0.461030
In81	In8	0.885270	0.078410	0.382810
In91	In9	0.044370	0.157720	0.407100
In101	In10	0.031720	0.023620	0.345070
S11	S1	0.811020	0.288700	0.274670
S21	S2	0.976800	0.364600	0.295350
S31	S3	0.964200	0.213700	0.230430
S41	S4	0.725530	0.209700	0.362520
S51	S5	0.882480	0.290330	0.384510
S61	S6	0.041800	0.367400	0.403710
S71	S7	0.874500	0.136980	0.319700
S81	S8	0.035580	0.214700	0.343160
S91	S9	0.030500	0.069500	0.279390
S101	S10	0.795000	0.214400	0.475410
S111	S11	0.948800	0.289800	0.496130
S121	S12	0.789800	0.056500	0.411340
S131	S13	0.942840	0.136890	0.433660
S141	S14	0.102700	0.214100	0.454040
S151	S15	0.935500	0.987000	0.367230
S161	S16	0.095500	0.066000	0.395860
N11	N1	0.593900	0.152500	0.493700
N21	N2	0.668300	0.137900	0.451200
N31	N3	0.902100	0.361700	0.205200
N41	N4	0.921300	0.442300	0.170300
C11	C1	0.629000	0.092100	0.449000
H11	H1	0.632900	0.059300	0.431400
C21	C2	0.853300	0.375800	0.184800
H21	H2	0.817000	0.354300	0.184900
C31	C3	0.582900	0.099700	0.475900
H31	H3	0.550600	0.073800	0.480900
C41	C4	0.643700	0.172700	0.477100
H41	H4	0.660000	0.210000	0.483800
C51	C5	0.864200	0.425700	0.163900
H51	H5	0.836400	0.445900	0.147500
C61	C6	0.940700	0.403500	0.196400
H61	H6	0.979200	0.405400	0.208000
In111	In11	0.586390	0.698980	0.755500
In121	In12	0.677940	0.768040	0.835330
In131	In13	0.515990	0.689880	0.856870
In141	In14	0.523790	0.841170	0.791990
In151	In15	0.747300	0.845050	0.922510
In161	In16	0.607940	0.766930	0.948540
In171	In17	0.458160	0.698500	0.961030
In181	In18	0.614730	0.921590	0.882810
In191	In19	0.455630	0.842280	0.907100
In201	In20	0.468280	0.976380	0.845070
S171	S17	0.688980	0.711300	0.774670
S181	S18	0.523200	0.635400	0.795350
S191	S19	0.535800	0.786300	0.730430
S201	S20	0.774470	0.790300	0.862520
S211	S21	0.617520	0.709670	0.884510
S221	S22	0.458200	0.632600	0.903710
S231	S23	0.625500	0.863020	0.819700
S241	S24	0.464420	0.785300	0.843160
S251	S25	0.469500	0.930500	0.779390
S261	S26	0.705000	0.785600	0.975410
S271	S27	0.551200	0.710200	0.996130
S281	S28	0.710200	0.943500	0.911340
S291	S29	0.557160	0.863110	0.933660
S301	S30	0.397300	0.785900	0.954040
S311	S31	0.564500	0.013000	0.867230
S321	S32	0.404500	0.934000	0.895860
N51	N5	0.906100	0.847500	0.993700
N61	N6	0.831700	0.862100	0.951200
N71	N7	0.597900	0.638300	0.705200
N81	N8	0.578700	0.557700	0.670300
C71	C7	0.871000	0.907900	0.949000
H71	H7	0.867100	0.940700	0.931400
C81	C8	0.646700	0.624200	0.684800
H81	H8	0.683000	0.645700	0.684900
C91	C9	0.917100	0.900300	0.975900
H91	H9	0.949400	0.926200	0.980900
C101	C10	0.856300	0.827300	0.977100
H101	H10	0.840000	0.790000	0.983800
C111	C11	0.635800	0.574300	0.663900
H111	H11	0.663600	0.554100	0.647500
C121	C12	0.559300	0.596500	0.696400
H121	H12	0.520800	0.594600	0.708000
In211	In21	0.086390	0.801020	0.244500
In221	In22	0.177940	0.731960	0.164670
In231	In23	0.015990	0.810120	0.143130
In241	In24	0.023790	0.658830	0.208010
In251	In25	0.247300	0.654950	0.077490
In261	In26	0.107940	0.733070	0.051460
In271	In27	0.958160	0.801500	0.038970
In281	In28	0.114730	0.578410	0.117190
In291	In29	0.955630	0.657720	0.092900
In301	In30	0.968280	0.523620	0.154930
S331	S33	0.188980	0.788700	0.225330
S341	S34	0.023200	0.864600	0.204650
S351	S35	0.035800	0.713700	0.269570
S361	S36	0.274470	0.709700	0.137480
S371	S37	0.117520	0.790330	0.115490
S381	S38	0.958200	0.867400	0.096290
S391	S39	0.125500	0.636980	0.180300
S401	S40	0.964420	0.714700	0.156840
S411	S41	0.969500	0.569500	0.220610
S421	S42	0.205000	0.714400	0.024590
S431	S43	0.051200	0.789800	0.003870
S441	S44	0.210200	0.556500	0.088660
S451	S45	0.057160	0.636890	0.066340
S461	S46	0.897300	0.714100	0.045960
S471	S47	0.064500	0.487000	0.132770
S481	S48	0.904500	0.566000	0.104140
N91	N9	0.406100	0.652500	0.006300
N101	N10	0.331700	0.637900	0.048800
N111	N11	0.097900	0.861700	0.294800
N121	N12	0.078700	0.942300	0.329700
C131	C13	0.371000	0.592100	0.051000
H131	H13	0.367100	0.559300	0.068600
C141	C14	0.146700	0.875800	0.315200
H141	H14	0.183000	0.854300	0.315100
C151	C15	0.417100	0.599700	0.024100
H151	H15	0.449400	0.573800	0.019100
C161	C16	0.356300	0.672700	0.022900
H161	H16	0.340000	0.710000	0.016200
C171	C17	0.135800	0.925700	0.336100
H171	H17	0.163600	0.945900	0.352500
C181	C18	0.059300	0.903500	0.303600
H181	H18	0.020800	0.905400	0.292000
In311	In31	0.413610	0.198980	0.744500
In321	In32	0.322060	0.268040	0.664670
In331	In33	0.484010	0.189880	0.643130
In341	In34	0.476210	0.341170	0.708010
In351	In35	0.252700	0.345050	0.577490
In361	In36	0.392060	0.266930	0.551460
In371	In37	0.541840	0.198500	0.538970
In381	In38	0.385270	0.421590	0.617190
In391	In39	0.544370	0.342280	0.592900
In401	In40	0.531720	0.476380	0.654930
S491	S49	0.311020	0.211300	0.725330
S501	S50	0.476800	0.135400	0.704650
S511	S51	0.464200	0.286300	0.769570
S521	S52	0.225530	0.290300	0.637480
S531	S53	0.382480	0.209670	0.615490
S541	S54	0.541800	0.132600	0.596290
S551	S55	0.374500	0.363020	0.680300
S561	S56	0.535580	0.285300	0.656840
S571	S57	0.530500	0.430500	0.720610
S581	S58	0.295000	0.285600	0.524590
S591	S59	0.448800	0.210200	0.503870
S601	S60	0.289800	0.443500	0.588660
S611	S61	0.442840	0.363110	0.566340
S621	S62	0.602700	0.285900	0.545960
S631	S63	0.435500	0.513000	0.632770
S641	S64	0.595500	0.434000	0.604140
N131	N13	0.093900	0.347500	0.506300
N141	N14	0.168300	0.362100	0.548800
N151	N15	0.402100	0.138300	0.794800
N161	N16	0.421300	0.057700	0.829700
C191	C19	0.129000	0.407900	0.551000
H191	H19	0.132900	0.440700	0.568600
C201	C20	0.353300	0.124200	0.815200
H201	H20	0.317000	0.145700	0.815100
C211	C21	0.082900	0.400300	0.524100
H211	H21	0.050600	0.426200	0.519100
C221	C22	0.143700	0.327300	0.522900
H221	H22	0.160000	0.290000	0.516200
C231	C23	0.364200	0.074300	0.836100
H231	H23	0.336400	0.054100	0.852500
C241	C24	0.440700	0.096500	0.803600
H241	H24	0.479200	0.094600	0.792000
In411	In41	0.086390	0.698980	0.744500
In421	In42	0.177940	0.768040	0.664670
In431	In43	0.015990	0.689880	0.643130
In441	In44	0.023790	0.841170	0.708010
In451	In45	0.247300	0.845050	0.577490
In461	In46	0.107940	0.766930	0.551460
In471	In47	0.958160	0.698500	0.538970
In481	In48	0.114730	0.921590	0.617190
In491	In49	0.955630	0.842280	0.592900
In501	In50	0.968280	0.976380	0.654930
S651	S65	0.188980	0.711300	0.725330
S661	S66	0.023200	0.635400	0.704650
S671	S67	0.035800	0.786300	0.769570
S681	S68	0.274470	0.790300	0.637480
S691	S69	0.117520	0.709670	0.615490
S701	S70	0.958200	0.632600	0.596290
S711	S71	0.125500	0.863020	0.680300
S721	S72	0.964420	0.785300	0.656840
S731	S73	0.969500	0.930500	0.720610
S741	S74	0.205000	0.785600	0.524590
S751	S75	0.051200	0.710200	0.503870
S761	S76	0.210200	0.943500	0.588660
S771	S77	0.057160	0.863110	0.566340
S781	S78	0.897300	0.785900	0.545960
S791	S79	0.064500	0.013000	0.632770
S801	S80	0.904500	0.934000	0.604140
N171	N17	0.406100	0.847500	0.506300
N181	N18	0.331700	0.862100	0.548800
N191	N19	0.097900	0.638300	0.794800
N201	N20	0.078700	0.557700	0.829700
C251	C25	0.371000	0.907900	0.551000
H251	H25	0.367100	0.940700	0.568600
C261	C26	0.146700	0.624200	0.815200
H261	H26	0.183000	0.645700	0.815100
C271	C27	0.417100	0.900300	0.524100
H271	H27	0.449400	0.926200	0.519100
C281	C28	0.356300	0.827300	0.522900
H281	H28	0.340000	0.790000	0.516200
C291	C29	0.135800	0.574300	0.836100
H291	H29	0.163600	0.554100	0.852500
C301	C30	0.059300	0.596500	0.803600
H301	H30	0.020800	0.594600	0.792000
In511	In51	0.413610	0.301020	0.244500
In521	In52	0.322060	0.231960	0.164670
In531	In53	0.484010	0.310120	0.143130
In541	In54	0.476210	0.158830	0.208010
In551	In55	0.252700	0.154950	0.077490
In561	In56	0.392060	0.233070	0.051460
In571	In57	0.541840	0.301500	0.038970
In581	In58	0.385270	0.078410	0.117190
In591	In59	0.544370	0.157720	0.092900
In601	In60	0.531720	0.023620	0.154930
S811	S81	0.311020	0.288700	0.225330
S821	S82	0.476800	0.364600	0.204650
S831	S83	0.464200	0.213700	0.269570
S841	S84	0.225530	0.209700	0.137480
S851	S85	0.382480	0.290330	0.115490
S861	S86	0.541800	0.367400	0.096290
S871	S87	0.374500	0.136980	0.180300
S881	S88	0.535580	0.214700	0.156840
S891	S89	0.530500	0.069500	0.220610
S901	S90	0.295000	0.214400	0.024590
S911	S91	0.448800	0.289800	0.003870
S921	S92	0.289800	0.056500	0.088660
S931	S93	0.442840	0.136890	0.066340
S941	S94	0.602700	0.214100	0.045960
S951	S95	0.435500	0.987000	0.132770
S961	S96	0.595500	0.066000	0.104140
N211	N21	0.093900	0.152500	0.006300
N221	N22	0.168300	0.137900	0.048800
N231	N23	0.402100	0.361700	0.294800
N241	N24	0.421300	0.442300	0.329700
C311	C31	0.129000	0.092100	0.051000
H311	H31	0.132900	0.059300	0.068600
C321	C32	0.353300	0.375800	0.315200
H321	H32	0.317000	0.354300	0.315100
C331	C33	0.082900	0.099700	0.024100
H331	H33	0.050600	0.073800	0.019100
C341	C34	0.143700	0.172700	0.022900
H341	H34	0.160000	0.210000	0.016200
C351	C35	0.364200	0.425700	0.336100
H351	H35	0.336400	0.445900	0.352500
C361	C36	0.440700	0.403500	0.303600
H361	H36	0.479200	0.405400	0.292000
In611	In61	0.913610	0.198980	0.755500
In621	In62	0.822060	0.268040	0.835330
In631	In63	0.984010	0.189880	0.856870
In641	In64	0.976210	0.341170	0.791990
In651	In65	0.752700	0.345050	0.922510
In661	In66	0.892060	0.266930	0.948540
In671	In67	0.041840	0.198500	0.961030
In681	In68	0.885270	0.421590	0.882810
In691	In69	0.044370	0.342280	0.907100
In701	In70	0.031720	0.476380	0.845070
S971	S97	0.811020	0.211300	0.774670
S981	S98	0.976800	0.135400	0.795350
S991	S99	0.964200	0.286300	0.730430
S1001	S100	0.725530	0.290300	0.862520
S1011	S101	0.882480	0.209670	0.884510
S1021	S102	0.041800	0.132600	0.903710
S1031	S103	0.874500	0.363020	0.819700
S1041	S104	0.035580	0.285300	0.843160
S1051	S105	0.030500	0.430500	0.779390
S1061	S106	0.795000	0.285600	0.975410
S1071	S107	0.948800	0.210200	0.996130
S1081	S108	0.789800	0.443500	0.911340
S1091	S109	0.942840	0.363110	0.933660
S1101	S110	0.102700	0.285900	0.954040
S1111	S111	0.935500	0.513000	0.867230
S1121	S112	0.095500	0.434000	0.895860
N251	N25	0.593900	0.347500	0.993700
N261	N26	0.668300	0.362100	0.951200
N271	N27	0.902100	0.138300	0.705200
N281	N28	0.921300	0.057700	0.670300
C371	C37	0.629000	0.407900	0.949000
H371	H37	0.632900	0.440700	0.931400
C381	C38	0.853300	0.124200	0.684800
H381	H38	0.817000	0.145700	0.684900
C391	C39	0.582900	0.400300	0.975900
H391	H39	0.550600	0.426200	0.980900
C401	C40	0.643700	0.327300	0.977100
H401	H40	0.660000	0.290000	0.983800
C411	C41	0.864200	0.074300	0.663900
H411	H41	0.836400	0.054100	0.647500
C421	C42	0.940700	0.096500	0.696400
H421	H42	0.979200	0.094600	0.708000
In711	In71	0.586390	0.801020	0.255500
In721	In72	0.677940	0.731960	0.335330
In731	In73	0.515990	0.810120	0.356870
In741	In74	0.523790	0.658830	0.291990
In751	In75	0.747300	0.654950	0.422510
In761	In76	0.607940	0.733070	0.448540
In771	In77	0.458160	0.801500	0.461030
In781	In78	0.614730	0.578410	0.382810
In791	In79	0.455630	0.657720	0.407100
In801	In80	0.468280	0.523620	0.345070
S1131	S113	0.688980	0.788700	0.274670
S1141	S114	0.523200	0.864600	0.295350
S1151	S115	0.535800	0.713700	0.230430
S1161	S116	0.774470	0.709700	0.362520
S1171	S117	0.617520	0.790330	0.384510
S1181	S118	0.458200	0.867400	0.403710
S1191	S119	0.625500	0.636980	0.319700
S1201	S120	0.464420	0.714700	0.343160
S1211	S121	0.469500	0.569500	0.279390
S1221	S122	0.705000	0.714400	0.475410
S1231	S123	0.551200	0.789800	0.496130
S1241	S124	0.710200	0.556500	0.411340
S1251	S125	0.557160	0.636890	0.433660
S1261	S126	0.397300	0.714100	0.454040
S1271	S127	0.564500	0.487000	0.367230
S1281	S128	0.404500	0.566000	0.395860
N291	N29	0.906100	0.652500	0.493700
N301	N30	0.831700	0.637900	0.451200
N311	N31	0.597900	0.861700	0.205200
N321	N32	0.578700	0.942300	0.170300
C431	C43	0.871000	0.592100	0.449000
H431	H43	0.867100	0.559300	0.431400
C441	C44	0.646700	0.875800	0.184800
H441	H44	0.683000	0.854300	0.184900
C451	C45	0.917100	0.599700	0.475900
H451	H45	0.949400	0.573800	0.480900
C461	C46	0.856300	0.672700	0.477100
H461	H46	0.840000	0.710000	0.483800
C471	C47	0.635800	0.925700	0.163900
H471	H47	0.663600	0.945900	0.147500
C481	C48	0.559300	0.903500	0.196400
H481	H48	0.520800	0.905400	0.208000
