data_EMIGUD_charged_PM
_symmetry_space_group_name_H-M	'P1'
_cell_length_a	22.416500
_cell_length_b	22.438800
_cell_length_c	33.994000
_cell_angle_alpha	90.000000
_cell_angle_beta	90.000000
_cell_angle_gamma	90.000000
_symmetry_Int_Tables_number 1

loop_
_symmetry_equiv_pos_as_xyz
'x,y,z'

loop_
_atom_site_label
_atom_site_type_symbol
_atom_site_fract_x
_atom_site_fract_y
_atom_site_fract_z
In11	In1	0.296360	0.083050	0.761320
In21	In2	0.222300	0.161680	0.843640
In31	In3	0.311470	0.002730	0.857950
In41	In4	0.157110	0.008140	0.793870
In51	In5	0.140830	0.218550	0.932250
In61	In6	0.226300	0.078740	0.950510
In71	In7	0.071290	0.085810	0.886650
In81	In8	0.304490	0.932320	0.955620
In91	In9	0.159730	0.926290	0.901890
In101	In10	0.022110	0.941370	0.841750
In111	In11	0.703640	0.416950	0.261320
In121	In12	0.777700	0.338320	0.343640
In131	In13	0.688530	0.497270	0.357950
In141	In14	0.842890	0.491860	0.293870
In151	In15	0.859170	0.281450	0.432250
In161	In16	0.773700	0.421260	0.450510
In171	In17	0.928710	0.414190	0.386650
In181	In18	0.695510	0.567680	0.455620
In191	In19	0.840270	0.573710	0.401890
In201	In20	0.977890	0.558630	0.341750
In211	In21	0.796360	0.916950	0.738680
In221	In22	0.722300	0.838320	0.656360
In231	In23	0.811470	0.997270	0.642050
In241	In24	0.657110	0.991860	0.706130
In251	In25	0.640830	0.781450	0.567750
In261	In26	0.726300	0.921260	0.549490
In271	In27	0.571290	0.914190	0.613350
In281	In28	0.804490	0.067680	0.544380
In291	In29	0.659730	0.073710	0.598110
In301	In30	0.522110	0.058630	0.658250
In311	In31	0.203640	0.583050	0.238680
In321	In32	0.277700	0.661680	0.156360
In331	In33	0.188530	0.502730	0.142050
In341	In34	0.342890	0.508140	0.206130
In351	In35	0.359170	0.718550	0.067750
In361	In36	0.273700	0.578740	0.049490
In371	In37	0.428710	0.585810	0.113350
In381	In38	0.195510	0.432320	0.044380
In391	In39	0.340270	0.426290	0.098110
In401	In40	0.477890	0.441370	0.158250
H11	H1	0.193600	0.303200	0.999500
H21	H2	0.075200	0.480000	0.994000
H31	H3	0.989700	0.480000	0.955300
H41	H4	0.019900	0.309800	0.919400
H51	H5	0.899800	0.409900	0.936200
H61	H6	0.917000	0.351500	0.911700
H71	H7	0.928700	0.416100	0.893400
H81	H8	0.422500	0.048000	0.722200
H91	H9	0.270000	0.186400	0.689100
H101	H10	0.282900	0.254600	0.638400
H111	H11	0.445200	0.181500	0.613600
H121	H12	0.404500	0.261200	0.573800
H131	H13	0.350700	0.299700	0.591400
H141	H14	0.337000	0.241400	0.565800
H151	H15	0.806400	0.196800	0.499500
H161	H16	0.924800	0.020000	0.494000
H171	H17	0.010300	0.020000	0.455300
H181	H18	0.980100	0.190200	0.419400
H191	H19	0.100200	0.090100	0.436200
H201	H20	0.083000	0.148500	0.411700
H211	H21	0.071300	0.083900	0.393400
H221	H22	0.577500	0.452000	0.222200
H231	H23	0.730000	0.313600	0.189100
H241	H24	0.717100	0.245400	0.138400
H251	H25	0.554800	0.318500	0.113600
H261	H26	0.595500	0.238800	0.073800
H271	H27	0.649300	0.200300	0.091400
H281	H28	0.663000	0.258600	0.065800
H291	H29	0.693600	0.696800	0.500500
H301	H30	0.575200	0.520000	0.506000
H311	H31	0.489700	0.520000	0.544700
H321	H32	0.519900	0.690200	0.580600
H331	H33	0.399800	0.590100	0.563800
H341	H34	0.417000	0.648500	0.588300
H351	H35	0.428700	0.583900	0.606600
H361	H36	0.922500	0.952000	0.777800
H371	H37	0.770000	0.813600	0.810900
H381	H38	0.782900	0.745400	0.861600
H391	H39	0.945200	0.818500	0.886400
H401	H40	0.904500	0.738800	0.926200
H411	H41	0.850700	0.700300	0.908600
H421	H42	0.837000	0.758600	0.934200
H431	H43	0.306400	0.803200	0.000500
H441	H44	0.424800	0.980000	0.006000
H451	H45	0.510300	0.980000	0.044700
H461	H46	0.480100	0.809800	0.080600
H471	H47	0.600200	0.909900	0.063800
H481	H48	0.583000	0.851500	0.088300
H491	H49	0.571300	0.916100	0.106600
H501	H50	0.077500	0.548000	0.277800
H511	H51	0.230000	0.686400	0.310900
H521	H52	0.217100	0.754600	0.361600
H531	H53	0.054800	0.681500	0.386400
H541	H54	0.095500	0.761200	0.426200
H551	H55	0.149300	0.799700	0.408600
H561	H56	0.163000	0.741400	0.434200
C11	C1	0.160100	0.324500	0.989700
C21	C2	0.095700	0.394700	0.980200
C31	C3	0.063400	0.445600	0.979700
C41	C4	0.012700	0.444600	0.957200
C51	C5	0.992900	0.393400	0.936600
C61	C6	0.029800	0.343300	0.935200
C71	C7	0.080100	0.344200	0.957100
C81	C8	0.928500	0.392600	0.917700
C91	C9	0.407500	0.078900	0.705800
C101	C10	0.350600	0.146900	0.683100
C111	C11	0.305800	0.186400	0.674200
C121	C12	0.313000	0.225800	0.643800
C131	C13	0.365200	0.223600	0.620200
C141	C14	0.409800	0.183500	0.628900
C151	C15	0.401100	0.145800	0.661100
C161	C16	0.364000	0.259300	0.585000
C171	C17	0.839900	0.175500	0.489700
C181	C18	0.904300	0.105300	0.480200
C191	C19	0.936600	0.054400	0.479700
C201	C20	0.987300	0.055400	0.457200
C211	C21	0.007100	0.106600	0.436600
C221	C22	0.970200	0.156700	0.435200
C231	C23	0.919900	0.155800	0.457100
C241	C24	0.071500	0.107400	0.417700
C251	C25	0.592500	0.421100	0.205800
C261	C26	0.649400	0.353100	0.183100
C271	C27	0.694200	0.313600	0.174200
C281	C28	0.687000	0.274200	0.143800
C291	C29	0.634800	0.276400	0.120200
C301	C30	0.590200	0.316500	0.128900
C311	C31	0.598900	0.354200	0.161100
C321	C32	0.636000	0.240700	0.085000
C331	C33	0.660100	0.675500	0.510300
C341	C34	0.595700	0.605300	0.519800
C351	C35	0.563400	0.554400	0.520300
C361	C36	0.512700	0.555400	0.542800
C371	C37	0.492900	0.606600	0.563400
C381	C38	0.529800	0.656700	0.564800
C391	C39	0.580100	0.655800	0.542900
C401	C40	0.428500	0.607400	0.582300
C411	C41	0.907500	0.921100	0.794200
C421	C42	0.850600	0.853100	0.816900
C431	C43	0.805800	0.813600	0.825800
C441	C44	0.813000	0.774200	0.856200
C451	C45	0.865200	0.776400	0.879800
C461	C46	0.909800	0.816500	0.871100
C471	C47	0.901100	0.854200	0.838900
C481	C48	0.864000	0.740700	0.915000
C491	C49	0.339900	0.824500	0.010300
C501	C50	0.404300	0.894700	0.019800
C511	C51	0.436600	0.945600	0.020300
C521	C52	0.487300	0.944600	0.042800
C531	C53	0.507100	0.893400	0.063400
C541	C54	0.470200	0.843300	0.064800
C551	C55	0.419900	0.844200	0.042900
C561	C56	0.571500	0.892600	0.082300
C571	C57	0.092500	0.578900	0.294200
C581	C58	0.149400	0.646900	0.316900
C591	C59	0.194200	0.686400	0.325800
C601	C60	0.187000	0.725800	0.356200
C611	C61	0.134800	0.723600	0.379800
C621	C62	0.090200	0.683500	0.371100
C631	C63	0.098900	0.645800	0.338900
C641	C64	0.136000	0.759300	0.415000
S11	S1	0.276900	0.182700	0.784470
S21	S2	0.366740	0.023100	0.798500
S31	S3	0.213700	0.026600	0.734740
S41	S4	0.196500	0.253700	0.875830
S51	S5	0.283720	0.099820	0.889080
S61	S6	0.129520	0.105600	0.825140
S71	S7	0.371000	0.940940	0.900240
S81	S8	0.217820	0.947260	0.840500
S91	S9	0.067940	0.953600	0.777480
S101	S10	0.198000	0.169700	0.983300
S111	S11	0.043490	0.178300	0.917440
S121	S12	0.290900	0.022700	0.993040
S131	S13	0.132600	0.024020	0.932920
S141	S14	0.981770	0.033700	0.867810
S151	S15	0.217480	0.869100	0.947610
S161	S16	0.069000	0.872700	0.886190
S171	S17	0.723100	0.317300	0.284470
S181	S18	0.633260	0.476900	0.298500
S191	S19	0.786300	0.473400	0.234740
S201	S20	0.803500	0.246300	0.375830
S211	S21	0.716280	0.400180	0.389080
S221	S22	0.870480	0.394400	0.325140
S231	S23	0.629000	0.559060	0.400240
S241	S24	0.782180	0.552740	0.340500
S251	S25	0.932060	0.546400	0.277480
S261	S26	0.802000	0.330300	0.483300
S271	S27	0.956510	0.321700	0.417440
S281	S28	0.709100	0.477300	0.493040
S291	S29	0.867400	0.475980	0.432920
S301	S30	0.018230	0.466300	0.367810
S311	S31	0.782520	0.630900	0.447610
S321	S32	0.931000	0.627300	0.386190
S331	S33	0.776900	0.817300	0.715530
S341	S34	0.866740	0.976900	0.701500
S351	S35	0.713700	0.973400	0.765260
S361	S36	0.696500	0.746300	0.624170
S371	S37	0.783720	0.900180	0.610920
S381	S38	0.629520	0.894400	0.674860
S391	S39	0.871000	0.059060	0.599760
S401	S40	0.717820	0.052740	0.659500
S411	S41	0.567940	0.046400	0.722520
S421	S42	0.698000	0.830300	0.516700
S431	S43	0.543490	0.821700	0.582560
S441	S44	0.790900	0.977300	0.506960
S451	S45	0.632600	0.975980	0.567080
S461	S46	0.481770	0.966300	0.632190
S471	S47	0.717480	0.130900	0.552390
S481	S48	0.569000	0.127300	0.613810
S491	S49	0.223100	0.682700	0.215530
S501	S50	0.133260	0.523100	0.201500
S511	S51	0.286300	0.526600	0.265260
S521	S52	0.303500	0.753700	0.124170
S531	S53	0.216280	0.599820	0.110920
S541	S54	0.370480	0.605600	0.174860
S551	S55	0.129000	0.440940	0.099760
S561	S56	0.282180	0.447260	0.159500
S571	S57	0.432060	0.453600	0.222520
S581	S58	0.302000	0.669700	0.016700
S591	S59	0.456510	0.678300	0.082560
S601	S60	0.209100	0.522700	0.006960
S611	S61	0.367400	0.524020	0.067080
S621	S62	0.518230	0.533700	0.132190
S631	S63	0.282520	0.369100	0.052390
S641	S64	0.431000	0.372700	0.113810
N11	N1	0.146200	0.379700	0.001600
N21	N2	0.122900	0.301800	0.962900
N31	N3	0.438600	0.100700	0.676400
N41	N4	0.353800	0.102700	0.711100
N51	N5	0.853800	0.120300	0.501600
N61	N6	0.877100	0.198200	0.462900
N71	N7	0.561400	0.399300	0.176400
N81	N8	0.646200	0.397300	0.211100
N91	N9	0.646200	0.620300	0.498400
N101	N10	0.622900	0.698200	0.537100
N111	N11	0.938600	0.899300	0.823600
N121	N12	0.853800	0.897300	0.788900
N131	N13	0.353800	0.879700	0.998400
N141	N14	0.377100	0.801800	0.037100
N151	N15	0.061400	0.600700	0.323600
N161	N16	0.146200	0.602700	0.288900
In411	In41	0.703640	0.916950	0.238680
In421	In42	0.777700	0.838320	0.156360
In431	In43	0.688530	0.997270	0.142050
In441	In44	0.842890	0.991860	0.206130
In451	In45	0.859170	0.781450	0.067750
In461	In46	0.773700	0.921260	0.049490
In471	In47	0.928710	0.914190	0.113350
In481	In48	0.695510	0.067680	0.044380
In491	In49	0.840270	0.073710	0.098110
In501	In50	0.977890	0.058630	0.158250
In511	In51	0.296360	0.583050	0.738680
In521	In52	0.222300	0.661680	0.656360
In531	In53	0.311470	0.502730	0.642050
In541	In54	0.157110	0.508140	0.706130
In551	In55	0.140830	0.718550	0.567750
In561	In56	0.226300	0.578740	0.549490
In571	In57	0.071290	0.585810	0.613350
In581	In58	0.304490	0.432320	0.544380
In591	In59	0.159730	0.426290	0.598110
In601	In60	0.022110	0.441370	0.658250
In611	In61	0.203640	0.083050	0.261320
In621	In62	0.277700	0.161680	0.343640
In631	In63	0.188530	0.002730	0.357950
In641	In64	0.342890	0.008140	0.293870
In651	In65	0.359170	0.218550	0.432250
In661	In66	0.273700	0.078740	0.450510
In671	In67	0.428710	0.085810	0.386650
In681	In68	0.195510	0.932320	0.455620
In691	In69	0.340270	0.926290	0.401890
In701	In70	0.477890	0.941370	0.341750
In711	In71	0.796360	0.416950	0.761320
In721	In72	0.722300	0.338320	0.843640
In731	In73	0.811470	0.497270	0.857950
In741	In74	0.657110	0.491860	0.793870
In751	In75	0.640830	0.281450	0.932250
In761	In76	0.726300	0.421260	0.950510
In771	In77	0.571290	0.414190	0.886650
In781	In78	0.804490	0.567680	0.955620
In791	In79	0.659730	0.573710	0.901890
In801	In80	0.522110	0.558630	0.841750
H571	H57	0.806400	0.696800	0.000500
H581	H58	0.924800	0.520000	0.006000
H591	H59	0.010300	0.520000	0.044700
H601	H60	0.980100	0.690200	0.080600
H611	H61	0.100200	0.590100	0.063800
H621	H62	0.083000	0.648500	0.088300
H631	H63	0.071300	0.583900	0.106600
H641	H64	0.577500	0.952000	0.277800
H651	H65	0.730000	0.813600	0.310900
H661	H66	0.717100	0.745400	0.361600
H671	H67	0.554800	0.818500	0.386400
H681	H68	0.595500	0.738800	0.426200
H691	H69	0.649300	0.700300	0.408600
H701	H70	0.663000	0.758600	0.434200
H711	H71	0.193600	0.803200	0.500500
H721	H72	0.075200	0.980000	0.506000
H731	H73	0.989700	0.980000	0.544700
H741	H74	0.019900	0.809800	0.580600
H751	H75	0.899800	0.909900	0.563800
H761	H76	0.917000	0.851500	0.588300
H771	H77	0.928700	0.916100	0.606600
H781	H78	0.422500	0.548000	0.777800
H791	H79	0.270000	0.686400	0.810900
H801	H80	0.282900	0.754600	0.861600
H811	H81	0.445200	0.681500	0.886400
H821	H82	0.404500	0.761200	0.926200
H831	H83	0.350700	0.799700	0.908600
H841	H84	0.337000	0.741400	0.934200
H851	H85	0.306400	0.303200	0.499500
H861	H86	0.424800	0.480000	0.494000
H871	H87	0.510300	0.480000	0.455300
H881	H88	0.480100	0.309800	0.419400
H891	H89	0.600200	0.409900	0.436200
H901	H90	0.583000	0.351500	0.411700
H911	H91	0.571300	0.416100	0.393400
H921	H92	0.077500	0.048000	0.222200
H931	H93	0.230000	0.186400	0.189100
H941	H94	0.217100	0.254600	0.138400
H951	H95	0.054800	0.181500	0.113600
H961	H96	0.095500	0.261200	0.073800
H971	H97	0.149300	0.299700	0.091400
H981	H98	0.163000	0.241400	0.065800
H991	H99	0.693600	0.196800	0.999500
H1001	H100	0.575200	0.020000	0.994000
H1011	H101	0.489700	0.020000	0.955300
H1021	H102	0.519900	0.190200	0.919400
H1031	H103	0.399800	0.090100	0.936200
H1041	H104	0.417000	0.148500	0.911700
H1051	H105	0.428700	0.083900	0.893400
H1061	H106	0.922500	0.452000	0.722200
H1071	H107	0.770000	0.313600	0.689100
H1081	H108	0.782900	0.245400	0.638400
H1091	H109	0.945200	0.318500	0.613600
H1101	H110	0.904500	0.238800	0.573800
H1111	H111	0.850700	0.200300	0.591400
H1121	H112	0.837000	0.258600	0.565800
C651	C65	0.839900	0.675500	0.010300
C661	C66	0.904300	0.605300	0.019800
C671	C67	0.936600	0.554400	0.020300
C681	C68	0.987300	0.555400	0.042800
C691	C69	0.007100	0.606600	0.063400
C701	C70	0.970200	0.656700	0.064800
C711	C71	0.919900	0.655800	0.042900
C721	C72	0.071500	0.607400	0.082300
C731	C73	0.592500	0.921100	0.294200
C741	C74	0.649400	0.853100	0.316900
C751	C75	0.694200	0.813600	0.325800
C761	C76	0.687000	0.774200	0.356200
C771	C77	0.634800	0.776400	0.379800
C781	C78	0.590200	0.816500	0.371100
C791	C79	0.598900	0.854200	0.338900
C801	C80	0.636000	0.740700	0.415000
C811	C81	0.160100	0.824500	0.510300
C821	C82	0.095700	0.894700	0.519800
C831	C83	0.063400	0.945600	0.520300
C841	C84	0.012700	0.944600	0.542800
C851	C85	0.992900	0.893400	0.563400
C861	C86	0.029800	0.843300	0.564800
C871	C87	0.080100	0.844200	0.542900
C881	C88	0.928500	0.892600	0.582300
C891	C89	0.407500	0.578900	0.794200
C901	C90	0.350600	0.646900	0.816900
C911	C91	0.305800	0.686400	0.825800
C921	C92	0.313000	0.725800	0.856200
C931	C93	0.365200	0.723600	0.879800
C941	C94	0.409800	0.683500	0.871100
C951	C95	0.401100	0.645800	0.838900
C961	C96	0.364000	0.759300	0.915000
C971	C97	0.339900	0.324500	0.489700
C981	C98	0.404300	0.394700	0.480200
C991	C99	0.436600	0.445600	0.479700
C1001	C100	0.487300	0.444600	0.457200
C1011	C101	0.507100	0.393400	0.436600
C1021	C102	0.470200	0.343300	0.435200
C1031	C103	0.419900	0.344200	0.457100
C1041	C104	0.571500	0.392600	0.417700
C1051	C105	0.092500	0.078900	0.205800
C1061	C106	0.149400	0.146900	0.183100
C1071	C107	0.194200	0.186400	0.174200
C1081	C108	0.187000	0.225800	0.143800
C1091	C109	0.134800	0.223600	0.120200
C1101	C110	0.090200	0.183500	0.128900
C1111	C111	0.098900	0.145800	0.161100
C1121	C112	0.136000	0.259300	0.085000
C1131	C113	0.660100	0.175500	0.989700
C1141	C114	0.595700	0.105300	0.980200
C1151	C115	0.563400	0.054400	0.979700
C1161	C116	0.512700	0.055400	0.957200
C1171	C117	0.492900	0.106600	0.936600
C1181	C118	0.529800	0.156700	0.935200
C1191	C119	0.580100	0.155800	0.957100
C1201	C120	0.428500	0.107400	0.917700
C1211	C121	0.907500	0.421100	0.705800
C1221	C122	0.850600	0.353100	0.683100
C1231	C123	0.805800	0.313600	0.674200
C1241	C124	0.813000	0.274200	0.643800
C1251	C125	0.865200	0.276400	0.620200
C1261	C126	0.909800	0.316500	0.628900
C1271	C127	0.901100	0.354200	0.661100
C1281	C128	0.864000	0.240700	0.585000
S651	S65	0.723100	0.817300	0.215530
S661	S66	0.633260	0.976900	0.201500
S671	S67	0.786300	0.973400	0.265260
S681	S68	0.803500	0.746300	0.124170
S691	S69	0.716280	0.900180	0.110920
S701	S70	0.870480	0.894400	0.174860
S711	S71	0.629000	0.059060	0.099760
S721	S72	0.782180	0.052740	0.159500
S731	S73	0.932060	0.046400	0.222520
S741	S74	0.802000	0.830300	0.016700
S751	S75	0.956510	0.821700	0.082560
S761	S76	0.709100	0.977300	0.006960
S771	S77	0.867400	0.975980	0.067080
S781	S78	0.018230	0.966300	0.132190
S791	S79	0.782520	0.130900	0.052390
S801	S80	0.931000	0.127300	0.113810
S811	S81	0.276900	0.682700	0.715530
S821	S82	0.366740	0.523100	0.701500
S831	S83	0.213700	0.526600	0.765260
S841	S84	0.196500	0.753700	0.624170
S851	S85	0.283720	0.599820	0.610920
S861	S86	0.129520	0.605600	0.674860
S871	S87	0.371000	0.440940	0.599760
S881	S88	0.217820	0.447260	0.659500
S891	S89	0.067940	0.453600	0.722520
S901	S90	0.198000	0.669700	0.516700
S911	S91	0.043490	0.678300	0.582560
S921	S92	0.290900	0.522700	0.506960
S931	S93	0.132600	0.524020	0.567080
S941	S94	0.981770	0.533700	0.632190
S951	S95	0.217480	0.369100	0.552390
S961	S96	0.069000	0.372700	0.613810
S971	S97	0.223100	0.182700	0.284470
S981	S98	0.133260	0.023100	0.298500
S991	S99	0.286300	0.026600	0.234740
S1001	S100	0.303500	0.253700	0.375830
S1011	S101	0.216280	0.099820	0.389080
S1021	S102	0.370480	0.105600	0.325140
S1031	S103	0.129000	0.940940	0.400240
S1041	S104	0.282180	0.947260	0.340500
S1051	S105	0.432060	0.953600	0.277480
S1061	S106	0.302000	0.169700	0.483300
S1071	S107	0.456510	0.178300	0.417440
S1081	S108	0.209100	0.022700	0.493040
S1091	S109	0.367400	0.024020	0.432920
S1101	S110	0.518230	0.033700	0.367810
S1111	S111	0.282520	0.869100	0.447610
S1121	S112	0.431000	0.872700	0.386190
S1131	S113	0.776900	0.317300	0.784470
S1141	S114	0.866740	0.476900	0.798500
S1151	S115	0.713700	0.473400	0.734740
S1161	S116	0.696500	0.246300	0.875830
S1171	S117	0.783720	0.400180	0.889080
S1181	S118	0.629520	0.394400	0.825140
S1191	S119	0.871000	0.559060	0.900240
S1201	S120	0.717820	0.552740	0.840500
S1211	S121	0.567940	0.546400	0.777480
S1221	S122	0.698000	0.330300	0.983300
S1231	S123	0.543490	0.321700	0.917440
S1241	S124	0.790900	0.477300	0.993040
S1251	S125	0.632600	0.475980	0.932920
S1261	S126	0.481770	0.466300	0.867810
S1271	S127	0.717480	0.630900	0.947610
S1281	S128	0.569000	0.627300	0.886190
N171	N17	0.853800	0.620300	0.998400
N181	N18	0.877100	0.698200	0.037100
N191	N19	0.561400	0.899300	0.323600
N201	N20	0.646200	0.897300	0.288900
N211	N21	0.146200	0.879700	0.498400
N221	N22	0.122900	0.801800	0.537100
N231	N23	0.438600	0.600700	0.823600
N241	N24	0.353800	0.602700	0.788900
N251	N25	0.353800	0.379700	0.501600
N261	N26	0.377100	0.301800	0.462900
N271	N27	0.061400	0.100700	0.176400
N281	N28	0.146200	0.102700	0.211100
N291	N29	0.646200	0.120300	0.001600
N301	N30	0.622900	0.198200	0.962900
N311	N31	0.938600	0.399300	0.676400
N321	N32	0.853800	0.397300	0.711100
