data_EMOHIZ_freeONLY_PM
_symmetry_space_group_name_H-M	'P1'
_cell_length_a	8.031900
_cell_length_b	17.940700
_cell_length_c	17.931800
_cell_angle_alpha	90.000000
_cell_angle_beta	108.644000
_cell_angle_gamma	90.000000
_symmetry_Int_Tables_number 1

loop_
_symmetry_equiv_pos_as_xyz
'x,y,z'

loop_
_atom_site_label
_atom_site_type_symbol
_atom_site_fract_x
_atom_site_fract_y
_atom_site_fract_z
Co11	Co1	0.126850	0.809980	0.236440
O11	O1	0.305200	0.749400	0.315030
O21	O2	0.103700	0.771200	0.370000
O31	O3	0.731700	0.579900	0.490600
O41	O4	0.206500	0.684540	0.643870
O51	O5	0.441100	0.617100	0.705300
N11	N1	0.054100	0.913400	0.257300
N21	N2	0.906200	0.003900	0.285400
N31	N3	0.096500	0.251600	0.313800
N41	N4	0.352800	0.197700	0.334700
C11	C1	0.349600	0.697300	0.441600
C21	C2	0.300500	0.694300	0.509200
H11	H1	0.201900	0.720300	0.511400
C31	C3	0.397600	0.653000	0.573100
C41	C4	0.545200	0.613200	0.570000
H21	H2	0.610800	0.585000	0.612900
C51	C5	0.592200	0.616600	0.501400
C61	C6	0.497600	0.658700	0.438800
H31	H3	0.532300	0.661500	0.394100
C71	C7	0.840000	0.535100	0.550400
H41	H4	0.868700	0.556200	0.602800
H51	H5	0.783400	0.487000	0.548400
C81	C8	0.921300	0.930400	0.279300
H61	H6	0.845500	0.895800	0.289700
C91	C9	0.028400	0.036100	0.258800
H71	H7	0.044900	0.086800	0.252800
C101	C10	0.121500	0.979200	0.242900
H81	H8	0.217300	0.984300	0.224800
C111	C11	0.780900	0.043200	0.322000
H91	H9	0.744200	0.009900	0.356300
H101	H10	0.835500	0.087000	0.351600
C121	C12	0.641000	0.062600	0.256700
H111	H11	0.598600	0.018700	0.224700
H121	H12	0.679900	0.098300	0.225200
C131	C13	0.223700	0.235200	0.284200
H131	H13	0.222300	0.248500	0.233800
C141	C14	0.149200	0.221900	0.388000
H141	H14	0.087000	0.223800	0.423600
C151	C15	0.308200	0.189100	0.400500
H151	H15	0.374400	0.165000	0.446300
C161	C16	0.512200	0.169700	0.319200
H161	H16	0.546200	0.204800	0.285500
H171	H17	0.607800	0.166500	0.368500
C171	C17	0.484400	0.098000	0.282400
H181	H18	0.381800	0.101400	0.235800
H191	H19	0.456100	0.063400	0.318100
C181	C18	0.347900	0.650400	0.646700
C191	C19	0.244400	0.741500	0.371800
C201	C20	0.020100	0.530800	0.529700
H201	H20	0.134300	0.526900	0.569800
H211	H21	0.018600	0.566900	0.489200
Co21	Co2	0.873150	0.309980	0.263560
O61	O6	0.694800	0.249400	0.184970
O71	O7	0.896300	0.271200	0.130000
O81	O8	0.268300	0.079900	0.009400
O91	O9	0.793500	0.184540	0.856130
O101	O10	0.558900	0.117100	0.794700
N51	N5	0.945900	0.413400	0.242700
N61	N6	0.093800	0.503900	0.214600
N71	N7	0.903500	0.751600	0.186200
N81	N8	0.647200	0.697700	0.165300
C211	C21	0.650400	0.197300	0.058400
C221	C22	0.699500	0.194300	0.990800
H221	H22	0.798100	0.220300	0.988600
C231	C23	0.602400	0.153000	0.926900
C241	C24	0.454800	0.113200	0.930000
H231	H23	0.389200	0.085000	0.887100
C251	C25	0.407800	0.116600	0.998600
C261	C26	0.502400	0.158700	0.061200
H241	H24	0.467700	0.161500	0.105900
C271	C27	0.160000	0.035100	0.949600
H251	H25	0.131300	0.056200	0.897200
H261	H26	0.216600	0.987000	0.951600
C281	C28	0.078700	0.430400	0.220700
H271	H27	0.154500	0.395800	0.210300
C291	C29	0.971600	0.536100	0.241200
H281	H28	0.955100	0.586800	0.247200
C301	C30	0.878500	0.479200	0.257100
H291	H29	0.782700	0.484300	0.275200
C311	C31	0.219100	0.543200	0.178000
H301	H30	0.255800	0.509900	0.143700
H311	H31	0.164500	0.587000	0.148400
C321	C32	0.359000	0.562600	0.243300
H321	H32	0.401400	0.518700	0.275300
H331	H33	0.320100	0.598300	0.274800
C331	C33	0.776300	0.735200	0.215800
H341	H34	0.777700	0.748500	0.266200
C341	C34	0.850800	0.721900	0.112000
H351	H35	0.913000	0.723800	0.076400
C351	C35	0.691800	0.689100	0.099500
H361	H36	0.625600	0.665000	0.053700
C361	C36	0.487800	0.669700	0.180800
H371	H37	0.453800	0.704800	0.214500
H381	H38	0.392200	0.666500	0.131500
C371	C37	0.515600	0.598000	0.217600
H391	H39	0.618200	0.601400	0.264200
H401	H40	0.543900	0.563400	0.181900
C381	C38	0.652100	0.150400	0.853300
C391	C39	0.755600	0.241500	0.128200
C401	C40	0.979900	0.030800	0.970300
H411	H41	0.865700	0.026900	0.930200
H421	H42	0.981400	0.066900	0.010800
Co31	Co3	0.873150	0.190020	0.763560
O111	O11	0.694800	0.250600	0.684970
O121	O12	0.896300	0.228800	0.630000
O131	O13	0.268300	0.420100	0.509400
O141	O14	0.793500	0.315460	0.356130
O151	O15	0.558900	0.382900	0.294700
N91	N9	0.945900	0.086600	0.742700
N101	N10	0.093800	0.996100	0.714600
N111	N11	0.903500	0.748400	0.686200
N121	N12	0.647200	0.802300	0.665300
C411	C41	0.650400	0.302700	0.558400
C421	C42	0.699500	0.305700	0.490800
H431	H43	0.798100	0.279700	0.488600
C431	C43	0.602400	0.347000	0.426900
C441	C44	0.454800	0.386800	0.430000
H441	H44	0.389200	0.415000	0.387100
C451	C45	0.407800	0.383400	0.498600
C461	C46	0.502400	0.341300	0.561200
H451	H45	0.467700	0.338500	0.605900
C471	C47	0.160000	0.464900	0.449600
H461	H46	0.131300	0.443800	0.397200
H471	H47	0.216600	0.513000	0.451600
C481	C48	0.078700	0.069600	0.720700
H481	H48	0.154500	0.104200	0.710300
C491	C49	0.971600	0.963900	0.741200
H491	H49	0.955100	0.913200	0.747200
C501	C50	0.878500	0.020800	0.757100
H501	H50	0.782700	0.015700	0.775200
C511	C51	0.219100	0.956800	0.678000
H511	H51	0.255800	0.990100	0.643700
H521	H52	0.164500	0.913000	0.648400
C521	C52	0.359000	0.937400	0.743300
H531	H53	0.401400	0.981300	0.775300
H541	H54	0.320100	0.901700	0.774800
C531	C53	0.776300	0.764800	0.715800
H551	H55	0.777700	0.751500	0.766200
C541	C54	0.850800	0.778100	0.612000
H561	H56	0.913000	0.776200	0.576400
C551	C55	0.691800	0.810900	0.599500
H571	H57	0.625600	0.835000	0.553700
C561	C56	0.487800	0.830300	0.680800
H581	H58	0.453800	0.795200	0.714500
H591	H59	0.392200	0.833500	0.631500
C571	C57	0.515600	0.902000	0.717600
H601	H60	0.618200	0.898600	0.764200
H611	H61	0.543900	0.936600	0.681900
C581	C58	0.652100	0.349600	0.353300
C591	C59	0.755600	0.258500	0.628200
C601	C60	0.979900	0.469200	0.470300
H621	H62	0.865700	0.473100	0.430200
H631	H63	0.981400	0.433100	0.510800
Co41	Co4	0.126850	0.690020	0.736440
O161	O16	0.305200	0.750600	0.815030
O171	O17	0.103700	0.728800	0.870000
O181	O18	0.731700	0.920100	0.990600
O191	O19	0.206500	0.815460	0.143870
O201	O20	0.441100	0.882900	0.205300
N131	N13	0.054100	0.586600	0.757300
N141	N14	0.906200	0.496100	0.785400
N151	N15	0.096500	0.248400	0.813800
N161	N16	0.352800	0.302300	0.834700
C611	C61	0.349600	0.802700	0.941600
C621	C62	0.300500	0.805700	0.009200
H641	H64	0.201900	0.779700	0.011400
C631	C63	0.397600	0.847000	0.073100
C641	C64	0.545200	0.886800	0.070000
H651	H65	0.610800	0.915000	0.112900
C651	C65	0.592200	0.883400	0.001400
C661	C66	0.497600	0.841300	0.938800
H661	H66	0.532300	0.838500	0.894100
C671	C67	0.840000	0.964900	0.050400
H671	H67	0.868700	0.943800	0.102800
H681	H68	0.783400	0.013000	0.048400
C681	C68	0.921300	0.569600	0.779300
H691	H69	0.845500	0.604200	0.789700
C691	C69	0.028400	0.463900	0.758800
H701	H70	0.044900	0.413200	0.752800
C701	C70	0.121500	0.520800	0.742900
H711	H71	0.217300	0.515700	0.724800
C711	C71	0.780900	0.456800	0.822000
H721	H72	0.744200	0.490100	0.856300
H731	H73	0.835500	0.413000	0.851600
C721	C72	0.641000	0.437400	0.756700
H741	H74	0.598600	0.481300	0.724700
H751	H75	0.679900	0.401700	0.725200
C731	C73	0.223700	0.264800	0.784200
H761	H76	0.222300	0.251500	0.733800
C741	C74	0.149200	0.278100	0.888000
H771	H77	0.087000	0.276200	0.923600
C751	C75	0.308200	0.310900	0.900500
H781	H78	0.374400	0.335000	0.946300
C761	C76	0.512200	0.330300	0.819200
H791	H79	0.546200	0.295200	0.785500
H801	H80	0.607800	0.333500	0.868500
C771	C77	0.484400	0.402000	0.782400
H811	H81	0.381800	0.398600	0.735800
H821	H82	0.456100	0.436600	0.818100
C781	C78	0.347900	0.849600	0.146700
C791	C79	0.244400	0.758500	0.871800
C801	C80	0.020100	0.969200	0.029700
H831	H83	0.134300	0.973100	0.069800
H841	H84	0.018600	0.933100	0.989200
