data_ENESUN_freeONLY_PM
_symmetry_space_group_name_H-M	'P1'
_cell_length_a	27.090000
_cell_length_b	38.276000
_cell_length_c	19.107000
_cell_angle_alpha	90.000000
_cell_angle_beta	90.000000
_cell_angle_gamma	90.000000
_symmetry_Int_Tables_number 1

loop_
_symmetry_equiv_pos_as_xyz
'x,y,z'

loop_
_atom_site_label
_atom_site_type_symbol
_atom_site_fract_x
_atom_site_fract_y
_atom_site_fract_z
O11	O1	0.407800	0.383080	0.147200
N11	N1	0.446460	0.447080	0.302100
C11	C1	0.314300	0.300660	0.080100
H11	H1	0.286000	0.301200	0.107800
O21	O2	0.665510	0.629220	0.404100
C21	C2	0.353000	0.322500	0.098700
N21	N2	0.444000	0.423730	0.356300
N31	N3	0.411200	0.400210	0.343000
C31	C3	0.356100	0.278580	0.986900
H21	H2	0.357700	0.263500	0.948900
O31	O3	0.743200	0.774000	0.604800
N41	N4	0.391700	0.407960	0.280700
C41	C4	0.396500	0.299640	0.001200
H31	H3	0.424400	0.298600	0.973000
N51	N5	0.346100	0.343170	0.159000
H41	H4	0.321800	0.337500	0.185700
N61	N6	0.314500	0.279110	0.026200
N71	N7	0.558900	0.525190	0.306200
N81	N8	0.600800	0.592580	0.426400
H51	H5	0.578300	0.588100	0.457000
N91	N9	0.650680	0.665940	0.524400
C51	C5	0.395000	0.322000	0.057200
H61	H6	0.421600	0.336500	0.067200
N101	N10	0.664200	0.669210	0.592500
C61	C6	0.373100	0.370580	0.179100
N111	N11	0.696470	0.694560	0.594900
C71	C7	0.354000	0.385570	0.248000
H71	H7	0.324400	0.399100	0.239300
H81	H8	0.345500	0.366600	0.279500
N121	N12	0.703510	0.707900	0.530100
C81	C8	0.413800	0.436630	0.255900
H91	H9	0.407200	0.447300	0.213200
C91	C9	0.593700	0.526720	0.257000
H101	H10	0.590400	0.512600	0.217700
C101	C10	0.634500	0.548100	0.261600
H111	H11	0.658800	0.547200	0.227300
C111	C11	0.639200	0.570800	0.316800
H121	H12	0.665900	0.586000	0.319700
C121	C12	0.564300	0.546870	0.361100
H131	H13	0.540800	0.546100	0.396500
C131	C13	0.603400	0.570510	0.367800
C141	C14	0.630400	0.620070	0.438600
C151	C15	0.613900	0.640680	0.504200
H141	H14	0.583000	0.652600	0.494500
H151	H15	0.608200	0.624500	0.542600
C161	C16	0.674700	0.689910	0.487300
H161	H16	0.671700	0.693400	0.439400
O41	O4	0.092200	0.616920	0.647200
N131	N13	0.053540	0.552920	0.802100
C171	C17	0.185700	0.699340	0.580100
H171	H17	0.214000	0.698800	0.607800
O51	O5	0.834490	0.370780	0.904100
C181	C18	0.147000	0.677500	0.598700
N141	N14	0.056000	0.576270	0.856300
N151	N15	0.088800	0.599790	0.843000
C191	C19	0.143900	0.721420	0.486900
H181	H18	0.142300	0.736500	0.448900
O61	O6	0.756800	0.226000	0.104800
N161	N16	0.108300	0.592040	0.780700
C201	C20	0.103500	0.700360	0.501200
H191	H19	0.075600	0.701400	0.473000
N171	N17	0.153900	0.656830	0.659000
H201	H20	0.178200	0.662500	0.685700
N181	N18	0.185500	0.720890	0.526200
N191	N19	0.941100	0.474810	0.806200
N201	N20	0.899200	0.407420	0.926400
H211	H21	0.921700	0.411900	0.957000
N211	N21	0.849320	0.334060	0.024400
C211	C21	0.105000	0.678000	0.557200
H221	H22	0.078400	0.663500	0.567200
N221	N22	0.835800	0.330790	0.092500
C221	C22	0.126900	0.629420	0.679100
N231	N23	0.803530	0.305440	0.094900
C231	C23	0.146000	0.614430	0.748000
H231	H23	0.175600	0.600900	0.739300
H241	H24	0.154500	0.633400	0.779500
N241	N24	0.796490	0.292100	0.030100
C241	C24	0.086200	0.563370	0.755900
H251	H25	0.092800	0.552700	0.713200
C251	C25	0.906300	0.473280	0.757000
H261	H26	0.909600	0.487400	0.717700
C261	C26	0.865500	0.451900	0.761600
H271	H27	0.841200	0.452800	0.727300
C271	C27	0.860800	0.429200	0.816800
H281	H28	0.834100	0.414000	0.819700
C281	C28	0.935700	0.453130	0.861100
H291	H29	0.959200	0.453900	0.896500
C291	C29	0.896600	0.429490	0.867800
C301	C30	0.869600	0.379930	0.938600
C311	C31	0.886100	0.359320	0.004200
H301	H30	0.917000	0.347400	0.994500
H311	H31	0.891800	0.375500	0.042600
C321	C32	0.825300	0.310090	0.987300
H321	H32	0.828300	0.306600	0.939400
O71	O7	0.592200	0.883080	0.352800
N251	N25	0.553540	0.947080	0.197900
C331	C33	0.685700	0.800660	0.419900
H331	H33	0.714000	0.801200	0.392200
O81	O8	0.334490	0.129220	0.095900
C341	C34	0.647000	0.822500	0.401300
N261	N26	0.556000	0.923730	0.143700
N271	N27	0.588800	0.900210	0.157000
C351	C35	0.643900	0.778580	0.513100
H341	H34	0.642300	0.763500	0.551100
O91	O9	0.256800	0.274000	0.895200
N281	N28	0.608300	0.907960	0.219300
C361	C36	0.603500	0.799640	0.498800
H351	H35	0.575600	0.798600	0.527000
N291	N29	0.653900	0.843170	0.341000
H361	H36	0.678200	0.837500	0.314300
N301	N30	0.685500	0.779110	0.473800
N311	N31	0.441100	0.025190	0.193800
N321	N32	0.399200	0.092580	0.073600
H371	H37	0.421700	0.088100	0.043000
N331	N33	0.349320	0.165940	0.975600
C371	C37	0.605000	0.822000	0.442800
H381	H38	0.578400	0.836500	0.432800
N341	N34	0.335800	0.169210	0.907500
C381	C38	0.626900	0.870580	0.320900
N351	N35	0.303530	0.194560	0.905100
C391	C39	0.646000	0.885570	0.252000
H391	H39	0.675600	0.899100	0.260700
H401	H40	0.654500	0.866600	0.220500
N361	N36	0.296490	0.207900	0.969900
C401	C40	0.586200	0.936630	0.244100
H411	H41	0.592800	0.947300	0.286800
C411	C41	0.406300	0.026720	0.243000
H421	H42	0.409600	0.012600	0.282300
C421	C42	0.365500	0.048100	0.238400
H431	H43	0.341200	0.047200	0.272700
C431	C43	0.360800	0.070800	0.183200
H441	H44	0.334100	0.086000	0.180300
C441	C44	0.435700	0.046870	0.138900
H451	H45	0.459200	0.046100	0.103500
C451	C45	0.396600	0.070510	0.132200
C461	C46	0.369600	0.120070	0.061400
C471	C47	0.386100	0.140680	0.995800
H461	H46	0.417000	0.152600	0.005500
H471	H47	0.391800	0.124500	0.957400
C481	C48	0.325300	0.189910	0.012700
H481	H48	0.328300	0.193400	0.060600
O101	O10	0.907800	0.116920	0.852800
N371	N37	0.946460	0.052920	0.697900
C491	C49	0.814300	0.199340	0.919900
H491	H49	0.786000	0.198800	0.892200
O111	O11	0.165510	0.870780	0.595900
C501	C50	0.853000	0.177500	0.901300
N381	N38	0.944000	0.076270	0.643700
N391	N39	0.911200	0.099790	0.657000
C511	C51	0.856100	0.221420	0.013100
H501	H50	0.857700	0.236500	0.051100
O121	O12	0.243200	0.726000	0.395200
N401	N40	0.891700	0.092040	0.719300
C521	C52	0.896500	0.200360	0.998800
H511	H51	0.924400	0.201400	0.027000
N411	N41	0.846100	0.156830	0.841000
H521	H52	0.821800	0.162500	0.814300
N421	N42	0.814500	0.220890	0.973800
N431	N43	0.058900	0.974810	0.693800
N441	N44	0.100800	0.907420	0.573600
H531	H53	0.078300	0.911900	0.543000
N451	N45	0.150680	0.834060	0.475600
C531	C53	0.895000	0.178000	0.942800
H541	H54	0.921600	0.163500	0.932800
N461	N46	0.164200	0.830790	0.407500
C541	C54	0.873100	0.129420	0.820900
N471	N47	0.196470	0.805440	0.405100
C551	C55	0.854000	0.114430	0.752000
H551	H55	0.824400	0.100900	0.760700
H561	H56	0.845500	0.133400	0.720500
N481	N48	0.203510	0.792100	0.469900
C561	C56	0.913800	0.063370	0.744100
H571	H57	0.907200	0.052700	0.786800
C571	C57	0.093700	0.973280	0.743000
H581	H58	0.090400	0.987400	0.782300
C581	C58	0.134500	0.951900	0.738400
H591	H59	0.158800	0.952800	0.772700
C591	C59	0.139200	0.929200	0.683200
H601	H60	0.165900	0.914000	0.680300
C601	C60	0.064300	0.953130	0.638900
H611	H61	0.040800	0.953900	0.603500
C611	C61	0.103400	0.929490	0.632200
C621	C62	0.130400	0.879930	0.561400
C631	C63	0.113900	0.859320	0.495800
H621	H62	0.083000	0.847400	0.505500
H631	H63	0.108200	0.875500	0.457400
C641	C64	0.174700	0.810090	0.512700
H641	H64	0.171700	0.806600	0.560600
O131	O13	0.092200	0.116920	0.852800
N491	N49	0.053540	0.052920	0.697900
C651	C65	0.185700	0.199340	0.919900
H651	H65	0.214000	0.198800	0.892200
O141	O14	0.834490	0.870780	0.595900
C661	C66	0.147000	0.177500	0.901300
N501	N50	0.056000	0.076270	0.643700
N511	N51	0.088800	0.099790	0.657000
C671	C67	0.143900	0.221420	0.013100
H661	H66	0.142300	0.236500	0.051100
O151	O15	0.756800	0.726000	0.395200
N521	N52	0.108300	0.092040	0.719300
C681	C68	0.103500	0.200360	0.998800
H671	H67	0.075600	0.201400	0.027000
N531	N53	0.153900	0.156830	0.841000
H681	H68	0.178200	0.162500	0.814300
N541	N54	0.185500	0.220890	0.973800
N551	N55	0.941100	0.974810	0.693800
N561	N56	0.899200	0.907420	0.573600
H691	H69	0.921700	0.911900	0.543000
N571	N57	0.849320	0.834060	0.475600
C691	C69	0.105000	0.178000	0.942800
H701	H70	0.078400	0.163500	0.932800
N581	N58	0.835800	0.830790	0.407500
C701	C70	0.126900	0.129420	0.820900
N591	N59	0.803530	0.805440	0.405100
C711	C71	0.146000	0.114430	0.752000
H711	H71	0.175600	0.100900	0.760700
H721	H72	0.154500	0.133400	0.720500
N601	N60	0.796490	0.792100	0.469900
C721	C72	0.086200	0.063370	0.744100
H731	H73	0.092800	0.052700	0.786800
C731	C73	0.906300	0.973280	0.743000
H741	H74	0.909600	0.987400	0.782300
C741	C74	0.865500	0.951900	0.738400
H751	H75	0.841200	0.952800	0.772700
C751	C75	0.860800	0.929200	0.683200
H761	H76	0.834100	0.914000	0.680300
C761	C76	0.935700	0.953130	0.638900
H771	H77	0.959200	0.953900	0.603500
C771	C77	0.896600	0.929490	0.632200
C781	C78	0.869600	0.879930	0.561400
C791	C79	0.886100	0.859320	0.495800
H781	H78	0.917000	0.847400	0.505500
H791	H79	0.891800	0.875500	0.457400
C801	C80	0.825300	0.810090	0.512700
H801	H80	0.828300	0.806600	0.560600
O161	O16	0.407800	0.883080	0.352800
N611	N61	0.446460	0.947080	0.197900
C811	C81	0.314300	0.800660	0.419900
H811	H81	0.286000	0.801200	0.392200
O171	O17	0.665510	0.129220	0.095900
C821	C82	0.353000	0.822500	0.401300
N621	N62	0.444000	0.923730	0.143700
N631	N63	0.411200	0.900210	0.157000
C831	C83	0.356100	0.778580	0.513100
H821	H82	0.357700	0.763500	0.551100
O181	O18	0.743200	0.274000	0.895200
N641	N64	0.391700	0.907960	0.219300
C841	C84	0.396500	0.799640	0.498800
H831	H83	0.424400	0.798600	0.527000
N651	N65	0.346100	0.843170	0.341000
H841	H84	0.321800	0.837500	0.314300
N661	N66	0.314500	0.779110	0.473800
N671	N67	0.558900	0.025190	0.193800
N681	N68	0.600800	0.092580	0.073600
H851	H85	0.578300	0.088100	0.043000
N691	N69	0.650680	0.165940	0.975600
C851	C85	0.395000	0.822000	0.442800
H861	H86	0.421600	0.836500	0.432800
N701	N70	0.664200	0.169210	0.907500
C861	C86	0.373100	0.870580	0.320900
N711	N71	0.696470	0.194560	0.905100
C871	C87	0.354000	0.885570	0.252000
H871	H87	0.324400	0.899100	0.260700
H881	H88	0.345500	0.866600	0.220500
N721	N72	0.703510	0.207900	0.969900
C881	C88	0.413800	0.936630	0.244100
H891	H89	0.407200	0.947300	0.286800
C891	C89	0.593700	0.026720	0.243000
H901	H90	0.590400	0.012600	0.282300
C901	C90	0.634500	0.048100	0.238400
H911	H91	0.658800	0.047200	0.272700
C911	C91	0.639200	0.070800	0.183200
H921	H92	0.665900	0.086000	0.180300
C921	C92	0.564300	0.046870	0.138900
H931	H93	0.540800	0.046100	0.103500
C931	C93	0.603400	0.070510	0.132200
C941	C94	0.630400	0.120070	0.061400
C951	C95	0.613900	0.140680	0.995800
H941	H94	0.583000	0.152600	0.005500
H951	H95	0.608200	0.124500	0.957400
C961	C96	0.674700	0.189910	0.012700
H961	H96	0.671700	0.193400	0.060600
O191	O19	0.907800	0.616920	0.647200
N731	N73	0.946460	0.552920	0.802100
C971	C97	0.814300	0.699340	0.580100
H971	H97	0.786000	0.698800	0.607800
O201	O20	0.165510	0.370780	0.904100
C981	C98	0.853000	0.677500	0.598700
N741	N74	0.944000	0.576270	0.856300
N751	N75	0.911200	0.599790	0.843000
C991	C99	0.856100	0.721420	0.486900
H981	H98	0.857700	0.736500	0.448900
O211	O21	0.243200	0.226000	0.104800
N761	N76	0.891700	0.592040	0.780700
C1001	C100	0.896500	0.700360	0.501200
H991	H99	0.924400	0.701400	0.473000
N771	N77	0.846100	0.656830	0.659000
H1001	H100	0.821800	0.662500	0.685700
N781	N78	0.814500	0.720890	0.526200
N791	N79	0.058900	0.474810	0.806200
N801	N80	0.100800	0.407420	0.926400
H1011	H101	0.078300	0.411900	0.957000
N811	N81	0.150680	0.334060	0.024400
C1011	C101	0.895000	0.678000	0.557200
H1021	H102	0.921600	0.663500	0.567200
N821	N82	0.164200	0.330790	0.092500
C1021	C102	0.873100	0.629420	0.679100
N831	N83	0.196470	0.305440	0.094900
C1031	C103	0.854000	0.614430	0.748000
H1031	H103	0.824400	0.600900	0.739300
H1041	H104	0.845500	0.633400	0.779500
N841	N84	0.203510	0.292100	0.030100
C1041	C104	0.913800	0.563370	0.755900
H1051	H105	0.907200	0.552700	0.713200
C1051	C105	0.093700	0.473280	0.757000
H1061	H106	0.090400	0.487400	0.717700
C1061	C106	0.134500	0.451900	0.761600
H1071	H107	0.158800	0.452800	0.727300
C1071	C107	0.139200	0.429200	0.816800
H1081	H108	0.165900	0.414000	0.819700
C1081	C108	0.064300	0.453130	0.861100
H1091	H109	0.040800	0.453900	0.896500
C1091	C109	0.103400	0.429490	0.867800
C1101	C110	0.130400	0.379930	0.938600
C1111	C111	0.113900	0.359320	0.004200
H1101	H110	0.083000	0.347400	0.994500
H1111	H111	0.108200	0.375500	0.042600
C1121	C112	0.174700	0.310090	0.987300
H1121	H112	0.171700	0.306600	0.939400
O221	O22	0.592200	0.383080	0.147200
N851	N85	0.553540	0.447080	0.302100
C1131	C113	0.685700	0.300660	0.080100
H1131	H113	0.714000	0.301200	0.107800
O231	O23	0.334490	0.629220	0.404100
C1141	C114	0.647000	0.322500	0.098700
N861	N86	0.556000	0.423730	0.356300
N871	N87	0.588800	0.400210	0.343000
C1151	C115	0.643900	0.278580	0.986900
H1141	H114	0.642300	0.263500	0.948900
O241	O24	0.256800	0.774000	0.604800
N881	N88	0.608300	0.407960	0.280700
C1161	C116	0.603500	0.299640	0.001200
H1151	H115	0.575600	0.298600	0.973000
N891	N89	0.653900	0.343170	0.159000
H1161	H116	0.678200	0.337500	0.185700
N901	N90	0.685500	0.279110	0.026200
N911	N91	0.441100	0.525190	0.306200
N921	N92	0.399200	0.592580	0.426400
H1171	H117	0.421700	0.588100	0.457000
N931	N93	0.349320	0.665940	0.524400
C1171	C117	0.605000	0.322000	0.057200
H1181	H118	0.578400	0.336500	0.067200
N941	N94	0.335800	0.669210	0.592500
C1181	C118	0.626900	0.370580	0.179100
N951	N95	0.303530	0.694560	0.594900
C1191	C119	0.646000	0.385570	0.248000
H1191	H119	0.675600	0.399100	0.239300
H1201	H120	0.654500	0.366600	0.279500
N961	N96	0.296490	0.707900	0.530100
C1201	C120	0.586200	0.436630	0.255900
H1211	H121	0.592800	0.447300	0.213200
C1211	C121	0.406300	0.526720	0.257000
H1221	H122	0.409600	0.512600	0.217700
C1221	C122	0.365500	0.548100	0.261600
H1231	H123	0.341200	0.547200	0.227300
C1231	C123	0.360800	0.570800	0.316800
H1241	H124	0.334100	0.586000	0.319700
C1241	C124	0.435700	0.546870	0.361100
H1251	H125	0.459200	0.546100	0.396500
C1251	C125	0.396600	0.570510	0.367800
C1261	C126	0.369600	0.620070	0.438600
C1271	C127	0.386100	0.640680	0.504200
H1261	H126	0.417000	0.652600	0.494500
H1271	H127	0.391800	0.624500	0.542600
C1281	C128	0.325300	0.689910	0.487300
H1281	H128	0.328300	0.693400	0.439400
Co11	Co1	0.500000	0.487890	0.302380
O251	O25	0.500000	0.485200	0.190800
O261	O26	0.500000	0.486360	0.415500
Co21	Co2	0.000000	0.512110	0.802380
O271	O27	0.000000	0.514800	0.690800
O281	O28	0.000000	0.513640	0.915500
Co31	Co3	0.500000	0.987890	0.197620
O291	O29	0.500000	0.985200	0.309200
O301	O30	0.500000	0.986360	0.084500
Co41	Co4	0.000000	0.012110	0.697620
O311	O31	0.000000	0.014800	0.809200
O321	O32	0.000000	0.013640	0.584500
Co51	Co5	0.750000	0.750000	0.500000
Co61	Co6	0.250000	0.250000	0.000000
Co71	Co7	0.750000	0.250000	0.000000
Co81	Co8	0.250000	0.750000	0.500000
O331	O33	0.907800	0.883080	0.147200
N971	N97	0.946460	0.947080	0.302100
C1291	C129	0.814300	0.800660	0.080100
H1291	H129	0.786000	0.801200	0.107800
O341	O34	0.165510	0.129220	0.404100
C1301	C130	0.853000	0.822500	0.098700
N981	N98	0.944000	0.923730	0.356300
N991	N99	0.911200	0.900210	0.343000
C1311	C131	0.856100	0.778580	0.986900
H1301	H130	0.857700	0.763500	0.948900
O351	O35	0.243200	0.274000	0.604800
N1001	N100	0.891700	0.907960	0.280700
C1321	C132	0.896500	0.799640	0.001200
H1311	H131	0.924400	0.798600	0.973000
N1011	N101	0.846100	0.843170	0.159000
H1321	H132	0.821800	0.837500	0.185700
N1021	N102	0.814500	0.779110	0.026200
N1031	N103	0.058900	0.025190	0.306200
N1041	N104	0.100800	0.092580	0.426400
H1331	H133	0.078300	0.088100	0.457000
N1051	N105	0.150680	0.165940	0.524400
C1331	C133	0.895000	0.822000	0.057200
H1341	H134	0.921600	0.836500	0.067200
N1061	N106	0.164200	0.169210	0.592500
C1341	C134	0.873100	0.870580	0.179100
N1071	N107	0.196470	0.194560	0.594900
C1351	C135	0.854000	0.885570	0.248000
H1351	H135	0.824400	0.899100	0.239300
H1361	H136	0.845500	0.866600	0.279500
N1081	N108	0.203510	0.207900	0.530100
C1361	C136	0.913800	0.936630	0.255900
H1371	H137	0.907200	0.947300	0.213200
C1371	C137	0.093700	0.026720	0.257000
H1381	H138	0.090400	0.012600	0.217700
C1381	C138	0.134500	0.048100	0.261600
H1391	H139	0.158800	0.047200	0.227300
C1391	C139	0.139200	0.070800	0.316800
H1401	H140	0.165900	0.086000	0.319700
C1401	C140	0.064300	0.046870	0.361100
H1411	H141	0.040800	0.046100	0.396500
C1411	C141	0.103400	0.070510	0.367800
C1421	C142	0.130400	0.120070	0.438600
C1431	C143	0.113900	0.140680	0.504200
H1421	H142	0.083000	0.152600	0.494500
H1431	H143	0.108200	0.124500	0.542600
C1441	C144	0.174700	0.189910	0.487300
H1441	H144	0.171700	0.193400	0.439400
O361	O36	0.592200	0.116920	0.647200
N1091	N109	0.553540	0.052920	0.802100
C1451	C145	0.685700	0.199340	0.580100
H1451	H145	0.714000	0.198800	0.607800
O371	O37	0.334490	0.870780	0.904100
C1461	C146	0.647000	0.177500	0.598700
N1101	N110	0.556000	0.076270	0.856300
N1111	N111	0.588800	0.099790	0.843000
C1471	C147	0.643900	0.221420	0.486900
H1461	H146	0.642300	0.236500	0.448900
O381	O38	0.256800	0.726000	0.104800
N1121	N112	0.608300	0.092040	0.780700
C1481	C148	0.603500	0.200360	0.501200
H1471	H147	0.575600	0.201400	0.473000
N1131	N113	0.653900	0.156830	0.659000
H1481	H148	0.678200	0.162500	0.685700
N1141	N114	0.685500	0.220890	0.526200
N1151	N115	0.441100	0.974810	0.806200
N1161	N116	0.399200	0.907420	0.926400
H1491	H149	0.421700	0.911900	0.957000
N1171	N117	0.349320	0.834060	0.024400
C1491	C149	0.605000	0.178000	0.557200
H1501	H150	0.578400	0.163500	0.567200
N1181	N118	0.335800	0.830790	0.092500
C1501	C150	0.626900	0.129420	0.679100
N1191	N119	0.303530	0.805440	0.094900
C1511	C151	0.646000	0.114430	0.748000
H1511	H151	0.675600	0.100900	0.739300
H1521	H152	0.654500	0.133400	0.779500
N1201	N120	0.296490	0.792100	0.030100
C1521	C152	0.586200	0.063370	0.755900
H1531	H153	0.592800	0.052700	0.713200
C1531	C153	0.406300	0.973280	0.757000
H1541	H154	0.409600	0.987400	0.717700
C1541	C154	0.365500	0.951900	0.761600
H1551	H155	0.341200	0.952800	0.727300
C1551	C155	0.360800	0.929200	0.816800
H1561	H156	0.334100	0.914000	0.819700
C1561	C156	0.435700	0.953130	0.861100
H1571	H157	0.459200	0.953900	0.896500
C1571	C157	0.396600	0.929490	0.867800
C1581	C158	0.369600	0.879930	0.938600
C1591	C159	0.386100	0.859320	0.004200
H1581	H158	0.417000	0.847400	0.994500
H1591	H159	0.391800	0.875500	0.042600
C1601	C160	0.325300	0.810090	0.987300
H1601	H160	0.328300	0.806600	0.939400
O391	O39	0.092200	0.383080	0.352800
N1211	N121	0.053540	0.447080	0.197900
C1611	C161	0.185700	0.300660	0.419900
H1611	H161	0.214000	0.301200	0.392200
O401	O40	0.834490	0.629220	0.095900
C1621	C162	0.147000	0.322500	0.401300
N1221	N122	0.056000	0.423730	0.143700
N1231	N123	0.088800	0.400210	0.157000
C1631	C163	0.143900	0.278580	0.513100
H1621	H162	0.142300	0.263500	0.551100
O411	O41	0.756800	0.774000	0.895200
N1241	N124	0.108300	0.407960	0.219300
C1641	C164	0.103500	0.299640	0.498800
H1631	H163	0.075600	0.298600	0.527000
N1251	N125	0.153900	0.343170	0.341000
H1641	H164	0.178200	0.337500	0.314300
N1261	N126	0.185500	0.279110	0.473800
N1271	N127	0.941100	0.525190	0.193800
N1281	N128	0.899200	0.592580	0.073600
H1651	H165	0.921700	0.588100	0.043000
N1291	N129	0.849320	0.665940	0.975600
C1651	C165	0.105000	0.322000	0.442800
H1661	H166	0.078400	0.336500	0.432800
N1301	N130	0.835800	0.669210	0.907500
C1661	C166	0.126900	0.370580	0.320900
N1311	N131	0.803530	0.694560	0.905100
C1671	C167	0.146000	0.385570	0.252000
H1671	H167	0.175600	0.399100	0.260700
H1681	H168	0.154500	0.366600	0.220500
N1321	N132	0.796490	0.707900	0.969900
C1681	C168	0.086200	0.436630	0.244100
H1691	H169	0.092800	0.447300	0.286800
C1691	C169	0.906300	0.526720	0.243000
H1701	H170	0.909600	0.512600	0.282300
C1701	C170	0.865500	0.548100	0.238400
H1711	H171	0.841200	0.547200	0.272700
C1711	C171	0.860800	0.570800	0.183200
H1721	H172	0.834100	0.586000	0.180300
C1721	C172	0.935700	0.546870	0.138900
H1731	H173	0.959200	0.546100	0.103500
C1731	C173	0.896600	0.570510	0.132200
C1741	C174	0.869600	0.620070	0.061400
C1751	C175	0.886100	0.640680	0.995800
H1741	H174	0.917000	0.652600	0.005500
H1751	H175	0.891800	0.624500	0.957400
C1761	C176	0.825300	0.689910	0.012700
H1761	H176	0.828300	0.693400	0.060600
O421	O42	0.407800	0.616920	0.852800
N1331	N133	0.446460	0.552920	0.697900
C1771	C177	0.314300	0.699340	0.919900
H1771	H177	0.286000	0.698800	0.892200
O431	O43	0.665510	0.370780	0.595900
C1781	C178	0.353000	0.677500	0.901300
N1341	N134	0.444000	0.576270	0.643700
N1351	N135	0.411200	0.599790	0.657000
C1791	C179	0.356100	0.721420	0.013100
H1781	H178	0.357700	0.736500	0.051100
O441	O44	0.743200	0.226000	0.395200
N1361	N136	0.391700	0.592040	0.719300
C1801	C180	0.396500	0.700360	0.998800
H1791	H179	0.424400	0.701400	0.027000
N1371	N137	0.346100	0.656830	0.841000
H1801	H180	0.321800	0.662500	0.814300
N1381	N138	0.314500	0.720890	0.973800
N1391	N139	0.558900	0.474810	0.693800
N1401	N140	0.600800	0.407420	0.573600
H1811	H181	0.578300	0.411900	0.543000
N1411	N141	0.650680	0.334060	0.475600
C1811	C181	0.395000	0.678000	0.942800
H1821	H182	0.421600	0.663500	0.932800
N1421	N142	0.664200	0.330790	0.407500
C1821	C182	0.373100	0.629420	0.820900
N1431	N143	0.696470	0.305440	0.405100
C1831	C183	0.354000	0.614430	0.752000
H1831	H183	0.324400	0.600900	0.760700
H1841	H184	0.345500	0.633400	0.720500
N1441	N144	0.703510	0.292100	0.469900
C1841	C184	0.413800	0.563370	0.744100
H1851	H185	0.407200	0.552700	0.786800
C1851	C185	0.593700	0.473280	0.743000
H1861	H186	0.590400	0.487400	0.782300
C1861	C186	0.634500	0.451900	0.738400
H1871	H187	0.658800	0.452800	0.772700
C1871	C187	0.639200	0.429200	0.683200
H1881	H188	0.665900	0.414000	0.680300
C1881	C188	0.564300	0.453130	0.638900
H1891	H189	0.540800	0.453900	0.603500
C1891	C189	0.603400	0.429490	0.632200
C1901	C190	0.630400	0.379930	0.561400
C1911	C191	0.613900	0.359320	0.495800
H1901	H190	0.583000	0.347400	0.505500
H1911	H191	0.608200	0.375500	0.457400
C1921	C192	0.674700	0.310090	0.512700
H1921	H192	0.671700	0.306600	0.560600
O451	O45	0.592200	0.616920	0.852800
N1451	N145	0.553540	0.552920	0.697900
C1931	C193	0.685700	0.699340	0.919900
H1931	H193	0.714000	0.698800	0.892200
O461	O46	0.334490	0.370780	0.595900
C1941	C194	0.647000	0.677500	0.901300
N1461	N146	0.556000	0.576270	0.643700
N1471	N147	0.588800	0.599790	0.657000
C1951	C195	0.643900	0.721420	0.013100
H1941	H194	0.642300	0.736500	0.051100
O471	O47	0.256800	0.226000	0.395200
N1481	N148	0.608300	0.592040	0.719300
C1961	C196	0.603500	0.700360	0.998800
H1951	H195	0.575600	0.701400	0.027000
N1491	N149	0.653900	0.656830	0.841000
H1961	H196	0.678200	0.662500	0.814300
N1501	N150	0.685500	0.720890	0.973800
N1511	N151	0.441100	0.474810	0.693800
N1521	N152	0.399200	0.407420	0.573600
H1971	H197	0.421700	0.411900	0.543000
N1531	N153	0.349320	0.334060	0.475600
C1971	C197	0.605000	0.678000	0.942800
H1981	H198	0.578400	0.663500	0.932800
N1541	N154	0.335800	0.330790	0.407500
C1981	C198	0.626900	0.629420	0.820900
N1551	N155	0.303530	0.305440	0.405100
C1991	C199	0.646000	0.614430	0.752000
H1991	H199	0.675600	0.600900	0.760700
H2001	H200	0.654500	0.633400	0.720500
N1561	N156	0.296490	0.292100	0.469900
C2001	C200	0.586200	0.563370	0.744100
H2011	H201	0.592800	0.552700	0.786800
C2011	C201	0.406300	0.473280	0.743000
H2021	H202	0.409600	0.487400	0.782300
C2021	C202	0.365500	0.451900	0.738400
H2031	H203	0.341200	0.452800	0.772700
C2031	C203	0.360800	0.429200	0.683200
H2041	H204	0.334100	0.414000	0.680300
C2041	C204	0.435700	0.453130	0.638900
H2051	H205	0.459200	0.453900	0.603500
C2051	C205	0.396600	0.429490	0.632200
C2061	C206	0.369600	0.379930	0.561400
C2071	C207	0.386100	0.359320	0.495800
H2061	H206	0.417000	0.347400	0.505500
H2071	H207	0.391800	0.375500	0.457400
C2081	C208	0.325300	0.310090	0.512700
H2081	H208	0.328300	0.306600	0.560600
O481	O48	0.907800	0.383080	0.352800
N1571	N157	0.946460	0.447080	0.197900
C2091	C209	0.814300	0.300660	0.419900
H2091	H209	0.786000	0.301200	0.392200
O491	O49	0.165510	0.629220	0.095900
C2101	C210	0.853000	0.322500	0.401300
N1581	N158	0.944000	0.423730	0.143700
N1591	N159	0.911200	0.400210	0.157000
C2111	C211	0.856100	0.278580	0.513100
H2101	H210	0.857700	0.263500	0.551100
O501	O50	0.243200	0.774000	0.895200
N1601	N160	0.891700	0.407960	0.219300
C2121	C212	0.896500	0.299640	0.498800
H2111	H211	0.924400	0.298600	0.527000
N1611	N161	0.846100	0.343170	0.341000
H2121	H212	0.821800	0.337500	0.314300
N1621	N162	0.814500	0.279110	0.473800
N1631	N163	0.058900	0.525190	0.193800
N1641	N164	0.100800	0.592580	0.073600
H2131	H213	0.078300	0.588100	0.043000
N1651	N165	0.150680	0.665940	0.975600
C2131	C213	0.895000	0.322000	0.442800
H2141	H214	0.921600	0.336500	0.432800
N1661	N166	0.164200	0.669210	0.907500
C2141	C214	0.873100	0.370580	0.320900
N1671	N167	0.196470	0.694560	0.905100
C2151	C215	0.854000	0.385570	0.252000
H2151	H215	0.824400	0.399100	0.260700
H2161	H216	0.845500	0.366600	0.220500
N1681	N168	0.203510	0.707900	0.969900
C2161	C216	0.913800	0.436630	0.244100
H2171	H217	0.907200	0.447300	0.286800
C2171	C217	0.093700	0.526720	0.243000
H2181	H218	0.090400	0.512600	0.282300
C2181	C218	0.134500	0.548100	0.238400
H2191	H219	0.158800	0.547200	0.272700
C2191	C219	0.139200	0.570800	0.183200
H2201	H220	0.165900	0.586000	0.180300
C2201	C220	0.064300	0.546870	0.138900
H2211	H221	0.040800	0.546100	0.103500
C2211	C221	0.103400	0.570510	0.132200
C2221	C222	0.130400	0.620070	0.061400
C2231	C223	0.113900	0.640680	0.995800
H2221	H222	0.083000	0.652600	0.005500
H2231	H223	0.108200	0.624500	0.957400
C2241	C224	0.174700	0.689910	0.012700
H2241	H224	0.171700	0.693400	0.060600
O511	O51	0.407800	0.116920	0.647200
N1691	N169	0.446460	0.052920	0.802100
C2251	C225	0.314300	0.199340	0.580100
H2251	H225	0.286000	0.198800	0.607800
O521	O52	0.665510	0.870780	0.904100
C2261	C226	0.353000	0.177500	0.598700
N1701	N170	0.444000	0.076270	0.856300
N1711	N171	0.411200	0.099790	0.843000
C2271	C227	0.356100	0.221420	0.486900
H2261	H226	0.357700	0.236500	0.448900
O531	O53	0.743200	0.726000	0.104800
N1721	N172	0.391700	0.092040	0.780700
C2281	C228	0.396500	0.200360	0.501200
H2271	H227	0.424400	0.201400	0.473000
N1731	N173	0.346100	0.156830	0.659000
H2281	H228	0.321800	0.162500	0.685700
N1741	N174	0.314500	0.220890	0.526200
N1751	N175	0.558900	0.974810	0.806200
N1761	N176	0.600800	0.907420	0.926400
H2291	H229	0.578300	0.911900	0.957000
N1771	N177	0.650680	0.834060	0.024400
C2291	C229	0.395000	0.178000	0.557200
H2301	H230	0.421600	0.163500	0.567200
N1781	N178	0.664200	0.830790	0.092500
C2301	C230	0.373100	0.129420	0.679100
N1791	N179	0.696470	0.805440	0.094900
C2311	C231	0.354000	0.114430	0.748000
H2311	H231	0.324400	0.100900	0.739300
H2321	H232	0.345500	0.133400	0.779500
N1801	N180	0.703510	0.792100	0.030100
C2321	C232	0.413800	0.063370	0.755900
H2331	H233	0.407200	0.052700	0.713200
C2331	C233	0.593700	0.973280	0.757000
H2341	H234	0.590400	0.987400	0.717700
C2341	C234	0.634500	0.951900	0.761600
H2351	H235	0.658800	0.952800	0.727300
C2351	C235	0.639200	0.929200	0.816800
H2361	H236	0.665900	0.914000	0.819700
C2361	C236	0.564300	0.953130	0.861100
H2371	H237	0.540800	0.953900	0.896500
C2371	C237	0.603400	0.929490	0.867800
C2381	C238	0.630400	0.879930	0.938600
C2391	C239	0.613900	0.859320	0.004200
H2381	H238	0.583000	0.847400	0.994500
H2391	H239	0.608200	0.875500	0.042600
C2401	C240	0.674700	0.810090	0.987300
H2401	H240	0.671700	0.806600	0.939400
O541	O54	0.092200	0.883080	0.147200
N1811	N181	0.053540	0.947080	0.302100
C2411	C241	0.185700	0.800660	0.080100
H2411	H241	0.214000	0.801200	0.107800
O551	O55	0.834490	0.129220	0.404100
C2421	C242	0.147000	0.822500	0.098700
N1821	N182	0.056000	0.923730	0.356300
N1831	N183	0.088800	0.900210	0.343000
C2431	C243	0.143900	0.778580	0.986900
H2421	H242	0.142300	0.763500	0.948900
O561	O56	0.756800	0.274000	0.604800
N1841	N184	0.108300	0.907960	0.280700
C2441	C244	0.103500	0.799640	0.001200
H2431	H243	0.075600	0.798600	0.973000
N1851	N185	0.153900	0.843170	0.159000
H2441	H244	0.178200	0.837500	0.185700
N1861	N186	0.185500	0.779110	0.026200
N1871	N187	0.941100	0.025190	0.306200
N1881	N188	0.899200	0.092580	0.426400
H2451	H245	0.921700	0.088100	0.457000
N1891	N189	0.849320	0.165940	0.524400
C2451	C245	0.105000	0.822000	0.057200
H2461	H246	0.078400	0.836500	0.067200
N1901	N190	0.835800	0.169210	0.592500
C2461	C246	0.126900	0.870580	0.179100
N1911	N191	0.803530	0.194560	0.594900
C2471	C247	0.146000	0.885570	0.248000
H2471	H247	0.175600	0.899100	0.239300
H2481	H248	0.154500	0.866600	0.279500
N1921	N192	0.796490	0.207900	0.530100
C2481	C248	0.086200	0.936630	0.255900
H2491	H249	0.092800	0.947300	0.213200
C2491	C249	0.906300	0.026720	0.257000
H2501	H250	0.909600	0.012600	0.217700
C2501	C250	0.865500	0.048100	0.261600
H2511	H251	0.841200	0.047200	0.227300
C2511	C251	0.860800	0.070800	0.316800
H2521	H252	0.834100	0.086000	0.319700
C2521	C252	0.935700	0.046870	0.361100
H2531	H253	0.959200	0.046100	0.396500
C2531	C253	0.896600	0.070510	0.367800
C2541	C254	0.869600	0.120070	0.438600
C2551	C255	0.886100	0.140680	0.504200
H2541	H254	0.917000	0.152600	0.494500
H2551	H255	0.891800	0.124500	0.542600
C2561	C256	0.825300	0.189910	0.487300
H2561	H256	0.828300	0.193400	0.439400
Co91	Co9	0.000000	0.987890	0.302380
O571	O57	0.000000	0.985200	0.190800
O581	O58	0.000000	0.986360	0.415500
Co101	Co10	0.500000	0.012110	0.802380
O591	O59	0.500000	0.014800	0.690800
O601	O60	0.500000	0.013640	0.915500
Co111	Co11	0.000000	0.487890	0.197620
O611	O61	0.000000	0.485200	0.309200
O621	O62	0.000000	0.486360	0.084500
Co121	Co12	0.500000	0.512110	0.697620
O631	O63	0.500000	0.514800	0.809200
O641	O64	0.500000	0.513640	0.584500
Co131	Co13	0.250000	0.750000	0.000000
Co141	Co14	0.750000	0.250000	0.500000
Co151	Co15	0.250000	0.250000	0.500000
Co161	Co16	0.750000	0.750000	0.000000
