data_ENIHUG01_freeONLY_PM
_symmetry_space_group_name_H-M	'P1'
_cell_length_a	26.221000
_cell_length_b	26.221000
_cell_length_c	26.020000
_cell_angle_alpha	90.000000
_cell_angle_beta	90.000000
_cell_angle_gamma	120.000000
_symmetry_Int_Tables_number 1

loop_
_symmetry_equiv_pos_as_xyz
'x,y,z'

loop_
_atom_site_label
_atom_site_type_symbol
_atom_site_fract_x
_atom_site_fract_y
_atom_site_fract_z
O11	O1	0.251030	0.854520	0.157410
O21	O2	0.225090	0.878400	0.230630
O31	O3	0.506970	0.117960	0.945900
O41	O4	0.534440	0.171160	0.871160
C11	C1	0.247600	0.890400	0.187800
C21	C2	0.265640	0.950400	0.163600
C31	C3	0.284800	0.962600	0.115800
H11	H1	0.285900	0.933300	0.095100
C41	C4	0.302600	0.015400	0.096600
H21	H2	0.315000	0.022600	0.061700
C51	C5	0.303900	0.060600	0.124400
C61	C6	0.282800	0.048300	0.171500
H31	H3	0.280900	0.077600	0.191500
C71	C7	0.263100	0.992100	0.192200
H41	H4	0.248100	0.983400	0.226300
C81	C8	0.326600	0.118300	0.102600
C91	C9	0.372800	0.139060	0.064700
H51	H5	0.387900	0.114500	0.054000
C101	C10	0.455600	0.182800	0.981600
H61	H6	0.443900	0.145300	0.996100
C111	C11	0.493300	0.202060	0.938100
C121	C12	0.512600	0.161700	0.916600
O51	O5	0.917700	0.187850	0.490740
O61	O6	0.891760	0.211730	0.563960
O71	O7	0.173640	0.451290	0.279230
O81	O8	0.201110	0.504490	0.204490
C131	C13	0.914270	0.223730	0.521130
C141	C14	0.932310	0.283730	0.496930
C151	C15	0.951470	0.295930	0.449130
H71	H7	0.952570	0.266630	0.428430
C161	C16	0.969270	0.348730	0.429930
H81	H8	0.981670	0.355930	0.395030
C171	C17	0.970570	0.393930	0.457730
C181	C18	0.949470	0.381630	0.504830
H91	H9	0.947570	0.410930	0.524830
C191	C19	0.929770	0.325430	0.525530
H101	H10	0.914770	0.316730	0.559630
C201	C20	0.993270	0.451630	0.435930
C211	C21	0.039470	0.472390	0.398030
H111	H11	0.054570	0.447830	0.387330
C221	C22	0.122270	0.516130	0.314930
H121	H12	0.110570	0.478630	0.329430
C231	C23	0.159970	0.535390	0.271430
C241	C24	0.179270	0.495030	0.249930
O91	O9	0.584360	0.521190	0.824080
O101	O10	0.558420	0.545070	0.897300
O111	O11	0.840300	0.784630	0.612570
O121	O12	0.867770	0.837830	0.537830
C251	C25	0.580930	0.557070	0.854470
C261	C26	0.598970	0.617070	0.830270
C271	C27	0.618130	0.629270	0.782470
H131	H13	0.619230	0.599970	0.761770
C281	C28	0.635930	0.682070	0.763270
H141	H14	0.648330	0.689270	0.728370
C291	C29	0.637230	0.727270	0.791070
C301	C30	0.616130	0.714970	0.838170
H151	H15	0.614230	0.744270	0.858170
C311	C31	0.596430	0.658770	0.858870
H161	H16	0.581430	0.650070	0.892970
C321	C32	0.659930	0.784970	0.769270
C331	C33	0.706130	0.805730	0.731370
H171	H17	0.721230	0.781170	0.720670
C341	C34	0.788930	0.849470	0.648270
H181	H18	0.777230	0.811970	0.662770
C351	C35	0.826630	0.868730	0.604770
C361	C36	0.845930	0.828370	0.583270
O131	O13	0.145480	0.396510	0.157410
O141	O14	0.121600	0.346690	0.230630
O151	O15	0.882040	0.389010	0.945900
O161	O16	0.828840	0.363280	0.871160
C371	C37	0.109600	0.357200	0.187800
C381	C38	0.049600	0.315240	0.163600
C391	C39	0.037400	0.322200	0.115800
H191	H19	0.066700	0.352600	0.095100
C401	C40	0.984600	0.287200	0.096600
H201	H20	0.977400	0.292400	0.061700
C411	C41	0.939400	0.243300	0.124400
C421	C42	0.951700	0.234500	0.171500
H211	H21	0.922400	0.203300	0.191500
C431	C43	0.007900	0.271000	0.192200
H221	H22	0.016600	0.264700	0.226300
C441	C44	0.881700	0.208300	0.102600
C451	C45	0.860940	0.233740	0.064700
H231	H23	0.885500	0.273400	0.054000
C461	C46	0.817200	0.272800	0.981600
H241	H24	0.854700	0.298600	0.996100
C471	C47	0.797940	0.291240	0.938100
C481	C48	0.838300	0.350900	0.916600
O171	O17	0.812150	0.729840	0.490740
O181	O18	0.788270	0.680020	0.563960
O191	O19	0.548710	0.722340	0.279230
O201	O20	0.495510	0.696610	0.204490
C491	C49	0.776270	0.690530	0.521130
C501	C50	0.716270	0.648570	0.496930
C511	C51	0.704070	0.655530	0.449130
H251	H25	0.733370	0.685930	0.428430
C521	C52	0.651270	0.620530	0.429930
H261	H26	0.644070	0.625730	0.395030
C531	C53	0.606070	0.576630	0.457730
C541	C54	0.618370	0.567830	0.504830
H271	H27	0.589070	0.536630	0.524830
C551	C55	0.674570	0.604330	0.525530
H281	H28	0.683270	0.598030	0.559630
C561	C56	0.548370	0.541630	0.435930
C571	C57	0.527610	0.567070	0.398030
H291	H29	0.552170	0.606730	0.387330
C581	C58	0.483870	0.606130	0.314930
H301	H30	0.521370	0.631930	0.329430
C591	C59	0.464610	0.624570	0.271430
C601	C60	0.504970	0.684230	0.249930
O211	O21	0.478810	0.063180	0.824080
O221	O22	0.454930	0.013360	0.897300
O231	O23	0.215370	0.055680	0.612570
O241	O24	0.162170	0.029950	0.537830
C611	C61	0.442930	0.023870	0.854470
C621	C62	0.382930	0.981910	0.830270
C631	C63	0.370730	0.988870	0.782470
H311	H31	0.400030	0.019270	0.761770
C641	C64	0.317930	0.953870	0.763270
H321	H32	0.310730	0.959070	0.728370
C651	C65	0.272730	0.909970	0.791070
C661	C66	0.285030	0.901170	0.838170
H331	H33	0.255730	0.869970	0.858170
C671	C67	0.341230	0.937670	0.858870
H341	H34	0.349930	0.931370	0.892970
C681	C68	0.215030	0.874970	0.769270
C691	C69	0.194270	0.900410	0.731370
H351	H35	0.218830	0.940070	0.720670
C701	C70	0.150530	0.939470	0.648270
H361	H36	0.188030	0.965270	0.662770
C711	C71	0.131270	0.957910	0.604770
C721	C72	0.171630	0.017570	0.583270
O251	O25	0.603490	0.748970	0.157410
O261	O26	0.653310	0.774910	0.230630
O271	O27	0.610990	0.493030	0.945900
O281	O28	0.636720	0.465560	0.871160
C731	C73	0.642800	0.752400	0.187800
C741	C74	0.684760	0.734360	0.163600
C751	C75	0.677800	0.715200	0.115800
H371	H37	0.647400	0.714100	0.095100
C761	C76	0.712800	0.697400	0.096600
H381	H38	0.707600	0.685000	0.061700
C771	C77	0.756700	0.696100	0.124400
C781	C78	0.765500	0.717200	0.171500
H391	H39	0.796700	0.719100	0.191500
C791	C79	0.729000	0.736900	0.192200
H401	H40	0.735300	0.751900	0.226300
C801	C80	0.791700	0.673400	0.102600
C811	C81	0.766260	0.627200	0.064700
H411	H41	0.726600	0.612100	0.054000
C821	C82	0.727200	0.544400	0.981600
H421	H42	0.701400	0.556100	0.996100
C831	C83	0.708760	0.506700	0.938100
C841	C84	0.649100	0.487400	0.916600
O291	O29	0.270160	0.082300	0.490740
O301	O30	0.319980	0.108240	0.563960
O311	O31	0.277660	0.826360	0.279230
O321	O32	0.303390	0.798890	0.204490
C851	C85	0.309470	0.085730	0.521130
C861	C86	0.351430	0.067690	0.496930
C871	C87	0.344470	0.048530	0.449130
H431	H43	0.314070	0.047430	0.428430
C881	C88	0.379470	0.030730	0.429930
H441	H44	0.374270	0.018330	0.395030
C891	C89	0.423370	0.029430	0.457730
C901	C90	0.432170	0.050530	0.504830
H451	H45	0.463370	0.052430	0.524830
C911	C91	0.395670	0.070230	0.525530
H461	H46	0.401970	0.085230	0.559630
C921	C92	0.458370	0.006730	0.435930
C931	C93	0.432930	0.960530	0.398030
H471	H47	0.393270	0.945430	0.387330
C941	C94	0.393870	0.877730	0.314930
H481	H48	0.368070	0.889430	0.329430
C951	C95	0.375430	0.840030	0.271430
C961	C96	0.315770	0.820730	0.249930
O331	O33	0.936820	0.415640	0.824080
O341	O34	0.986640	0.441580	0.897300
O351	O35	0.944320	0.159700	0.612570
O361	O36	0.970050	0.132230	0.537830
C971	C97	0.976130	0.419070	0.854470
C981	C98	0.018090	0.401030	0.830270
C991	C99	0.011130	0.381870	0.782470
H491	H49	0.980730	0.380770	0.761770
C1001	C100	0.046130	0.364070	0.763270
H501	H50	0.040930	0.351670	0.728370
C1011	C101	0.090030	0.362770	0.791070
C1021	C102	0.098830	0.383870	0.838170
H511	H51	0.130030	0.385770	0.858170
C1031	C103	0.062330	0.403570	0.858870
H521	H52	0.068630	0.418570	0.892970
C1041	C104	0.125030	0.340070	0.769270
C1051	C105	0.099590	0.293870	0.731370
H531	H53	0.059930	0.278770	0.720670
C1061	C106	0.060530	0.211070	0.648270
H541	H54	0.034730	0.222770	0.662770
C1071	C107	0.042090	0.173370	0.604770
C1081	C108	0.982430	0.154070	0.583270
O371	O37	0.145480	0.748970	0.157410
O381	O38	0.121600	0.774910	0.230630
O391	O39	0.882040	0.493030	0.945900
O401	O40	0.828840	0.465560	0.871160
C1091	C109	0.109600	0.752400	0.187800
C1101	C110	0.049600	0.734360	0.163600
C1111	C111	0.037400	0.715200	0.115800
H551	H55	0.066700	0.714100	0.095100
C1121	C112	0.984600	0.697400	0.096600
H561	H56	0.977400	0.685000	0.061700
C1131	C113	0.939400	0.696100	0.124400
C1141	C114	0.951700	0.717200	0.171500
H571	H57	0.922400	0.719100	0.191500
C1151	C115	0.007900	0.736900	0.192200
H581	H58	0.016600	0.751900	0.226300
C1161	C116	0.881700	0.673400	0.102600
C1171	C117	0.860940	0.627200	0.064700
H591	H59	0.885500	0.612100	0.054000
C1181	C118	0.817200	0.544400	0.981600
H601	H60	0.854700	0.556100	0.996100
C1191	C119	0.797940	0.506700	0.938100
C1201	C120	0.838300	0.487400	0.916600
O411	O41	0.812150	0.082300	0.490740
O421	O42	0.788270	0.108240	0.563960
O431	O43	0.548710	0.826360	0.279230
O441	O44	0.495510	0.798890	0.204490
C1211	C121	0.776270	0.085730	0.521130
C1221	C122	0.716270	0.067690	0.496930
C1231	C123	0.704070	0.048530	0.449130
H611	H61	0.733370	0.047430	0.428430
C1241	C124	0.651270	0.030730	0.429930
H621	H62	0.644070	0.018330	0.395030
C1251	C125	0.606070	0.029430	0.457730
C1261	C126	0.618370	0.050530	0.504830
H631	H63	0.589070	0.052430	0.524830
C1271	C127	0.674570	0.070230	0.525530
H641	H64	0.683270	0.085230	0.559630
C1281	C128	0.548370	0.006730	0.435930
C1291	C129	0.527610	0.960530	0.398030
H651	H65	0.552170	0.945430	0.387330
C1301	C130	0.483870	0.877730	0.314930
H661	H66	0.521370	0.889430	0.329430
C1311	C131	0.464610	0.840030	0.271430
C1321	C132	0.504970	0.820730	0.249930
O451	O45	0.478810	0.415640	0.824080
O461	O46	0.454930	0.441580	0.897300
O471	O47	0.215370	0.159700	0.612570
O481	O48	0.162170	0.132230	0.537830
C1331	C133	0.442930	0.419070	0.854470
C1341	C134	0.382930	0.401030	0.830270
C1351	C135	0.370730	0.381870	0.782470
H671	H67	0.400030	0.380770	0.761770
C1361	C136	0.317930	0.364070	0.763270
H681	H68	0.310730	0.351670	0.728370
C1371	C137	0.272730	0.362770	0.791070
C1381	C138	0.285030	0.383870	0.838170
H691	H69	0.255730	0.385770	0.858170
C1391	C139	0.341230	0.403570	0.858870
H701	H70	0.349930	0.418570	0.892970
C1401	C140	0.215030	0.340070	0.769270
C1411	C141	0.194270	0.293870	0.731370
H711	H71	0.218830	0.278770	0.720670
C1421	C142	0.150530	0.211070	0.648270
H721	H72	0.188030	0.222770	0.662770
C1431	C143	0.131270	0.173370	0.604770
C1441	C144	0.171630	0.154070	0.583270
O491	O49	0.603490	0.854520	0.157410
O501	O50	0.653310	0.878400	0.230630
O511	O51	0.610990	0.117960	0.945900
O521	O52	0.636720	0.171160	0.871160
C1451	C145	0.642800	0.890400	0.187800
C1461	C146	0.684760	0.950400	0.163600
C1471	C147	0.677800	0.962600	0.115800
H731	H73	0.647400	0.933300	0.095100
C1481	C148	0.712800	0.015400	0.096600
H741	H74	0.707600	0.022600	0.061700
C1491	C149	0.756700	0.060600	0.124400
C1501	C150	0.765500	0.048300	0.171500
H751	H75	0.796700	0.077600	0.191500
C1511	C151	0.729000	0.992100	0.192200
H761	H76	0.735300	0.983400	0.226300
C1521	C152	0.791700	0.118300	0.102600
C1531	C153	0.766260	0.139060	0.064700
H771	H77	0.726600	0.114500	0.054000
C1541	C154	0.727200	0.182800	0.981600
H781	H78	0.701400	0.145300	0.996100
C1551	C155	0.708760	0.202060	0.938100
C1561	C156	0.649100	0.161700	0.916600
O531	O53	0.270160	0.187850	0.490740
O541	O54	0.319980	0.211730	0.563960
O551	O55	0.277660	0.451290	0.279230
O561	O56	0.303390	0.504490	0.204490
C1571	C157	0.309470	0.223730	0.521130
C1581	C158	0.351430	0.283730	0.496930
C1591	C159	0.344470	0.295930	0.449130
H791	H79	0.314070	0.266630	0.428430
C1601	C160	0.379470	0.348730	0.429930
H801	H80	0.374270	0.355930	0.395030
C1611	C161	0.423370	0.393930	0.457730
C1621	C162	0.432170	0.381630	0.504830
H811	H81	0.463370	0.410930	0.524830
C1631	C163	0.395670	0.325430	0.525530
H821	H82	0.401970	0.316730	0.559630
C1641	C164	0.458370	0.451630	0.435930
C1651	C165	0.432930	0.472390	0.398030
H831	H83	0.393270	0.447830	0.387330
C1661	C166	0.393870	0.516130	0.314930
H841	H84	0.368070	0.478630	0.329430
C1671	C167	0.375430	0.535390	0.271430
C1681	C168	0.315770	0.495030	0.249930
O571	O57	0.936820	0.521190	0.824080
O581	O58	0.986640	0.545070	0.897300
O591	O59	0.944320	0.784630	0.612570
O601	O60	0.970050	0.837830	0.537830
C1691	C169	0.976130	0.557070	0.854470
C1701	C170	0.018090	0.617070	0.830270
C1711	C171	0.011130	0.629270	0.782470
H851	H85	0.980730	0.599970	0.761770
C1721	C172	0.046130	0.682070	0.763270
H861	H86	0.040930	0.689270	0.728370
C1731	C173	0.090030	0.727270	0.791070
C1741	C174	0.098830	0.714970	0.838170
H871	H87	0.130030	0.744270	0.858170
C1751	C175	0.062330	0.658770	0.858870
H881	H88	0.068630	0.650070	0.892970
C1761	C176	0.125030	0.784970	0.769270
C1771	C177	0.099590	0.805730	0.731370
H891	H89	0.059930	0.781170	0.720670
C1781	C178	0.060530	0.849470	0.648270
H901	H90	0.034730	0.811970	0.662770
C1791	C179	0.042090	0.868730	0.604770
C1801	C180	0.982430	0.828370	0.583270
O611	O61	0.251030	0.396510	0.157410
O621	O62	0.225090	0.346690	0.230630
O631	O63	0.506970	0.389010	0.945900
O641	O64	0.534440	0.363280	0.871160
C1811	C181	0.247600	0.357200	0.187800
C1821	C182	0.265640	0.315240	0.163600
C1831	C183	0.284800	0.322200	0.115800
H911	H91	0.285900	0.352600	0.095100
C1841	C184	0.302600	0.287200	0.096600
H921	H92	0.315000	0.292400	0.061700
C1851	C185	0.303900	0.243300	0.124400
C1861	C186	0.282800	0.234500	0.171500
H931	H93	0.280900	0.203300	0.191500
C1871	C187	0.263100	0.271000	0.192200
H941	H94	0.248100	0.264700	0.226300
C1881	C188	0.326600	0.208300	0.102600
C1891	C189	0.372800	0.233740	0.064700
H951	H95	0.387900	0.273400	0.054000
C1901	C190	0.455600	0.272800	0.981600
H961	H96	0.443900	0.298600	0.996100
C1911	C191	0.493300	0.291240	0.938100
C1921	C192	0.512600	0.350900	0.916600
O651	O65	0.917700	0.729840	0.490740
O661	O66	0.891760	0.680020	0.563960
O671	O67	0.173640	0.722340	0.279230
O681	O68	0.201110	0.696610	0.204490
C1931	C193	0.914270	0.690530	0.521130
C1941	C194	0.932310	0.648570	0.496930
C1951	C195	0.951470	0.655530	0.449130
H971	H97	0.952570	0.685930	0.428430
C1961	C196	0.969270	0.620530	0.429930
H981	H98	0.981670	0.625730	0.395030
C1971	C197	0.970570	0.576630	0.457730
C1981	C198	0.949470	0.567830	0.504830
H991	H99	0.947570	0.536630	0.524830
C1991	C199	0.929770	0.604330	0.525530
H1001	H100	0.914770	0.598030	0.559630
C2001	C200	0.993270	0.541630	0.435930
C2011	C201	0.039470	0.567070	0.398030
H1011	H101	0.054570	0.606730	0.387330
C2021	C202	0.122270	0.606130	0.314930
H1021	H102	0.110570	0.631930	0.329430
C2031	C203	0.159970	0.624570	0.271430
C2041	C204	0.179270	0.684230	0.249930
O691	O69	0.584360	0.063180	0.824080
O701	O70	0.558420	0.013360	0.897300
O711	O71	0.840300	0.055680	0.612570
O721	O72	0.867770	0.029950	0.537830
C2051	C205	0.580930	0.023870	0.854470
C2061	C206	0.598970	0.981910	0.830270
C2071	C207	0.618130	0.988870	0.782470
H1031	H103	0.619230	0.019270	0.761770
C2081	C208	0.635930	0.953870	0.763270
H1041	H104	0.648330	0.959070	0.728370
C2091	C209	0.637230	0.909970	0.791070
C2101	C210	0.616130	0.901170	0.838170
H1051	H105	0.614230	0.869970	0.858170
C2111	C211	0.596430	0.937670	0.858870
H1061	H106	0.581430	0.931370	0.892970
C2121	C212	0.659930	0.874970	0.769270
C2131	C213	0.706130	0.900410	0.731370
H1071	H107	0.721230	0.940070	0.720670
C2141	C214	0.788930	0.939470	0.648270
H1081	H108	0.777230	0.965270	0.662770
C2151	C215	0.826630	0.957910	0.604770
C2161	C216	0.845930	0.017570	0.583270
Cu11	Cu1	0.227500	0.772500	0.173670
Cu21	Cu2	0.197870	0.802130	0.262030
O731	O73	0.246300	0.753700	0.099270
O741	O74	0.176930	0.823070	0.334660
Cu31	Cu3	0.894170	0.105830	0.507000
Cu41	Cu4	0.864540	0.135460	0.595360
O751	O75	0.912970	0.087030	0.432600
O761	O76	0.843600	0.156400	0.667990
Cu51	Cu5	0.560840	0.439160	0.840340
Cu61	Cu6	0.531210	0.468790	0.928700
O771	O77	0.579630	0.420370	0.765940
O781	O78	0.510260	0.489740	0.001330
Cu71	Cu7	0.227500	0.455010	0.173670
Cu81	Cu8	0.197870	0.395750	0.262030
O791	O79	0.246300	0.492600	0.099270
O801	O80	0.176930	0.353860	0.334660
Cu91	Cu9	0.894170	0.788340	0.507000
Cu101	Cu10	0.864540	0.729080	0.595360
O811	O81	0.912970	0.825930	0.432600
O821	O82	0.843600	0.687190	0.667990
Cu111	Cu11	0.560840	0.121670	0.840340
Cu121	Cu12	0.531210	0.062410	0.928700
O831	O83	0.579630	0.159270	0.765940
O841	O84	0.510260	0.020530	0.001330
Cu131	Cu13	0.544990	0.772500	0.173670
Cu141	Cu14	0.604250	0.802130	0.262030
O851	O85	0.507400	0.753700	0.099270
O861	O86	0.646140	0.823070	0.334660
Cu151	Cu15	0.211660	0.105830	0.507000
Cu161	Cu16	0.270920	0.135460	0.595360
O871	O87	0.174070	0.087030	0.432600
O881	O88	0.312810	0.156400	0.667990
Cu171	Cu17	0.878330	0.439160	0.840340
Cu181	Cu18	0.937590	0.468790	0.928700
O891	O89	0.840730	0.420370	0.765940
O901	O90	0.979470	0.489740	0.001330
N11	N1	0.307400	0.153700	0.122600
C2171	C217	0.396500	0.198250	0.042800
C2181	C218	0.435700	0.217850	0.003300
C2191	C219	0.510600	0.255300	0.913400
H1091	H109	0.532500	0.266250	0.882300
N21	N2	0.974070	0.487030	0.455930
C2201	C220	0.063170	0.531580	0.376130
C2211	C221	0.102370	0.551180	0.336630
C2221	C222	0.177270	0.588630	0.246730
H1101	H110	0.199170	0.599580	0.215630
N31	N3	0.640730	0.820370	0.789270
C2231	C223	0.729830	0.864920	0.709470
C2241	C224	0.769030	0.884520	0.669970
C2251	C225	0.843930	0.921970	0.580070
H1111	H111	0.865830	0.932920	0.548970
N41	N4	0.846300	0.153700	0.122600
C2261	C226	0.801750	0.198250	0.042800
C2271	C227	0.782150	0.217850	0.003300
C2281	C228	0.744700	0.255300	0.913400
H1121	H112	0.733750	0.266250	0.882300
N51	N5	0.512970	0.487030	0.455930
C2291	C229	0.468420	0.531580	0.376130
C2301	C230	0.448820	0.551180	0.336630
C2311	C231	0.411370	0.588630	0.246730
H1131	H113	0.400420	0.599580	0.215630
N61	N6	0.179630	0.820370	0.789270
C2321	C232	0.135080	0.864920	0.709470
C2331	C233	0.115480	0.884520	0.669970
C2341	C234	0.078030	0.921970	0.580070
H1141	H114	0.067080	0.932920	0.548970
N71	N7	0.846300	0.692600	0.122600
C2351	C235	0.801750	0.603500	0.042800
C2361	C236	0.782150	0.564300	0.003300
C2371	C237	0.744700	0.489400	0.913400
H1151	H115	0.733750	0.467500	0.882300
N81	N8	0.512970	0.025930	0.455930
C2381	C238	0.468420	0.936830	0.376130
C2391	C239	0.448820	0.897630	0.336630
C2401	C240	0.411370	0.822730	0.246730
H1161	H116	0.400420	0.800830	0.215630
N91	N9	0.179630	0.359270	0.789270
C2411	C241	0.135080	0.270170	0.709470
C2421	C242	0.115480	0.230970	0.669970
C2431	C243	0.078030	0.156070	0.580070
H1171	H117	0.067080	0.134170	0.548970
