data_ENOVAG_freeONLY_PM
_symmetry_space_group_name_H-M	'P1'
_cell_length_a	17.353000
_cell_length_b	30.453000
_cell_length_c	17.511000
_cell_angle_alpha	90.000000
_cell_angle_beta	119.547000
_cell_angle_gamma	90.000000
_symmetry_Int_Tables_number 1

loop_
_symmetry_equiv_pos_as_xyz
'x,y,z'

loop_
_atom_site_label
_atom_site_type_symbol
_atom_site_fract_x
_atom_site_fract_y
_atom_site_fract_z
C11	C1	0.841700	0.843600	0.232500
C21	C2	0.896100	0.773400	0.293800
H11	H1	0.937900	0.789000	0.342200
C31	C3	0.835600	0.794000	0.223700
C41	C4	0.606600	0.844160	0.264300
C51	C5	0.603400	0.796100	0.262800
C61	C6	0.620200	0.772040	0.341600
H21	H2	0.630900	0.787300	0.391900
C71	C7	0.339800	0.845760	0.235800
C81	C8	0.407400	0.774200	0.305000
H31	H3	0.452400	0.789000	0.352500
C91	C9	0.346800	0.796620	0.240800
C101	C10	0.104300	0.844810	0.267100
C111	C11	0.106900	0.795200	0.269600
C121	C12	0.116900	0.771700	0.347700
H41	H4	0.123100	0.787200	0.396200
C131	C13	0.847700	0.991100	0.190500
C141	C14	0.771500	0.015250	0.119500
C151	C15	0.780700	0.050590	0.074700
H51	H5	0.836400	0.062700	0.093400
C161	C16	0.708000	0.067700	0.003100
H61	H6	0.713700	0.089900	0.969600
C171	C17	0.624300	0.050600	0.981900
C181	C18	0.622810	0.018600	0.039000
H71	H7	0.568100	0.011300	0.033200
C191	C19	0.540400	0.066000	0.904300
C201	C20	0.864400	0.937600	0.402200
C211	C21	0.853600	0.953290	0.477800
C221	C22	0.794300	0.934600	0.500300
H81	H8	0.758200	0.911300	0.468300
C231	C23	0.790600	0.952100	0.573500
H91	H9	0.752500	0.939800	0.590700
C241	C24	0.843700	0.987600	0.619600
C251	C25	0.912100	0.987150	0.535300
H101	H10	0.957200	0.997300	0.525800
C261	C26	0.836200	0.009200	0.689700
C271	C27	0.661700	0.990300	0.310800
C281	C28	0.655100	0.015800	0.381500
C291	C29	0.703600	0.050800	0.421500
H111	H11	0.738400	0.064400	0.401600
C301	C30	0.700300	0.066600	0.496400
H121	H12	0.738600	0.089000	0.529700
C311	C31	0.642600	0.049900	0.520600
C321	C32	0.589600	0.013930	0.468200
H131	H13	0.547800	0.002500	0.481200
C331	C33	0.639100	0.065970	0.597100
C341	C34	0.348400	0.987160	0.188300
C351	C35	0.270400	0.011400	0.122300
C361	C36	0.279300	0.050420	0.075500
H141	H14	0.333500	0.064100	0.093700
C371	C37	0.203900	0.064620	0.005000
H151	H15	0.208600	0.087600	0.972400
C381	C38	0.121800	0.048000	0.978000
C391	C39	0.121800	0.013420	0.032700
H161	H16	0.067500	0.003900	0.025200
C401	C40	0.038800	0.063100	0.906600
N11	N1	0.695100	0.997670	0.101200
N21	N2	0.904800	0.003680	0.597900
N31	N3	0.595800	0.995320	0.401000
N41	N4	0.195000	0.993930	0.094100
Nd11	Nd1	0.994330	0.928550	0.304360
Nd21	Nd2	0.690200	0.929280	0.194020
Nd31	Nd3	0.496220	0.928100	0.305220
Nd41	Nd4	0.189380	0.926870	0.193590
O11	O1	0.906500	0.859980	0.302500
O21	O2	0.783900	0.865430	0.170300
O31	O3	0.632100	0.863630	0.215700
O41	O4	0.591700	0.863740	0.318600
O51	O5	0.411600	0.863140	0.284300
O61	O6	0.268600	0.860920	0.184600
O71	O7	0.125000	0.861430	0.216600
O81	O8	0.092800	0.865920	0.322400
O91	O9	0.929400	0.002610	0.216700
O101	O10	0.833100	0.954790	0.215600
O111	O11	0.541200	0.087570	0.844800
O121	O12	0.465500	0.055800	0.901600
O131	O13	0.928300	0.948900	0.396300
O141	O14	0.796900	0.914660	0.345900
O151	O15	0.880400	0.046920	0.715900
O161	O16	0.787500	0.998790	0.719800
O171	O17	0.711900	0.003920	0.282900
O181	O18	0.620900	0.954790	0.282600
O191	O19	0.700800	0.086210	0.655400
O201	O20	0.571000	0.053490	0.604100
O211	O21	0.425400	0.000360	0.210900
O221	O22	0.330800	0.952980	0.214600
O231	O23	0.047200	0.086700	0.847600
O241	O24	0.966600	0.054870	0.902500
O251	O25	0.079700	0.898790	0.455800
H171	H17	0.132000	0.892000	0.469000
H181	H18	0.049000	0.875500	0.445000
O261	O26	0.636900	0.906670	0.041900
H191	H19	0.651500	0.928700	0.011900
H201	H20	0.573800	0.902900	0.012700
O271	O27	0.591200	0.900880	0.462400
H211	H21	0.603000	0.875000	0.453000
H221	H22	0.560000	0.900000	0.488000
O281	O28	0.114400	0.898860	0.037800
H231	H23	0.141000	0.886000	0.015000
H241	H24	0.058200	0.898000	0.008000
C411	C41	0.275500	0.770730	0.170800
C421	C42	0.774800	0.770900	0.148400
C431	C43	0.598500	0.772490	0.188700
C441	C44	0.102100	0.772000	0.204800
H251	H25	0.228700	0.785400	0.124700
H261	H26	0.734500	0.786200	0.098600
H271	H27	0.595300	0.787800	0.141200
H281	H28	0.098400	0.786600	0.156500
N51	N5	0.774800	0.729100	0.148400
N61	N6	0.598500	0.727510	0.188700
N71	N7	0.275500	0.729270	0.170800
N81	N8	0.102100	0.728000	0.204800
C451	C45	0.158300	0.343600	0.767500
C461	C46	0.103900	0.273400	0.706200
H291	H29	0.062100	0.289000	0.657800
C471	C47	0.164400	0.294000	0.776300
C481	C48	0.393400	0.344160	0.735700
C491	C49	0.396600	0.296100	0.737200
C501	C50	0.379800	0.272040	0.658400
H301	H30	0.369100	0.287300	0.608100
C511	C51	0.660200	0.345760	0.764200
C521	C52	0.592600	0.274200	0.695000
H311	H31	0.547600	0.289000	0.647500
C531	C53	0.653200	0.296620	0.759200
C541	C54	0.895700	0.344810	0.732900
C551	C55	0.893100	0.295200	0.730400
C561	C56	0.883100	0.271700	0.652300
H321	H32	0.876900	0.287200	0.603800
C571	C57	0.152300	0.491100	0.809500
C581	C58	0.228500	0.515250	0.880500
C591	C59	0.219300	0.550590	0.925300
H331	H33	0.163600	0.562700	0.906600
C601	C60	0.292000	0.567700	0.996900
H341	H34	0.286300	0.589900	0.030400
C611	C61	0.375700	0.550600	0.018100
C621	C62	0.377190	0.518600	0.961000
H351	H35	0.431900	0.511300	0.966800
C631	C63	0.459600	0.566000	0.095700
C641	C64	0.135600	0.437600	0.597800
C651	C65	0.146400	0.453290	0.522200
C661	C66	0.205700	0.434600	0.499700
H361	H36	0.241800	0.411300	0.531700
C671	C67	0.209400	0.452100	0.426500
H371	H37	0.247500	0.439800	0.409300
C681	C68	0.156300	0.487600	0.380400
C691	C69	0.087900	0.487150	0.464700
H381	H38	0.042800	0.497300	0.474200
C701	C70	0.163800	0.509200	0.310300
C711	C71	0.338300	0.490300	0.689200
C721	C72	0.344900	0.515800	0.618500
C731	C73	0.296400	0.550800	0.578500
H391	H39	0.261600	0.564400	0.598400
C741	C74	0.299700	0.566600	0.503600
H401	H40	0.261400	0.589000	0.470300
C751	C75	0.357400	0.549900	0.479400
C761	C76	0.410400	0.513930	0.531800
H411	H41	0.452200	0.502500	0.518800
C771	C77	0.360900	0.565970	0.402900
C781	C78	0.651600	0.487160	0.811700
C791	C79	0.729600	0.511400	0.877700
C801	C80	0.720700	0.550420	0.924500
H421	H42	0.666500	0.564100	0.906300
C811	C81	0.796100	0.564620	0.995000
H431	H43	0.791400	0.587600	0.027600
C821	C82	0.878200	0.548000	0.022000
C831	C83	0.878200	0.513420	0.967300
H441	H44	0.932500	0.503900	0.974800
C841	C84	0.961200	0.563100	0.093400
N91	N9	0.304900	0.497670	0.898800
N101	N10	0.095200	0.503680	0.402100
N111	N11	0.404200	0.495320	0.599000
N121	N12	0.805000	0.493930	0.905900
Nd51	Nd5	0.005670	0.428550	0.695640
Nd61	Nd6	0.309800	0.429280	0.805980
Nd71	Nd7	0.503780	0.428100	0.694780
Nd81	Nd8	0.810620	0.426870	0.806410
O291	O29	0.093500	0.359980	0.697500
O301	O30	0.216100	0.365430	0.829700
O311	O31	0.367900	0.363630	0.784300
O321	O32	0.408300	0.363740	0.681400
O331	O33	0.588400	0.363140	0.715700
O341	O34	0.731400	0.360920	0.815400
O351	O35	0.875000	0.361430	0.783400
O361	O36	0.907200	0.365920	0.677600
O371	O37	0.070600	0.502610	0.783300
O381	O38	0.166900	0.454790	0.784400
O391	O39	0.458800	0.587570	0.155200
O401	O40	0.534500	0.555800	0.098400
O411	O41	0.071700	0.448900	0.603700
O421	O42	0.203100	0.414660	0.654100
O431	O43	0.119600	0.546920	0.284100
O441	O44	0.212500	0.498790	0.280200
O451	O45	0.288100	0.503920	0.717100
O461	O46	0.379100	0.454790	0.717400
O471	O47	0.299200	0.586210	0.344600
O481	O48	0.429000	0.553490	0.395900
O491	O49	0.574600	0.500360	0.789100
O501	O50	0.669200	0.452980	0.785400
O511	O51	0.952800	0.586700	0.152400
O521	O52	0.033400	0.554870	0.097500
O531	O53	0.920300	0.398790	0.544200
H451	H45	0.868000	0.392000	0.531000
H461	H46	0.951000	0.375500	0.555000
O541	O54	0.363100	0.406670	0.958100
H471	H47	0.348500	0.428700	0.988100
H481	H48	0.426200	0.402900	0.987300
O551	O55	0.408800	0.400880	0.537600
H491	H49	0.397000	0.375000	0.547000
H501	H50	0.440000	0.400000	0.512000
O561	O56	0.885600	0.398860	0.962200
H511	H51	0.859000	0.386000	0.985000
H521	H52	0.941800	0.398000	0.992000
C851	C85	0.724500	0.270730	0.829200
C861	C86	0.225200	0.270900	0.851600
C871	C87	0.401500	0.272490	0.811300
C881	C88	0.897900	0.272000	0.795200
H531	H53	0.771300	0.285400	0.875300
H541	H54	0.265500	0.286200	0.901400
H551	H55	0.404700	0.287800	0.858800
H561	H56	0.901600	0.286600	0.843500
N131	N13	0.225200	0.229100	0.851600
N141	N14	0.401500	0.227510	0.811300
N151	N15	0.724500	0.229270	0.829200
N161	N16	0.897900	0.228000	0.795200
C891	C89	0.158300	0.156400	0.767500
C901	C90	0.103900	0.226600	0.706200
H571	H57	0.062100	0.211000	0.657800
C911	C91	0.164400	0.206000	0.776300
C921	C92	0.393400	0.155840	0.735700
C931	C93	0.396600	0.203900	0.737200
C941	C94	0.379800	0.227960	0.658400
H581	H58	0.369100	0.212700	0.608100
C951	C95	0.660200	0.154240	0.764200
C961	C96	0.592600	0.225800	0.695000
H591	H59	0.547600	0.211000	0.647500
C971	C97	0.653200	0.203380	0.759200
C981	C98	0.895700	0.155190	0.732900
C991	C99	0.893100	0.204800	0.730400
C1001	C100	0.883100	0.228300	0.652300
H601	H60	0.876900	0.212800	0.603800
C1011	C101	0.152300	0.008900	0.809500
C1021	C102	0.228500	0.984750	0.880500
C1031	C103	0.219300	0.949410	0.925300
H611	H61	0.163600	0.937300	0.906600
C1041	C104	0.292000	0.932300	0.996900
H621	H62	0.286300	0.910100	0.030400
C1051	C105	0.375700	0.949400	0.018100
C1061	C106	0.377190	0.981400	0.961000
H631	H63	0.431900	0.988700	0.966800
C1071	C107	0.459600	0.934000	0.095700
C1081	C108	0.135600	0.062400	0.597800
C1091	C109	0.146400	0.046710	0.522200
C1101	C110	0.205700	0.065400	0.499700
H641	H64	0.241800	0.088700	0.531700
C1111	C111	0.209400	0.047900	0.426500
H651	H65	0.247500	0.060200	0.409300
C1121	C112	0.156300	0.012400	0.380400
C1131	C113	0.087900	0.012850	0.464700
H661	H66	0.042800	0.002700	0.474200
C1141	C114	0.163800	0.990800	0.310300
C1151	C115	0.338300	0.009700	0.689200
C1161	C116	0.344900	0.984200	0.618500
C1171	C117	0.296400	0.949200	0.578500
H671	H67	0.261600	0.935600	0.598400
C1181	C118	0.299700	0.933400	0.503600
H681	H68	0.261400	0.911000	0.470300
C1191	C119	0.357400	0.950100	0.479400
C1201	C120	0.410400	0.986070	0.531800
H691	H69	0.452200	0.997500	0.518800
C1211	C121	0.360900	0.934030	0.402900
C1221	C122	0.651600	0.012840	0.811700
C1231	C123	0.729600	0.988600	0.877700
C1241	C124	0.720700	0.949580	0.924500
H701	H70	0.666500	0.935900	0.906300
C1251	C125	0.796100	0.935380	0.995000
H711	H71	0.791400	0.912400	0.027600
C1261	C126	0.878200	0.952000	0.022000
C1271	C127	0.878200	0.986580	0.967300
H721	H72	0.932500	0.996100	0.974800
C1281	C128	0.961200	0.936900	0.093400
N171	N17	0.304900	0.002330	0.898800
N181	N18	0.095200	0.996320	0.402100
N191	N19	0.404200	0.004680	0.599000
N201	N20	0.805000	0.006070	0.905900
Nd91	Nd9	0.005670	0.071450	0.695640
Nd101	Nd10	0.309800	0.070720	0.805980
Nd111	Nd11	0.503780	0.071900	0.694780
Nd121	Nd12	0.810620	0.073130	0.806410
O571	O57	0.093500	0.140020	0.697500
O581	O58	0.216100	0.134570	0.829700
O591	O59	0.367900	0.136370	0.784300
O601	O60	0.408300	0.136260	0.681400
O611	O61	0.588400	0.136860	0.715700
O621	O62	0.731400	0.139080	0.815400
O631	O63	0.875000	0.138570	0.783400
O641	O64	0.907200	0.134080	0.677600
O651	O65	0.070600	0.997390	0.783300
O661	O66	0.166900	0.045210	0.784400
O671	O67	0.458800	0.912430	0.155200
O681	O68	0.534500	0.944200	0.098400
O691	O69	0.071700	0.051100	0.603700
O701	O70	0.203100	0.085340	0.654100
O711	O71	0.119600	0.953080	0.284100
O721	O72	0.212500	0.001210	0.280200
O731	O73	0.288100	0.996080	0.717100
O741	O74	0.379100	0.045210	0.717400
O751	O75	0.299200	0.913790	0.344600
O761	O76	0.429000	0.946510	0.395900
O771	O77	0.574600	0.999640	0.789100
O781	O78	0.669200	0.047020	0.785400
O791	O79	0.952800	0.913300	0.152400
O801	O80	0.033400	0.945130	0.097500
O811	O81	0.920300	0.101210	0.544200
H731	H73	0.868000	0.108000	0.531000
H741	H74	0.951000	0.124500	0.555000
O821	O82	0.363100	0.093330	0.958100
H751	H75	0.348500	0.071300	0.988100
H761	H76	0.426200	0.097100	0.987300
O831	O83	0.408800	0.099120	0.537600
H771	H77	0.397000	0.125000	0.547000
H781	H78	0.440000	0.100000	0.512000
O841	O84	0.885600	0.101140	0.962200
H791	H79	0.859000	0.114000	0.985000
H801	H80	0.941800	0.102000	0.992000
H811	H81	0.771300	0.214600	0.875300
H821	H82	0.265500	0.213800	0.901400
H831	H83	0.404700	0.212200	0.858800
H841	H84	0.901600	0.213400	0.843500
C1291	C129	0.841700	0.656400	0.232500
C1301	C130	0.896100	0.726600	0.293800
H851	H85	0.937900	0.711000	0.342200
C1311	C131	0.835600	0.706000	0.223700
C1321	C132	0.606600	0.655840	0.264300
C1331	C133	0.603400	0.703900	0.262800
C1341	C134	0.620200	0.727960	0.341600
H861	H86	0.630900	0.712700	0.391900
C1351	C135	0.339800	0.654240	0.235800
C1361	C136	0.407400	0.725800	0.305000
H871	H87	0.452400	0.711000	0.352500
C1371	C137	0.346800	0.703380	0.240800
C1381	C138	0.104300	0.655190	0.267100
C1391	C139	0.106900	0.704800	0.269600
C1401	C140	0.116900	0.728300	0.347700
H881	H88	0.123100	0.712800	0.396200
C1411	C141	0.847700	0.508900	0.190500
C1421	C142	0.771500	0.484750	0.119500
C1431	C143	0.780700	0.449410	0.074700
H891	H89	0.836400	0.437300	0.093400
C1441	C144	0.708000	0.432300	0.003100
H901	H90	0.713700	0.410100	0.969600
C1451	C145	0.624300	0.449400	0.981900
C1461	C146	0.622810	0.481400	0.039000
H911	H91	0.568100	0.488700	0.033200
C1471	C147	0.540400	0.434000	0.904300
C1481	C148	0.864400	0.562400	0.402200
C1491	C149	0.853600	0.546710	0.477800
C1501	C150	0.794300	0.565400	0.500300
H921	H92	0.758200	0.588700	0.468300
C1511	C151	0.790600	0.547900	0.573500
H931	H93	0.752500	0.560200	0.590700
C1521	C152	0.843700	0.512400	0.619600
C1531	C153	0.912100	0.512850	0.535300
H941	H94	0.957200	0.502700	0.525800
C1541	C154	0.836200	0.490800	0.689700
C1551	C155	0.661700	0.509700	0.310800
C1561	C156	0.655100	0.484200	0.381500
C1571	C157	0.703600	0.449200	0.421500
H951	H95	0.738400	0.435600	0.401600
C1581	C158	0.700300	0.433400	0.496400
H961	H96	0.738600	0.411000	0.529700
C1591	C159	0.642600	0.450100	0.520600
C1601	C160	0.589600	0.486070	0.468200
H971	H97	0.547800	0.497500	0.481200
C1611	C161	0.639100	0.434030	0.597100
C1621	C162	0.348400	0.512840	0.188300
C1631	C163	0.270400	0.488600	0.122300
C1641	C164	0.279300	0.449580	0.075500
H981	H98	0.333500	0.435900	0.093700
C1651	C165	0.203900	0.435380	0.005000
H991	H99	0.208600	0.412400	0.972400
C1661	C166	0.121800	0.452000	0.978000
C1671	C167	0.121800	0.486580	0.032700
H1001	H100	0.067500	0.496100	0.025200
C1681	C168	0.038800	0.436900	0.906600
N211	N21	0.695100	0.502330	0.101200
N221	N22	0.904800	0.496320	0.597900
N231	N23	0.595800	0.504680	0.401000
N241	N24	0.195000	0.506070	0.094100
Nd131	Nd13	0.994330	0.571450	0.304360
Nd141	Nd14	0.690200	0.570720	0.194020
Nd151	Nd15	0.496220	0.571900	0.305220
Nd161	Nd16	0.189380	0.573130	0.193590
O851	O85	0.906500	0.640020	0.302500
O861	O86	0.783900	0.634570	0.170300
O871	O87	0.632100	0.636370	0.215700
O881	O88	0.591700	0.636260	0.318600
O891	O89	0.411600	0.636860	0.284300
O901	O90	0.268600	0.639080	0.184600
O911	O91	0.125000	0.638570	0.216600
O921	O92	0.092800	0.634080	0.322400
O931	O93	0.929400	0.497390	0.216700
O941	O94	0.833100	0.545210	0.215600
O951	O95	0.541200	0.412430	0.844800
O961	O96	0.465500	0.444200	0.901600
O971	O97	0.928300	0.551100	0.396300
O981	O98	0.796900	0.585340	0.345900
O991	O99	0.880400	0.453080	0.715900
O1001	O100	0.787500	0.501210	0.719800
O1011	O101	0.711900	0.496080	0.282900
O1021	O102	0.620900	0.545210	0.282600
O1031	O103	0.700800	0.413790	0.655400
O1041	O104	0.571000	0.446510	0.604100
O1051	O105	0.425400	0.499640	0.210900
O1061	O106	0.330800	0.547020	0.214600
O1071	O107	0.047200	0.413300	0.847600
O1081	O108	0.966600	0.445130	0.902500
O1091	O109	0.079700	0.601210	0.455800
H1011	H101	0.132000	0.608000	0.469000
H1021	H102	0.049000	0.624500	0.445000
O1101	O110	0.636900	0.593330	0.041900
H1031	H103	0.651500	0.571300	0.011900
H1041	H104	0.573800	0.597100	0.012700
O1111	O111	0.591200	0.599120	0.462400
H1051	H105	0.603000	0.625000	0.453000
H1061	H106	0.560000	0.600000	0.488000
O1121	O112	0.114400	0.601140	0.037800
H1071	H107	0.141000	0.614000	0.015000
H1081	H108	0.058200	0.602000	0.008000
H1091	H109	0.228700	0.714600	0.124700
H1101	H110	0.734500	0.713800	0.098600
H1111	H111	0.595300	0.712200	0.141200
H1121	H112	0.098400	0.713400	0.156500
