data_EPEXII_freeONLY_PM
_symmetry_space_group_name_H-M	'P1'
_cell_length_a	15.311500
_cell_length_b	13.420200
_cell_length_c	19.149700
_cell_angle_alpha	90.000000
_cell_angle_beta	99.467000
_cell_angle_gamma	90.000000
_symmetry_Int_Tables_number 1

loop_
_symmetry_equiv_pos_as_xyz
'x,y,z'

loop_
_atom_site_label
_atom_site_type_symbol
_atom_site_fract_x
_atom_site_fract_y
_atom_site_fract_z
Cd11	Cd1	0.219220	0.320000	0.411470
Cd21	Cd2	0.251510	0.195020	0.248930
O11	O1	0.340600	0.280400	0.337600
O21	O2	0.381500	0.314300	0.235500
O31	O3	0.639600	0.559400	0.238800
O41	O4	0.705000	0.609800	0.343000
O51	O5	0.691600	0.524100	0.557900
O61	O6	0.165000	0.163800	0.351200
O71	O7	0.124100	0.098600	0.245900
O81	O8	0.846900	0.871600	0.213800
O91	O9	0.828500	0.808900	0.317800
O101	O10	0.010700	0.224300	0.519800
N11	N1	0.584300	0.403100	0.525000
N21	N2	0.912700	0.094800	0.485800
C11	C1	0.392400	0.320400	0.300800
C21	C2	0.649400	0.556600	0.304600
C31	C3	0.522900	0.436300	0.304000
H11	H1	0.509600	0.442200	0.255000
C41	C4	0.471000	0.374600	0.340300
C51	C5	0.492700	0.365000	0.412900
H21	H2	0.459100	0.323400	0.436900
C61	C6	0.563600	0.416200	0.450600
C71	C7	0.614500	0.478800	0.414600
H31	H3	0.662100	0.514000	0.439300
C81	C8	0.592600	0.487500	0.340900
C91	C9	0.644900	0.454600	0.572000
C101	C10	0.538500	0.326700	0.560900
H41	H4	0.548400	0.260500	0.543400
H51	H5	0.475400	0.339300	0.554800
C111	C11	0.581300	0.338500	0.637100
C121	C12	0.643200	0.410700	0.642200
C131	C13	0.692000	0.438800	0.706900
H61	H6	0.734500	0.488800	0.710000
C141	C14	0.674800	0.389500	0.766400
H71	H7	0.706900	0.405200	0.810500
C151	C15	0.609800	0.316800	0.760700
H81	H8	0.597400	0.285900	0.801400
C161	C16	0.563800	0.289600	0.696500
H91	H9	0.521600	0.239300	0.692900
C171	C17	0.111500	0.115400	0.307200
C181	C18	0.858300	0.872300	0.280100
C191	C19	0.909400	0.958300	0.318700
C201	C20	0.979100	0.001500	0.291600
H101	H10	0.992000	0.982100	0.247800
C211	C21	0.028800	0.074000	0.331200
C221	C22	0.007300	0.106200	0.394600
H111	H11	0.040800	0.156100	0.419800
C231	C23	0.936200	0.065100	0.421300
C241	C24	0.888600	0.988400	0.382600
H121	H12	0.842500	0.957500	0.400400
C251	C25	0.839100	0.046700	0.513300
H131	H13	0.850400	0.976300	0.521900
H141	H14	0.783800	0.054600	0.480900
C261	C26	0.837200	0.101800	0.581100
C271	C27	0.951000	0.169100	0.530200
C281	C28	0.902500	0.172700	0.590700
C291	C29	0.916300	0.235100	0.649200
H151	H15	0.961800	0.281800	0.656100
C301	C30	0.857400	0.223500	0.697100
H161	H16	0.863000	0.264500	0.736700
C311	C31	0.792900	0.154300	0.687300
H171	H17	0.755400	0.149300	0.720800
C321	C32	0.779700	0.090800	0.630400
H181	H18	0.735000	0.043200	0.624800
Cd31	Cd3	0.780780	0.820000	0.088530
Cd41	Cd4	0.748490	0.695020	0.251070
O111	O11	0.659400	0.780400	0.162400
O121	O12	0.618500	0.814300	0.264500
O131	O13	0.360400	0.059400	0.261200
O141	O14	0.295000	0.109800	0.157000
O151	O15	0.308400	0.024100	0.942100
O161	O16	0.835000	0.663800	0.148800
O171	O17	0.875900	0.598600	0.254100
O181	O18	0.153100	0.371600	0.286200
O191	O19	0.171500	0.308900	0.182200
O201	O20	0.989300	0.724300	0.980200
N31	N3	0.415700	0.903100	0.975000
N41	N4	0.087300	0.594800	0.014200
C331	C33	0.607600	0.820400	0.199200
C341	C34	0.350600	0.056600	0.195400
C351	C35	0.477100	0.936300	0.196000
H191	H19	0.490400	0.942200	0.245000
C361	C36	0.529000	0.874600	0.159700
C371	C37	0.507300	0.865000	0.087100
H201	H20	0.540900	0.823400	0.063100
C381	C38	0.436400	0.916200	0.049400
C391	C39	0.385500	0.978800	0.085400
H211	H21	0.337900	0.014000	0.060700
C401	C40	0.407400	0.987500	0.159100
C411	C41	0.355100	0.954600	0.928000
C421	C42	0.461500	0.826700	0.939100
H221	H22	0.451600	0.760500	0.956600
H231	H23	0.524600	0.839300	0.945200
C431	C43	0.418700	0.838500	0.862900
C441	C44	0.356800	0.910700	0.857800
C451	C45	0.308000	0.938800	0.793100
H241	H24	0.265500	0.988800	0.790000
C461	C46	0.325200	0.889500	0.733600
H251	H25	0.293100	0.905200	0.689500
C471	C47	0.390200	0.816800	0.739300
H261	H26	0.402600	0.785900	0.698600
C481	C48	0.436200	0.789600	0.803500
H271	H27	0.478400	0.739300	0.807100
C491	C49	0.888500	0.615400	0.192800
C501	C50	0.141700	0.372300	0.219900
C511	C51	0.090600	0.458300	0.181300
C521	C52	0.020900	0.501500	0.208400
H281	H28	0.008000	0.482100	0.252200
C531	C53	0.971200	0.574000	0.168800
C541	C54	0.992700	0.606200	0.105400
H291	H29	0.959200	0.656100	0.080200
C551	C55	0.063800	0.565100	0.078700
C561	C56	0.111400	0.488400	0.117400
H301	H30	0.157500	0.457500	0.099600
C571	C57	0.160900	0.546700	0.986700
H311	H31	0.149600	0.476300	0.978100
H321	H32	0.216200	0.554600	0.019100
C581	C58	0.162800	0.601800	0.918900
C591	C59	0.049000	0.669100	0.969800
C601	C60	0.097500	0.672700	0.909300
C611	C61	0.083700	0.735100	0.850800
H331	H33	0.038200	0.781800	0.843900
C621	C62	0.142600	0.723500	0.802900
H341	H34	0.137000	0.764500	0.763300
C631	C63	0.207100	0.654300	0.812700
H351	H35	0.244600	0.649300	0.779200
C641	C64	0.220300	0.590800	0.869600
H361	H36	0.265000	0.543200	0.875200
Cd51	Cd5	0.780780	0.680000	0.588530
Cd61	Cd6	0.748490	0.804980	0.751070
O211	O21	0.659400	0.719600	0.662400
O221	O22	0.618500	0.685700	0.764500
O231	O23	0.360400	0.440600	0.761200
O241	O24	0.295000	0.390200	0.657000
O251	O25	0.308400	0.475900	0.442100
O261	O26	0.835000	0.836200	0.648800
O271	O27	0.875900	0.901400	0.754100
O281	O28	0.153100	0.128400	0.786200
O291	O29	0.171500	0.191100	0.682200
O301	O30	0.989300	0.775700	0.480200
N51	N5	0.415700	0.596900	0.475000
N61	N6	0.087300	0.905200	0.514200
C651	C65	0.607600	0.679600	0.699200
C661	C66	0.350600	0.443400	0.695400
C671	C67	0.477100	0.563700	0.696000
H371	H37	0.490400	0.557800	0.745000
C681	C68	0.529000	0.625400	0.659700
C691	C69	0.507300	0.635000	0.587100
H381	H38	0.540900	0.676600	0.563100
C701	C70	0.436400	0.583800	0.549400
C711	C71	0.385500	0.521200	0.585400
H391	H39	0.337900	0.486000	0.560700
C721	C72	0.407400	0.512500	0.659100
C731	C73	0.355100	0.545400	0.428000
C741	C74	0.461500	0.673300	0.439100
H401	H40	0.451600	0.739500	0.456600
H411	H41	0.524600	0.660700	0.445200
C751	C75	0.418700	0.661500	0.362900
C761	C76	0.356800	0.589300	0.357800
C771	C77	0.308000	0.561200	0.293100
H421	H42	0.265500	0.511200	0.290000
C781	C78	0.325200	0.610500	0.233600
H431	H43	0.293100	0.594800	0.189500
C791	C79	0.390200	0.683200	0.239300
H441	H44	0.402600	0.714100	0.198600
C801	C80	0.436200	0.710400	0.303500
H451	H45	0.478400	0.760700	0.307100
C811	C81	0.888500	0.884600	0.692800
C821	C82	0.141700	0.127700	0.719900
C831	C83	0.090600	0.041700	0.681300
C841	C84	0.020900	0.998500	0.708400
H461	H46	0.008000	0.017900	0.752200
C851	C85	0.971200	0.926000	0.668800
C861	C86	0.992700	0.893800	0.605400
H471	H47	0.959200	0.843900	0.580200
C871	C87	0.063800	0.934900	0.578700
C881	C88	0.111400	0.011600	0.617400
H481	H48	0.157500	0.042500	0.599600
C891	C89	0.160900	0.953300	0.486700
H491	H49	0.149600	0.023700	0.478100
H501	H50	0.216200	0.945400	0.519100
C901	C90	0.162800	0.898200	0.418900
C911	C91	0.049000	0.830900	0.469800
C921	C92	0.097500	0.827300	0.409300
C931	C93	0.083700	0.764900	0.350800
H511	H51	0.038200	0.718200	0.343900
C941	C94	0.142600	0.776500	0.302900
H521	H52	0.137000	0.735500	0.263300
C951	C95	0.207100	0.845700	0.312700
H531	H53	0.244600	0.850700	0.279200
C961	C96	0.220300	0.909200	0.369600
H541	H54	0.265000	0.956800	0.375200
Cd71	Cd7	0.219220	0.180000	0.911470
Cd81	Cd8	0.251510	0.304980	0.748930
O311	O31	0.340600	0.219600	0.837600
O321	O32	0.381500	0.185700	0.735500
O331	O33	0.639600	0.940600	0.738800
O341	O34	0.705000	0.890200	0.843000
O351	O35	0.691600	0.975900	0.057900
O361	O36	0.165000	0.336200	0.851200
O371	O37	0.124100	0.401400	0.745900
O381	O38	0.846900	0.628400	0.713800
O391	O39	0.828500	0.691100	0.817800
O401	O40	0.010700	0.275700	0.019800
N71	N7	0.584300	0.096900	0.025000
N81	N8	0.912700	0.405200	0.985800
C971	C97	0.392400	0.179600	0.800800
C981	C98	0.649400	0.943400	0.804600
C991	C99	0.522900	0.063700	0.804000
H551	H55	0.509600	0.057800	0.755000
C1001	C100	0.471000	0.125400	0.840300
C1011	C101	0.492700	0.135000	0.912900
H561	H56	0.459100	0.176600	0.936900
C1021	C102	0.563600	0.083800	0.950600
C1031	C103	0.614500	0.021200	0.914600
H571	H57	0.662100	0.986000	0.939300
C1041	C104	0.592600	0.012500	0.840900
C1051	C105	0.644900	0.045400	0.072000
C1061	C106	0.538500	0.173300	0.060900
H581	H58	0.548400	0.239500	0.043400
H591	H59	0.475400	0.160700	0.054800
C1071	C107	0.581300	0.161500	0.137100
C1081	C108	0.643200	0.089300	0.142200
C1091	C109	0.692000	0.061200	0.206900
H601	H60	0.734500	0.011200	0.210000
C1101	C110	0.674800	0.110500	0.266400
H611	H61	0.706900	0.094800	0.310500
C1111	C111	0.609800	0.183200	0.260700
H621	H62	0.597400	0.214100	0.301400
C1121	C112	0.563800	0.210400	0.196500
H631	H63	0.521600	0.260700	0.192900
C1131	C113	0.111500	0.384600	0.807200
C1141	C114	0.858300	0.627700	0.780100
C1151	C115	0.909400	0.541700	0.818700
C1161	C116	0.979100	0.498500	0.791600
H641	H64	0.992000	0.517900	0.747800
C1171	C117	0.028800	0.426000	0.831200
C1181	C118	0.007300	0.393800	0.894600
H651	H65	0.040800	0.343900	0.919800
C1191	C119	0.936200	0.434900	0.921300
C1201	C120	0.888600	0.511600	0.882600
H661	H66	0.842500	0.542500	0.900400
C1211	C121	0.839100	0.453300	0.013300
H671	H67	0.850400	0.523700	0.021900
H681	H68	0.783800	0.445400	0.980900
C1221	C122	0.837200	0.398200	0.081100
C1231	C123	0.951000	0.330900	0.030200
C1241	C124	0.902500	0.327300	0.090700
C1251	C125	0.916300	0.264900	0.149200
H691	H69	0.961800	0.218200	0.156100
C1261	C126	0.857400	0.276500	0.197100
H701	H70	0.863000	0.235500	0.236700
C1271	C127	0.792900	0.345700	0.187300
H711	H71	0.755400	0.350700	0.220800
C1281	C128	0.779700	0.409200	0.130400
H721	H72	0.735000	0.456800	0.124800
