data_EPOPEG_freeONLY_PM
_symmetry_space_group_name_H-M	'P1'
_cell_length_a	21.234000
_cell_length_b	12.980000
_cell_length_c	13.002000
_cell_angle_alpha	90.000000
_cell_angle_beta	113.790000
_cell_angle_gamma	90.000000
_symmetry_Int_Tables_number 1

loop_
_symmetry_equiv_pos_as_xyz
'x,y,z'

loop_
_atom_site_label
_atom_site_type_symbol
_atom_site_fract_x
_atom_site_fract_y
_atom_site_fract_z
C11	C1	0.241500	0.047600	0.109700
H11	H1	0.200200	0.063700	0.114900
C21	C2	0.335900	0.969000	0.126500
H21	H2	0.371100	0.920600	0.146400
C31	C3	0.412000	0.270100	0.182600
H31	H3	0.406400	0.224300	0.233200
C41	C4	0.455500	0.383900	0.108800
H41	H4	0.485400	0.430800	0.098200
C51	C5	0.223800	0.797700	0.165700
H51	H5	0.203500	0.781200	0.089700
C61	C6	0.282900	0.877200	0.322100
H61	H6	0.310400	0.924700	0.374600
N11	N1	0.279600	0.961400	0.149900
N21	N2	0.273300	0.104000	0.062300
N31	N3	0.333700	0.053800	0.072300
N41	N4	0.365800	0.290600	0.081900
N51	N5	0.393700	0.363900	0.036900
N61	N6	0.469600	0.326200	0.201600
N71	N7	0.257500	0.793600	0.344400
N81	N8	0.219300	0.743200	0.243800
N91	N9	0.262400	0.883500	0.208600
C71	C7	0.741500	0.547600	0.109700
H71	H7	0.700200	0.563700	0.114900
C81	C8	0.835900	0.469000	0.126500
H81	H8	0.871100	0.420600	0.146400
C91	C9	0.912000	0.770100	0.182600
H91	H9	0.906400	0.724300	0.233200
C101	C10	0.955500	0.883900	0.108800
H101	H10	0.985400	0.930800	0.098200
C111	C11	0.723800	0.297700	0.165700
H111	H11	0.703500	0.281200	0.089700
C121	C12	0.782900	0.377200	0.322100
H121	H12	0.810400	0.424700	0.374600
N101	N10	0.779600	0.461400	0.149900
N111	N11	0.773300	0.604000	0.062300
N121	N12	0.833700	0.553800	0.072300
N131	N13	0.865800	0.790600	0.081900
N141	N14	0.893700	0.863900	0.036900
N151	N15	0.969600	0.826200	0.201600
N161	N16	0.757500	0.293600	0.344400
N171	N17	0.719300	0.243200	0.243800
N181	N18	0.762400	0.383500	0.208600
C131	C13	0.758500	0.047600	0.390300
H131	H13	0.799800	0.063700	0.385100
C141	C14	0.664100	0.969000	0.373500
H141	H14	0.628900	0.920600	0.353600
C151	C15	0.588000	0.270100	0.317400
H151	H15	0.593600	0.224300	0.266800
C161	C16	0.544500	0.383900	0.391200
H161	H16	0.514600	0.430800	0.401800
C171	C17	0.776200	0.797700	0.334300
H171	H17	0.796500	0.781200	0.410300
C181	C18	0.717100	0.877200	0.177900
H181	H18	0.689600	0.924700	0.125400
N191	N19	0.720400	0.961400	0.350100
N201	N20	0.726700	0.104000	0.437700
N211	N21	0.666300	0.053800	0.427700
N221	N22	0.634200	0.290600	0.418100
N231	N23	0.606300	0.363900	0.463100
N241	N24	0.530400	0.326200	0.298400
N251	N25	0.742500	0.793600	0.155600
N261	N26	0.780700	0.743200	0.256200
N271	N27	0.737600	0.883500	0.291400
C191	C19	0.258500	0.547600	0.390300
H191	H19	0.299800	0.563700	0.385100
C201	C20	0.164100	0.469000	0.373500
H201	H20	0.128900	0.420600	0.353600
C211	C21	0.088000	0.770100	0.317400
H211	H21	0.093600	0.724300	0.266800
C221	C22	0.044500	0.883900	0.391200
H221	H22	0.014600	0.930800	0.401800
C231	C23	0.276200	0.297700	0.334300
H231	H23	0.296500	0.281200	0.410300
C241	C24	0.217100	0.377200	0.177900
H241	H24	0.189600	0.424700	0.125400
N281	N28	0.220400	0.461400	0.350100
N291	N29	0.226700	0.604000	0.437700
N301	N30	0.166300	0.553800	0.427700
N311	N31	0.134200	0.790600	0.418100
N321	N32	0.106300	0.863900	0.463100
N331	N33	0.030400	0.826200	0.298400
N341	N34	0.242500	0.293600	0.155600
N351	N35	0.280700	0.243200	0.256200
N361	N36	0.237600	0.383500	0.291400
C251	C25	0.758500	0.952400	0.890300
H251	H25	0.799800	0.936300	0.885100
C261	C26	0.664100	0.031000	0.873500
H261	H26	0.628900	0.079400	0.853600
C271	C27	0.588000	0.729900	0.817400
H271	H27	0.593600	0.775700	0.766800
C281	C28	0.544500	0.616100	0.891200
H281	H28	0.514600	0.569200	0.901800
C291	C29	0.776200	0.202300	0.834300
H291	H29	0.796500	0.218800	0.910300
C301	C30	0.717100	0.122800	0.677900
H301	H30	0.689600	0.075300	0.625400
N371	N37	0.720400	0.038600	0.850100
N381	N38	0.726700	0.896000	0.937700
N391	N39	0.666300	0.946200	0.927700
N401	N40	0.634200	0.709400	0.918100
N411	N41	0.606300	0.636100	0.963100
N421	N42	0.530400	0.673800	0.798400
N431	N43	0.742500	0.206400	0.655600
N441	N44	0.780700	0.256800	0.756200
N451	N45	0.737600	0.116500	0.791400
C311	C31	0.258500	0.452400	0.890300
H311	H31	0.299800	0.436300	0.885100
C321	C32	0.164100	0.531000	0.873500
H321	H32	0.128900	0.579400	0.853600
C331	C33	0.088000	0.229900	0.817400
H331	H33	0.093600	0.275700	0.766800
C341	C34	0.044500	0.116100	0.891200
H341	H34	0.014600	0.069200	0.901800
C351	C35	0.276200	0.702300	0.834300
H351	H35	0.296500	0.718800	0.910300
C361	C36	0.217100	0.622800	0.677900
H361	H36	0.189600	0.575300	0.625400
N461	N46	0.220400	0.538600	0.850100
N471	N47	0.226700	0.396000	0.937700
N481	N48	0.166300	0.446200	0.927700
N491	N49	0.134200	0.209400	0.918100
N501	N50	0.106300	0.136100	0.963100
N511	N51	0.030400	0.173800	0.798400
N521	N52	0.242500	0.706400	0.655600
N531	N53	0.280700	0.756800	0.756200
N541	N54	0.237600	0.616500	0.791400
C371	C37	0.241500	0.952400	0.609700
H371	H37	0.200200	0.936300	0.614900
C381	C38	0.335900	0.031000	0.626500
H381	H38	0.371100	0.079400	0.646400
C391	C39	0.412000	0.729900	0.682600
H391	H39	0.406400	0.775700	0.733200
C401	C40	0.455500	0.616100	0.608800
H401	H40	0.485400	0.569200	0.598200
C411	C41	0.223800	0.202300	0.665700
H411	H41	0.203500	0.218800	0.589700
C421	C42	0.282900	0.122800	0.822100
H421	H42	0.310400	0.075300	0.874600
N551	N55	0.279600	0.038600	0.649900
N561	N56	0.273300	0.896000	0.562300
N571	N57	0.333700	0.946200	0.572300
N581	N58	0.365800	0.709400	0.581900
N591	N59	0.393700	0.636100	0.536900
N601	N60	0.469600	0.673800	0.701600
N611	N61	0.257500	0.206400	0.844400
N621	N62	0.219300	0.256800	0.743800
N631	N63	0.262400	0.116500	0.708600
C431	C43	0.741500	0.452400	0.609700
H431	H43	0.700200	0.436300	0.614900
C441	C44	0.835900	0.531000	0.626500
H441	H44	0.871100	0.579400	0.646400
C451	C45	0.912000	0.229900	0.682600
H451	H45	0.906400	0.275700	0.733200
C461	C46	0.955500	0.116100	0.608800
H461	H46	0.985400	0.069200	0.598200
C471	C47	0.723800	0.702300	0.665700
H471	H47	0.703500	0.718800	0.589700
C481	C48	0.782900	0.622800	0.822100
H481	H48	0.810400	0.575300	0.874600
N641	N64	0.779600	0.538600	0.649900
N651	N65	0.773300	0.396000	0.562300
N661	N66	0.833700	0.446200	0.572300
N671	N67	0.865800	0.209400	0.581900
N681	N68	0.893700	0.136100	0.536900
N691	N69	0.969600	0.173800	0.701600
N701	N70	0.757500	0.706400	0.844400
N711	N71	0.719300	0.756800	0.743800
N721	N72	0.762400	0.616500	0.708600
Cu11	Cu1	0.250000	0.250000	0.000000
Cu21	Cu2	0.750000	0.250000	0.500000
Cu31	Cu3	0.750000	0.750000	0.000000
Cu41	Cu4	0.250000	0.750000	0.500000
