data_EPUVAN_charged_PM
_symmetry_space_group_name_H-M	'P1'
_cell_length_a	14.936500
_cell_length_b	17.136100
_cell_length_c	17.301600
_cell_angle_alpha	118.509000
_cell_angle_beta	103.354000
_cell_angle_gamma	96.640000
_symmetry_Int_Tables_number 1

loop_
_symmetry_equiv_pos_as_xyz
'x,y,z'

loop_
_atom_site_label
_atom_site_type_symbol
_atom_site_fract_x
_atom_site_fract_y
_atom_site_fract_z
Gd11	Gd1	0.880790	0.458390	0.392040
Gd21	Gd2	0.119210	0.541610	0.607960
H11	H1	0.904200	0.885300	0.811000
H21	H2	0.928200	0.929000	0.918700
H31	H3	0.943700	0.992200	0.878200
H41	H4	0.645300	0.074300	0.038100
H51	H5	0.679100	0.997200	0.051900
H61	H6	0.575200	0.976200	0.988100
H71	H7	0.586200	0.978800	0.677900
H81	H8	0.521900	0.891400	0.664900
H91	H9	0.607000	0.882600	0.625200
H101	H10	0.793700	0.952800	0.046000
H111	H11	0.883200	0.956300	0.013700
H121	H12	0.886100	0.125600	0.011200
H131	H13	0.936700	0.278800	0.118500
H141	H14	0.919500	0.220800	0.316500
H151	H15	0.868700	0.068900	0.204100
H161	H16	0.517500	0.022800	0.896400
H171	H17	0.513700	0.021300	0.804400
H181	H18	0.496300	0.828600	0.828600
H191	H19	0.368200	0.703700	0.751600
H201	H20	0.226900	0.829200	0.639300
H211	H21	0.356200	0.952400	0.721100
H221	H22	0.740600	0.927100	0.654900
H231	H23	0.844500	0.962800	0.724900
H241	H24	0.704700	0.762300	0.678800
H251	H25	0.723000	0.618400	0.597700
H261	H26	0.918800	0.717300	0.521500
H271	H27	0.895000	0.858400	0.602200
H281	H28	0.513400	0.301600	0.650900
H291	H29	0.597500	0.269500	0.615100
H301	H30	0.552000	0.225500	0.663000
H311	H31	0.940300	0.456800	0.926500
H321	H32	0.920900	0.414300	0.819500
H331	H33	0.934300	0.520100	0.884500
H341	H34	0.570500	0.506200	0.982000
H351	H35	0.669000	0.519700	0.049700
H361	H36	0.654900	0.592500	0.020800
H371	H37	0.495700	0.393100	0.877800
H381	H38	0.477800	0.311800	0.776400
H391	H39	0.532700	0.550600	0.862400
H401	H40	0.436300	0.624500	0.817300
H411	H41	0.237700	0.385100	0.640700
H421	H42	0.337700	0.313900	0.689800
H431	H43	0.809800	0.631700	0.031400
H441	H44	0.896100	0.592600	0.008500
H451	H45	0.882500	0.701700	0.191600
H461	H46	0.917200	0.693900	0.322000
H471	H47	0.867500	0.418600	0.160000
H481	H48	0.837500	0.433500	0.033400
H491	H49	0.724200	0.252400	0.651500
H501	H50	0.824900	0.287400	0.726400
H511	H51	0.855000	0.233100	0.574300
H521	H52	0.926000	0.286700	0.500100
H531	H53	0.862500	0.526600	0.638000
H541	H54	0.786600	0.466400	0.705500
H551	H55	0.095800	0.114700	0.189000
H561	H56	0.071800	0.071000	0.081300
H571	H57	0.056300	0.007800	0.121800
H581	H58	0.354700	0.925700	0.961900
H591	H59	0.320900	0.002800	0.948100
H601	H60	0.424800	0.023800	0.011900
H611	H61	0.413800	0.021200	0.322100
H621	H62	0.478100	0.108600	0.335100
H631	H63	0.393000	0.117400	0.374800
H641	H64	0.206300	0.047200	0.954000
H651	H65	0.116800	0.043700	0.986300
H661	H66	0.113900	0.874400	0.988800
H671	H67	0.063300	0.721200	0.881500
H681	H68	0.080500	0.779200	0.683500
H691	H69	0.131300	0.931100	0.795900
H701	H70	0.482500	0.977200	0.103600
H711	H71	0.486300	0.978700	0.195600
H721	H72	0.503700	0.171400	0.171400
H731	H73	0.631800	0.296300	0.248400
H741	H74	0.773100	0.170800	0.360700
H751	H75	0.643800	0.047600	0.278900
H761	H76	0.259400	0.072900	0.345100
H771	H77	0.155500	0.037200	0.275100
H781	H78	0.295300	0.237700	0.321200
H791	H79	0.277000	0.381600	0.402300
H801	H80	0.081200	0.282700	0.478500
H811	H81	0.105000	0.141600	0.397800
H821	H82	0.486600	0.698400	0.349100
H831	H83	0.402500	0.730500	0.384900
H841	H84	0.448000	0.774500	0.337000
H851	H85	0.059700	0.543200	0.073500
H861	H86	0.079100	0.585700	0.180500
H871	H87	0.065700	0.479900	0.115500
H881	H88	0.429500	0.493800	0.018000
H891	H89	0.331000	0.480300	0.950300
H901	H90	0.345100	0.407500	0.979200
H911	H91	0.504300	0.606900	0.122200
H921	H92	0.522200	0.688200	0.223600
H931	H93	0.467300	0.449400	0.137600
H941	H94	0.563700	0.375500	0.182700
H951	H95	0.762300	0.614900	0.359300
H961	H96	0.662300	0.686100	0.310200
H971	H97	0.190200	0.368300	0.968600
H981	H98	0.103900	0.407400	0.991500
H991	H99	0.117500	0.298300	0.808400
H1001	H100	0.082800	0.306100	0.678000
H1011	H101	0.132500	0.581400	0.840000
H1021	H102	0.162500	0.566500	0.966600
H1031	H103	0.275800	0.747600	0.348500
H1041	H104	0.175100	0.712600	0.273600
H1051	H105	0.145000	0.766900	0.425700
H1061	H106	0.074000	0.713300	0.499900
H1071	H107	0.137500	0.473400	0.362000
H1081	H108	0.213400	0.533600	0.294500
C11	C1	0.904000	0.937400	0.867500
C21	C2	0.640500	0.009500	0.008500
C31	C3	0.585600	0.921500	0.675300
C41	C4	0.768200	0.968300	0.933700
C51	C5	0.674900	0.979300	0.925500
C61	C6	0.617400	0.965600	0.841500
C71	C7	0.650700	0.939500	0.765400
C81	C8	0.744400	0.933200	0.775900
C91	C9	0.802900	0.946400	0.858900
C101	C10	0.830400	0.983500	0.024000
C111	C11	0.891000	0.145900	0.072800
C121	C12	0.920500	0.237500	0.136600
C131	C13	0.926900	0.270900	0.231000
C141	C14	0.910200	0.203000	0.254700
C151	C15	0.880800	0.112400	0.187600
C161	C16	0.520500	0.985500	0.834100
C171	C17	0.441400	0.828200	0.789700
C181	C18	0.364500	0.753000	0.742900
C191	C19	0.280600	0.747800	0.682600
C201	C20	0.281000	0.827100	0.677100
C211	C21	0.358700	0.900800	0.725800
C221	C22	0.783800	0.917600	0.699000
C231	C23	0.748000	0.752700	0.646300
C241	C24	0.758700	0.666400	0.597500
C251	C25	0.821700	0.648800	0.547400
C261	C26	0.874100	0.724700	0.552200
C271	C27	0.860400	0.809000	0.601200
C281	C28	0.569300	0.281100	0.662800
C291	C29	0.909400	0.460100	0.873400
C301	C30	0.638400	0.528200	0.000000
C311	C31	0.640500	0.354800	0.756800
C321	C32	0.738800	0.371700	0.771400
C331	C33	0.802700	0.442900	0.856900
C341	C34	0.768200	0.496000	0.928500
C351	C35	0.671100	0.475200	0.917900
C361	C36	0.607700	0.404200	0.831200
C371	C37	0.502700	0.377900	0.818200
C381	C38	0.472800	0.517100	0.817700
C391	C39	0.414800	0.561200	0.790900
C401	C40	0.323500	0.514800	0.724900
C411	C41	0.296800	0.419900	0.686300
C421	C42	0.357500	0.377100	0.715400
C431	C43	0.836000	0.579200	0.017900
C441	C44	0.879400	0.644600	0.185900
C451	C45	0.899400	0.640000	0.264000
C461	C46	0.893700	0.554400	0.258700
C471	C47	0.870400	0.476600	0.168000
C481	C48	0.852300	0.485600	0.092100
C491	C49	0.775900	0.306800	0.697600
C501	C50	0.857000	0.292600	0.587000
C511	C51	0.900300	0.325100	0.543500
C521	C52	0.907400	0.415200	0.562300
C531	C53	0.862100	0.467000	0.624500
C541	C54	0.817200	0.431100	0.665400
C551	C55	0.096000	0.062600	0.132500
C561	C56	0.359500	0.990500	0.991500
C571	C57	0.414400	0.078500	0.324700
C581	C58	0.231800	0.031700	0.066300
C591	C59	0.325100	0.020700	0.074500
C601	C60	0.382600	0.034400	0.158500
C611	C61	0.349300	0.060500	0.234600
C621	C62	0.255600	0.066800	0.224100
C631	C63	0.197100	0.053600	0.141100
C641	C64	0.169600	0.016500	0.976000
C651	C65	0.109000	0.854100	0.927200
C661	C66	0.079500	0.762500	0.863400
C671	C67	0.073100	0.729100	0.769000
C681	C68	0.089800	0.797000	0.745300
C691	C69	0.119200	0.887600	0.812400
C701	C70	0.479500	0.014500	0.165900
C711	C71	0.558600	0.171800	0.210300
C721	C72	0.635500	0.247000	0.257100
C731	C73	0.719400	0.252200	0.317400
C741	C74	0.719000	0.172900	0.322900
C751	C75	0.641300	0.099200	0.274200
C761	C76	0.216200	0.082400	0.301000
C771	C77	0.252000	0.247300	0.353700
C781	C78	0.241300	0.333600	0.402500
C791	C79	0.178300	0.351200	0.452600
C801	C80	0.125900	0.275300	0.447800
C811	C81	0.139600	0.191000	0.398800
C821	C82	0.430700	0.718900	0.337200
C831	C83	0.090600	0.539900	0.126600
C841	C84	0.361600	0.471800	0.000000
C851	C85	0.359500	0.645200	0.243200
C861	C86	0.261200	0.628300	0.228600
C871	C87	0.197300	0.557100	0.143100
C881	C88	0.231800	0.504000	0.071500
C891	C89	0.328900	0.524800	0.082100
C901	C90	0.392300	0.595800	0.168800
C911	C91	0.497300	0.622100	0.181800
C921	C92	0.527200	0.482900	0.182300
C931	C93	0.585200	0.438800	0.209100
C941	C94	0.676500	0.485200	0.275100
C951	C95	0.703200	0.580100	0.313700
C961	C96	0.642500	0.622900	0.284600
C971	C97	0.164000	0.420800	0.982100
C981	C98	0.120600	0.355400	0.814100
C991	C99	0.100600	0.360000	0.736000
C1001	C100	0.106300	0.445600	0.741300
C1011	C101	0.129600	0.523400	0.832000
C1021	C102	0.147700	0.514400	0.907900
C1031	C103	0.224100	0.693200	0.302400
C1041	C104	0.143000	0.707400	0.413000
C1051	C105	0.099700	0.674900	0.456500
C1061	C106	0.092600	0.584800	0.437700
C1071	C107	0.137900	0.533000	0.375500
C1081	C108	0.182800	0.568900	0.334600
N11	N1	0.444800	0.424500	0.780100
N21	N2	0.855100	0.568300	0.100000
N31	N3	0.816200	0.346500	0.649200
N41	N4	0.439200	0.901200	0.780600
N51	N5	0.868500	0.083100	0.096400
N61	N6	0.798000	0.823700	0.648700
N71	N7	0.555200	0.575500	0.219900
N81	N8	0.144900	0.431700	0.900000
N91	N9	0.183800	0.653500	0.350800
N101	N10	0.560800	0.098800	0.219400
N111	N11	0.131500	0.916900	0.903600
N121	N12	0.202000	0.176300	0.351300
O11	O1	0.269800	0.559300	0.703600
O21	O2	0.909000	0.549200	0.331000
O31	O3	0.955100	0.449500	0.525400
O41	O4	0.209100	0.676600	0.635100
O51	O5	0.832100	0.567400	0.500100
O61	O6	0.945000	0.357800	0.289500
O71	O7	0.730200	0.440700	0.296400
O81	O8	0.091000	0.450800	0.669000
O91	O9	0.044900	0.550500	0.474600
O101	O10	0.790900	0.323400	0.364900
O111	O11	0.167900	0.432600	0.499900
O121	O12	0.055000	0.642200	0.710500
C1091	C109	0.458100	0.762600	0.063200
S11	S1	0.561400	0.792500	0.037500
O131	O13	0.601700	0.721100	0.030500
O141	O14	0.614600	0.885000	0.117400
O151	O15	0.518600	0.794200	0.956100
F11	F1	0.471000	0.788400	0.151200
F21	F2	0.412700	0.677600	0.011300
F31	F3	0.394000	0.809300	0.045800
C1101	C110	0.793800	0.190500	0.854500
S21	S2	0.921090	0.227660	0.895030
O161	O16	0.944300	0.246200	0.828300
O171	O17	0.943500	0.307400	0.985600
O181	O18	0.947100	0.149200	0.894200
F41	F4	0.760500	0.123200	0.764800
F51	F5	0.755900	0.259400	0.862300
F61	F6	0.762600	0.159200	0.902100
C1111	C111	0.656300	0.991200	0.462100
S31	S3	0.710600	0.898810	0.451150
O191	O19	0.656300	0.849400	0.478500
O201	O20	0.702600	0.847800	0.355000
O211	O21	0.805900	0.948000	0.513100
F71	F7	0.566000	0.956200	0.405200
F81	F8	0.700500	0.046500	0.445900
F91	F9	0.656700	0.040200	0.547200
C1121	C112	0.541900	0.237400	0.936800
S41	S4	0.438600	0.207500	0.962500
O221	O22	0.398300	0.278900	0.969500
O231	O23	0.385400	0.115000	0.882600
O241	O24	0.481400	0.205800	0.043900
F101	F10	0.529000	0.211600	0.848800
F111	F11	0.587300	0.322400	0.988700
F121	F12	0.606000	0.190700	0.954200
C1131	C113	0.206200	0.809500	0.145500
S51	S5	0.078910	0.772340	0.104970
O251	O25	0.055700	0.753800	0.171700
O261	O26	0.056500	0.692600	0.014400
O271	O27	0.052900	0.850800	0.105800
F131	F13	0.239500	0.876800	0.235200
F141	F14	0.244100	0.740600	0.137700
F151	F15	0.237400	0.840800	0.097900
C1141	C114	0.343700	0.008800	0.537900
S61	S6	0.289400	0.101190	0.548850
O281	O28	0.343700	0.150600	0.521500
O291	O29	0.297400	0.152200	0.645000
O301	O30	0.194100	0.052000	0.486900
F161	F16	0.434000	0.043800	0.594800
F171	F17	0.299500	0.953500	0.554100
F181	F18	0.343300	0.959800	0.452800
