data_EQERAU_freeONLY_PM
_symmetry_space_group_name_H-M	'P1'
_cell_length_a	13.579200
_cell_length_b	13.895800
_cell_length_c	20.747800
_cell_angle_alpha	90.000000
_cell_angle_beta	104.882000
_cell_angle_gamma	90.000000
_symmetry_Int_Tables_number 1

loop_
_symmetry_equiv_pos_as_xyz
'x,y,z'

loop_
_atom_site_label
_atom_site_type_symbol
_atom_site_fract_x
_atom_site_fract_y
_atom_site_fract_z
Mg11	Mg1	0.346140	0.133950	0.049530
Mg21	Mg2	0.594930	0.042990	0.051700
Mg31	Mg3	0.653860	0.633950	0.450470
Mg41	Mg4	0.405070	0.542990	0.448300
Mg51	Mg5	0.653860	0.866050	0.950470
Mg61	Mg6	0.405070	0.957010	0.948300
Mg71	Mg7	0.346140	0.366050	0.549530
Mg81	Mg8	0.594930	0.457010	0.551700
P11	P1	0.264040	0.037050	0.181500
P21	P2	0.735960	0.537050	0.318500
P31	P3	0.735960	0.962950	0.818500
P41	P4	0.264040	0.462950	0.681500
H11	H1	0.432900	0.973800	0.072900
H21	H2	0.324800	0.232200	0.193100
H31	H3	0.362500	0.345200	0.278600
H41	H4	0.286400	0.154300	0.403400
H51	H5	0.246800	0.040200	0.318300
H61	H6	0.080700	0.131400	0.195600
H71	H7	0.907700	0.116200	0.142300
H81	H8	0.970200	0.894300	0.035500
H91	H9	0.144300	0.910700	0.086100
H101	H10	0.178800	0.866700	0.231900
H111	H11	0.251800	0.738700	0.299900
H121	H12	0.532200	0.839400	0.303500
H131	H13	0.459900	0.960800	0.230700
H141	H14	0.567100	0.473800	0.427100
H151	H15	0.675200	0.732200	0.306900
H161	H16	0.637500	0.845200	0.221400
H171	H17	0.713600	0.654300	0.096600
H181	H18	0.753200	0.540200	0.181700
H191	H19	0.919300	0.631400	0.304400
H201	H20	0.092300	0.616200	0.357700
H211	H21	0.029800	0.394300	0.464500
H221	H22	0.855700	0.410700	0.413900
H231	H23	0.821200	0.366700	0.268100
H241	H24	0.748200	0.238700	0.200100
H251	H25	0.467800	0.339400	0.196500
H261	H26	0.540100	0.460800	0.269300
H271	H27	0.567100	0.026200	0.927100
H281	H28	0.675200	0.767800	0.806900
H291	H29	0.637500	0.654800	0.721400
H301	H30	0.713600	0.845700	0.596600
H311	H31	0.753200	0.959800	0.681700
H321	H32	0.919300	0.868600	0.804400
H331	H33	0.092300	0.883800	0.857700
H341	H34	0.029800	0.105700	0.964500
H351	H35	0.855700	0.089300	0.913900
H361	H36	0.821200	0.133300	0.768100
H371	H37	0.748200	0.261300	0.700100
H381	H38	0.467800	0.160600	0.696500
H391	H39	0.540100	0.039200	0.769300
H401	H40	0.432900	0.526200	0.572900
H411	H41	0.324800	0.267800	0.693100
H421	H42	0.362500	0.154800	0.778600
H431	H43	0.286400	0.345700	0.903400
H441	H44	0.246800	0.459800	0.818300
H451	H45	0.080700	0.368600	0.695600
H461	H46	0.907700	0.383800	0.642300
H471	H47	0.970200	0.605700	0.535500
H481	H48	0.144300	0.589300	0.586100
H491	H49	0.178800	0.633300	0.731900
H501	H50	0.251800	0.761300	0.799900
H511	H51	0.532200	0.660600	0.803500
H521	H52	0.459900	0.539200	0.730700
C11	C1	0.284100	0.125600	0.247310
C21	C2	0.317400	0.215700	0.236100
C31	C3	0.340200	0.282700	0.287000
C41	C4	0.330800	0.259400	0.350360
C51	C5	0.295100	0.170000	0.360600
C61	C6	0.271300	0.101900	0.310300
C71	C7	0.359200	0.331500	0.406600
C81	C8	0.129300	0.022900	0.146080
C91	C9	0.058700	0.083300	0.162500
C101	C10	0.955800	0.074200	0.130800
C111	C11	0.923400	0.005100	0.083400
C121	C12	0.993100	0.943500	0.067600
C131	C13	0.096500	0.952500	0.098000
C141	C14	0.809900	0.993900	0.049500
C151	C15	0.311400	0.927300	0.225400
C161	C16	0.250900	0.860800	0.246000
C171	C17	0.294300	0.785300	0.287100
C181	C18	0.399300	0.777200	0.309900
C191	C19	0.460100	0.844200	0.288500
C201	C20	0.417300	0.917000	0.246200
C211	C21	0.447100	0.699800	0.359200
C221	C22	0.715900	0.625600	0.252690
C231	C23	0.682600	0.715700	0.263900
C241	C24	0.659800	0.782700	0.213000
C251	C25	0.669200	0.759400	0.149640
C261	C26	0.704900	0.670000	0.139400
C271	C27	0.728700	0.601900	0.189700
C281	C28	0.640800	0.831500	0.093400
C291	C29	0.870700	0.522900	0.353920
C301	C30	0.941300	0.583300	0.337500
C311	C31	0.044200	0.574200	0.369200
C321	C32	0.076600	0.505100	0.416600
C331	C33	0.006900	0.443500	0.432400
C341	C34	0.903500	0.452500	0.402000
C351	C35	0.190100	0.493900	0.450500
C361	C36	0.688600	0.427300	0.274600
C371	C37	0.749100	0.360800	0.254000
C381	C38	0.705700	0.285300	0.212900
C391	C39	0.600700	0.277200	0.190100
C401	C40	0.539900	0.344200	0.211500
C411	C41	0.582700	0.417000	0.253800
C421	C42	0.552900	0.199800	0.140800
C431	C43	0.715900	0.874400	0.752690
C441	C44	0.682600	0.784300	0.763900
C451	C45	0.659800	0.717300	0.713000
C461	C46	0.669200	0.740600	0.649640
C471	C47	0.704900	0.830000	0.639400
C481	C48	0.728700	0.898100	0.689700
C491	C49	0.640800	0.668500	0.593400
C501	C50	0.870700	0.977100	0.853920
C511	C51	0.941300	0.916700	0.837500
C521	C52	0.044200	0.925800	0.869200
C531	C53	0.076600	0.994900	0.916600
C541	C54	0.006900	0.056500	0.932400
C551	C55	0.903500	0.047500	0.902000
C561	C56	0.190100	0.006100	0.950500
C571	C57	0.688600	0.072700	0.774600
C581	C58	0.749100	0.139200	0.754000
C591	C59	0.705700	0.214700	0.712900
C601	C60	0.600700	0.222800	0.690100
C611	C61	0.539900	0.155800	0.711500
C621	C62	0.582700	0.083000	0.753800
C631	C63	0.552900	0.300200	0.640800
C641	C64	0.284100	0.374400	0.747310
C651	C65	0.317400	0.284300	0.736100
C661	C66	0.340200	0.217300	0.787000
C671	C67	0.330800	0.240600	0.850360
C681	C68	0.295100	0.330000	0.860600
C691	C69	0.271300	0.398100	0.810300
C701	C70	0.359200	0.168500	0.906600
C711	C71	0.129300	0.477100	0.646080
C721	C72	0.058700	0.416700	0.662500
C731	C73	0.955800	0.425800	0.630800
C741	C74	0.923400	0.494900	0.583400
C751	C75	0.993100	0.556500	0.567600
C761	C76	0.096500	0.547500	0.598000
C771	C77	0.809900	0.506100	0.549500
C781	C78	0.311400	0.572700	0.725400
C791	C79	0.250900	0.639200	0.746000
C801	C80	0.294300	0.714700	0.787100
C811	C81	0.399300	0.722800	0.809900
C821	C82	0.460100	0.655800	0.788500
C831	C83	0.417300	0.583000	0.746200
C841	C84	0.447100	0.800200	0.859200
O11	O1	0.321200	0.062300	0.131570
O21	O2	0.371500	0.416900	0.392630
O31	O3	0.369500	0.297000	0.464730
O41	O4	0.785700	0.922600	0.011360
O51	O5	0.751800	0.055800	0.062070
O61	O6	0.391600	0.629100	0.365220
O71	O7	0.538400	0.714300	0.389690
O81	O8	0.439960	0.023800	0.039770
O91	O9	0.251900	0.249800	0.061280
O101	O10	0.583200	0.178100	0.998850
O111	O11	0.678800	0.562300	0.368430
O121	O12	0.628500	0.916900	0.107370
O131	O13	0.630500	0.797000	0.035270
O141	O14	0.214300	0.422600	0.488640
O151	O15	0.248200	0.555800	0.437930
O161	O16	0.608400	0.129100	0.134780
O171	O17	0.461600	0.214300	0.110310
O181	O18	0.560040	0.523800	0.460230
O191	O19	0.748100	0.749800	0.438720
O201	O20	0.416800	0.678100	0.501150
O211	O21	0.678800	0.937700	0.868430
O221	O22	0.628500	0.583100	0.607370
O231	O23	0.630500	0.703000	0.535270
O241	O24	0.214300	0.077400	0.988640
O251	O25	0.248200	0.944200	0.937930
O261	O26	0.608400	0.370900	0.634780
O271	O27	0.461600	0.285700	0.610310
O281	O28	0.560040	0.976200	0.960230
O291	O29	0.748100	0.750200	0.938720
O301	O30	0.416800	0.821900	0.001150
O311	O31	0.321200	0.437700	0.631570
O321	O32	0.371500	0.083100	0.892630
O331	O33	0.369500	0.203000	0.964730
O341	O34	0.785700	0.577400	0.511360
O351	O35	0.751800	0.444200	0.562070
O361	O36	0.391600	0.870900	0.865220
O371	O37	0.538400	0.785700	0.889690
O381	O38	0.439960	0.476200	0.539770
O391	O39	0.251900	0.250200	0.561280
O401	O40	0.583200	0.321900	0.498850
