data_EQOCES01_freeONLY_PM
_symmetry_space_group_name_H-M	'P1'
_cell_length_a	15.925300
_cell_length_b	15.971200
_cell_length_c	18.475000
_cell_angle_alpha	90.000000
_cell_angle_beta	90.000000
_cell_angle_gamma	90.000000
_symmetry_Int_Tables_number 1

loop_
_symmetry_equiv_pos_as_xyz
'x,y,z'

loop_
_atom_site_label
_atom_site_type_symbol
_atom_site_fract_x
_atom_site_fract_y
_atom_site_fract_z
Co11	Co1	0.863610	0.687970	0.399030
Co21	Co2	0.678640	0.995060	0.325060
Co31	Co3	0.136390	0.812030	0.899030
Co41	Co4	0.321360	0.504940	0.825060
Co51	Co5	0.363610	0.312030	0.100970
Co61	Co6	0.178640	0.004940	0.174940
Co71	Co7	0.636390	0.187970	0.600970
Co81	Co8	0.821360	0.495060	0.674940
Co91	Co9	0.136390	0.312030	0.600970
Co101	Co10	0.321360	0.004940	0.674940
Co111	Co11	0.863610	0.187970	0.100970
Co121	Co12	0.678640	0.495060	0.174940
Co131	Co13	0.636390	0.687970	0.899030
Co141	Co14	0.821360	0.995060	0.825060
Co151	Co15	0.363610	0.812030	0.399030
Co161	Co16	0.178640	0.504940	0.325060
H11	H1	0.946000	0.869000	0.418500
H21	H2	0.866000	0.997000	0.390000
H31	H3	0.731300	0.815700	0.355700
H41	H4	0.914000	0.748100	0.551100
H51	H5	0.897000	0.669900	0.665200
H61	H6	0.819300	0.548500	0.509300
H71	H7	0.989000	0.739400	0.276100
H81	H8	0.110000	0.663000	0.238900
H91	H9	0.005800	0.559000	0.396000
H101	H10	0.598000	0.548000	0.319800
H111	H11	0.671000	0.634000	0.414000
H121	H12	0.821700	0.583800	0.265400
H131	H13	0.054000	0.631000	0.918500
H141	H14	0.134000	0.503000	0.890000
H151	H15	0.268700	0.684300	0.855700
H161	H16	0.086000	0.751900	0.051100
H171	H17	0.103000	0.830100	0.165200
H181	H18	0.180700	0.951500	0.009300
H191	H19	0.011000	0.760600	0.776100
H201	H20	0.890000	0.837000	0.738900
H211	H21	0.994200	0.941000	0.896000
H221	H22	0.402000	0.952000	0.819800
H231	H23	0.329000	0.866000	0.914000
H241	H24	0.178300	0.916200	0.765400
H251	H25	0.446000	0.131000	0.081500
H261	H26	0.366000	0.003000	0.110000
H271	H27	0.231300	0.184300	0.144300
H281	H28	0.414000	0.251900	0.948900
H291	H29	0.397000	0.330100	0.834800
H301	H30	0.319300	0.451500	0.990700
H311	H31	0.489000	0.260600	0.223900
H321	H32	0.610000	0.337000	0.261100
H331	H33	0.505800	0.441000	0.104000
H341	H34	0.098000	0.452000	0.180200
H351	H35	0.171000	0.366000	0.086000
H361	H36	0.321700	0.416200	0.234600
H371	H37	0.554000	0.369000	0.581500
H381	H38	0.634000	0.497000	0.610000
H391	H39	0.768700	0.315700	0.644300
H401	H40	0.586000	0.248100	0.448900
H411	H41	0.603000	0.169900	0.334800
H421	H42	0.680700	0.048500	0.490700
H431	H43	0.511000	0.239400	0.723900
H441	H44	0.390000	0.163000	0.761100
H451	H45	0.494200	0.059000	0.604000
H461	H46	0.902000	0.048000	0.680200
H471	H47	0.829000	0.134000	0.586000
H481	H48	0.678300	0.083800	0.734600
H491	H49	0.054000	0.131000	0.581500
H501	H50	0.134000	0.003000	0.610000
H511	H51	0.268700	0.184300	0.644300
H521	H52	0.086000	0.251900	0.448900
H531	H53	0.103000	0.330100	0.334800
H541	H54	0.180700	0.451500	0.490700
H551	H55	0.011000	0.260600	0.723900
H561	H56	0.890000	0.337000	0.761100
H571	H57	0.994200	0.441000	0.604000
H581	H58	0.402000	0.452000	0.680200
H591	H59	0.329000	0.366000	0.586000
H601	H60	0.178300	0.416200	0.734600
H611	H61	0.946000	0.369000	0.081500
H621	H62	0.866000	0.497000	0.110000
H631	H63	0.731300	0.315700	0.144300
H641	H64	0.914000	0.248100	0.948900
H651	H65	0.897000	0.169900	0.834800
H661	H66	0.819300	0.048500	0.990700
H671	H67	0.989000	0.239400	0.223900
H681	H68	0.110000	0.163000	0.261100
H691	H69	0.005800	0.059000	0.104000
H701	H70	0.598000	0.048000	0.180200
H711	H71	0.671000	0.134000	0.086000
H721	H72	0.821700	0.083800	0.234600
H731	H73	0.554000	0.869000	0.918500
H741	H74	0.634000	0.997000	0.890000
H751	H75	0.768700	0.815700	0.855700
H761	H76	0.586000	0.748100	0.051100
H771	H77	0.603000	0.669900	0.165200
H781	H78	0.680700	0.548500	0.009300
H791	H79	0.511000	0.739400	0.776100
H801	H80	0.390000	0.663000	0.738900
H811	H81	0.494200	0.559000	0.896000
H821	H82	0.902000	0.548000	0.819800
H831	H83	0.829000	0.634000	0.914000
H841	H84	0.678300	0.583800	0.765400
H851	H85	0.446000	0.631000	0.418500
H861	H86	0.366000	0.503000	0.390000
H871	H87	0.231300	0.684300	0.355700
H881	H88	0.414000	0.751900	0.551100
H891	H89	0.397000	0.830100	0.665200
H901	H90	0.319300	0.951500	0.509300
H911	H91	0.489000	0.760600	0.276100
H921	H92	0.610000	0.837000	0.238900
H931	H93	0.505800	0.941000	0.396000
H941	H94	0.098000	0.952000	0.319800
H951	H95	0.171000	0.866000	0.414000
H961	H96	0.321700	0.916200	0.265400
C11	C1	0.894500	0.877800	0.399300
C21	C2	0.850500	0.947300	0.383700
C31	C3	0.774700	0.844100	0.364200
C41	C4	0.893500	0.703700	0.559300
C51	C5	0.885400	0.660300	0.620700
C61	C6	0.839800	0.588600	0.535200
C71	C7	0.007100	0.694200	0.292100
C81	C8	0.073700	0.650400	0.271500
C91	C9	0.018800	0.591300	0.359800
C101	C10	0.649600	0.569300	0.322700
C111	C11	0.689900	0.613800	0.373200
C121	C12	0.773400	0.586100	0.289100
C131	C13	0.105500	0.622200	0.899300
C141	C14	0.149500	0.552700	0.883700
C151	C15	0.225300	0.655900	0.864200
C161	C16	0.106500	0.796300	0.059300
C171	C17	0.114600	0.839700	0.120700
C181	C18	0.160200	0.911400	0.035200
C191	C19	0.992900	0.805800	0.792100
C201	C20	0.926300	0.849600	0.771500
C211	C21	0.981200	0.908700	0.859800
C221	C22	0.350400	0.930700	0.822700
C231	C23	0.310100	0.886200	0.873200
C241	C24	0.226600	0.913900	0.789100
C251	C25	0.394500	0.122200	0.100700
C261	C26	0.350500	0.052700	0.116300
C271	C27	0.274700	0.155900	0.135800
C281	C28	0.393500	0.296300	0.940700
C291	C29	0.385400	0.339700	0.879300
C301	C30	0.339800	0.411400	0.964800
C311	C31	0.507100	0.305800	0.207900
C321	C32	0.573700	0.349600	0.228500
C331	C33	0.518800	0.408700	0.140200
C341	C34	0.149600	0.430700	0.177300
C351	C35	0.189900	0.386200	0.126800
C361	C36	0.273400	0.413900	0.210900
C371	C37	0.605500	0.377800	0.600700
C381	C38	0.649500	0.447300	0.616300
C391	C39	0.725300	0.344100	0.635800
C401	C40	0.606500	0.203700	0.440700
C411	C41	0.614600	0.160300	0.379300
C421	C42	0.660200	0.088600	0.464800
C431	C43	0.492900	0.194200	0.707900
C441	C44	0.426300	0.150400	0.728500
C451	C45	0.481200	0.091300	0.640200
C461	C46	0.850400	0.069300	0.677300
C471	C47	0.810100	0.113800	0.626800
C481	C48	0.726600	0.086100	0.710900
C491	C49	0.105500	0.122200	0.600700
C501	C50	0.149500	0.052700	0.616300
C511	C51	0.225300	0.155900	0.635800
C521	C52	0.106500	0.296300	0.440700
C531	C53	0.114600	0.339700	0.379300
C541	C54	0.160200	0.411400	0.464800
C551	C55	0.992900	0.305800	0.707900
C561	C56	0.926300	0.349600	0.728500
C571	C57	0.981200	0.408700	0.640200
C581	C58	0.350400	0.430700	0.677300
C591	C59	0.310100	0.386200	0.626800
C601	C60	0.226600	0.413900	0.710900
C611	C61	0.894500	0.377800	0.100700
C621	C62	0.850500	0.447300	0.116300
C631	C63	0.774700	0.344100	0.135800
C641	C64	0.893500	0.203700	0.940700
C651	C65	0.885400	0.160300	0.879300
C661	C66	0.839800	0.088600	0.964800
C671	C67	0.007100	0.194200	0.207900
C681	C68	0.073700	0.150400	0.228500
C691	C69	0.018800	0.091300	0.140200
C701	C70	0.649600	0.069300	0.177300
C711	C71	0.689900	0.113800	0.126800
C721	C72	0.773400	0.086100	0.210900
C731	C73	0.605500	0.877800	0.899300
C741	C74	0.649500	0.947300	0.883700
C751	C75	0.725300	0.844100	0.864200
C761	C76	0.606500	0.703700	0.059300
C771	C77	0.614600	0.660300	0.120700
C781	C78	0.660200	0.588600	0.035200
C791	C79	0.492900	0.694200	0.792100
C801	C80	0.426300	0.650400	0.771500
C811	C81	0.481200	0.591300	0.859800
C821	C82	0.850400	0.569300	0.822700
C831	C83	0.810100	0.613800	0.873200
C841	C84	0.726600	0.586100	0.789100
C851	C85	0.394500	0.622200	0.399300
C861	C86	0.350500	0.552700	0.383700
C871	C87	0.274700	0.655900	0.364200
C881	C88	0.393500	0.796300	0.559300
C891	C89	0.385400	0.839700	0.620700
C901	C90	0.339800	0.911400	0.535200
C911	C91	0.507100	0.805800	0.292100
C921	C92	0.573700	0.849600	0.271500
C931	C93	0.518800	0.908700	0.359800
C941	C94	0.149600	0.930700	0.322700
C951	C95	0.189900	0.886200	0.373200
C961	C96	0.273400	0.913900	0.289100
N11	N1	0.844700	0.809660	0.387280
N21	N2	0.773600	0.927120	0.360550
N31	N3	0.865780	0.657870	0.502300
N41	N4	0.850120	0.584650	0.605480
N51	N5	0.969000	0.656930	0.349060
N61	N6	0.082580	0.583580	0.315640
N71	N7	0.702600	0.550270	0.268250
N81	N8	0.770500	0.625630	0.352410
N91	N9	0.155300	0.690340	0.887280
N101	N10	0.226400	0.572880	0.860550
N111	N11	0.134220	0.842130	0.002300
N121	N12	0.149880	0.915350	0.105480
N131	N13	0.031000	0.843070	0.849060
N141	N14	0.917420	0.916420	0.815640
N151	N15	0.297400	0.949730	0.768250
N161	N16	0.229500	0.874370	0.852410
N171	N17	0.344700	0.190340	0.112720
N181	N18	0.273600	0.072880	0.139450
N191	N19	0.365780	0.342130	0.997700
N201	N20	0.350120	0.415350	0.894520
N211	N21	0.469000	0.343070	0.150940
N221	N22	0.582580	0.416420	0.184360
N231	N23	0.202600	0.449730	0.231750
N241	N24	0.270500	0.374370	0.147590
N251	N25	0.655300	0.309660	0.612720
N261	N26	0.726400	0.427120	0.639450
N271	N27	0.634220	0.157870	0.497700
N281	N28	0.649880	0.084650	0.394520
N291	N29	0.531000	0.156930	0.650940
N301	N30	0.417420	0.083580	0.684360
N311	N31	0.797400	0.050270	0.731750
N321	N32	0.729500	0.125630	0.647590
N331	N33	0.155300	0.190340	0.612720
N341	N34	0.226400	0.072880	0.639450
N351	N35	0.134220	0.342130	0.497700
N361	N36	0.149880	0.415350	0.394520
N371	N37	0.031000	0.343070	0.650940
N381	N38	0.917420	0.416420	0.684360
N391	N39	0.297400	0.449730	0.731750
N401	N40	0.229500	0.374370	0.647590
N411	N41	0.844700	0.309660	0.112720
N421	N42	0.773600	0.427120	0.139450
N431	N43	0.865780	0.157870	0.997700
N441	N44	0.850120	0.084650	0.894520
N451	N45	0.969000	0.156930	0.150940
N461	N46	0.082580	0.083580	0.184360
N471	N47	0.702600	0.050270	0.231750
N481	N48	0.770500	0.125630	0.147590
N491	N49	0.655300	0.809660	0.887280
N501	N50	0.726400	0.927120	0.860550
N511	N51	0.634220	0.657870	0.002300
N521	N52	0.649880	0.584650	0.105480
N531	N53	0.531000	0.656930	0.849060
N541	N54	0.417420	0.583580	0.815640
N551	N55	0.797400	0.550270	0.768250
N561	N56	0.729500	0.625630	0.852410
N571	N57	0.344700	0.690340	0.387280
N581	N58	0.273600	0.572880	0.360550
N591	N59	0.365780	0.842130	0.502300
N601	N60	0.350120	0.915350	0.605480
N611	N61	0.469000	0.843070	0.349060
N621	N62	0.582580	0.916420	0.315640
N631	N63	0.202600	0.949730	0.268250
N641	N64	0.270500	0.874370	0.352410
