data_ERAHOV_freeONLY_PM
_symmetry_space_group_name_H-M	'P1'
_cell_length_a	11.450000
_cell_length_b	11.467000
_cell_length_c	20.944000
_cell_angle_alpha	90.000000
_cell_angle_beta	90.000000
_cell_angle_gamma	90.000000
_symmetry_Int_Tables_number 1

loop_
_symmetry_equiv_pos_as_xyz
'x,y,z'

loop_
_atom_site_label
_atom_site_type_symbol
_atom_site_fract_x
_atom_site_fract_y
_atom_site_fract_z
C11	C1	0.039300	0.747400	0.700100
C21	C2	0.038300	0.627500	0.697200
C31	C3	0.748500	0.954900	0.702700
C41	C4	0.628300	0.955500	0.700500
H11	H1	0.068800	0.788100	0.665500
H21	H2	0.064200	0.589300	0.660300
H31	H3	0.790000	0.919200	0.669000
H41	H4	0.590300	0.922800	0.665300
C51	C5	0.960700	0.252600	0.700100
C61	C6	0.961700	0.372500	0.697200
C71	C7	0.251500	0.045100	0.702700
C81	C8	0.371700	0.044500	0.700500
H51	H5	0.931200	0.211900	0.665500
H61	H6	0.935800	0.410700	0.660300
H71	H7	0.210000	0.080800	0.669000
H81	H8	0.409700	0.077200	0.665300
C91	C9	0.960700	0.747400	0.799900
C101	C10	0.961700	0.627500	0.802800
C111	C11	0.251500	0.954900	0.797300
C121	C12	0.371700	0.955500	0.799500
H91	H9	0.931200	0.788100	0.834500
H101	H10	0.935800	0.589300	0.839700
H111	H11	0.210000	0.919200	0.831000
H121	H12	0.409700	0.922800	0.834700
C131	C13	0.039300	0.252600	0.799900
C141	C14	0.038300	0.372500	0.802800
C151	C15	0.748500	0.045100	0.797300
C161	C16	0.628300	0.044500	0.799500
H131	H13	0.068800	0.211900	0.834500
H141	H14	0.064200	0.410700	0.839700
H151	H15	0.790000	0.080800	0.831000
H161	H16	0.590300	0.077200	0.834700
C171	C17	0.960700	0.252600	0.299900
C181	C18	0.961700	0.372500	0.302800
C191	C19	0.251500	0.045100	0.297300
C201	C20	0.371700	0.044500	0.299500
H171	H17	0.931200	0.211900	0.334500
H181	H18	0.935800	0.410700	0.339700
H191	H19	0.210000	0.080800	0.331000
H201	H20	0.409700	0.077200	0.334700
C211	C21	0.039300	0.747400	0.299900
C221	C22	0.038300	0.627500	0.302800
C231	C23	0.748500	0.954900	0.297300
C241	C24	0.628300	0.955500	0.299500
H211	H21	0.068800	0.788100	0.334500
H221	H22	0.064200	0.589300	0.339700
H231	H23	0.790000	0.919200	0.331000
H241	H24	0.590300	0.922800	0.334700
C251	C25	0.039300	0.252600	0.200100
C261	C26	0.038300	0.372500	0.197200
C271	C27	0.748500	0.045100	0.202700
C281	C28	0.628300	0.044500	0.200500
H251	H25	0.068800	0.211900	0.165500
H261	H26	0.064200	0.410700	0.160300
H271	H27	0.790000	0.080800	0.169000
H281	H28	0.590300	0.077200	0.165300
C291	C29	0.960700	0.747400	0.200100
C301	C30	0.961700	0.627500	0.197200
C311	C31	0.251500	0.954900	0.202700
C321	C32	0.371700	0.955500	0.200500
H291	H29	0.931200	0.788100	0.165500
H301	H30	0.935800	0.589300	0.160300
H311	H31	0.210000	0.919200	0.169000
H321	H32	0.409700	0.922800	0.165300
Au11	Au1	0.000000	0.000000	0.500000
Au21	Au2	0.000000	0.000000	0.000000
Br11	Br1	0.060600	0.796330	0.500000
Br21	Br2	0.939400	0.203670	0.500000
Br31	Br3	0.939400	0.796330	0.000000
Br41	Br4	0.060600	0.203670	0.000000
Co11	Co1	0.000000	0.000000	0.750000
Co21	Co2	0.000000	0.000000	0.250000
N11	N1	0.000000	0.000000	0.649300
C331	C33	0.000000	0.000000	0.594500
N21	N2	0.000000	0.000000	0.850700
C341	C34	0.000000	0.000000	0.905500
N31	N3	0.000000	0.000000	0.350700
C351	C35	0.000000	0.000000	0.405500
N41	N4	0.000000	0.000000	0.149300
C361	C36	0.000000	0.000000	0.094500
N51	N5	0.000000	0.811400	0.750000
C371	C37	0.000000	0.564500	0.750000
N61	N6	0.000000	0.188600	0.750000
C381	C38	0.000000	0.435500	0.750000
N71	N7	0.000000	0.188600	0.250000
C391	C39	0.000000	0.435500	0.250000
N81	N8	0.000000	0.811400	0.250000
C401	C40	0.000000	0.564500	0.250000
N91	N9	0.810100	0.000000	0.750000
C411	C41	0.564400	0.000000	0.750000
N101	N10	0.189900	0.000000	0.750000
C421	C42	0.435600	0.000000	0.750000
N111	N11	0.189900	0.000000	0.250000
C431	C43	0.435600	0.000000	0.250000
N121	N12	0.810100	0.000000	0.250000
C441	C44	0.564400	0.000000	0.250000
C451	C45	0.600000	0.432000	0.292500
C461	C46	0.551000	0.359000	0.328900
C471	C47	0.662300	0.283000	0.363100
C481	C48	0.611000	0.226000	0.411700
H331	H33	0.640100	0.485800	0.319300
H341	H34	0.654500	0.394700	0.265100
H351	H35	0.500200	0.395800	0.358500
H361	H36	0.507800	0.307000	0.302800
H371	H37	0.718600	0.336000	0.379100
H381	H38	0.699400	0.228300	0.335500
H391	H39	0.666600	0.183800	0.435900
H401	H40	0.573400	0.281900	0.438500
H411	H41	0.554300	0.174200	0.394800
C491	C49	0.400000	0.568000	0.292500
C501	C50	0.449000	0.641000	0.328900
C511	C51	0.337700	0.717000	0.363100
C521	C52	0.389000	0.774000	0.411700
H421	H42	0.359900	0.514200	0.319300
H431	H43	0.345500	0.605300	0.265100
H441	H44	0.499800	0.604200	0.358500
H451	H45	0.492200	0.693000	0.302800
H461	H46	0.281400	0.664000	0.379100
H471	H47	0.300600	0.771700	0.335500
H481	H48	0.333400	0.816200	0.435900
H491	H49	0.426600	0.718100	0.438500
H501	H50	0.445700	0.825800	0.394800
C531	C53	0.400000	0.432000	0.207500
C541	C54	0.449000	0.359000	0.171100
C551	C55	0.337700	0.283000	0.136900
C561	C56	0.389000	0.226000	0.088300
H511	H51	0.359900	0.485800	0.180700
H521	H52	0.345500	0.394700	0.234900
H531	H53	0.499800	0.395800	0.141500
H541	H54	0.492200	0.307000	0.197200
H551	H55	0.281400	0.336000	0.120900
H561	H56	0.300600	0.228300	0.164500
H571	H57	0.333400	0.183800	0.064100
H581	H58	0.426600	0.281900	0.061500
H591	H59	0.445700	0.174200	0.105200
C571	C57	0.600000	0.568000	0.207500
C581	C58	0.551000	0.641000	0.171100
C591	C59	0.662300	0.717000	0.136900
C601	C60	0.611000	0.774000	0.088300
H601	H60	0.640100	0.514200	0.180700
H611	H61	0.654500	0.605300	0.234900
H621	H62	0.500200	0.604200	0.141500
H631	H63	0.507800	0.693000	0.197200
H641	H64	0.718600	0.664000	0.120900
H651	H65	0.699400	0.771700	0.164500
H661	H66	0.666600	0.816200	0.064100
H671	H67	0.573400	0.718100	0.061500
H681	H68	0.554300	0.825800	0.105200
N131	N13	0.500000	0.500000	0.250000
C611	C61	0.400000	0.568000	0.707500
C621	C62	0.449000	0.641000	0.671100
C631	C63	0.337700	0.717000	0.636900
C641	C64	0.389000	0.774000	0.588300
H691	H69	0.359900	0.514200	0.680700
H701	H70	0.345500	0.605300	0.734900
H711	H71	0.499800	0.604200	0.641500
H721	H72	0.492200	0.693000	0.697200
H731	H73	0.281400	0.664000	0.620900
H741	H74	0.300600	0.771700	0.664500
H751	H75	0.333400	0.816200	0.564100
H761	H76	0.426600	0.718100	0.561500
H771	H77	0.445700	0.825800	0.605200
C651	C65	0.600000	0.432000	0.707500
C661	C66	0.551000	0.359000	0.671100
C671	C67	0.662300	0.283000	0.636900
C681	C68	0.611000	0.226000	0.588300
H781	H78	0.640100	0.485800	0.680700
H791	H79	0.654500	0.394700	0.734900
H801	H80	0.500200	0.395800	0.641500
H811	H81	0.507800	0.307000	0.697200
H821	H82	0.718600	0.336000	0.620900
H831	H83	0.699400	0.228300	0.664500
H841	H84	0.666600	0.183800	0.564100
H851	H85	0.573400	0.281900	0.561500
H861	H86	0.554300	0.174200	0.605200
C691	C69	0.600000	0.568000	0.792500
C701	C70	0.551000	0.641000	0.828900
C711	C71	0.662300	0.717000	0.863100
C721	C72	0.611000	0.774000	0.911700
H871	H87	0.640100	0.514200	0.819300
H881	H88	0.654500	0.605300	0.765100
H891	H89	0.500200	0.604200	0.858500
H901	H90	0.507800	0.693000	0.802800
H911	H91	0.718600	0.664000	0.879100
H921	H92	0.699400	0.771700	0.835500
H931	H93	0.666600	0.816200	0.935900
H941	H94	0.573400	0.718100	0.938500
H951	H95	0.554300	0.825800	0.894800
C731	C73	0.400000	0.432000	0.792500
C741	C74	0.449000	0.359000	0.828900
C751	C75	0.337700	0.283000	0.863100
C761	C76	0.389000	0.226000	0.911700
H961	H96	0.359900	0.485800	0.819300
H971	H97	0.345500	0.394700	0.765100
H981	H98	0.499800	0.395800	0.858500
H991	H99	0.492200	0.307000	0.802800
H1001	H100	0.281400	0.336000	0.879100
H1011	H101	0.300600	0.228300	0.835500
H1021	H102	0.333400	0.183800	0.935900
H1031	H103	0.426600	0.281900	0.938500
H1041	H104	0.445700	0.174200	0.894800
N141	N14	0.500000	0.500000	0.750000
