data_ERIGER_freeONLY_PM
_symmetry_space_group_name_H-M	'P1'
_cell_length_a	29.901100
_cell_length_b	29.901100
_cell_length_c	11.741500
_cell_angle_alpha	90.000000
_cell_angle_beta	90.000000
_cell_angle_gamma	120.000000
_symmetry_Int_Tables_number 1

loop_
_symmetry_equiv_pos_as_xyz
'x,y,z'

loop_
_atom_site_label
_atom_site_type_symbol
_atom_site_fract_x
_atom_site_fract_y
_atom_site_fract_z
Ag11	Ag1	0.074850	0.722460	0.578350
C11	C1	0.100990	0.648350	0.388600
C21	C2	0.115540	0.619630	0.300500
H11	H1	0.144900	0.644900	0.253700
H21	H2	0.126400	0.597400	0.340300
C31	C3	0.083920	0.556290	0.159600
H31	H3	0.088100	0.531500	0.208000
H41	H4	0.116500	0.577500	0.117400
C41	C4	0.040250	0.527460	0.077100
C51	C5	0.050420	0.526850	0.961800
H51	H5	0.085000	0.545300	0.934800
C61	C6	0.989500	0.500520	0.113800
H61	H6	0.982000	0.500900	0.192300
C71	C7	0.190300	0.676190	0.466400
H71	H7	0.201300	0.659800	0.413100
C81	C8	0.217260	0.704280	0.557500
H81	H8	0.250700	0.711800	0.581000
C91	C9	0.185710	0.719780	0.609300
H91	H9	0.194700	0.740300	0.676300
C101	C10	0.087300	0.692780	0.220300
H101	H10	0.101800	0.682200	0.161500
C111	C11	0.063490	0.720810	0.207400
H111	H11	0.057900	0.733800	0.138300
C121	C12	0.048830	0.726710	0.316200
H121	H12	0.031500	0.745200	0.333000
C131	C13	0.057680	0.590870	0.560100
H131	H13	0.087400	0.599000	0.604300
C141	C14	0.007930	0.556530	0.587700
H141	H14	0.995800	0.535900	0.654400
C151	C15	0.978440	0.558000	0.497800
H151	H15	0.941900	0.538000	0.493900
N11	N1	0.141700	0.702660	0.554500
N21	N2	0.144840	0.675550	0.464800
N31	N3	0.062080	0.703310	0.393100
N41	N4	0.086600	0.682560	0.333800
N51	N5	0.008030	0.590960	0.418500
N61	N6	0.056830	0.611280	0.457820
O11	O1	0.072770	0.588980	0.229560
Ag21	Ag2	0.741520	0.055800	0.911680
C161	C16	0.767660	0.981680	0.721930
C171	C17	0.782210	0.952960	0.633830
H161	H16	0.811570	0.978230	0.587030
H171	H17	0.793070	0.930730	0.673630
C181	C18	0.750590	0.889620	0.492930
H181	H18	0.754770	0.864830	0.541330
H191	H19	0.783170	0.910830	0.450730
C191	C19	0.706920	0.860790	0.410430
C201	C20	0.717090	0.860180	0.295130
H201	H20	0.751670	0.878630	0.268130
C211	C21	0.656170	0.833850	0.447130
H211	H21	0.648670	0.834230	0.525630
C221	C22	0.856970	0.009520	0.799730
H221	H22	0.867970	0.993130	0.746430
C231	C23	0.883930	0.037610	0.890830
H231	H23	0.917370	0.045130	0.914330
C241	C24	0.852380	0.053110	0.942630
H241	H24	0.861370	0.073630	0.009630
C251	C25	0.753970	0.026110	0.553630
H251	H25	0.768470	0.015530	0.494830
C261	C26	0.730160	0.054140	0.540730
H261	H26	0.724570	0.067130	0.471630
C271	C27	0.715500	0.060040	0.649530
H271	H27	0.698170	0.078530	0.666330
C281	C28	0.724350	0.924200	0.893430
H281	H28	0.754070	0.932330	0.937630
C291	C29	0.674600	0.889860	0.921030
H291	H29	0.662470	0.869230	0.987730
C301	C30	0.645110	0.891330	0.831130
H301	H30	0.608570	0.871330	0.827230
N71	N7	0.808370	0.035990	0.887830
N81	N8	0.811510	0.008880	0.798130
N91	N9	0.728750	0.036640	0.726430
N101	N10	0.753270	0.015890	0.667130
N111	N11	0.674700	0.924290	0.751830
N121	N12	0.723500	0.944610	0.791150
O21	O2	0.739440	0.922310	0.562890
Ag31	Ag3	0.408190	0.389130	0.245020
C311	C31	0.434320	0.315020	0.055270
C321	C32	0.448870	0.286300	0.967170
H311	H31	0.478230	0.311570	0.920370
H321	H32	0.459730	0.264070	0.006970
C331	C33	0.417250	0.222960	0.826270
H331	H33	0.421430	0.198170	0.874670
H341	H34	0.449830	0.244170	0.784070
C341	C34	0.373580	0.194130	0.743770
C351	C35	0.383750	0.193520	0.628470
H351	H35	0.418330	0.211970	0.601470
C361	C36	0.322830	0.167190	0.780470
H361	H36	0.315330	0.167570	0.858970
C371	C37	0.523630	0.342860	0.133070
H371	H37	0.534630	0.326470	0.079770
C381	C38	0.550590	0.370950	0.224170
H381	H38	0.584030	0.378470	0.247670
C391	C39	0.519040	0.386450	0.275970
H391	H39	0.528030	0.406970	0.342970
C401	C40	0.420630	0.359450	0.886970
H401	H40	0.435130	0.348870	0.828170
C411	C41	0.396820	0.387480	0.874070
H411	H41	0.391230	0.400470	0.804970
C421	C42	0.382160	0.393380	0.982870
H421	H42	0.364830	0.411870	0.999670
C431	C43	0.391010	0.257540	0.226770
H431	H43	0.420730	0.265670	0.270970
C441	C44	0.341260	0.223200	0.254370
H441	H44	0.329130	0.202570	0.321070
C451	C45	0.311770	0.224670	0.164470
H451	H45	0.275230	0.204670	0.160570
N131	N13	0.475030	0.369330	0.221170
N141	N14	0.478170	0.342220	0.131470
N151	N15	0.395410	0.369980	0.059770
N161	N16	0.419930	0.349230	0.000470
N171	N17	0.341360	0.257630	0.085170
N181	N18	0.390160	0.277950	0.124490
O31	O3	0.406100	0.255650	0.896230
Ag41	Ag4	0.277540	0.352390	0.578350
C461	C46	0.351650	0.452640	0.388600
C471	C47	0.380370	0.495910	0.300500
H461	H46	0.355100	0.500000	0.253700
H471	H47	0.402600	0.529000	0.340300
C481	C48	0.443710	0.527630	0.159600
H481	H48	0.468500	0.556600	0.208000
H491	H49	0.422500	0.539000	0.117400
C491	C49	0.472540	0.512790	0.077100
C501	C50	0.473150	0.523570	0.961800
H501	H50	0.454700	0.539700	0.934800
C511	C51	0.499480	0.488980	0.113800
H511	H51	0.499100	0.481100	0.192300
C521	C52	0.323810	0.514110	0.466400
H521	H52	0.340200	0.541500	0.413100
C531	C53	0.295720	0.512980	0.557500
H531	H53	0.288200	0.538900	0.581000
C541	C54	0.280220	0.465930	0.609300
H541	H54	0.259700	0.454400	0.676300
C551	C55	0.307220	0.394520	0.220300
H551	H55	0.317800	0.419600	0.161500
C561	C56	0.279190	0.342680	0.207400
H561	H56	0.266200	0.324100	0.138300
C571	C57	0.273290	0.322120	0.316200
H571	H57	0.254800	0.286300	0.333000
C581	C58	0.409130	0.466810	0.560100
H581	H58	0.401000	0.488400	0.604300
C591	C59	0.443470	0.451400	0.587700
H591	H59	0.464100	0.459900	0.654400
C601	C60	0.442000	0.420440	0.497800
H601	H60	0.462000	0.403900	0.493900
N191	N19	0.297340	0.439040	0.554500
N201	N20	0.324450	0.469290	0.464800
N211	N21	0.296690	0.358770	0.393100
N221	N22	0.317440	0.404040	0.333800
N231	N23	0.409040	0.417070	0.418500
N241	N24	0.388720	0.445550	0.457820
O41	O4	0.411020	0.483790	0.229560
Ag51	Ag5	0.944200	0.685730	0.911680
C611	C61	0.018320	0.785970	0.721930
C621	C62	0.047040	0.829240	0.633830
H611	H61	0.021770	0.833330	0.587030
H621	H62	0.069270	0.862330	0.673630
C631	C63	0.110380	0.860960	0.492930
H631	H63	0.135170	0.889930	0.541330
H641	H64	0.089170	0.872330	0.450730
C641	C64	0.139210	0.846120	0.410430
C651	C65	0.139820	0.856900	0.295130
H651	H65	0.121370	0.873030	0.268130
C661	C66	0.166150	0.822310	0.447130
H661	H66	0.165770	0.814430	0.525630
C671	C67	0.990480	0.847440	0.799730
H671	H67	0.006870	0.874830	0.746430
C681	C68	0.962390	0.846310	0.890830
H681	H68	0.954870	0.872230	0.914330
C691	C69	0.946890	0.799260	0.942630
H691	H69	0.926370	0.787730	0.009630
C701	C70	0.973890	0.727850	0.553630
H701	H70	0.984470	0.752930	0.494830
C711	C71	0.945860	0.676010	0.540730
H711	H71	0.932870	0.657430	0.471630
C721	C72	0.939960	0.655450	0.649530
H721	H72	0.921470	0.619630	0.666330
C731	C73	0.075800	0.800140	0.893430
H731	H73	0.067670	0.821730	0.937630
C741	C74	0.110140	0.784730	0.921030
H741	H74	0.130770	0.793230	0.987730
C751	C75	0.108670	0.753770	0.831130
H751	H75	0.128670	0.737230	0.827230
N251	N25	0.964010	0.772370	0.887830
N261	N26	0.991120	0.802620	0.798130
N271	N27	0.963360	0.692100	0.726430
N281	N28	0.984110	0.737370	0.667130
N291	N29	0.075710	0.750400	0.751830
N301	N30	0.055390	0.778880	0.791150
O51	O5	0.077690	0.817120	0.562890
Ag61	Ag6	0.610870	0.019060	0.245020
C761	C76	0.684980	0.119310	0.055270
C771	C77	0.713700	0.162580	0.967170
H761	H76	0.688430	0.166670	0.920370
H771	H77	0.735930	0.195670	0.006970
C781	C78	0.777040	0.194300	0.826270
H781	H78	0.801830	0.223270	0.874670
H791	H79	0.755830	0.205670	0.784070
C791	C79	0.805870	0.179460	0.743770
C801	C80	0.806480	0.190240	0.628470
H801	H80	0.788030	0.206370	0.601470
C811	C81	0.832810	0.155650	0.780470
H811	H81	0.832430	0.147770	0.858970
C821	C82	0.657140	0.180780	0.133070
H821	H82	0.673530	0.208170	0.079770
C831	C83	0.629050	0.179650	0.224170
H831	H83	0.621530	0.205570	0.247670
C841	C84	0.613550	0.132600	0.275970
H841	H84	0.593030	0.121070	0.342970
C851	C85	0.640550	0.061190	0.886970
H851	H85	0.651130	0.086270	0.828170
C861	C86	0.612520	0.009350	0.874070
H861	H86	0.599530	0.990770	0.804970
C871	C87	0.606620	0.988790	0.982870
H871	H87	0.588130	0.952970	0.999670
C881	C88	0.742460	0.133480	0.226770
H881	H88	0.734330	0.155070	0.270970
C891	C89	0.776800	0.118070	0.254370
H891	H89	0.797430	0.126570	0.321070
C901	C90	0.775330	0.087110	0.164470
H901	H90	0.795330	0.070570	0.160570
N311	N31	0.630670	0.105710	0.221170
N321	N32	0.657780	0.135960	0.131470
N331	N33	0.630020	0.025440	0.059770
N341	N34	0.650770	0.070710	0.000470
N351	N35	0.742370	0.083740	0.085170
N361	N36	0.722050	0.112220	0.124490
O61	O6	0.744350	0.150460	0.896230
Ag71	Ag7	0.647610	0.925150	0.578350
C911	C91	0.547360	0.899010	0.388600
C921	C92	0.504090	0.884460	0.300500
H911	H91	0.500000	0.855100	0.253700
H921	H92	0.471000	0.873600	0.340300
C931	C93	0.472370	0.916080	0.159600
H931	H93	0.443400	0.911900	0.208000
H941	H94	0.461000	0.883500	0.117400
C941	C94	0.487210	0.959750	0.077100
C951	C95	0.476430	0.949580	0.961800
H951	H95	0.460300	0.915000	0.934800
C961	C96	0.511020	0.010500	0.113800
H961	H96	0.518900	0.018000	0.192300
C971	C97	0.485890	0.809700	0.466400
H971	H97	0.458500	0.798700	0.413100
C981	C98	0.487020	0.782740	0.557500
H981	H98	0.461100	0.749300	0.581000
C991	C99	0.534070	0.814290	0.609300
H991	H99	0.545600	0.805300	0.676300
C1001	C100	0.605480	0.912700	0.220300
H1001	H100	0.580400	0.898200	0.161500
C1011	C101	0.657320	0.936510	0.207400
H1011	H101	0.675900	0.942100	0.138300
C1021	C102	0.677880	0.951170	0.316200
H1021	H102	0.713700	0.968500	0.333000
C1031	C103	0.533190	0.942320	0.560100
H1031	H103	0.511600	0.912600	0.604300
C1041	C104	0.548600	0.992070	0.587700
H1041	H104	0.540100	0.004200	0.654400
C1051	C105	0.579560	0.021560	0.497800
H1051	H105	0.596100	0.058100	0.493900
N371	N37	0.560960	0.858300	0.554500
N381	N38	0.530710	0.855160	0.464800
N391	N39	0.641230	0.937920	0.393100
N401	N40	0.595960	0.913400	0.333800
N411	N41	0.582930	0.991970	0.418500
N421	N42	0.554450	0.943170	0.457820
O71	O7	0.516210	0.927230	0.229560
Ag81	Ag8	0.314270	0.258480	0.911680
C1061	C106	0.214030	0.232340	0.721930
C1071	C107	0.170760	0.217790	0.633830
H1061	H106	0.166670	0.188430	0.587030
H1071	H107	0.137670	0.206930	0.673630
C1081	C108	0.139040	0.249410	0.492930
H1081	H108	0.110070	0.245230	0.541330
H1091	H109	0.127670	0.216830	0.450730
C1091	C109	0.153880	0.293080	0.410430
C1101	C110	0.143100	0.282910	0.295130
H1101	H110	0.126970	0.248330	0.268130
C1111	C111	0.177690	0.343830	0.447130
H1111	H111	0.185570	0.351330	0.525630
C1121	C112	0.152560	0.143030	0.799730
H1121	H112	0.125170	0.132030	0.746430
C1131	C113	0.153690	0.116070	0.890830
H1131	H113	0.127770	0.082630	0.914330
C1141	C114	0.200740	0.147620	0.942630
H1141	H114	0.212270	0.138630	0.009630
C1151	C115	0.272150	0.246030	0.553630
H1151	H115	0.247070	0.231530	0.494830
C1161	C116	0.323990	0.269840	0.540730
H1161	H116	0.342570	0.275430	0.471630
C1171	C117	0.344550	0.284500	0.649530
H1171	H117	0.380370	0.301830	0.666330
C1181	C118	0.199860	0.275650	0.893430
H1181	H118	0.178270	0.245930	0.937630
C1191	C119	0.215270	0.325400	0.921030
H1191	H119	0.206770	0.337530	0.987730
C1201	C120	0.246230	0.354890	0.831130
H1201	H120	0.262770	0.391430	0.827230
N431	N43	0.227630	0.191630	0.887830
N441	N44	0.197380	0.188490	0.798130
N451	N45	0.307900	0.271250	0.726430
N461	N46	0.262630	0.246730	0.667130
N471	N47	0.249600	0.325300	0.751830
N481	N48	0.221120	0.276500	0.791150
O81	O8	0.182880	0.260560	0.562890
Ag91	Ag9	0.980940	0.591810	0.245020
C1211	C121	0.880690	0.565680	0.055270
C1221	C122	0.837420	0.551130	0.967170
H1211	H121	0.833330	0.521770	0.920370
H1221	H122	0.804330	0.540270	0.006970
C1231	C123	0.805700	0.582750	0.826270
H1231	H123	0.776730	0.578570	0.874670
H1241	H124	0.794330	0.550170	0.784070
C1241	C124	0.820540	0.626420	0.743770
C1251	C125	0.809760	0.616250	0.628470
H1251	H125	0.793630	0.581670	0.601470
C1261	C126	0.844350	0.677170	0.780470
H1261	H126	0.852230	0.684670	0.858970
C1271	C127	0.819220	0.476370	0.133070
H1271	H127	0.791830	0.465370	0.079770
C1281	C128	0.820350	0.449410	0.224170
H1281	H128	0.794430	0.415970	0.247670
C1291	C129	0.867400	0.480960	0.275970
H1291	H129	0.878930	0.471970	0.342970
C1301	C130	0.938810	0.579370	0.886970
H1301	H130	0.913730	0.564870	0.828170
C1311	C131	0.990650	0.603180	0.874070
H1311	H131	0.009230	0.608770	0.804970
C1321	C132	0.011210	0.617840	0.982870
H1321	H132	0.047030	0.635170	0.999670
C1331	C133	0.866520	0.608990	0.226770
H1331	H133	0.844930	0.579270	0.270970
C1341	C134	0.881930	0.658740	0.254370
H1341	H134	0.873430	0.670870	0.321070
C1351	C135	0.912890	0.688230	0.164470
H1351	H135	0.929430	0.724770	0.160570
N491	N49	0.894290	0.524970	0.221170
N501	N50	0.864040	0.521830	0.131470
N511	N51	0.974560	0.604590	0.059770
N521	N52	0.929290	0.580070	0.000470
N531	N53	0.916260	0.658640	0.085170
N541	N54	0.887780	0.609840	0.124490
O91	O9	0.849540	0.593900	0.896230
Ag101	Ag10	0.925150	0.277540	0.421650
C1361	C136	0.899010	0.351650	0.611400
C1371	C137	0.884460	0.380370	0.699500
H1361	H136	0.855100	0.355100	0.746300
H1371	H137	0.873600	0.402600	0.659700
C1381	C138	0.916080	0.443710	0.840400
H1381	H138	0.911900	0.468500	0.792000
H1391	H139	0.883500	0.422500	0.882600
C1391	C139	0.959750	0.472540	0.922900
C1401	C140	0.949580	0.473150	0.038200
H1401	H140	0.915000	0.454700	0.065200
C1411	C141	0.010500	0.499480	0.886200
H1411	H141	0.018000	0.499100	0.807700
C1421	C142	0.809700	0.323810	0.533600
H1421	H142	0.798700	0.340200	0.586900
C1431	C143	0.782740	0.295720	0.442500
H1431	H143	0.749300	0.288200	0.419000
C1441	C144	0.814290	0.280220	0.390700
H1441	H144	0.805300	0.259700	0.323700
C1451	C145	0.912700	0.307220	0.779700
H1451	H145	0.898200	0.317800	0.838500
C1461	C146	0.936510	0.279190	0.792600
H1461	H146	0.942100	0.266200	0.861700
C1471	C147	0.951170	0.273290	0.683800
H1471	H147	0.968500	0.254800	0.667000
C1481	C148	0.942320	0.409130	0.439900
H1481	H148	0.912600	0.401000	0.395700
C1491	C149	0.992070	0.443470	0.412300
H1491	H149	0.004200	0.464100	0.345600
C1501	C150	0.021560	0.442000	0.502200
H1501	H150	0.058100	0.462000	0.506100
N551	N55	0.858300	0.297340	0.445500
N561	N56	0.855160	0.324450	0.535200
N571	N57	0.937920	0.296690	0.606900
N581	N58	0.913400	0.317440	0.666200
N591	N59	0.991970	0.409040	0.581500
N601	N60	0.943170	0.388720	0.542180
O101	O10	0.927230	0.411020	0.770440
Ag111	Ag11	0.591810	0.610870	0.754980
C1511	C151	0.565680	0.684980	0.944730
C1521	C152	0.551130	0.713700	0.032830
H1511	H151	0.521770	0.688430	0.079630
H1521	H152	0.540270	0.735930	0.993030
C1531	C153	0.582750	0.777040	0.173730
H1531	H153	0.578570	0.801830	0.125330
H1541	H154	0.550170	0.755830	0.215930
C1541	C154	0.626420	0.805870	0.256230
C1551	C155	0.616250	0.806480	0.371530
H1551	H155	0.581670	0.788030	0.398530
C1561	C156	0.677170	0.832810	0.219530
H1561	H156	0.684670	0.832430	0.141030
C1571	C157	0.476370	0.657140	0.866930
H1571	H157	0.465370	0.673530	0.920230
C1581	C158	0.449410	0.629050	0.775830
H1581	H158	0.415970	0.621530	0.752330
C1591	C159	0.480960	0.613550	0.724030
H1591	H159	0.471970	0.593030	0.657030
C1601	C160	0.579370	0.640550	0.113030
H1601	H160	0.564870	0.651130	0.171830
C1611	C161	0.603180	0.612520	0.125930
H1611	H161	0.608770	0.599530	0.195030
C1621	C162	0.617840	0.606620	0.017130
H1621	H162	0.635170	0.588130	0.000330
C1631	C163	0.608990	0.742460	0.773230
H1631	H163	0.579270	0.734330	0.729030
C1641	C164	0.658740	0.776800	0.745630
H1641	H164	0.670870	0.797430	0.678930
C1651	C165	0.688230	0.775330	0.835530
H1651	H165	0.724770	0.795330	0.839430
N611	N61	0.524970	0.630670	0.778830
N621	N62	0.521830	0.657780	0.868530
N631	N63	0.604590	0.630020	0.940230
N641	N64	0.580070	0.650770	0.999530
N651	N65	0.658640	0.742370	0.914830
N661	N66	0.609840	0.722050	0.875510
O111	O11	0.593900	0.744350	0.103770
Ag121	Ag12	0.258480	0.944200	0.088320
C1661	C166	0.232340	0.018320	0.278070
C1671	C167	0.217790	0.047040	0.366170
H1661	H166	0.188430	0.021770	0.412970
H1671	H167	0.206930	0.069270	0.326370
C1681	C168	0.249410	0.110380	0.507070
H1681	H168	0.245230	0.135170	0.458670
H1691	H169	0.216830	0.089170	0.549270
C1691	C169	0.293080	0.139210	0.589570
C1701	C170	0.282910	0.139820	0.704870
H1701	H170	0.248330	0.121370	0.731870
C1711	C171	0.343830	0.166150	0.552870
H1711	H171	0.351330	0.165770	0.474370
C1721	C172	0.143030	0.990480	0.200270
H1721	H172	0.132030	0.006870	0.253570
C1731	C173	0.116070	0.962390	0.109170
H1731	H173	0.082630	0.954870	0.085670
C1741	C174	0.147620	0.946890	0.057370
H1741	H174	0.138630	0.926370	0.990370
C1751	C175	0.246030	0.973890	0.446370
H1751	H175	0.231530	0.984470	0.505170
C1761	C176	0.269840	0.945860	0.459270
H1761	H176	0.275430	0.932870	0.528370
C1771	C177	0.284500	0.939960	0.350470
H1771	H177	0.301830	0.921470	0.333670
C1781	C178	0.275650	0.075800	0.106570
H1781	H178	0.245930	0.067670	0.062370
C1791	C179	0.325400	0.110140	0.078970
H1791	H179	0.337530	0.130770	0.012270
C1801	C180	0.354890	0.108670	0.168870
H1801	H180	0.391430	0.128670	0.172770
N671	N67	0.191630	0.964010	0.112170
N681	N68	0.188490	0.991120	0.201870
N691	N69	0.271250	0.963360	0.273570
N701	N70	0.246730	0.984110	0.332870
N711	N71	0.325300	0.075710	0.248170
N721	N72	0.276500	0.055390	0.208850
O121	O12	0.260560	0.077690	0.437110
Ag131	Ag13	0.722460	0.647610	0.421650
C1811	C181	0.648350	0.547360	0.611400
C1821	C182	0.619630	0.504090	0.699500
H1811	H181	0.644900	0.500000	0.746300
H1821	H182	0.597400	0.471000	0.659700
C1831	C183	0.556290	0.472370	0.840400
H1831	H183	0.531500	0.443400	0.792000
H1841	H184	0.577500	0.461000	0.882600
C1841	C184	0.527460	0.487210	0.922900
C1851	C185	0.526850	0.476430	0.038200
H1851	H185	0.545300	0.460300	0.065200
C1861	C186	0.500520	0.511020	0.886200
H1861	H186	0.500900	0.518900	0.807700
C1871	C187	0.676190	0.485890	0.533600
H1871	H187	0.659800	0.458500	0.586900
C1881	C188	0.704280	0.487020	0.442500
H1881	H188	0.711800	0.461100	0.419000
C1891	C189	0.719780	0.534070	0.390700
H1891	H189	0.740300	0.545600	0.323700
C1901	C190	0.692780	0.605480	0.779700
H1901	H190	0.682200	0.580400	0.838500
C1911	C191	0.720810	0.657320	0.792600
H1911	H191	0.733800	0.675900	0.861700
C1921	C192	0.726710	0.677880	0.683800
H1921	H192	0.745200	0.713700	0.667000
C1931	C193	0.590870	0.533190	0.439900
H1931	H193	0.599000	0.511600	0.395700
C1941	C194	0.556530	0.548600	0.412300
H1941	H194	0.535900	0.540100	0.345600
C1951	C195	0.558000	0.579560	0.502200
H1951	H195	0.538000	0.596100	0.506100
N731	N73	0.702660	0.560960	0.445500
N741	N74	0.675550	0.530710	0.535200
N751	N75	0.703310	0.641230	0.606900
N761	N76	0.682560	0.595960	0.666200
N771	N77	0.590960	0.582930	0.581500
N781	N78	0.611280	0.554450	0.542180
O131	O13	0.588980	0.516210	0.770440
Ag141	Ag14	0.389130	0.980940	0.754980
C1961	C196	0.315020	0.880690	0.944730
C1971	C197	0.286300	0.837420	0.032830
H1961	H196	0.311570	0.833330	0.079630
H1971	H197	0.264070	0.804330	0.993030
C1981	C198	0.222960	0.805700	0.173730
H1981	H198	0.198170	0.776730	0.125330
H1991	H199	0.244170	0.794330	0.215930
C1991	C199	0.194130	0.820540	0.256230
C2001	C200	0.193520	0.809760	0.371530
H2001	H200	0.211970	0.793630	0.398530
C2011	C201	0.167190	0.844350	0.219530
H2011	H201	0.167570	0.852230	0.141030
C2021	C202	0.342860	0.819220	0.866930
H2021	H202	0.326470	0.791830	0.920230
C2031	C203	0.370950	0.820350	0.775830
H2031	H203	0.378470	0.794430	0.752330
C2041	C204	0.386450	0.867400	0.724030
H2041	H204	0.406970	0.878930	0.657030
C2051	C205	0.359450	0.938810	0.113030
H2051	H205	0.348870	0.913730	0.171830
C2061	C206	0.387480	0.990650	0.125930
H2061	H206	0.400470	0.009230	0.195030
C2071	C207	0.393380	0.011210	0.017130
H2071	H207	0.411870	0.047030	0.000330
C2081	C208	0.257540	0.866520	0.773230
H2081	H208	0.265670	0.844930	0.729030
C2091	C209	0.223200	0.881930	0.745630
H2091	H209	0.202570	0.873430	0.678930
C2101	C210	0.224670	0.912890	0.835530
H2101	H210	0.204670	0.929430	0.839430
N791	N79	0.369330	0.894290	0.778830
N801	N80	0.342220	0.864040	0.868530
N811	N81	0.369980	0.974560	0.940230
N821	N82	0.349230	0.929290	0.999530
N831	N83	0.257630	0.916260	0.914830
N841	N84	0.277950	0.887780	0.875510
O141	O14	0.255650	0.849540	0.103770
Ag151	Ag15	0.055800	0.314270	0.088320
C2111	C211	0.981680	0.214030	0.278070
C2121	C212	0.952960	0.170760	0.366170
H2111	H211	0.978230	0.166670	0.412970
H2121	H212	0.930730	0.137670	0.326370
C2131	C213	0.889620	0.139040	0.507070
H2131	H213	0.864830	0.110070	0.458670
H2141	H214	0.910830	0.127670	0.549270
C2141	C214	0.860790	0.153880	0.589570
C2151	C215	0.860180	0.143100	0.704870
H2151	H215	0.878630	0.126970	0.731870
C2161	C216	0.833850	0.177690	0.552870
H2161	H216	0.834230	0.185570	0.474370
C2171	C217	0.009520	0.152560	0.200270
H2171	H217	0.993130	0.125170	0.253570
C2181	C218	0.037610	0.153690	0.109170
H2181	H218	0.045130	0.127770	0.085670
C2191	C219	0.053110	0.200740	0.057370
H2191	H219	0.073630	0.212270	0.990370
C2201	C220	0.026110	0.272150	0.446370
H2201	H220	0.015530	0.247070	0.505170
C2211	C221	0.054140	0.323990	0.459270
H2211	H221	0.067130	0.342570	0.528370
C2221	C222	0.060040	0.344550	0.350470
H2221	H222	0.078530	0.380370	0.333670
C2231	C223	0.924200	0.199860	0.106570
H2231	H223	0.932330	0.178270	0.062370
C2241	C224	0.889860	0.215270	0.078970
H2241	H224	0.869230	0.206770	0.012270
C2251	C225	0.891330	0.246230	0.168870
H2251	H225	0.871330	0.262770	0.172770
N851	N85	0.035990	0.227630	0.112170
N861	N86	0.008880	0.197380	0.201870
N871	N87	0.036640	0.307900	0.273570
N881	N88	0.015890	0.262630	0.332870
N891	N89	0.924290	0.249600	0.248170
N901	N90	0.944610	0.221120	0.208850
O151	O15	0.922310	0.182880	0.437110
Ag161	Ag16	0.352390	0.074850	0.421650
C2261	C226	0.452640	0.100990	0.611400
C2271	C227	0.495910	0.115540	0.699500
H2261	H226	0.500000	0.144900	0.746300
H2271	H227	0.529000	0.126400	0.659700
C2281	C228	0.527630	0.083920	0.840400
H2281	H228	0.556600	0.088100	0.792000
H2291	H229	0.539000	0.116500	0.882600
C2291	C229	0.512790	0.040250	0.922900
C2301	C230	0.523570	0.050420	0.038200
H2301	H230	0.539700	0.085000	0.065200
C2311	C231	0.488980	0.989500	0.886200
H2311	H231	0.481100	0.982000	0.807700
C2321	C232	0.514110	0.190300	0.533600
H2321	H232	0.541500	0.201300	0.586900
C2331	C233	0.512980	0.217260	0.442500
H2331	H233	0.538900	0.250700	0.419000
C2341	C234	0.465930	0.185710	0.390700
H2341	H234	0.454400	0.194700	0.323700
C2351	C235	0.394520	0.087300	0.779700
H2351	H235	0.419600	0.101800	0.838500
C2361	C236	0.342680	0.063490	0.792600
H2361	H236	0.324100	0.057900	0.861700
C2371	C237	0.322120	0.048830	0.683800
H2371	H237	0.286300	0.031500	0.667000
C2381	C238	0.466810	0.057680	0.439900
H2381	H238	0.488400	0.087400	0.395700
C2391	C239	0.451400	0.007930	0.412300
H2391	H239	0.459900	0.995800	0.345600
C2401	C240	0.420440	0.978440	0.502200
H2401	H240	0.403900	0.941900	0.506100
N911	N91	0.439040	0.141700	0.445500
N921	N92	0.469290	0.144840	0.535200
N931	N93	0.358770	0.062080	0.606900
N941	N94	0.404040	0.086600	0.666200
N951	N95	0.417070	0.008030	0.581500
N961	N96	0.445550	0.056830	0.542180
O161	O16	0.483790	0.072770	0.770440
Ag171	Ag17	0.019060	0.408190	0.754980
C2411	C241	0.119310	0.434320	0.944730
C2421	C242	0.162580	0.448870	0.032830
H2411	H241	0.166670	0.478230	0.079630
H2421	H242	0.195670	0.459730	0.993030
C2431	C243	0.194300	0.417250	0.173730
H2431	H243	0.223270	0.421430	0.125330
H2441	H244	0.205670	0.449830	0.215930
C2441	C244	0.179460	0.373580	0.256230
C2451	C245	0.190240	0.383750	0.371530
H2451	H245	0.206370	0.418330	0.398530
C2461	C246	0.155650	0.322830	0.219530
H2461	H246	0.147770	0.315330	0.141030
C2471	C247	0.180780	0.523630	0.866930
H2471	H247	0.208170	0.534630	0.920230
C2481	C248	0.179650	0.550590	0.775830
H2481	H248	0.205570	0.584030	0.752330
C2491	C249	0.132600	0.519040	0.724030
H2491	H249	0.121070	0.528030	0.657030
C2501	C250	0.061190	0.420630	0.113030
H2501	H250	0.086270	0.435130	0.171830
C2511	C251	0.009350	0.396820	0.125930
H2511	H251	0.990770	0.391230	0.195030
C2521	C252	0.988790	0.382160	0.017130
H2521	H252	0.952970	0.364830	0.000330
C2531	C253	0.133480	0.391010	0.773230
H2531	H253	0.155070	0.420730	0.729030
C2541	C254	0.118070	0.341260	0.745630
H2541	H254	0.126570	0.329130	0.678930
C2551	C255	0.087110	0.311770	0.835530
H2551	H255	0.070570	0.275230	0.839430
N971	N97	0.105710	0.475030	0.778830
N981	N98	0.135960	0.478170	0.868530
N991	N99	0.025440	0.395410	0.940230
N1001	N100	0.070710	0.419930	0.999530
N1011	N101	0.083740	0.341360	0.914830
N1021	N102	0.112220	0.390160	0.875510
O171	O17	0.150460	0.406100	0.103770
Ag181	Ag18	0.685730	0.741520	0.088320
C2561	C256	0.785970	0.767660	0.278070
C2571	C257	0.829240	0.782210	0.366170
H2561	H256	0.833330	0.811570	0.412970
H2571	H257	0.862330	0.793070	0.326370
C2581	C258	0.860960	0.750590	0.507070
H2581	H258	0.889930	0.754770	0.458670
H2591	H259	0.872330	0.783170	0.549270
C2591	C259	0.846120	0.706920	0.589570
C2601	C260	0.856900	0.717090	0.704870
H2601	H260	0.873030	0.751670	0.731870
C2611	C261	0.822310	0.656170	0.552870
H2611	H261	0.814430	0.648670	0.474370
C2621	C262	0.847440	0.856970	0.200270
H2621	H262	0.874830	0.867970	0.253570
C2631	C263	0.846310	0.883930	0.109170
H2631	H263	0.872230	0.917370	0.085670
C2641	C264	0.799260	0.852380	0.057370
H2641	H264	0.787730	0.861370	0.990370
C2651	C265	0.727850	0.753970	0.446370
H2651	H265	0.752930	0.768470	0.505170
C2661	C266	0.676010	0.730160	0.459270
H2661	H266	0.657430	0.724570	0.528370
C2671	C267	0.655450	0.715500	0.350470
H2671	H267	0.619630	0.698170	0.333670
C2681	C268	0.800140	0.724350	0.106570
H2681	H268	0.821730	0.754070	0.062370
C2691	C269	0.784730	0.674600	0.078970
H2691	H269	0.793230	0.662470	0.012270
C2701	C270	0.753770	0.645110	0.168870
H2701	H270	0.737230	0.608570	0.172770
N1031	N103	0.772370	0.808370	0.112170
N1041	N104	0.802620	0.811510	0.201870
N1051	N105	0.692100	0.728750	0.273570
N1061	N106	0.737370	0.753270	0.332870
N1071	N107	0.750400	0.674700	0.248170
N1081	N108	0.778880	0.723500	0.208850
O181	O18	0.817120	0.739440	0.437110
