data_ERIJUM_freeONLY_PM
_symmetry_space_group_name_H-M	'P1'
_cell_length_a	23.342000
_cell_length_b	20.685000
_cell_length_c	12.540200
_cell_angle_alpha	90.000000
_cell_angle_beta	97.970000
_cell_angle_gamma	90.000000
_symmetry_Int_Tables_number 1

loop_
_symmetry_equiv_pos_as_xyz
'x,y,z'

loop_
_atom_site_label
_atom_site_type_symbol
_atom_site_fract_x
_atom_site_fract_y
_atom_site_fract_z
Ag11	Ag1	0.263200	0.923500	0.565000
N11	N1	0.333000	0.950000	0.483000
N21	N2	0.183800	0.887000	0.462000
N31	N3	0.500600	0.533800	0.095000
N41	N4	0.082000	0.844000	0.345000
C11	C1	0.476000	0.730000	0.320000
H11	H1	0.458500	0.708000	0.371500
C21	C2	0.153000	0.921000	0.387000
H21	H2	0.166000	0.962700	0.377500
C31	C3	0.476000	0.798000	0.321000
H31	H3	0.459000	0.820600	0.371900
C41	C4	0.548000	0.509000	0.068000
H41	H4	0.582800	0.515400	0.113100
C51	C5	0.453000	0.526000	0.027000
H51	H5	0.418900	0.544400	0.042700
C61	C6	0.392000	0.937000	0.516000
H61	H6	0.404100	0.925000	0.586400
C71	C7	0.108000	0.903000	0.326000
H71	H7	0.091600	0.928800	0.270000
C81	C8	0.116000	0.807000	0.415000
H81	H8	0.102700	0.765900	0.428100
C91	C9	0.370000	0.979000	0.315000
H91	H9	0.361300	0.994400	0.245000
N51	N5	0.425000	0.961000	0.353000
C101	C10	0.430000	0.942000	0.447000
H101	H10	0.467400	0.929500	0.475600
C111	C11	0.168000	0.825000	0.468000
H111	H11	0.191900	0.795300	0.508100
C121	C12	0.330000	0.976000	0.377000
H121	H12	0.293800	0.993600	0.348300
C131	C13	0.978000	0.660000	0.330000
H131	H13	0.966100	0.681600	0.388200
C141	C14	0.973000	0.598000	0.328000
H141	H14	0.952900	0.577800	0.376900
Ag21	Ag2	0.763200	0.423500	0.565000
N61	N6	0.833000	0.450000	0.483000
N71	N7	0.683800	0.387000	0.462000
N81	N8	0.000600	0.033800	0.095000
N91	N9	0.582000	0.344000	0.345000
C151	C15	0.976000	0.230000	0.320000
H151	H15	0.958500	0.208000	0.371500
C161	C16	0.653000	0.421000	0.387000
H161	H16	0.666000	0.462700	0.377500
C171	C17	0.976000	0.298000	0.321000
H171	H17	0.959000	0.320600	0.371900
C181	C18	0.048000	0.009000	0.068000
H181	H18	0.082800	0.015400	0.113100
C191	C19	0.953000	0.026000	0.027000
H191	H19	0.918900	0.044400	0.042700
C201	C20	0.892000	0.437000	0.516000
H201	H20	0.904100	0.425000	0.586400
C211	C21	0.608000	0.403000	0.326000
H211	H21	0.591600	0.428800	0.270000
C221	C22	0.616000	0.307000	0.415000
H221	H22	0.602700	0.265900	0.428100
C231	C23	0.870000	0.479000	0.315000
H231	H23	0.861300	0.494400	0.245000
N101	N10	0.925000	0.461000	0.353000
C241	C24	0.930000	0.442000	0.447000
H241	H24	0.967400	0.429500	0.475600
C251	C25	0.668000	0.325000	0.468000
H251	H25	0.691900	0.295300	0.508100
C261	C26	0.830000	0.476000	0.377000
H261	H26	0.793800	0.493600	0.348300
C271	C27	0.478000	0.160000	0.330000
H271	H27	0.466100	0.181600	0.388200
C281	C28	0.473000	0.098000	0.328000
H281	H28	0.452900	0.077800	0.376900
Ag31	Ag3	0.736800	0.923500	0.935000
N111	N11	0.667000	0.950000	0.017000
N121	N12	0.816200	0.887000	0.038000
N131	N13	0.499400	0.533800	0.405000
N141	N14	0.918000	0.844000	0.155000
C291	C29	0.524000	0.730000	0.180000
H291	H29	0.541500	0.708000	0.128500
C301	C30	0.847000	0.921000	0.113000
H301	H30	0.834000	0.962700	0.122500
C311	C31	0.524000	0.798000	0.179000
H311	H31	0.541000	0.820600	0.128100
C321	C32	0.452000	0.509000	0.432000
H321	H32	0.417200	0.515400	0.386900
C331	C33	0.547000	0.526000	0.473000
H331	H33	0.581100	0.544400	0.457300
C341	C34	0.608000	0.937000	0.984000
H341	H34	0.595900	0.925000	0.913600
C351	C35	0.892000	0.903000	0.174000
H351	H35	0.908400	0.928800	0.230000
C361	C36	0.884000	0.807000	0.085000
H361	H36	0.897300	0.765900	0.071900
C371	C37	0.630000	0.979000	0.185000
H371	H37	0.638700	0.994400	0.255000
N151	N15	0.575000	0.961000	0.147000
C381	C38	0.570000	0.942000	0.053000
H381	H38	0.532600	0.929500	0.024400
C391	C39	0.832000	0.825000	0.032000
H391	H39	0.808100	0.795300	0.991900
C401	C40	0.670000	0.976000	0.123000
H401	H40	0.706200	0.993600	0.151700
C411	C41	0.022000	0.660000	0.170000
H411	H41	0.033900	0.681600	0.111800
C421	C42	0.027000	0.598000	0.172000
H421	H42	0.047100	0.577800	0.123100
Ag41	Ag4	0.236800	0.423500	0.935000
N161	N16	0.167000	0.450000	0.017000
N171	N17	0.316200	0.387000	0.038000
N181	N18	0.999400	0.033800	0.405000
N191	N19	0.418000	0.344000	0.155000
C431	C43	0.024000	0.230000	0.180000
H431	H43	0.041500	0.208000	0.128500
C441	C44	0.347000	0.421000	0.113000
H441	H44	0.334000	0.462700	0.122500
C451	C45	0.024000	0.298000	0.179000
H451	H45	0.041000	0.320600	0.128100
C461	C46	0.952000	0.009000	0.432000
H461	H46	0.917200	0.015400	0.386900
C471	C47	0.047000	0.026000	0.473000
H471	H47	0.081100	0.044400	0.457300
C481	C48	0.108000	0.437000	0.984000
H481	H48	0.095900	0.425000	0.913600
C491	C49	0.392000	0.403000	0.174000
H491	H49	0.408400	0.428800	0.230000
C501	C50	0.384000	0.307000	0.085000
H501	H50	0.397300	0.265900	0.071900
C511	C51	0.130000	0.479000	0.185000
H511	H51	0.138700	0.494400	0.255000
N201	N20	0.075000	0.461000	0.147000
C521	C52	0.070000	0.442000	0.053000
H521	H52	0.032600	0.429500	0.024400
C531	C53	0.332000	0.325000	0.032000
H531	H53	0.308100	0.295300	0.991900
C541	C54	0.170000	0.476000	0.123000
H541	H54	0.206200	0.493600	0.151700
C551	C55	0.522000	0.160000	0.170000
H551	H55	0.533900	0.181600	0.111800
C561	C56	0.527000	0.098000	0.172000
H561	H56	0.547100	0.077800	0.123100
Ag51	Ag5	0.736800	0.076500	0.435000
N211	N21	0.667000	0.050000	0.517000
N221	N22	0.816200	0.113000	0.538000
N231	N23	0.499400	0.466200	0.905000
N241	N24	0.918000	0.156000	0.655000
C571	C57	0.524000	0.270000	0.680000
H571	H57	0.541500	0.292000	0.628500
C581	C58	0.847000	0.079000	0.613000
H581	H58	0.834000	0.037300	0.622500
C591	C59	0.524000	0.202000	0.679000
H591	H59	0.541000	0.179400	0.628100
C601	C60	0.452000	0.491000	0.932000
H601	H60	0.417200	0.484600	0.886900
C611	C61	0.547000	0.474000	0.973000
H611	H61	0.581100	0.455600	0.957300
C621	C62	0.608000	0.063000	0.484000
H621	H62	0.595900	0.075000	0.413600
C631	C63	0.892000	0.097000	0.674000
H631	H63	0.908400	0.071200	0.730000
C641	C64	0.884000	0.193000	0.585000
H641	H64	0.897300	0.234100	0.571900
C651	C65	0.630000	0.021000	0.685000
H651	H65	0.638700	0.005600	0.755000
N251	N25	0.575000	0.039000	0.647000
C661	C66	0.570000	0.058000	0.553000
H661	H66	0.532600	0.070500	0.524400
C671	C67	0.832000	0.175000	0.532000
H671	H67	0.808100	0.204700	0.491900
C681	C68	0.670000	0.024000	0.623000
H681	H68	0.706200	0.006400	0.651700
C691	C69	0.022000	0.340000	0.670000
H691	H69	0.033900	0.318400	0.611800
C701	C70	0.027000	0.402000	0.672000
H701	H70	0.047100	0.422200	0.623100
Ag61	Ag6	0.236800	0.576500	0.435000
N261	N26	0.167000	0.550000	0.517000
N271	N27	0.316200	0.613000	0.538000
N281	N28	0.999400	0.966200	0.905000
N291	N29	0.418000	0.656000	0.655000
C711	C71	0.024000	0.770000	0.680000
H711	H71	0.041500	0.792000	0.628500
C721	C72	0.347000	0.579000	0.613000
H721	H72	0.334000	0.537300	0.622500
C731	C73	0.024000	0.702000	0.679000
H731	H73	0.041000	0.679400	0.628100
C741	C74	0.952000	0.991000	0.932000
H741	H74	0.917200	0.984600	0.886900
C751	C75	0.047000	0.974000	0.973000
H751	H75	0.081100	0.955600	0.957300
C761	C76	0.108000	0.563000	0.484000
H761	H76	0.095900	0.575000	0.413600
C771	C77	0.392000	0.597000	0.674000
H771	H77	0.408400	0.571200	0.730000
C781	C78	0.384000	0.693000	0.585000
H781	H78	0.397300	0.734100	0.571900
C791	C79	0.130000	0.521000	0.685000
H791	H79	0.138700	0.505600	0.755000
N301	N30	0.075000	0.539000	0.647000
C801	C80	0.070000	0.558000	0.553000
H801	H80	0.032600	0.570500	0.524400
C811	C81	0.332000	0.675000	0.532000
H811	H81	0.308100	0.704700	0.491900
C821	C82	0.170000	0.524000	0.623000
H821	H82	0.206200	0.506400	0.651700
C831	C83	0.522000	0.840000	0.670000
H831	H83	0.533900	0.818400	0.611800
C841	C84	0.527000	0.902000	0.672000
H841	H84	0.547100	0.922200	0.623100
Ag71	Ag7	0.263200	0.076500	0.065000
N311	N31	0.333000	0.050000	0.983000
N321	N32	0.183800	0.113000	0.962000
N331	N33	0.500600	0.466200	0.595000
N341	N34	0.082000	0.156000	0.845000
C851	C85	0.476000	0.270000	0.820000
H851	H85	0.458500	0.292000	0.871500
C861	C86	0.153000	0.079000	0.887000
H861	H86	0.166000	0.037300	0.877500
C871	C87	0.476000	0.202000	0.821000
H871	H87	0.459000	0.179400	0.871900
C881	C88	0.548000	0.491000	0.568000
H881	H88	0.582800	0.484600	0.613100
C891	C89	0.453000	0.474000	0.527000
H891	H89	0.418900	0.455600	0.542700
C901	C90	0.392000	0.063000	0.016000
H901	H90	0.404100	0.075000	0.086400
C911	C91	0.108000	0.097000	0.826000
H911	H91	0.091600	0.071200	0.770000
C921	C92	0.116000	0.193000	0.915000
H921	H92	0.102700	0.234100	0.928100
C931	C93	0.370000	0.021000	0.815000
H931	H93	0.361300	0.005600	0.745000
N351	N35	0.425000	0.039000	0.853000
C941	C94	0.430000	0.058000	0.947000
H941	H94	0.467400	0.070500	0.975600
C951	C95	0.168000	0.175000	0.968000
H951	H95	0.191900	0.204700	0.008100
C961	C96	0.330000	0.024000	0.877000
H961	H96	0.293800	0.006400	0.848300
C971	C97	0.978000	0.340000	0.830000
H971	H97	0.966100	0.318400	0.888200
C981	C98	0.973000	0.402000	0.828000
H981	H98	0.952900	0.422200	0.876900
Ag81	Ag8	0.763200	0.576500	0.065000
N361	N36	0.833000	0.550000	0.983000
N371	N37	0.683800	0.613000	0.962000
N381	N38	0.000600	0.966200	0.595000
N391	N39	0.582000	0.656000	0.845000
C991	C99	0.976000	0.770000	0.820000
H991	H99	0.958500	0.792000	0.871500
C1001	C100	0.653000	0.579000	0.887000
H1001	H100	0.666000	0.537300	0.877500
C1011	C101	0.976000	0.702000	0.821000
H1011	H101	0.959000	0.679400	0.871900
C1021	C102	0.048000	0.991000	0.568000
H1021	H102	0.082800	0.984600	0.613100
C1031	C103	0.953000	0.974000	0.527000
H1031	H103	0.918900	0.955600	0.542700
C1041	C104	0.892000	0.563000	0.016000
H1041	H104	0.904100	0.575000	0.086400
C1051	C105	0.608000	0.597000	0.826000
H1051	H105	0.591600	0.571200	0.770000
C1061	C106	0.616000	0.693000	0.915000
H1061	H106	0.602700	0.734100	0.928100
C1071	C107	0.870000	0.521000	0.815000
H1071	H107	0.861300	0.505600	0.745000
N401	N40	0.925000	0.539000	0.853000
C1081	C108	0.930000	0.558000	0.947000
H1081	H108	0.967400	0.570500	0.975600
C1091	C109	0.668000	0.675000	0.968000
H1091	H109	0.691900	0.704700	0.008100
C1101	C110	0.830000	0.524000	0.877000
H1101	H110	0.793800	0.506400	0.848300
C1111	C111	0.478000	0.840000	0.830000
H1111	H111	0.466100	0.818400	0.888200
C1121	C112	0.473000	0.902000	0.828000
H1121	H112	0.452900	0.922200	0.876900
Ag91	Ag9	0.500000	0.590000	0.250000
Ag101	Ag10	0.500000	0.945900	0.250000
N411	N41	0.500000	0.829000	0.250000
N421	N42	0.500000	0.697000	0.250000
Ag111	Ag11	0.000000	0.090000	0.250000
Ag121	Ag12	0.000000	0.445900	0.250000
N431	N43	0.000000	0.329000	0.250000
N441	N44	0.000000	0.197000	0.250000
Ag131	Ag13	0.500000	0.410000	0.750000
Ag141	Ag14	0.500000	0.054100	0.750000
N451	N45	0.500000	0.171000	0.750000
N461	N46	0.500000	0.303000	0.750000
Ag151	Ag15	0.000000	0.910000	0.750000
Ag161	Ag16	0.000000	0.554100	0.750000
N471	N47	0.000000	0.671000	0.750000
N481	N48	0.000000	0.803000	0.750000
Ag171	Ag17	0.000000	0.807500	0.250000
N491	N49	0.000000	0.698000	0.250000
N501	N50	0.000000	0.557000	0.250000
Ag181	Ag18	0.500000	0.307500	0.250000
N511	N51	0.500000	0.198000	0.250000
N521	N52	0.500000	0.057000	0.250000
Ag191	Ag19	0.000000	0.192500	0.750000
N531	N53	0.000000	0.302000	0.750000
N541	N54	0.000000	0.443000	0.750000
Ag201	Ag20	0.500000	0.692500	0.750000
N551	N55	0.500000	0.802000	0.750000
N561	N56	0.500000	0.943000	0.750000
