data_ERUFOM_freeONLY_PM
_symmetry_space_group_name_H-M	'P1'
_cell_length_a	5.509000
_cell_length_b	10.545000
_cell_length_c	29.399000
_cell_angle_alpha	90.000000
_cell_angle_beta	90.000000
_cell_angle_gamma	90.000000
_symmetry_Int_Tables_number 1

loop_
_symmetry_equiv_pos_as_xyz
'x,y,z'

loop_
_atom_site_label
_atom_site_type_symbol
_atom_site_fract_x
_atom_site_fract_y
_atom_site_fract_z
Cu11	Cu1	0.768300	0.013730	0.237630
S11	S1	0.825600	0.041780	0.987510
N11	N1	0.738000	0.054600	0.170730
N21	N2	0.421500	0.137000	0.011030
N31	N3	0.418100	0.135900	0.964460
N41	N4	0.700800	0.035100	0.804450
C11	C1	0.539600	0.114100	0.154420
H11	H1	0.425600	0.145300	0.174900
C21	C2	0.498900	0.130600	0.108130
H21	H2	0.360600	0.172500	0.098000
C31	C3	0.667100	0.083600	0.077110
C41	C4	0.875900	0.026600	0.094230
H31	H3	0.995200	0.996900	0.074500
C51	C5	0.904500	0.014600	0.140750
H41	H4	0.045600	0.977100	0.151700
C61	C6	0.622600	0.092700	0.027640
C71	C7	0.617100	0.088200	0.947400
C81	C8	0.652900	0.072800	0.897830
C91	C9	0.481400	0.118500	0.867810
H51	H5	0.348400	0.164000	0.878400
C101	C10	0.509100	0.096100	0.822040
H61	H6	0.388900	0.124700	0.802300
C111	C11	0.874700	0.994700	0.833500
H71	H7	0.010500	0.953500	0.821900
C121	C12	0.856200	0.012900	0.880220
H81	H8	0.979100	0.985200	0.899500
S21	S2	0.340500	0.818900	0.216210
O11	O1	0.439300	0.938700	0.237450
O21	O2	0.415400	0.812800	0.168610
O31	O3	0.073700	0.829200	0.219750
O41	O4	0.427600	0.709400	0.243180
O51	O5	0.074500	0.112400	0.238600
Cu21	Cu2	0.731700	0.986270	0.737630
S31	S3	0.674400	0.958220	0.487510
N51	N5	0.762000	0.945400	0.670730
N61	N6	0.078500	0.863000	0.511030
N71	N7	0.081900	0.864100	0.464460
N81	N8	0.799200	0.964900	0.304450
C131	C13	0.960400	0.885900	0.654420
H91	H9	0.074400	0.854700	0.674900
C141	C14	0.001100	0.869400	0.608130
H101	H10	0.139400	0.827500	0.598000
C151	C15	0.832900	0.916400	0.577110
C161	C16	0.624100	0.973400	0.594230
H111	H11	0.504800	0.003100	0.574500
C171	C17	0.595500	0.985400	0.640750
H121	H12	0.454400	0.022900	0.651700
C181	C18	0.877400	0.907300	0.527640
C191	C19	0.882900	0.911800	0.447400
C201	C20	0.847100	0.927200	0.397830
C211	C21	0.018600	0.881500	0.367810
H131	H13	0.151600	0.836000	0.378400
C221	C22	0.990900	0.903900	0.322040
H141	H14	0.111100	0.875300	0.302300
C231	C23	0.625300	0.005300	0.333500
H151	H15	0.489500	0.046500	0.321900
C241	C24	0.643800	0.987100	0.380220
H161	H16	0.520900	0.014800	0.399500
S41	S4	0.159500	0.181100	0.716210
O61	O6	0.060700	0.061300	0.737450
O71	O7	0.084600	0.187200	0.668610
O81	O8	0.426300	0.170800	0.719750
O91	O9	0.072400	0.290600	0.743180
O101	O10	0.425500	0.887600	0.738600
Cu31	Cu3	0.231700	0.513730	0.262370
S51	S5	0.174400	0.541780	0.512490
N91	N9	0.262000	0.554600	0.329270
N101	N10	0.578500	0.637000	0.488970
N111	N11	0.581900	0.635900	0.535540
N121	N12	0.299200	0.535100	0.695550
C251	C25	0.460400	0.614100	0.345580
H171	H17	0.574400	0.645300	0.325100
C261	C26	0.501100	0.630600	0.391870
H181	H18	0.639400	0.672500	0.402000
C271	C27	0.332900	0.583600	0.422890
C281	C28	0.124100	0.526600	0.405770
H191	H19	0.004800	0.496900	0.425500
C291	C29	0.095500	0.514600	0.359250
H201	H20	0.954400	0.477100	0.348300
C301	C30	0.377400	0.592700	0.472360
C311	C31	0.382900	0.588200	0.552600
C321	C32	0.347100	0.572800	0.602170
C331	C33	0.518600	0.618500	0.632190
H211	H21	0.651600	0.664000	0.621600
C341	C34	0.490900	0.596100	0.677960
H221	H22	0.611100	0.624700	0.697700
C351	C35	0.125300	0.494700	0.666500
H231	H23	0.989500	0.453500	0.678100
C361	C36	0.143800	0.512900	0.619780
H241	H24	0.020900	0.485200	0.600500
S61	S6	0.659500	0.318900	0.283790
O111	O11	0.560700	0.438700	0.262550
O121	O12	0.584600	0.312800	0.331390
O131	O13	0.926300	0.329200	0.280250
O141	O14	0.572400	0.209400	0.256820
O151	O15	0.925500	0.612400	0.261400
Cu41	Cu4	0.268300	0.486270	0.762370
S71	S7	0.325600	0.458220	0.012490
N131	N13	0.238000	0.445400	0.829270
N141	N14	0.921500	0.363000	0.988970
N151	N15	0.918100	0.364100	0.035540
N161	N16	0.200800	0.464900	0.195550
C371	C37	0.039600	0.385900	0.845580
H251	H25	0.925600	0.354700	0.825100
C381	C38	0.998900	0.369400	0.891870
H261	H26	0.860600	0.327500	0.902000
C391	C39	0.167100	0.416400	0.922890
C401	C40	0.375900	0.473400	0.905770
H271	H27	0.495200	0.503100	0.925500
C411	C41	0.404500	0.485400	0.859250
H281	H28	0.545600	0.522900	0.848300
C421	C42	0.122600	0.407300	0.972360
C431	C43	0.117100	0.411800	0.052600
C441	C44	0.152900	0.427200	0.102170
C451	C45	0.981400	0.381500	0.132190
H291	H29	0.848400	0.336000	0.121600
C461	C46	0.009100	0.403900	0.177960
H301	H30	0.888900	0.375300	0.197700
C471	C47	0.374700	0.505300	0.166500
H311	H31	0.510500	0.546500	0.178100
C481	C48	0.356200	0.487100	0.119780
H321	H32	0.479100	0.514800	0.100500
S81	S8	0.840500	0.681100	0.783790
O161	O16	0.939300	0.561300	0.762550
O171	O17	0.915400	0.687200	0.831390
O181	O18	0.573700	0.670800	0.780250
O191	O19	0.927600	0.790600	0.756820
O201	O20	0.574500	0.387600	0.761400
