data_ERULEK_freeONLY_PM
_symmetry_space_group_name_H-M	'P1'
_cell_length_a	24.096700
_cell_length_b	18.466600
_cell_length_c	37.614000
_cell_angle_alpha	90.000000
_cell_angle_beta	94.264100
_cell_angle_gamma	90.000000
_symmetry_Int_Tables_number 1

loop_
_symmetry_equiv_pos_as_xyz
'x,y,z'

loop_
_atom_site_label
_atom_site_type_symbol
_atom_site_fract_x
_atom_site_fract_y
_atom_site_fract_z
Zn11	Zn1	0.601310	0.368000	0.676270
Zn21	Zn2	0.591710	0.368530	0.597360
O11	O1	0.147390	0.950900	0.605810
O21	O2	0.656520	0.299900	0.607340
O31	O3	0.538440	0.285280	0.604610
O41	O4	0.029760	0.935580	0.611280
O51	O5	0.165340	0.932700	0.664380
O61	O6	0.534230	0.304020	0.663620
O71	O7	0.047740	0.954630	0.669970
O81	O8	0.652470	0.283180	0.666290
N11	N1	0.106800	0.130540	0.229810
N21	N2	0.524190	0.381150	0.493200
N31	N3	0.575160	0.380530	0.544540
N41	N4	0.352710	0.328800	0.351940
N51	N5	0.306700	0.298500	0.334920
N61	N6	0.313980	0.264200	0.392400
C11	C1	0.930340	0.009100	0.610830
H11	H1	0.937000	0.980000	0.591400
C21	C2	0.225450	0.008800	0.634750
C31	C3	0.019330	0.962970	0.640390
N71	N7	0.130850	0.141200	0.286940
C41	C4	0.968630	0.010900	0.640230
C51	C5	0.235720	0.048700	0.605270
H21	H2	0.210700	0.047100	0.585200
C61	C6	0.175310	0.960570	0.634940
C71	C7	0.262760	0.011900	0.664760
H31	H3	0.255600	0.985400	0.685000
C81	C8	0.321690	0.094800	0.634490
C91	C9	0.672980	0.272400	0.636850
C101	C10	0.481180	0.363200	0.466380
C111	C11	0.517630	0.275000	0.634310
C121	C12	0.355840	0.307000	0.386310
C131	C13	0.566020	0.430800	0.490520
H41	H4	0.572000	0.459400	0.470800
C141	C14	0.310310	0.053700	0.664850
H51	H5	0.335000	0.054900	0.685000
C151	C15	0.596910	0.430100	0.522190
H61	H6	0.628000	0.458800	0.527900
C161	C16	0.159800	0.162300	0.319940
C171	C17	0.722980	0.223300	0.637030
C181	C18	0.464570	0.414400	0.440850
H71	H7	0.480400	0.460400	0.441400
C191	C19	0.400230	0.329000	0.413180
C201	C20	0.372900	0.139400	0.634700
C211	C21	0.423780	0.395600	0.414330
H81	H8	0.412400	0.429500	0.397000
C221	C22	0.283320	0.091500	0.605050
H91	H9	0.289500	0.118500	0.584800
C231	C23	0.881830	0.050600	0.610130
H101	H10	0.856300	0.048900	0.590400
C241	C24	0.468490	0.226100	0.634410
C251	C25	0.748600	0.209500	0.606070
H111	H11	0.733400	0.228400	0.584600
C261	C26	0.284790	0.259900	0.359920
C271	C27	0.871700	0.094700	0.638980
C281	C28	0.445320	0.195600	0.602920
H121	H12	0.461700	0.204300	0.581700
C291	C29	0.820120	0.139300	0.638520
C301	C30	0.531150	0.352800	0.526210
H131	H13	0.507900	0.317900	0.535100
C311	C31	0.159900	0.157900	0.382880
H141	H14	0.143900	0.144400	0.403600
C321	C32	0.443630	0.211500	0.666050
H151	H15	0.459200	0.230300	0.687400
C331	C33	0.398400	0.152500	0.602650
H161	H16	0.383600	0.132100	0.581400
C341	C34	0.140880	0.158800	0.254310
H171	H17	0.170100	0.189000	0.249100
C351	C35	0.208060	0.201300	0.321570
H181	H18	0.223800	0.215600	0.300800
C361	C36	0.233000	0.218900	0.354550
C371	C37	0.959180	0.054300	0.669170
H191	H19	0.984900	0.055400	0.688900
C381	C38	0.796400	0.168100	0.606500
H201	H20	0.812900	0.159300	0.585400
C391	C39	0.457600	0.295700	0.466140
H211	H21	0.469200	0.261700	0.483300
C401	C40	0.416400	0.278900	0.440000
H221	H22	0.399100	0.233900	0.440200
C411	C41	0.136300	0.140300	0.351040
H231	H23	0.103800	0.112900	0.349400
C421	C42	0.911270	0.096200	0.668740
H241	H24	0.905100	0.125500	0.688200
C431	C43	0.396670	0.169800	0.665980
H251	H25	0.380400	0.161700	0.687300
C441	C44	0.793700	0.152300	0.669640
H261	H26	0.808500	0.133000	0.691100
C451	C45	0.206700	0.195100	0.384200
H271	H27	0.223500	0.206400	0.406600
C461	C46	0.745800	0.193600	0.669130
H281	H28	0.728700	0.201700	0.690100
C471	C47	0.088400	0.067100	0.247700
H291	H29	0.068300	0.029200	0.236700
C481	C48	0.104500	0.070500	0.282900
H301	H30	0.099900	0.035800	0.300400
C491	C49	0.390600	0.372300	0.331870
H311	H31	0.377600	0.421400	0.330400
H321	H32	0.391900	0.352800	0.308300
H331	H33	0.427300	0.371200	0.343800
C501	C50	0.056100	0.125400	0.247400
H341	H34	0.021100	0.116600	0.236100
C511	C51	0.066900	0.135300	0.282400
H351	H35	0.041800	0.138000	0.300000
Zn31	Zn3	0.101310	0.868000	0.676270
Zn41	Zn4	0.091710	0.868530	0.597360
O91	O9	0.647390	0.450900	0.605810
O101	O10	0.156520	0.799900	0.607340
O111	O11	0.038440	0.785280	0.604610
O121	O12	0.529760	0.435580	0.611280
O131	O13	0.665340	0.432700	0.664380
O141	O14	0.034230	0.804020	0.663620
O151	O15	0.547740	0.454630	0.669970
O161	O16	0.152470	0.783180	0.666290
N81	N8	0.606800	0.630540	0.229810
N91	N9	0.024190	0.881150	0.493200
N101	N10	0.075160	0.880530	0.544540
N111	N11	0.852710	0.828800	0.351940
N121	N12	0.806700	0.798500	0.334920
N131	N13	0.813980	0.764200	0.392400
C521	C52	0.430340	0.509100	0.610830
H361	H36	0.437000	0.480000	0.591400
C531	C53	0.725450	0.508800	0.634750
C541	C54	0.519330	0.462970	0.640390
N141	N14	0.630850	0.641200	0.286940
C551	C55	0.468630	0.510900	0.640230
C561	C56	0.735720	0.548700	0.605270
H371	H37	0.710700	0.547100	0.585200
C571	C57	0.675310	0.460570	0.634940
C581	C58	0.762760	0.511900	0.664760
H381	H38	0.755600	0.485400	0.685000
C591	C59	0.821690	0.594800	0.634490
C601	C60	0.172980	0.772400	0.636850
C611	C61	0.981180	0.863200	0.466380
C621	C62	0.017630	0.775000	0.634310
C631	C63	0.855840	0.807000	0.386310
C641	C64	0.066020	0.930800	0.490520
H391	H39	0.072000	0.959400	0.470800
C651	C65	0.810310	0.553700	0.664850
H401	H40	0.835000	0.554900	0.685000
C661	C66	0.096910	0.930100	0.522190
H411	H41	0.128000	0.958800	0.527900
C671	C67	0.659800	0.662300	0.319940
C681	C68	0.222980	0.723300	0.637030
C691	C69	0.964570	0.914400	0.440850
H421	H42	0.980400	0.960400	0.441400
C701	C70	0.900230	0.829000	0.413180
C711	C71	0.872900	0.639400	0.634700
C721	C72	0.923780	0.895600	0.414330
H431	H43	0.912400	0.929500	0.397000
C731	C73	0.783320	0.591500	0.605050
H441	H44	0.789500	0.618500	0.584800
C741	C74	0.381830	0.550600	0.610130
H451	H45	0.356300	0.548900	0.590400
C751	C75	0.968490	0.726100	0.634410
C761	C76	0.248600	0.709500	0.606070
H461	H46	0.233400	0.728400	0.584600
C771	C77	0.784790	0.759900	0.359920
C781	C78	0.371700	0.594700	0.638980
C791	C79	0.945320	0.695600	0.602920
H471	H47	0.961700	0.704300	0.581700
C801	C80	0.320120	0.639300	0.638520
C811	C81	0.031150	0.852800	0.526210
H481	H48	0.007900	0.817900	0.535100
C821	C82	0.659900	0.657900	0.382880
H491	H49	0.643900	0.644400	0.403600
C831	C83	0.943630	0.711500	0.666050
H501	H50	0.959200	0.730300	0.687400
C841	C84	0.898400	0.652500	0.602650
H511	H51	0.883600	0.632100	0.581400
C851	C85	0.640880	0.658800	0.254310
H521	H52	0.670100	0.689000	0.249100
C861	C86	0.708060	0.701300	0.321570
H531	H53	0.723800	0.715600	0.300800
C871	C87	0.733000	0.718900	0.354550
C881	C88	0.459180	0.554300	0.669170
H541	H54	0.484900	0.555400	0.688900
C891	C89	0.296400	0.668100	0.606500
H551	H55	0.312900	0.659300	0.585400
C901	C90	0.957600	0.795700	0.466140
H561	H56	0.969200	0.761700	0.483300
C911	C91	0.916400	0.778900	0.440000
H571	H57	0.899100	0.733900	0.440200
C921	C92	0.636300	0.640300	0.351040
H581	H58	0.603800	0.612900	0.349400
C931	C93	0.411270	0.596200	0.668740
H591	H59	0.405100	0.625500	0.688200
C941	C94	0.896670	0.669800	0.665980
H601	H60	0.880400	0.661700	0.687300
C951	C95	0.293700	0.652300	0.669640
H611	H61	0.308500	0.633000	0.691100
C961	C96	0.706700	0.695100	0.384200
H621	H62	0.723500	0.706400	0.406600
C971	C97	0.245800	0.693600	0.669130
H631	H63	0.228700	0.701700	0.690100
C981	C98	0.588400	0.567100	0.247700
H641	H64	0.568300	0.529200	0.236700
C991	C99	0.604500	0.570500	0.282900
H651	H65	0.599900	0.535800	0.300400
C1001	C100	0.890600	0.872300	0.331870
H661	H66	0.877600	0.921400	0.330400
H671	H67	0.891900	0.852800	0.308300
H681	H68	0.927300	0.871200	0.343800
C1011	C101	0.556100	0.625400	0.247400
H691	H69	0.521100	0.616600	0.236100
C1021	C102	0.566900	0.635300	0.282400
H701	H70	0.541800	0.638000	0.300000
Zn51	Zn5	0.601310	0.632000	0.176270
Zn61	Zn6	0.591710	0.631470	0.097360
O171	O17	0.147390	0.049100	0.105810
O181	O18	0.656520	0.700100	0.107340
O191	O19	0.538440	0.714720	0.104610
O201	O20	0.029760	0.064420	0.111280
O211	O21	0.165340	0.067300	0.164380
O221	O22	0.534230	0.695980	0.163620
O231	O23	0.047740	0.045370	0.169970
O241	O24	0.652470	0.716820	0.166290
N151	N15	0.106800	0.869460	0.729810
N161	N16	0.524190	0.618850	0.993200
N171	N17	0.575160	0.619470	0.044540
N181	N18	0.352710	0.671200	0.851940
N191	N19	0.306700	0.701500	0.834920
N201	N20	0.313980	0.735800	0.892400
C1031	C103	0.930340	0.990900	0.110830
H711	H71	0.937000	0.020000	0.091400
C1041	C104	0.225450	0.991200	0.134750
C1051	C105	0.019330	0.037030	0.140390
N211	N21	0.130850	0.858800	0.786940
C1061	C106	0.968630	0.989100	0.140230
C1071	C107	0.235720	0.951300	0.105270
H721	H72	0.210700	0.952900	0.085200
C1081	C108	0.175310	0.039430	0.134940
C1091	C109	0.262760	0.988100	0.164760
H731	H73	0.255600	0.014600	0.185000
C1101	C110	0.321690	0.905200	0.134490
C1111	C111	0.672980	0.727600	0.136850
C1121	C112	0.481180	0.636800	0.966380
C1131	C113	0.517630	0.725000	0.134310
C1141	C114	0.355840	0.693000	0.886310
C1151	C115	0.566020	0.569200	0.990520
H741	H74	0.572000	0.540600	0.970800
C1161	C116	0.310310	0.946300	0.164850
H751	H75	0.335000	0.945100	0.185000
C1171	C117	0.596910	0.569900	0.022190
H761	H76	0.628000	0.541200	0.027900
C1181	C118	0.159800	0.837700	0.819940
C1191	C119	0.722980	0.776700	0.137030
C1201	C120	0.464570	0.585600	0.940850
H771	H77	0.480400	0.539600	0.941400
C1211	C121	0.400230	0.671000	0.913180
C1221	C122	0.372900	0.860600	0.134700
C1231	C123	0.423780	0.604400	0.914330
H781	H78	0.412400	0.570500	0.897000
C1241	C124	0.283320	0.908500	0.105050
H791	H79	0.289500	0.881500	0.084800
C1251	C125	0.881830	0.949400	0.110130
H801	H80	0.856300	0.951100	0.090400
C1261	C126	0.468490	0.773900	0.134410
C1271	C127	0.748600	0.790500	0.106070
H811	H81	0.733400	0.771600	0.084600
C1281	C128	0.284790	0.740100	0.859920
C1291	C129	0.871700	0.905300	0.138980
C1301	C130	0.445320	0.804400	0.102920
H821	H82	0.461700	0.795700	0.081700
C1311	C131	0.820120	0.860700	0.138520
C1321	C132	0.531150	0.647200	0.026210
H831	H83	0.507900	0.682100	0.035100
C1331	C133	0.159900	0.842100	0.882880
H841	H84	0.143900	0.855600	0.903600
C1341	C134	0.443630	0.788500	0.166050
H851	H85	0.459200	0.769700	0.187400
C1351	C135	0.398400	0.847500	0.102650
H861	H86	0.383600	0.867900	0.081400
C1361	C136	0.140880	0.841200	0.754310
H871	H87	0.170100	0.811000	0.749100
C1371	C137	0.208060	0.798700	0.821570
H881	H88	0.223800	0.784400	0.800800
C1381	C138	0.233000	0.781100	0.854550
C1391	C139	0.959180	0.945700	0.169170
H891	H89	0.984900	0.944600	0.188900
C1401	C140	0.796400	0.831900	0.106500
H901	H90	0.812900	0.840700	0.085400
C1411	C141	0.457600	0.704300	0.966140
H911	H91	0.469200	0.738300	0.983300
C1421	C142	0.416400	0.721100	0.940000
H921	H92	0.399100	0.766100	0.940200
C1431	C143	0.136300	0.859700	0.851040
H931	H93	0.103800	0.887100	0.849400
C1441	C144	0.911270	0.903800	0.168740
H941	H94	0.905100	0.874500	0.188200
C1451	C145	0.396670	0.830200	0.165980
H951	H95	0.380400	0.838300	0.187300
C1461	C146	0.793700	0.847700	0.169640
H961	H96	0.808500	0.867000	0.191100
C1471	C147	0.206700	0.804900	0.884200
H971	H97	0.223500	0.793600	0.906600
C1481	C148	0.745800	0.806400	0.169130
H981	H98	0.728700	0.798300	0.190100
C1491	C149	0.088400	0.932900	0.747700
H991	H99	0.068300	0.970800	0.736700
C1501	C150	0.104500	0.929500	0.782900
H1001	H100	0.099900	0.964200	0.800400
C1511	C151	0.390600	0.627700	0.831870
H1011	H101	0.377600	0.578600	0.830400
H1021	H102	0.391900	0.647200	0.808300
H1031	H103	0.427300	0.628800	0.843800
C1521	C152	0.056100	0.874600	0.747400
H1041	H104	0.021100	0.883400	0.736100
C1531	C153	0.066900	0.864700	0.782400
H1051	H105	0.041800	0.862000	0.800000
Zn71	Zn7	0.101310	0.132000	0.176270
Zn81	Zn8	0.091710	0.131470	0.097360
O251	O25	0.647390	0.549100	0.105810
O261	O26	0.156520	0.200100	0.107340
O271	O27	0.038440	0.214720	0.104610
O281	O28	0.529760	0.564420	0.111280
O291	O29	0.665340	0.567300	0.164380
O301	O30	0.034230	0.195980	0.163620
O311	O31	0.547740	0.545370	0.169970
O321	O32	0.152470	0.216820	0.166290
N221	N22	0.606800	0.369460	0.729810
N231	N23	0.024190	0.118850	0.993200
N241	N24	0.075160	0.119470	0.044540
N251	N25	0.852710	0.171200	0.851940
N261	N26	0.806700	0.201500	0.834920
N271	N27	0.813980	0.235800	0.892400
C1541	C154	0.430340	0.490900	0.110830
H1061	H106	0.437000	0.520000	0.091400
C1551	C155	0.725450	0.491200	0.134750
C1561	C156	0.519330	0.537030	0.140390
N281	N28	0.630850	0.358800	0.786940
C1571	C157	0.468630	0.489100	0.140230
C1581	C158	0.735720	0.451300	0.105270
H1071	H107	0.710700	0.452900	0.085200
C1591	C159	0.675310	0.539430	0.134940
C1601	C160	0.762760	0.488100	0.164760
H1081	H108	0.755600	0.514600	0.185000
C1611	C161	0.821690	0.405200	0.134490
C1621	C162	0.172980	0.227600	0.136850
C1631	C163	0.981180	0.136800	0.966380
C1641	C164	0.017630	0.225000	0.134310
C1651	C165	0.855840	0.193000	0.886310
C1661	C166	0.066020	0.069200	0.990520
H1091	H109	0.072000	0.040600	0.970800
C1671	C167	0.810310	0.446300	0.164850
H1101	H110	0.835000	0.445100	0.185000
C1681	C168	0.096910	0.069900	0.022190
H1111	H111	0.128000	0.041200	0.027900
C1691	C169	0.659800	0.337700	0.819940
C1701	C170	0.222980	0.276700	0.137030
C1711	C171	0.964570	0.085600	0.940850
H1121	H112	0.980400	0.039600	0.941400
C1721	C172	0.900230	0.171000	0.913180
C1731	C173	0.872900	0.360600	0.134700
C1741	C174	0.923780	0.104400	0.914330
H1131	H113	0.912400	0.070500	0.897000
C1751	C175	0.783320	0.408500	0.105050
H1141	H114	0.789500	0.381500	0.084800
C1761	C176	0.381830	0.449400	0.110130
H1151	H115	0.356300	0.451100	0.090400
C1771	C177	0.968490	0.273900	0.134410
C1781	C178	0.248600	0.290500	0.106070
H1161	H116	0.233400	0.271600	0.084600
C1791	C179	0.784790	0.240100	0.859920
C1801	C180	0.371700	0.405300	0.138980
C1811	C181	0.945320	0.304400	0.102920
H1171	H117	0.961700	0.295700	0.081700
C1821	C182	0.320120	0.360700	0.138520
C1831	C183	0.031150	0.147200	0.026210
H1181	H118	0.007900	0.182100	0.035100
C1841	C184	0.659900	0.342100	0.882880
H1191	H119	0.643900	0.355600	0.903600
C1851	C185	0.943630	0.288500	0.166050
H1201	H120	0.959200	0.269700	0.187400
C1861	C186	0.898400	0.347500	0.102650
H1211	H121	0.883600	0.367900	0.081400
C1871	C187	0.640880	0.341200	0.754310
H1221	H122	0.670100	0.311000	0.749100
C1881	C188	0.708060	0.298700	0.821570
H1231	H123	0.723800	0.284400	0.800800
C1891	C189	0.733000	0.281100	0.854550
C1901	C190	0.459180	0.445700	0.169170
H1241	H124	0.484900	0.444600	0.188900
C1911	C191	0.296400	0.331900	0.106500
H1251	H125	0.312900	0.340700	0.085400
C1921	C192	0.957600	0.204300	0.966140
H1261	H126	0.969200	0.238300	0.983300
C1931	C193	0.916400	0.221100	0.940000
H1271	H127	0.899100	0.266100	0.940200
C1941	C194	0.636300	0.359700	0.851040
H1281	H128	0.603800	0.387100	0.849400
C1951	C195	0.411270	0.403800	0.168740
H1291	H129	0.405100	0.374500	0.188200
C1961	C196	0.896670	0.330200	0.165980
H1301	H130	0.880400	0.338300	0.187300
C1971	C197	0.293700	0.347700	0.169640
H1311	H131	0.308500	0.367000	0.191100
C1981	C198	0.706700	0.304900	0.884200
H1321	H132	0.723500	0.293600	0.906600
C1991	C199	0.245800	0.306400	0.169130
H1331	H133	0.228700	0.298300	0.190100
C2001	C200	0.588400	0.432900	0.747700
H1341	H134	0.568300	0.470800	0.736700
C2011	C201	0.604500	0.429500	0.782900
H1351	H135	0.599900	0.464200	0.800400
C2021	C202	0.890600	0.127700	0.831870
H1361	H136	0.877600	0.078600	0.830400
H1371	H137	0.891900	0.147200	0.808300
H1381	H138	0.927300	0.128800	0.843800
C2031	C203	0.556100	0.374600	0.747400
H1391	H139	0.521100	0.383400	0.736100
C2041	C204	0.566900	0.364700	0.782400
H1401	H140	0.541800	0.362000	0.800000
Zn91	Zn9	0.398690	0.368000	0.823730
Zn101	Zn10	0.408290	0.368530	0.902640
O331	O33	0.852610	0.950900	0.894190
O341	O34	0.343480	0.299900	0.892660
O351	O35	0.461560	0.285280	0.895390
O361	O36	0.970240	0.935580	0.888720
O371	O37	0.834660	0.932700	0.835620
O381	O38	0.465770	0.304020	0.836380
O391	O39	0.952260	0.954630	0.830030
O401	O40	0.347530	0.283180	0.833710
N291	N29	0.893200	0.130540	0.270190
N301	N30	0.475810	0.381150	0.006800
N311	N31	0.424840	0.380530	0.955460
N321	N32	0.647290	0.328800	0.148060
N331	N33	0.693300	0.298500	0.165080
N341	N34	0.686020	0.264200	0.107600
C2051	C205	0.069660	0.009100	0.889170
H1411	H141	0.063000	0.980000	0.908600
C2061	C206	0.774550	0.008800	0.865250
C2071	C207	0.980670	0.962970	0.859610
N351	N35	0.869150	0.141200	0.213060
C2081	C208	0.031370	0.010900	0.859770
C2091	C209	0.764280	0.048700	0.894730
H1421	H142	0.789300	0.047100	0.914800
C2101	C210	0.824690	0.960570	0.865060
C2111	C211	0.737240	0.011900	0.835240
H1431	H143	0.744400	0.985400	0.815000
C2121	C212	0.678310	0.094800	0.865510
C2131	C213	0.327020	0.272400	0.863150
C2141	C214	0.518820	0.363200	0.033620
C2151	C215	0.482370	0.275000	0.865690
C2161	C216	0.644160	0.307000	0.113690
C2171	C217	0.433980	0.430800	0.009480
H1441	H144	0.428000	0.459400	0.029200
C2181	C218	0.689690	0.053700	0.835150
H1451	H145	0.665000	0.054900	0.815000
C2191	C219	0.403090	0.430100	0.977810
H1461	H146	0.372000	0.458800	0.972100
C2201	C220	0.840200	0.162300	0.180060
C2211	C221	0.277020	0.223300	0.862970
C2221	C222	0.535430	0.414400	0.059150
H1471	H147	0.519600	0.460400	0.058600
C2231	C223	0.599770	0.329000	0.086820
C2241	C224	0.627100	0.139400	0.865300
C2251	C225	0.576220	0.395600	0.085670
H1481	H148	0.587600	0.429500	0.103000
C2261	C226	0.716680	0.091500	0.894950
H1491	H149	0.710500	0.118500	0.915200
C2271	C227	0.118170	0.050600	0.889870
H1501	H150	0.143700	0.048900	0.909600
C2281	C228	0.531510	0.226100	0.865590
C2291	C229	0.251400	0.209500	0.893930
H1511	H151	0.266600	0.228400	0.915400
C2301	C230	0.715210	0.259900	0.140080
C2311	C231	0.128300	0.094700	0.861020
C2321	C232	0.554680	0.195600	0.897080
H1521	H152	0.538300	0.204300	0.918300
C2331	C233	0.179880	0.139300	0.861480
C2341	C234	0.468850	0.352800	0.973790
H1531	H153	0.492100	0.317900	0.964900
C2351	C235	0.840100	0.157900	0.117120
H1541	H154	0.856100	0.144400	0.096400
C2361	C236	0.556370	0.211500	0.833950
H1551	H155	0.540800	0.230300	0.812600
C2371	C237	0.601600	0.152500	0.897350
H1561	H156	0.616400	0.132100	0.918600
C2381	C238	0.859120	0.158800	0.245690
H1571	H157	0.829900	0.189000	0.250900
C2391	C239	0.791940	0.201300	0.178430
H1581	H158	0.776200	0.215600	0.199200
C2401	C240	0.767000	0.218900	0.145450
C2411	C241	0.040820	0.054300	0.830830
H1591	H159	0.015100	0.055400	0.811100
C2421	C242	0.203600	0.168100	0.893500
H1601	H160	0.187100	0.159300	0.914600
C2431	C243	0.542400	0.295700	0.033860
H1611	H161	0.530800	0.261700	0.016700
C2441	C244	0.583600	0.278900	0.060000
H1621	H162	0.600900	0.233900	0.059800
C2451	C245	0.863700	0.140300	0.148960
H1631	H163	0.896200	0.112900	0.150600
C2461	C246	0.088730	0.096200	0.831260
H1641	H164	0.094900	0.125500	0.811800
C2471	C247	0.603330	0.169800	0.834020
H1651	H165	0.619600	0.161700	0.812700
C2481	C248	0.206300	0.152300	0.830360
H1661	H166	0.191500	0.133000	0.808900
C2491	C249	0.793300	0.195100	0.115800
H1671	H167	0.776500	0.206400	0.093400
C2501	C250	0.254200	0.193600	0.830870
H1681	H168	0.271300	0.201700	0.809900
C2511	C251	0.911600	0.067100	0.252300
H1691	H169	0.931700	0.029200	0.263300
C2521	C252	0.895500	0.070500	0.217100
H1701	H170	0.900100	0.035800	0.199600
C2531	C253	0.609400	0.372300	0.168130
H1711	H171	0.622400	0.421400	0.169600
H1721	H172	0.608100	0.352800	0.191700
H1731	H173	0.572700	0.371200	0.156200
C2541	C254	0.943900	0.125400	0.252600
H1741	H174	0.978900	0.116600	0.263900
C2551	C255	0.933100	0.135300	0.217600
H1751	H175	0.958200	0.138000	0.200000
Zn111	Zn11	0.898690	0.868000	0.823730
Zn121	Zn12	0.908290	0.868530	0.902640
O411	O41	0.352610	0.450900	0.894190
O421	O42	0.843480	0.799900	0.892660
O431	O43	0.961560	0.785280	0.895390
O441	O44	0.470240	0.435580	0.888720
O451	O45	0.334660	0.432700	0.835620
O461	O46	0.965770	0.804020	0.836380
O471	O47	0.452260	0.454630	0.830030
O481	O48	0.847530	0.783180	0.833710
N361	N36	0.393200	0.630540	0.270190
N371	N37	0.975810	0.881150	0.006800
N381	N38	0.924840	0.880530	0.955460
N391	N39	0.147290	0.828800	0.148060
N401	N40	0.193300	0.798500	0.165080
N411	N41	0.186020	0.764200	0.107600
C2561	C256	0.569660	0.509100	0.889170
H1761	H176	0.563000	0.480000	0.908600
C2571	C257	0.274550	0.508800	0.865250
C2581	C258	0.480670	0.462970	0.859610
N421	N42	0.369150	0.641200	0.213060
C2591	C259	0.531370	0.510900	0.859770
C2601	C260	0.264280	0.548700	0.894730
H1771	H177	0.289300	0.547100	0.914800
C2611	C261	0.324690	0.460570	0.865060
C2621	C262	0.237240	0.511900	0.835240
H1781	H178	0.244400	0.485400	0.815000
C2631	C263	0.178310	0.594800	0.865510
C2641	C264	0.827020	0.772400	0.863150
C2651	C265	0.018820	0.863200	0.033620
C2661	C266	0.982370	0.775000	0.865690
C2671	C267	0.144160	0.807000	0.113690
C2681	C268	0.933980	0.930800	0.009480
H1791	H179	0.928000	0.959400	0.029200
C2691	C269	0.189690	0.553700	0.835150
H1801	H180	0.165000	0.554900	0.815000
C2701	C270	0.903090	0.930100	0.977810
H1811	H181	0.872000	0.958800	0.972100
C2711	C271	0.340200	0.662300	0.180060
C2721	C272	0.777020	0.723300	0.862970
C2731	C273	0.035430	0.914400	0.059150
H1821	H182	0.019600	0.960400	0.058600
C2741	C274	0.099770	0.829000	0.086820
C2751	C275	0.127100	0.639400	0.865300
C2761	C276	0.076220	0.895600	0.085670
H1831	H183	0.087600	0.929500	0.103000
C2771	C277	0.216680	0.591500	0.894950
H1841	H184	0.210500	0.618500	0.915200
C2781	C278	0.618170	0.550600	0.889870
H1851	H185	0.643700	0.548900	0.909600
C2791	C279	0.031510	0.726100	0.865590
C2801	C280	0.751400	0.709500	0.893930
H1861	H186	0.766600	0.728400	0.915400
C2811	C281	0.215210	0.759900	0.140080
C2821	C282	0.628300	0.594700	0.861020
C2831	C283	0.054680	0.695600	0.897080
H1871	H187	0.038300	0.704300	0.918300
C2841	C284	0.679880	0.639300	0.861480
C2851	C285	0.968850	0.852800	0.973790
H1881	H188	0.992100	0.817900	0.964900
C2861	C286	0.340100	0.657900	0.117120
H1891	H189	0.356100	0.644400	0.096400
C2871	C287	0.056370	0.711500	0.833950
H1901	H190	0.040800	0.730300	0.812600
C2881	C288	0.101600	0.652500	0.897350
H1911	H191	0.116400	0.632100	0.918600
C2891	C289	0.359120	0.658800	0.245690
H1921	H192	0.329900	0.689000	0.250900
C2901	C290	0.291940	0.701300	0.178430
H1931	H193	0.276200	0.715600	0.199200
C2911	C291	0.267000	0.718900	0.145450
C2921	C292	0.540820	0.554300	0.830830
H1941	H194	0.515100	0.555400	0.811100
C2931	C293	0.703600	0.668100	0.893500
H1951	H195	0.687100	0.659300	0.914600
C2941	C294	0.042400	0.795700	0.033860
H1961	H196	0.030800	0.761700	0.016700
C2951	C295	0.083600	0.778900	0.060000
H1971	H197	0.100900	0.733900	0.059800
C2961	C296	0.363700	0.640300	0.148960
H1981	H198	0.396200	0.612900	0.150600
C2971	C297	0.588730	0.596200	0.831260
H1991	H199	0.594900	0.625500	0.811800
C2981	C298	0.103330	0.669800	0.834020
H2001	H200	0.119600	0.661700	0.812700
C2991	C299	0.706300	0.652300	0.830360
H2011	H201	0.691500	0.633000	0.808900
C3001	C300	0.293300	0.695100	0.115800
H2021	H202	0.276500	0.706400	0.093400
C3011	C301	0.754200	0.693600	0.830870
H2031	H203	0.771300	0.701700	0.809900
C3021	C302	0.411600	0.567100	0.252300
H2041	H204	0.431700	0.529200	0.263300
C3031	C303	0.395500	0.570500	0.217100
H2051	H205	0.400100	0.535800	0.199600
C3041	C304	0.109400	0.872300	0.168130
H2061	H206	0.122400	0.921400	0.169600
H2071	H207	0.108100	0.852800	0.191700
H2081	H208	0.072700	0.871200	0.156200
C3051	C305	0.443900	0.625400	0.252600
H2091	H209	0.478900	0.616600	0.263900
C3061	C306	0.433100	0.635300	0.217600
H2101	H210	0.458200	0.638000	0.200000
Zn131	Zn13	0.398690	0.632000	0.323730
Zn141	Zn14	0.408290	0.631470	0.402640
O491	O49	0.852610	0.049100	0.394190
O501	O50	0.343480	0.700100	0.392660
O511	O51	0.461560	0.714720	0.395390
O521	O52	0.970240	0.064420	0.388720
O531	O53	0.834660	0.067300	0.335620
O541	O54	0.465770	0.695980	0.336380
O551	O55	0.952260	0.045370	0.330030
O561	O56	0.347530	0.716820	0.333710
N431	N43	0.893200	0.869460	0.770190
N441	N44	0.475810	0.618850	0.506800
N451	N45	0.424840	0.619470	0.455460
N461	N46	0.647290	0.671200	0.648060
N471	N47	0.693300	0.701500	0.665080
N481	N48	0.686020	0.735800	0.607600
C3071	C307	0.069660	0.990900	0.389170
H2111	H211	0.063000	0.020000	0.408600
C3081	C308	0.774550	0.991200	0.365250
C3091	C309	0.980670	0.037030	0.359610
N491	N49	0.869150	0.858800	0.713060
C3101	C310	0.031370	0.989100	0.359770
C3111	C311	0.764280	0.951300	0.394730
H2121	H212	0.789300	0.952900	0.414800
C3121	C312	0.824690	0.039430	0.365060
C3131	C313	0.737240	0.988100	0.335240
H2131	H213	0.744400	0.014600	0.315000
C3141	C314	0.678310	0.905200	0.365510
C3151	C315	0.327020	0.727600	0.363150
C3161	C316	0.518820	0.636800	0.533620
C3171	C317	0.482370	0.725000	0.365690
C3181	C318	0.644160	0.693000	0.613690
C3191	C319	0.433980	0.569200	0.509480
H2141	H214	0.428000	0.540600	0.529200
C3201	C320	0.689690	0.946300	0.335150
H2151	H215	0.665000	0.945100	0.315000
C3211	C321	0.403090	0.569900	0.477810
H2161	H216	0.372000	0.541200	0.472100
C3221	C322	0.840200	0.837700	0.680060
C3231	C323	0.277020	0.776700	0.362970
C3241	C324	0.535430	0.585600	0.559150
H2171	H217	0.519600	0.539600	0.558600
C3251	C325	0.599770	0.671000	0.586820
C3261	C326	0.627100	0.860600	0.365300
C3271	C327	0.576220	0.604400	0.585670
H2181	H218	0.587600	0.570500	0.603000
C3281	C328	0.716680	0.908500	0.394950
H2191	H219	0.710500	0.881500	0.415200
C3291	C329	0.118170	0.949400	0.389870
H2201	H220	0.143700	0.951100	0.409600
C3301	C330	0.531510	0.773900	0.365590
C3311	C331	0.251400	0.790500	0.393930
H2211	H221	0.266600	0.771600	0.415400
C3321	C332	0.715210	0.740100	0.640080
C3331	C333	0.128300	0.905300	0.361020
C3341	C334	0.554680	0.804400	0.397080
H2221	H222	0.538300	0.795700	0.418300
C3351	C335	0.179880	0.860700	0.361480
C3361	C336	0.468850	0.647200	0.473790
H2231	H223	0.492100	0.682100	0.464900
C3371	C337	0.840100	0.842100	0.617120
H2241	H224	0.856100	0.855600	0.596400
C3381	C338	0.556370	0.788500	0.333950
H2251	H225	0.540800	0.769700	0.312600
C3391	C339	0.601600	0.847500	0.397350
H2261	H226	0.616400	0.867900	0.418600
C3401	C340	0.859120	0.841200	0.745690
H2271	H227	0.829900	0.811000	0.750900
C3411	C341	0.791940	0.798700	0.678430
H2281	H228	0.776200	0.784400	0.699200
C3421	C342	0.767000	0.781100	0.645450
C3431	C343	0.040820	0.945700	0.330830
H2291	H229	0.015100	0.944600	0.311100
C3441	C344	0.203600	0.831900	0.393500
H2301	H230	0.187100	0.840700	0.414600
C3451	C345	0.542400	0.704300	0.533860
H2311	H231	0.530800	0.738300	0.516700
C3461	C346	0.583600	0.721100	0.560000
H2321	H232	0.600900	0.766100	0.559800
C3471	C347	0.863700	0.859700	0.648960
H2331	H233	0.896200	0.887100	0.650600
C3481	C348	0.088730	0.903800	0.331260
H2341	H234	0.094900	0.874500	0.311800
C3491	C349	0.603330	0.830200	0.334020
H2351	H235	0.619600	0.838300	0.312700
C3501	C350	0.206300	0.847700	0.330360
H2361	H236	0.191500	0.867000	0.308900
C3511	C351	0.793300	0.804900	0.615800
H2371	H237	0.776500	0.793600	0.593400
C3521	C352	0.254200	0.806400	0.330870
H2381	H238	0.271300	0.798300	0.309900
C3531	C353	0.911600	0.932900	0.752300
H2391	H239	0.931700	0.970800	0.763300
C3541	C354	0.895500	0.929500	0.717100
H2401	H240	0.900100	0.964200	0.699600
C3551	C355	0.609400	0.627700	0.668130
H2411	H241	0.622400	0.578600	0.669600
H2421	H242	0.608100	0.647200	0.691700
H2431	H243	0.572700	0.628800	0.656200
C3561	C356	0.943900	0.874600	0.752600
H2441	H244	0.978900	0.883400	0.763900
C3571	C357	0.933100	0.864700	0.717600
H2451	H245	0.958200	0.862000	0.700000
Zn151	Zn15	0.898690	0.132000	0.323730
Zn161	Zn16	0.908290	0.131470	0.402640
O571	O57	0.352610	0.549100	0.394190
O581	O58	0.843480	0.200100	0.392660
O591	O59	0.961560	0.214720	0.395390
O601	O60	0.470240	0.564420	0.388720
O611	O61	0.334660	0.567300	0.335620
O621	O62	0.965770	0.195980	0.336380
O631	O63	0.452260	0.545370	0.330030
O641	O64	0.847530	0.216820	0.333710
N501	N50	0.393200	0.369460	0.770190
N511	N51	0.975810	0.118850	0.506800
N521	N52	0.924840	0.119470	0.455460
N531	N53	0.147290	0.171200	0.648060
N541	N54	0.193300	0.201500	0.665080
N551	N55	0.186020	0.235800	0.607600
C3581	C358	0.569660	0.490900	0.389170
H2461	H246	0.563000	0.520000	0.408600
C3591	C359	0.274550	0.491200	0.365250
C3601	C360	0.480670	0.537030	0.359610
N561	N56	0.369150	0.358800	0.713060
C3611	C361	0.531370	0.489100	0.359770
C3621	C362	0.264280	0.451300	0.394730
H2471	H247	0.289300	0.452900	0.414800
C3631	C363	0.324690	0.539430	0.365060
C3641	C364	0.237240	0.488100	0.335240
H2481	H248	0.244400	0.514600	0.315000
C3651	C365	0.178310	0.405200	0.365510
C3661	C366	0.827020	0.227600	0.363150
C3671	C367	0.018820	0.136800	0.533620
C3681	C368	0.982370	0.225000	0.365690
C3691	C369	0.144160	0.193000	0.613690
C3701	C370	0.933980	0.069200	0.509480
H2491	H249	0.928000	0.040600	0.529200
C3711	C371	0.189690	0.446300	0.335150
H2501	H250	0.165000	0.445100	0.315000
C3721	C372	0.903090	0.069900	0.477810
H2511	H251	0.872000	0.041200	0.472100
C3731	C373	0.340200	0.337700	0.680060
C3741	C374	0.777020	0.276700	0.362970
C3751	C375	0.035430	0.085600	0.559150
H2521	H252	0.019600	0.039600	0.558600
C3761	C376	0.099770	0.171000	0.586820
C3771	C377	0.127100	0.360600	0.365300
C3781	C378	0.076220	0.104400	0.585670
H2531	H253	0.087600	0.070500	0.603000
C3791	C379	0.216680	0.408500	0.394950
H2541	H254	0.210500	0.381500	0.415200
C3801	C380	0.618170	0.449400	0.389870
H2551	H255	0.643700	0.451100	0.409600
C3811	C381	0.031510	0.273900	0.365590
C3821	C382	0.751400	0.290500	0.393930
H2561	H256	0.766600	0.271600	0.415400
C3831	C383	0.215210	0.240100	0.640080
C3841	C384	0.628300	0.405300	0.361020
C3851	C385	0.054680	0.304400	0.397080
H2571	H257	0.038300	0.295700	0.418300
C3861	C386	0.679880	0.360700	0.361480
C3871	C387	0.968850	0.147200	0.473790
H2581	H258	0.992100	0.182100	0.464900
C3881	C388	0.340100	0.342100	0.617120
H2591	H259	0.356100	0.355600	0.596400
C3891	C389	0.056370	0.288500	0.333950
H2601	H260	0.040800	0.269700	0.312600
C3901	C390	0.101600	0.347500	0.397350
H2611	H261	0.116400	0.367900	0.418600
C3911	C391	0.359120	0.341200	0.745690
H2621	H262	0.329900	0.311000	0.750900
C3921	C392	0.291940	0.298700	0.678430
H2631	H263	0.276200	0.284400	0.699200
C3931	C393	0.267000	0.281100	0.645450
C3941	C394	0.540820	0.445700	0.330830
H2641	H264	0.515100	0.444600	0.311100
C3951	C395	0.703600	0.331900	0.393500
H2651	H265	0.687100	0.340700	0.414600
C3961	C396	0.042400	0.204300	0.533860
H2661	H266	0.030800	0.238300	0.516700
C3971	C397	0.083600	0.221100	0.560000
H2671	H267	0.100900	0.266100	0.559800
C3981	C398	0.363700	0.359700	0.648960
H2681	H268	0.396200	0.387100	0.650600
C3991	C399	0.588730	0.403800	0.331260
H2691	H269	0.594900	0.374500	0.311800
C4001	C400	0.103330	0.330200	0.334020
H2701	H270	0.119600	0.338300	0.312700
C4011	C401	0.706300	0.347700	0.330360
H2711	H271	0.691500	0.367000	0.308900
C4021	C402	0.293300	0.304900	0.615800
H2721	H272	0.276500	0.293600	0.593400
C4031	C403	0.754200	0.306400	0.330870
H2731	H273	0.771300	0.298300	0.309900
C4041	C404	0.411600	0.432900	0.752300
H2741	H274	0.431700	0.470800	0.763300
C4051	C405	0.395500	0.429500	0.717100
H2751	H275	0.400100	0.464200	0.699600
C4061	C406	0.109400	0.127700	0.668130
H2761	H276	0.122400	0.078600	0.669600
H2771	H277	0.108100	0.147200	0.691700
H2781	H278	0.072700	0.128800	0.656200
C4071	C407	0.443900	0.374600	0.752600
H2791	H279	0.478900	0.383400	0.763900
C4081	C408	0.433100	0.364700	0.717600
H2801	H280	0.458200	0.362000	0.700000
