data_ESARUN_freeONLY_PM
_symmetry_space_group_name_H-M	'P1'
_cell_length_a	10.481900
_cell_length_b	12.423900
_cell_length_c	19.804300
_cell_angle_alpha	75.228500
_cell_angle_beta	81.276700
_cell_angle_gamma	82.936400
_symmetry_Int_Tables_number 1

loop_
_symmetry_equiv_pos_as_xyz
'x,y,z'

loop_
_atom_site_label
_atom_site_type_symbol
_atom_site_fract_x
_atom_site_fract_y
_atom_site_fract_z
Zn11	Zn1	0.312170	0.869350	0.152840
Zn21	Zn2	0.359680	0.885800	0.669330
O11	O1	0.269000	0.770500	0.099050
O21	O2	0.176500	0.856600	0.233290
O31	O3	0.382200	0.872400	0.005370
O41	O4	0.270700	0.687000	0.277040
C11	C1	0.181400	0.760500	0.277530
C21	C2	0.590300	0.909900	0.140100
H11	H1	0.584200	0.964200	0.098300
N11	N1	0.268000	0.033600	0.111630
N21	N2	0.316800	0.821400	0.594390
N31	N3	0.494400	0.851900	0.175470
N41	N4	0.280300	0.205900	0.048700
C31	C3	0.307400	0.799400	0.033110
N51	N5	0.697800	0.880900	0.171780
C41	C4	0.252600	0.739700	0.988150
O51	O5	0.348200	0.811200	0.769050
N61	N6	0.947900	0.524100	0.489600
C51	C5	0.064700	0.643500	0.385100
H21	H2	0.134700	0.589500	0.385800
C61	C6	0.334100	0.101300	0.059000
H31	H3	0.408800	0.078500	0.032500
N71	N7	0.043300	0.511100	0.015000
O61	O6	0.550900	0.895500	0.636400
C71	C7	0.823600	0.927500	0.146100
H41	H4	0.889800	0.881100	0.172400
H51	H5	0.818900	0.001800	0.154000
C81	C8	0.173600	0.653400	0.019600
H61	H6	0.157900	0.630200	0.068300
C91	C9	0.278800	0.771300	0.915310
H71	H7	0.334700	0.826500	0.894400
C101	C10	0.860900	0.933300	0.068500
H81	H8	0.790900	0.973700	0.042900
H91	H9	0.873400	0.858200	0.061300
C111	C11	0.141100	0.636200	0.904900
H101	H10	0.102700	0.602700	0.877000
C121	C12	0.245800	0.762100	0.793500
C131	C13	0.957600	0.626000	0.435800
C141	C14	0.118400	0.602200	0.977700
C151	C15	0.467300	0.465900	0.981900
H111	H11	0.532100	0.433600	0.950500
H121	H12	0.405700	0.515000	0.953600
C161	C16	0.984800	0.991400	0.039700
H131	H13	0.975500	0.063400	0.051400
H141	H14	0.056600	0.946800	0.061900
N81	N8	0.325900	0.774500	0.494600
C171	C17	0.333800	0.303200	0.997700
H151	H15	0.264900	0.349100	0.973500
H161	H16	0.397500	0.277800	0.962900
C181	C18	0.396700	0.372400	0.034100
H171	H17	0.457900	0.324100	0.063000
H181	H18	0.330700	0.404800	0.064900
C191	C19	0.065900	0.743000	0.333060
C201	C20	0.222700	0.721800	0.873600
N91	N9	0.754900	0.938600	0.619800
C211	C21	0.853200	0.804800	0.383000
C221	C22	0.851300	0.705800	0.434900
H191	H19	0.779600	0.692700	0.469000
C231	C23	0.172500	0.207400	0.097300
H201	H20	0.115500	0.269100	0.102600
C241	C24	0.387600	0.820100	0.533200
H211	H21	0.468800	0.847000	0.519200
O71	O7	0.164900	0.747500	0.758700
C251	C25	0.541300	0.785900	0.234100
H221	H22	0.494500	0.736200	0.269600
C261	C26	0.636800	0.928800	0.656000
C271	C27	0.666300	0.803700	0.232700
H231	H23	0.720300	0.769800	0.266800
C281	C28	0.203700	0.776100	0.593600
H241	H24	0.135400	0.766300	0.629900
O81	O8	0.074800	0.460900	0.079400
C291	C29	0.384900	0.745300	0.427600
H251	H25	0.466300	0.778800	0.411500
H261	H26	0.327500	0.775400	0.391900
C301	C30	0.489400	0.561900	0.494900
H271	H27	0.573000	0.592300	0.484300
H281	H28	0.447700	0.578300	0.538800
C311	C31	0.208000	0.748600	0.532700
H291	H29	0.143300	0.717600	0.518400
C321	C32	0.408500	0.620000	0.437600
H301	H30	0.325400	0.588600	0.447800
H311	H31	0.450900	0.604300	0.393600
C331	C33	0.781500	0.913500	0.549500
H321	H32	0.845700	0.851100	0.550800
H331	H33	0.812900	0.977600	0.515300
H341	H34	0.703200	0.895700	0.536900
C341	C34	0.863300	0.977100	0.640200
H351	H35	0.887200	0.044600	0.606700
H361	H36	0.935000	0.921000	0.641400
H371	H37	0.840100	0.991700	0.686000
C351	C35	0.611700	0.956100	0.722500
H381	H38	0.551900	0.021700	0.719400
H391	H39	0.691200	0.970000	0.735900
H401	H40	0.574900	0.894900	0.757100
O91	O9	0.833300	0.494000	0.501900
C361	C36	0.961000	0.822900	0.332400
H411	H41	0.962700	0.889400	0.297700
C371	C37	0.165400	0.100200	0.136400
H421	H42	0.101900	0.075800	0.173600
O101	O10	0.647500	0.877200	0.427100
C381	C38	0.739900	0.891600	0.381600
O111	O11	0.750400	0.977300	0.330010
Zn31	Zn3	0.687830	0.130650	0.847160
Zn41	Zn4	0.640320	0.114200	0.330670
O121	O12	0.731000	0.229500	0.900950
O131	O13	0.823500	0.143400	0.766710
O141	O14	0.617800	0.127600	0.994630
O151	O15	0.729300	0.313000	0.722960
C391	C39	0.818600	0.239500	0.722470
C401	C40	0.409700	0.090100	0.859900
H431	H43	0.415800	0.035800	0.901700
N101	N10	0.732000	0.966400	0.888370
N111	N11	0.683200	0.178600	0.405610
N121	N12	0.505600	0.148100	0.824530
N131	N13	0.719700	0.794100	0.951300
C411	C41	0.692600	0.200600	0.966890
N141	N14	0.302200	0.119100	0.828220
C421	C42	0.747400	0.260300	0.011850
O161	O16	0.651800	0.188800	0.230950
N151	N15	0.052100	0.475900	0.510400
C431	C43	0.935300	0.356500	0.614900
H441	H44	0.865300	0.410500	0.614200
C441	C44	0.665900	0.898700	0.941000
H451	H45	0.591200	0.921500	0.967500
N161	N16	0.956700	0.488900	0.985000
O171	O17	0.449100	0.104500	0.363600
C451	C45	0.176400	0.072500	0.853900
H461	H46	0.110200	0.118900	0.827600
H471	H47	0.181100	0.998200	0.846000
C461	C46	0.826400	0.346600	0.980400
H481	H48	0.842100	0.369800	0.931700
C471	C47	0.721200	0.228700	0.084690
H491	H49	0.665300	0.173500	0.105600
C481	C48	0.139100	0.066700	0.931500
H501	H50	0.209100	0.026300	0.957100
H511	H51	0.126600	0.141800	0.938700
C491	C49	0.858900	0.363800	0.095100
H521	H52	0.897300	0.397300	0.123000
C501	C50	0.754200	0.237900	0.206500
C511	C51	0.042400	0.374000	0.564200
C521	C52	0.881600	0.397800	0.022300
C531	C53	0.532700	0.534100	0.018100
H531	H53	0.467900	0.566400	0.049500
H541	H54	0.594300	0.485000	0.046400
C541	C54	0.015200	0.008600	0.960300
H551	H55	0.024500	0.936600	0.948600
H561	H56	0.943400	0.053200	0.938100
N171	N17	0.674100	0.225500	0.505400
C551	C55	0.666200	0.696800	0.002300
H571	H57	0.735100	0.650900	0.026500
H581	H58	0.602500	0.722200	0.037100
C561	C56	0.603300	0.627600	0.965900
H591	H59	0.542100	0.675900	0.937000
H601	H60	0.669300	0.595200	0.935100
C571	C57	0.934100	0.257000	0.666940
C581	C58	0.777300	0.278200	0.126400
N181	N18	0.245100	0.061400	0.380200
C591	C59	0.146800	0.195200	0.617000
C601	C60	0.148700	0.294200	0.565100
H611	H61	0.220400	0.307300	0.531000
C611	C61	0.827500	0.792600	0.902700
H621	H62	0.884500	0.730900	0.897400
C621	C62	0.612400	0.179900	0.466800
H631	H63	0.531200	0.153000	0.480800
O181	O18	0.835100	0.252500	0.241300
C631	C63	0.458700	0.214100	0.765900
H641	H64	0.505500	0.263800	0.730400
C641	C64	0.363200	0.071200	0.344000
C651	C65	0.333700	0.196300	0.767300
H651	H65	0.279700	0.230200	0.733200
C661	C66	0.796300	0.223900	0.406400
H661	H66	0.864600	0.233700	0.370100
O191	O19	0.925200	0.539100	0.920600
C671	C67	0.615100	0.254700	0.572400
H671	H67	0.533700	0.221200	0.588500
H681	H68	0.672500	0.224600	0.608100
C681	C68	0.510600	0.438100	0.505100
H691	H69	0.427000	0.407700	0.515700
H701	H70	0.552300	0.421700	0.461200
C691	C69	0.792000	0.251400	0.467300
H711	H71	0.856700	0.282400	0.481600
C701	C70	0.591500	0.380000	0.562400
H721	H72	0.674600	0.411400	0.552200
H731	H73	0.549100	0.395700	0.606400
C711	C71	0.218500	0.086500	0.450500
H741	H74	0.154300	0.148900	0.449200
H751	H75	0.187100	0.022400	0.484700
H761	H76	0.296800	0.104300	0.463100
C721	C72	0.136700	0.022900	0.359800
H771	H77	0.112800	0.955400	0.393300
H781	H78	0.065000	0.079000	0.358600
H791	H79	0.159900	0.008300	0.314000
C731	C73	0.388300	0.043900	0.277500
H801	H80	0.448100	0.978300	0.280600
H811	H81	0.308800	0.030000	0.264100
H821	H82	0.425100	0.105100	0.242900
O201	O20	0.166700	0.506000	0.498100
C741	C74	0.039000	0.177100	0.667600
H831	H83	0.037300	0.110600	0.702300
C751	C75	0.834600	0.899800	0.863600
H841	H84	0.898100	0.924200	0.826400
O211	O21	0.352500	0.122800	0.572900
C761	C76	0.260100	0.108400	0.618400
O221	O22	0.249600	0.022700	0.669990
