data_ESASEY_freeONLY_PM
_symmetry_space_group_name_H-M	'P1'
_cell_length_a	27.518500
_cell_length_b	10.424700
_cell_length_c	14.865600
_cell_angle_alpha	90.000000
_cell_angle_beta	117.541000
_cell_angle_gamma	90.000000
_symmetry_Int_Tables_number 1

loop_
_symmetry_equiv_pos_as_xyz
'x,y,z'

loop_
_atom_site_label
_atom_site_type_symbol
_atom_site_fract_x
_atom_site_fract_y
_atom_site_fract_z
Zn11	Zn1	0.291300	0.360240	0.033770
O11	O1	0.167370	0.250200	0.021300
C11	C1	0.155850	0.434100	0.104800
O21	O2	0.232910	0.399900	0.079400
C21	C2	0.376800	0.848600	0.147500
H11	H1	0.371800	0.843800	0.207800
H21	H2	0.356300	0.922300	0.108600
N11	N1	0.352600	0.732500	0.086400
N21	N2	0.012580	0.535000	0.037500
C31	C3	0.098730	0.436500	0.053100
H31	H3	0.079800	0.382900	0.997700
N31	N3	0.322200	0.535900	0.044200
C41	C4	0.070290	0.520300	0.085300
C51	C5	0.188040	0.353000	0.065100
C61	C6	0.327200	0.591000	0.962800
H41	H4	0.318600	0.553100	0.900600
C71	C7	0.347400	0.711700	0.993900
H51	H5	0.356200	0.770200	0.956400
C81	C8	0.335000	0.604000	0.213500
H61	H6	0.298100	0.585200	0.200000
H71	H7	0.347300	0.680600	0.253800
H81	H8	0.358500	0.533800	0.249800
C91	C9	0.337000	0.623800	0.113900
C101	C10	0.435500	0.872000	0.179800
H91	H9	0.445700	0.953900	0.214700
H101	H10	0.440900	0.878300	0.119900
C111	C11	0.184160	0.508200	0.190600
H111	H11	0.222200	0.503500	0.225900
C121	C12	0.155980	0.590100	0.224500
C131	C13	0.099170	0.597800	0.170500
H121	H12	0.080300	0.654700	0.191200
C141	C14	0.187180	0.664600	0.321500
O31	O3	0.165890	0.765300	0.331900
O41	O4	0.231530	0.616100	0.384500
C151	C15	0.474500	0.766300	0.251000
H131	H13	0.480600	0.781100	0.319800
H141	H14	0.457300	0.682900	0.229600
Zn21	Zn2	0.791300	0.860240	0.033770
O51	O5	0.667370	0.750200	0.021300
C161	C16	0.655850	0.934100	0.104800
O61	O6	0.732910	0.899900	0.079400
C171	C17	0.876800	0.348600	0.147500
H151	H15	0.871800	0.343800	0.207800
H161	H16	0.856300	0.422300	0.108600
N41	N4	0.852600	0.232500	0.086400
N51	N5	0.512580	0.035000	0.037500
C181	C18	0.598730	0.936500	0.053100
H171	H17	0.579800	0.882900	0.997700
N61	N6	0.822200	0.035900	0.044200
C191	C19	0.570290	0.020300	0.085300
C201	C20	0.688040	0.853000	0.065100
C211	C21	0.827200	0.091000	0.962800
H181	H18	0.818600	0.053100	0.900600
C221	C22	0.847400	0.211700	0.993900
H191	H19	0.856200	0.270200	0.956400
C231	C23	0.835000	0.104000	0.213500
H201	H20	0.798100	0.085200	0.200000
H211	H21	0.847300	0.180600	0.253800
H221	H22	0.858500	0.033800	0.249800
C241	C24	0.837000	0.123800	0.113900
C251	C25	0.935500	0.372000	0.179800
H231	H23	0.945700	0.453900	0.214700
H241	H24	0.940900	0.378300	0.119900
C261	C26	0.684160	0.008200	0.190600
H251	H25	0.722200	0.003500	0.225900
C271	C27	0.655980	0.090100	0.224500
C281	C28	0.599170	0.097800	0.170500
H261	H26	0.580300	0.154700	0.191200
C291	C29	0.687180	0.164600	0.321500
O71	O7	0.665890	0.265300	0.331900
O81	O8	0.731530	0.116100	0.384500
C301	C30	0.974500	0.266300	0.251000
H271	H27	0.980600	0.281100	0.319800
H281	H28	0.957300	0.182900	0.229600
Zn31	Zn3	0.708700	0.360240	0.466230
O91	O9	0.832630	0.250200	0.478700
C311	C31	0.844150	0.434100	0.395200
O101	O10	0.767090	0.399900	0.420600
C321	C32	0.623200	0.848600	0.352500
H291	H29	0.628200	0.843800	0.292200
H301	H30	0.643700	0.922300	0.391400
N71	N7	0.647400	0.732500	0.413600
N81	N8	0.987420	0.535000	0.462500
C331	C33	0.901270	0.436500	0.446900
H311	H31	0.920200	0.382900	0.502300
N91	N9	0.677800	0.535900	0.455800
C341	C34	0.929710	0.520300	0.414700
C351	C35	0.811960	0.353000	0.434900
C361	C36	0.672800	0.591000	0.537200
H321	H32	0.681400	0.553100	0.599400
C371	C37	0.652600	0.711700	0.506100
H331	H33	0.643800	0.770200	0.543600
C381	C38	0.665000	0.604000	0.286500
H341	H34	0.701900	0.585200	0.300000
H351	H35	0.652700	0.680600	0.246200
H361	H36	0.641500	0.533800	0.250200
C391	C39	0.663000	0.623800	0.386100
C401	C40	0.564500	0.872000	0.320200
H371	H37	0.554300	0.953900	0.285300
H381	H38	0.559100	0.878300	0.380100
C411	C41	0.815840	0.508200	0.309400
H391	H39	0.777800	0.503500	0.274100
C421	C42	0.844020	0.590100	0.275500
C431	C43	0.900830	0.597800	0.329500
H401	H40	0.919700	0.654700	0.308800
C441	C44	0.812820	0.664600	0.178500
O111	O11	0.834110	0.765300	0.168100
O121	O12	0.768470	0.616100	0.115500
C451	C45	0.525500	0.766300	0.249000
H411	H41	0.519400	0.781100	0.180200
H421	H42	0.542700	0.682900	0.270400
Zn41	Zn4	0.208700	0.860240	0.466230
O131	O13	0.332630	0.750200	0.478700
C461	C46	0.344150	0.934100	0.395200
O141	O14	0.267090	0.899900	0.420600
C471	C47	0.123200	0.348600	0.352500
H431	H43	0.128200	0.343800	0.292200
H441	H44	0.143700	0.422300	0.391400
N101	N10	0.147400	0.232500	0.413600
N111	N11	0.487420	0.035000	0.462500
C481	C48	0.401270	0.936500	0.446900
H451	H45	0.420200	0.882900	0.502300
N121	N12	0.177800	0.035900	0.455800
C491	C49	0.429710	0.020300	0.414700
C501	C50	0.311960	0.853000	0.434900
C511	C51	0.172800	0.091000	0.537200
H461	H46	0.181400	0.053100	0.599400
C521	C52	0.152600	0.211700	0.506100
H471	H47	0.143800	0.270200	0.543600
C531	C53	0.165000	0.104000	0.286500
H481	H48	0.201900	0.085200	0.300000
H491	H49	0.152700	0.180600	0.246200
H501	H50	0.141500	0.033800	0.250200
C541	C54	0.163000	0.123800	0.386100
C551	C55	0.064500	0.372000	0.320200
H511	H51	0.054300	0.453900	0.285300
H521	H52	0.059100	0.378300	0.380100
C561	C56	0.315840	0.008200	0.309400
H531	H53	0.277800	0.003500	0.274100
C571	C57	0.344020	0.090100	0.275500
C581	C58	0.400830	0.097800	0.329500
H541	H54	0.419700	0.154700	0.308800
C591	C59	0.312820	0.164600	0.178500
O151	O15	0.334110	0.265300	0.168100
O161	O16	0.268470	0.116100	0.115500
C601	C60	0.025500	0.266300	0.249000
H551	H55	0.019400	0.281100	0.180200
H561	H56	0.042700	0.182900	0.270400
Zn51	Zn5	0.708700	0.639760	0.966230
O171	O17	0.832630	0.749800	0.978700
C611	C61	0.844150	0.565900	0.895200
O181	O18	0.767090	0.600100	0.920600
C621	C62	0.623200	0.151400	0.852500
H571	H57	0.628200	0.156200	0.792200
H581	H58	0.643700	0.077700	0.891400
N131	N13	0.647400	0.267500	0.913600
N141	N14	0.987420	0.465000	0.962500
C631	C63	0.901270	0.563500	0.946900
H591	H59	0.920200	0.617100	0.002300
N151	N15	0.677800	0.464100	0.955800
C641	C64	0.929710	0.479700	0.914700
C651	C65	0.811960	0.647000	0.934900
C661	C66	0.672800	0.409000	0.037200
H601	H60	0.681400	0.446900	0.099400
C671	C67	0.652600	0.288300	0.006100
H611	H61	0.643800	0.229800	0.043600
C681	C68	0.665000	0.396000	0.786500
H621	H62	0.701900	0.414800	0.800000
H631	H63	0.652700	0.319400	0.746200
H641	H64	0.641500	0.466200	0.750200
C691	C69	0.663000	0.376200	0.886100
C701	C70	0.564500	0.128000	0.820200
H651	H65	0.554300	0.046100	0.785300
H661	H66	0.559100	0.121700	0.880100
C711	C71	0.815840	0.491800	0.809400
H671	H67	0.777800	0.496500	0.774100
C721	C72	0.844020	0.409900	0.775500
C731	C73	0.900830	0.402200	0.829500
H681	H68	0.919700	0.345300	0.808800
C741	C74	0.812820	0.335400	0.678500
O191	O19	0.834110	0.234700	0.668100
O201	O20	0.768470	0.383900	0.615500
C751	C75	0.525500	0.233700	0.749000
H691	H69	0.519400	0.218900	0.680200
H701	H70	0.542700	0.317100	0.770400
Zn61	Zn6	0.208700	0.139760	0.966230
O211	O21	0.332630	0.249800	0.978700
C761	C76	0.344150	0.065900	0.895200
O221	O22	0.267090	0.100100	0.920600
C771	C77	0.123200	0.651400	0.852500
H711	H71	0.128200	0.656200	0.792200
H721	H72	0.143700	0.577700	0.891400
N161	N16	0.147400	0.767500	0.913600
N171	N17	0.487420	0.965000	0.962500
C781	C78	0.401270	0.063500	0.946900
H731	H73	0.420200	0.117100	0.002300
N181	N18	0.177800	0.964100	0.955800
C791	C79	0.429710	0.979700	0.914700
C801	C80	0.311960	0.147000	0.934900
C811	C81	0.172800	0.909000	0.037200
H741	H74	0.181400	0.946900	0.099400
C821	C82	0.152600	0.788300	0.006100
H751	H75	0.143800	0.729800	0.043600
C831	C83	0.165000	0.896000	0.786500
H761	H76	0.201900	0.914800	0.800000
H771	H77	0.152700	0.819400	0.746200
H781	H78	0.141500	0.966200	0.750200
C841	C84	0.163000	0.876200	0.886100
C851	C85	0.064500	0.628000	0.820200
H791	H79	0.054300	0.546100	0.785300
H801	H80	0.059100	0.621700	0.880100
C861	C86	0.315840	0.991800	0.809400
H811	H81	0.277800	0.996500	0.774100
C871	C87	0.344020	0.909900	0.775500
C881	C88	0.400830	0.902200	0.829500
H821	H82	0.419700	0.845300	0.808800
C891	C89	0.312820	0.835400	0.678500
O231	O23	0.334110	0.734700	0.668100
O241	O24	0.268470	0.883900	0.615500
C901	C90	0.025500	0.733700	0.749000
H831	H83	0.019400	0.718900	0.680200
H841	H84	0.042700	0.817100	0.770400
Zn71	Zn7	0.291300	0.639760	0.533770
O251	O25	0.167370	0.749800	0.521300
C911	C91	0.155850	0.565900	0.604800
O261	O26	0.232910	0.600100	0.579400
C921	C92	0.376800	0.151400	0.647500
H851	H85	0.371800	0.156200	0.707800
H861	H86	0.356300	0.077700	0.608600
N191	N19	0.352600	0.267500	0.586400
N201	N20	0.012580	0.465000	0.537500
C931	C93	0.098730	0.563500	0.553100
H871	H87	0.079800	0.617100	0.497700
N211	N21	0.322200	0.464100	0.544200
C941	C94	0.070290	0.479700	0.585300
C951	C95	0.188040	0.647000	0.565100
C961	C96	0.327200	0.409000	0.462800
H881	H88	0.318600	0.446900	0.400600
C971	C97	0.347400	0.288300	0.493900
H891	H89	0.356200	0.229800	0.456400
C981	C98	0.335000	0.396000	0.713500
H901	H90	0.298100	0.414800	0.700000
H911	H91	0.347300	0.319400	0.753800
H921	H92	0.358500	0.466200	0.749800
C991	C99	0.337000	0.376200	0.613900
C1001	C100	0.435500	0.128000	0.679800
H931	H93	0.445700	0.046100	0.714700
H941	H94	0.440900	0.121700	0.619900
C1011	C101	0.184160	0.491800	0.690600
H951	H95	0.222200	0.496500	0.725900
C1021	C102	0.155980	0.409900	0.724500
C1031	C103	0.099170	0.402200	0.670500
H961	H96	0.080300	0.345300	0.691200
C1041	C104	0.187180	0.335400	0.821500
O271	O27	0.165890	0.234700	0.831900
O281	O28	0.231530	0.383900	0.884500
C1051	C105	0.474500	0.233700	0.751000
H971	H97	0.480600	0.218900	0.819800
H981	H98	0.457300	0.317100	0.729600
Zn81	Zn8	0.791300	0.139760	0.533770
O291	O29	0.667370	0.249800	0.521300
C1061	C106	0.655850	0.065900	0.604800
O301	O30	0.732910	0.100100	0.579400
C1071	C107	0.876800	0.651400	0.647500
H991	H99	0.871800	0.656200	0.707800
H1001	H100	0.856300	0.577700	0.608600
N221	N22	0.852600	0.767500	0.586400
N231	N23	0.512580	0.965000	0.537500
C1081	C108	0.598730	0.063500	0.553100
H1011	H101	0.579800	0.117100	0.497700
N241	N24	0.822200	0.964100	0.544200
C1091	C109	0.570290	0.979700	0.585300
C1101	C110	0.688040	0.147000	0.565100
C1111	C111	0.827200	0.909000	0.462800
H1021	H102	0.818600	0.946900	0.400600
C1121	C112	0.847400	0.788300	0.493900
H1031	H103	0.856200	0.729800	0.456400
C1131	C113	0.835000	0.896000	0.713500
H1041	H104	0.798100	0.914800	0.700000
H1051	H105	0.847300	0.819400	0.753800
H1061	H106	0.858500	0.966200	0.749800
C1141	C114	0.837000	0.876200	0.613900
C1151	C115	0.935500	0.628000	0.679800
H1071	H107	0.945700	0.546100	0.714700
H1081	H108	0.940900	0.621700	0.619900
C1161	C116	0.684160	0.991800	0.690600
H1091	H109	0.722200	0.996500	0.725900
C1171	C117	0.655980	0.909900	0.724500
C1181	C118	0.599170	0.902200	0.670500
H1101	H110	0.580300	0.845300	0.691200
C1191	C119	0.687180	0.835400	0.821500
O311	O31	0.665890	0.734700	0.831900
O321	O32	0.731530	0.883900	0.884500
C1201	C120	0.974500	0.733700	0.751000
H1111	H111	0.980600	0.718900	0.819800
H1121	H112	0.957300	0.817100	0.729600
