data_ESEHIV_freeONLY_PM
_symmetry_space_group_name_H-M	'P1'
_cell_length_a	11.807400
_cell_length_b	12.028700
_cell_length_c	12.581500
_cell_angle_alpha	77.508000
_cell_angle_beta	88.505000
_cell_angle_gamma	62.823000
_symmetry_Int_Tables_number 1

loop_
_symmetry_equiv_pos_as_xyz
'x,y,z'

loop_
_atom_site_label
_atom_site_type_symbol
_atom_site_fract_x
_atom_site_fract_y
_atom_site_fract_z
C11	C1	0.016500	0.655900	0.389800
C21	C2	0.972100	0.698400	0.486200
H11	H1	0.909800	0.681500	0.522100
C31	C3	0.022800	0.764600	0.525000
C41	C4	0.110800	0.796300	0.472300
H21	H2	0.138200	0.847200	0.498500
C51	C5	0.159300	0.751400	0.378500
C61	C6	0.112900	0.681400	0.335600
H31	H3	0.143900	0.651900	0.273100
C71	C7	0.962900	0.581700	0.347400
C81	C8	0.977100	0.805200	0.630700
C91	C9	0.260700	0.776400	0.321400
C101	C10	0.621100	0.100100	0.175900
C111	C11	0.650700	0.181800	0.224200
H41	H4	0.605200	0.215300	0.280800
C121	C12	0.746900	0.210800	0.186700
C131	C13	0.805900	0.169600	0.093700
H51	H5	0.864200	0.197200	0.064000
C141	C14	0.781100	0.091400	0.045800
C151	C15	0.684900	0.057100	0.089600
H61	H6	0.665500	0.004000	0.058100
C161	C16	0.517300	0.064000	0.217400
C171	C17	0.781400	0.290300	0.241400
C181	C18	0.846800	0.051500	0.949500
C191	C19	0.223200	0.143200	0.655000
C201	C20	0.190900	0.119400	0.761800
H71	H7	0.112300	0.122000	0.776600
C211	C21	0.279600	0.092200	0.844000
C221	C22	0.399200	0.088700	0.824600
H81	H8	0.456100	0.074700	0.881700
C231	C23	0.428600	0.107100	0.715800
C241	C24	0.341000	0.136400	0.628500
H91	H9	0.360600	0.150700	0.556300
C251	C25	0.115500	0.263400	0.472200
H101	H10	0.163800	0.307000	0.455100
C261	C26	0.983500	0.186300	0.459300
H111	H11	0.923300	0.167800	0.431800
C271	C27	0.050900	0.129900	0.557400
H121	H12	0.042700	0.067500	0.610400
C281	C28	0.350200	0.991400	0.040800
H131	H13	0.437000	0.952200	0.031400
C291	C29	0.140900	0.101200	0.003000
H141	H14	0.060300	0.150900	0.965900
C301	C30	0.169800	0.051300	0.110700
H151	H15	0.110200	0.059800	0.162200
C311	C31	0.654800	0.023200	0.762500
H161	H16	0.656300	0.974700	0.831400
C321	C32	0.712300	0.112000	0.618400
H171	H17	0.761800	0.135100	0.568500
C331	C33	0.588400	0.152500	0.605700
H181	H18	0.535400	0.211100	0.544800
C341	C34	0.427200	0.748000	0.853300
C351	C35	0.533400	0.696900	0.928100
H191	H19	0.525700	0.674800	0.002400
C361	C36	0.652600	0.679000	0.890300
C371	C37	0.663200	0.713400	0.776500
H201	H20	0.742300	0.697800	0.750500
C381	C38	0.554100	0.770700	0.704400
C391	C39	0.435200	0.790400	0.743400
H211	H21	0.362000	0.832000	0.695300
C401	C40	0.203600	0.800000	0.822300
H221	H22	0.205900	0.805100	0.747500
C411	C41	0.138700	0.804600	0.983000
H231	H23	0.085300	0.813400	0.039500
C421	C42	0.266400	0.770600	0.994200
H241	H24	0.315900	0.753700	0.057600
C431	C43	0.781600	0.540300	0.063000
H251	H25	0.728200	0.504400	0.088400
C441	C44	0.859100	0.657900	0.959100
H261	H26	0.871400	0.714200	0.902300
C451	C45	0.934400	0.589400	0.052800
H271	H27	0.008500	0.591600	0.072700
C461	C46	0.483700	0.818600	0.510700
H281	H28	0.413000	0.803800	0.521100
C471	C47	0.653800	0.833600	0.545300
H291	H29	0.722400	0.833400	0.580200
C481	C48	0.624300	0.862500	0.433300
H301	H30	0.670300	0.884500	0.379000
Cu11	Cu1	0.962660	0.391110	0.258230
Cu21	Cu2	0.928780	0.919650	0.795210
Cu31	Cu3	0.412900	0.902960	0.273910
N11	N1	0.020600	0.277100	0.406700
N21	N2	0.131400	0.177900	0.566500
N31	N3	0.258400	0.062200	0.959600
N41	N4	0.302400	0.984400	0.134400
N51	N5	0.549600	0.097700	0.692200
N61	N6	0.754500	0.029400	0.719100
N71	N7	0.304800	0.767200	0.889300
N81	N8	0.101800	0.823900	0.873400
N91	N9	0.758600	0.625900	0.965900
N101	N10	0.883800	0.515000	0.114900
N111	N11	0.562000	0.805400	0.594500
N121	N12	0.514800	0.852700	0.417200
O11	O1	0.030600	0.500600	0.294900
O21	O2	0.849000	0.604900	0.362700
O31	O3	0.920400	0.755700	0.691600
O41	O4	0.003300	0.887700	0.657600
O51	O5	0.289600	0.853800	0.351600
O61	O6	0.313500	0.719100	0.249400
O71	O7	0.531400	0.961000	0.200500
O81	O8	0.429200	0.137800	0.262200
O91	O9	0.707200	0.359200	0.296000
O101	O10	0.890400	0.284500	0.219800
O111	O11	0.892800	0.109600	0.890300
O121	O12	0.850400	0.947800	0.933000
O131	O13	0.164200	0.294000	0.187600
H311	H31	0.173100	0.356800	0.131300
H321	H32	0.209600	0.205100	0.224500
