data_ESURER_freeONLY_PM
_symmetry_space_group_name_H-M	'P1'
_cell_length_a	17.783500
_cell_length_b	12.781800
_cell_length_c	11.225400
_cell_angle_alpha	90.000000
_cell_angle_beta	95.180000
_cell_angle_gamma	90.000000
_symmetry_Int_Tables_number 1

loop_
_symmetry_equiv_pos_as_xyz
'x,y,z'

loop_
_atom_site_label
_atom_site_type_symbol
_atom_site_fract_x
_atom_site_fract_y
_atom_site_fract_z
Co11	Co1	0.420860	0.558160	0.499860
N11	N1	0.873200	0.935000	0.161700
N21	N2	0.910500	0.983100	0.255600
N31	N3	0.876800	0.970100	0.354800
C11	C1	0.812000	0.887000	0.204600
C21	C2	0.814700	0.909900	0.327400
C31	C3	0.760300	0.872600	0.398400
H11	H1	0.762800	0.887300	0.479800
C41	C4	0.703500	0.813800	0.343900
H21	H2	0.666300	0.788300	0.389300
C51	C5	0.699100	0.790200	0.219500
C61	C6	0.753100	0.826800	0.148300
H31	H3	0.750400	0.812200	0.066900
C71	C7	0.633900	0.723700	0.168700
O11	O1	0.520110	0.579900	0.432200
H41	H4	0.546000	0.639000	0.465000
O21	O2	0.636910	0.687600	0.063900
O31	O3	0.581580	0.709700	0.234600
Co21	Co2	0.920860	0.058160	0.499860
N41	N4	0.373200	0.435000	0.161700
N51	N5	0.410500	0.483100	0.255600
N61	N6	0.376800	0.470100	0.354800
C81	C8	0.312000	0.387000	0.204600
C91	C9	0.314700	0.409900	0.327400
C101	C10	0.260300	0.372600	0.398400
H51	H5	0.262800	0.387300	0.479800
C111	C11	0.203500	0.313800	0.343900
H61	H6	0.166300	0.288300	0.389300
C121	C12	0.199100	0.290200	0.219500
C131	C13	0.253100	0.326800	0.148300
H71	H7	0.250400	0.312200	0.066900
C141	C14	0.133900	0.223700	0.168700
O41	O4	0.020110	0.079900	0.432200
H81	H8	0.046000	0.139000	0.465000
O51	O5	0.136910	0.187600	0.063900
O61	O6	0.081580	0.209700	0.234600
Co31	Co3	0.579140	0.558160	0.000140
N71	N7	0.126800	0.935000	0.338300
N81	N8	0.089500	0.983100	0.244400
N91	N9	0.123200	0.970100	0.145200
C151	C15	0.188000	0.887000	0.295400
C161	C16	0.185300	0.909900	0.172600
C171	C17	0.239700	0.872600	0.101600
H91	H9	0.237200	0.887300	0.020200
C181	C18	0.296500	0.813800	0.156100
H101	H10	0.333700	0.788300	0.110700
C191	C19	0.300900	0.790200	0.280500
C201	C20	0.246900	0.826800	0.351700
H111	H11	0.249600	0.812200	0.433100
C211	C21	0.366100	0.723700	0.331300
O71	O7	0.479890	0.579900	0.067800
H121	H12	0.454000	0.639000	0.035000
O81	O8	0.363090	0.687600	0.436100
O91	O9	0.418420	0.709700	0.265400
Co41	Co4	0.079140	0.058160	0.000140
N101	N10	0.626800	0.435000	0.338300
N111	N11	0.589500	0.483100	0.244400
N121	N12	0.623200	0.470100	0.145200
C221	C22	0.688000	0.387000	0.295400
C231	C23	0.685300	0.409900	0.172600
C241	C24	0.739700	0.372600	0.101600
H131	H13	0.737200	0.387300	0.020200
C251	C25	0.796500	0.313800	0.156100
H141	H14	0.833700	0.288300	0.110700
C261	C26	0.800900	0.290200	0.280500
C271	C27	0.746900	0.326800	0.351700
H151	H15	0.749600	0.312200	0.433100
C281	C28	0.866100	0.223700	0.331300
O101	O10	0.979890	0.079900	0.067800
H161	H16	0.954000	0.139000	0.035000
O111	O11	0.863090	0.187600	0.436100
O121	O12	0.918420	0.209700	0.265400
Co51	Co5	0.579140	0.441840	0.500140
N131	N13	0.126800	0.065000	0.838300
N141	N14	0.089500	0.016900	0.744400
N151	N15	0.123200	0.029900	0.645200
C291	C29	0.188000	0.113000	0.795400
C301	C30	0.185300	0.090100	0.672600
C311	C31	0.239700	0.127400	0.601600
H171	H17	0.237200	0.112700	0.520200
C321	C32	0.296500	0.186200	0.656100
H181	H18	0.333700	0.211700	0.610700
C331	C33	0.300900	0.209800	0.780500
C341	C34	0.246900	0.173200	0.851700
H191	H19	0.249600	0.187800	0.933100
C351	C35	0.366100	0.276300	0.831300
O131	O13	0.479890	0.420100	0.567800
H201	H20	0.454000	0.361000	0.535000
O141	O14	0.363090	0.312400	0.936100
O151	O15	0.418420	0.290300	0.765400
Co61	Co6	0.079140	0.941840	0.500140
N161	N16	0.626800	0.565000	0.838300
N171	N17	0.589500	0.516900	0.744400
N181	N18	0.623200	0.529900	0.645200
C361	C36	0.688000	0.613000	0.795400
C371	C37	0.685300	0.590100	0.672600
C381	C38	0.739700	0.627400	0.601600
H211	H21	0.737200	0.612700	0.520200
C391	C39	0.796500	0.686200	0.656100
H221	H22	0.833700	0.711700	0.610700
C401	C40	0.800900	0.709800	0.780500
C411	C41	0.746900	0.673200	0.851700
H231	H23	0.749600	0.687800	0.933100
C421	C42	0.866100	0.776300	0.831300
O161	O16	0.979890	0.920100	0.567800
H241	H24	0.954000	0.861000	0.535000
O171	O17	0.863090	0.812400	0.936100
O181	O18	0.918420	0.790300	0.765400
Co71	Co7	0.420860	0.441840	0.999860
N191	N19	0.873200	0.065000	0.661700
N201	N20	0.910500	0.016900	0.755600
N211	N21	0.876800	0.029900	0.854800
C431	C43	0.812000	0.113000	0.704600
C441	C44	0.814700	0.090100	0.827400
C451	C45	0.760300	0.127400	0.898400
H251	H25	0.762800	0.112700	0.979800
C461	C46	0.703500	0.186200	0.843900
H261	H26	0.666300	0.211700	0.889300
C471	C47	0.699100	0.209800	0.719500
C481	C48	0.753100	0.173200	0.648300
H271	H27	0.750400	0.187800	0.566900
C491	C49	0.633900	0.276300	0.668700
O191	O19	0.520110	0.420100	0.932200
H281	H28	0.546000	0.361000	0.965000
O201	O20	0.636910	0.312400	0.563900
O211	O21	0.581580	0.290300	0.734600
Co81	Co8	0.920860	0.941840	0.999860
N221	N22	0.373200	0.565000	0.661700
N231	N23	0.410500	0.516900	0.755600
N241	N24	0.376800	0.529900	0.854800
C501	C50	0.312000	0.613000	0.704600
C511	C51	0.314700	0.590100	0.827400
C521	C52	0.260300	0.627400	0.898400
H291	H29	0.262800	0.612700	0.979800
C531	C53	0.203500	0.686200	0.843900
H301	H30	0.166300	0.711700	0.889300
C541	C54	0.199100	0.709800	0.719500
C551	C55	0.253100	0.673200	0.648300
H311	H31	0.250400	0.687800	0.566900
C561	C56	0.133900	0.776300	0.668700
O221	O22	0.020110	0.920100	0.932200
H321	H32	0.046000	0.861000	0.965000
O231	O23	0.136910	0.812400	0.563900
O241	O24	0.081580	0.790300	0.734600
Co91	Co9	0.500000	0.594640	0.250000
Co101	Co10	0.000000	0.094640	0.250000
Co111	Co11	0.500000	0.405360	0.750000
Co121	Co12	0.000000	0.905360	0.750000
