data_ETAXUT_freeONLY_PM
_symmetry_space_group_name_H-M	'P1'
_cell_length_a	29.536000
_cell_length_b	29.536000
_cell_length_c	41.760000
_cell_angle_alpha	90.000000
_cell_angle_beta	90.000000
_cell_angle_gamma	120.000000
_symmetry_Int_Tables_number 1

loop_
_symmetry_equiv_pos_as_xyz
'x,y,z'

loop_
_atom_site_label
_atom_site_type_symbol
_atom_site_fract_x
_atom_site_fract_y
_atom_site_fract_z
Zn11	Zn1	0.375270	0.310070	0.981490
Zn21	Zn2	0.370620	0.415990	0.988900
Zn31	Zn3	0.265200	0.301690	0.979140
Zn41	Zn4	0.328690	0.330110	0.042850
Zn51	Zn5	0.934800	0.624730	0.648160
Zn61	Zn6	0.045370	0.629380	0.655570
Zn71	Zn7	0.036490	0.734800	0.645810
Zn81	Zn8	0.001420	0.671310	0.709520
Zn91	Zn9	0.689930	0.065200	0.314820
Zn101	Zn10	0.584010	0.954630	0.322230
Zn111	Zn11	0.698310	0.963510	0.312470
Zn121	Zn12	0.669890	0.998580	0.376180
H11	H1	0.460000	0.470300	0.902700
H21	H2	0.529600	0.513800	0.866800
H31	H3	0.596700	0.433300	0.901900
H41	H4	0.527100	0.389800	0.937800
H51	H5	0.713300	0.541000	0.730500
H61	H6	0.785200	0.570100	0.696100
H71	H7	0.879900	0.596600	0.772500
H81	H8	0.808000	0.567500	0.806900
H91	H9	0.188900	0.156400	0.928900
H101	H10	0.159700	0.088200	0.891700
H111	H11	0.309900	0.130700	0.871000
H121	H12	0.339100	0.198800	0.908300
H131	H13	0.074200	0.863500	0.801700
H141	H14	0.033000	0.793400	0.766100
H151	H15	0.130800	0.883000	0.695300
H161	H16	0.172000	0.953100	0.731000
H171	H17	0.041000	0.590100	0.776000
H181	H18	0.077400	0.547000	0.803500
H191	H19	0.204500	0.615200	0.745700
H201	H20	0.168200	0.658300	0.718200
H211	H21	0.168500	0.383700	0.867800
H221	H22	0.195800	0.346200	0.907200
H231	H23	0.324400	0.487200	0.923600
H241	H24	0.297000	0.524800	0.884300
H251	H25	0.477600	0.492000	0.019600
H261	H26	0.509000	0.423500	0.090600
H271	H27	0.482300	0.388200	0.059600
H281	H28	0.448500	0.402400	0.083200
H291	H29	0.558800	0.504300	0.083900
H301	H30	0.530300	0.535400	0.072200
H311	H31	0.567300	0.526400	0.048100
H321	H32	0.361200	0.506900	0.971200
H331	H33	0.475400	0.634400	0.010900
H341	H34	0.491300	0.594100	0.996400
H351	H35	0.458200	0.580300	0.028800
H361	H36	0.414300	0.639700	0.988600
H371	H37	0.357700	0.588900	0.992200
H381	H38	0.386700	0.603000	0.958200
H391	H39	0.010300	0.540000	0.569370
H401	H40	0.984200	0.470400	0.533470
H411	H41	0.836600	0.403300	0.568570
H421	H42	0.862700	0.472900	0.604470
H431	H43	0.827700	0.286700	0.397170
H441	H44	0.784900	0.214800	0.362770
H451	H45	0.716700	0.120100	0.439170
H461	H46	0.759500	0.192000	0.473570
H471	H47	0.967500	0.811100	0.595570
H481	H48	0.928500	0.840300	0.558370
H491	H49	0.820800	0.690100	0.537670
H501	H50	0.859700	0.660900	0.574970
H511	H51	0.789300	0.925800	0.468370
H521	H52	0.760400	0.967000	0.432770
H531	H53	0.752200	0.869200	0.361970
H541	H54	0.781100	0.828000	0.397670
H551	H55	0.549100	0.959000	0.442670
H561	H56	0.469600	0.922600	0.470170
H571	H57	0.410700	0.795500	0.412370
H581	H58	0.490100	0.831800	0.384870
H591	H59	0.215200	0.831500	0.534470
H601	H60	0.150400	0.804200	0.573870
H611	H61	0.162800	0.675600	0.590270
H621	H62	0.227800	0.703000	0.550970
H631	H63	0.014400	0.522400	0.686270
H641	H64	0.914500	0.491000	0.757270
H651	H65	0.905900	0.517700	0.726270
H661	H66	0.953900	0.551500	0.749870
H671	H67	0.945500	0.441200	0.750570
H681	H68	0.005100	0.469700	0.738870
H691	H69	0.959100	0.432700	0.714770
H701	H70	0.145700	0.638800	0.637870
H711	H71	0.159000	0.524600	0.677570
H721	H72	0.102800	0.508700	0.663070
H731	H73	0.122100	0.541800	0.695470
H741	H74	0.225400	0.585700	0.655270
H751	H75	0.231200	0.642300	0.658870
H761	H76	0.216300	0.613300	0.624870
H771	H77	0.529700	0.989700	0.236030
H781	H78	0.486200	0.015800	0.200130
H791	H79	0.566700	0.163400	0.235230
H801	H80	0.610200	0.137300	0.271130
H811	H81	0.459000	0.172300	0.063830
H821	H82	0.429900	0.215100	0.029430
H831	H83	0.403400	0.283300	0.105830
H841	H84	0.432500	0.240500	0.140230
H851	H85	0.843600	0.032500	0.262230
H861	H86	0.911800	0.071500	0.225030
H871	H87	0.869300	0.179200	0.204330
H881	H88	0.801200	0.140300	0.241630
H891	H89	0.136500	0.210700	0.135030
H901	H90	0.206600	0.239600	0.099430
H911	H91	0.117000	0.247800	0.028630
H921	H92	0.046900	0.218900	0.064330
H931	H93	0.409900	0.450900	0.109330
H941	H94	0.453000	0.530400	0.136830
H951	H95	0.384800	0.589300	0.079030
H961	H96	0.341700	0.509900	0.051530
H971	H97	0.616300	0.784800	0.201130
H981	H98	0.653800	0.849600	0.240530
H991	H99	0.512800	0.837200	0.256930
H1001	H100	0.475200	0.772200	0.217630
H1011	H101	0.508000	0.985600	0.352930
H1021	H102	0.576500	0.085500	0.423930
H1031	H103	0.611800	0.094100	0.392930
H1041	H104	0.597600	0.046100	0.416530
H1051	H105	0.495700	0.054500	0.417230
H1061	H106	0.464600	0.994900	0.405530
H1071	H107	0.473600	0.040900	0.381430
H1081	H108	0.493100	0.854300	0.304530
H1091	H109	0.365600	0.841000	0.344230
H1101	H110	0.405900	0.897200	0.329730
H1111	H111	0.419700	0.877900	0.362130
H1121	H112	0.360300	0.774600	0.321930
H1131	H113	0.411100	0.768800	0.325530
H1141	H114	0.397000	0.783700	0.291530
C11	C1	0.441800	0.396400	0.946400
C21	C2	0.487100	0.426100	0.923600
C31	C3	0.487800	0.462800	0.902600
C41	C4	0.529100	0.488600	0.881200
C51	C5	0.569700	0.477600	0.881000
C61	C6	0.568900	0.440700	0.902000
C71	C7	0.527600	0.415000	0.923400
C81	C8	0.607500	0.498300	0.855400
C91	C9	0.642400	0.510700	0.837100
C101	C10	0.675800	0.524700	0.811300
C111	C11	0.709900	0.538000	0.792300
C121	C12	0.753900	0.551600	0.771910
C131	C13	0.747100	0.552300	0.739010
C141	C14	0.789800	0.569600	0.718610
C151	C15	0.839300	0.586100	0.731100
C161	C16	0.846100	0.585400	0.764000
C171	C17	0.803400	0.568100	0.784400
C181	C18	0.885700	0.608900	0.709400
C191	C19	0.285300	0.228700	0.944400
C201	C20	0.266700	0.184000	0.922080
C211	C21	0.213500	0.151200	0.917200
C221	C22	0.196100	0.110600	0.895000
C231	C23	0.232100	0.103100	0.877860
C241	C24	0.285300	0.135800	0.882800
C251	C25	0.302700	0.176400	0.904900
C261	C26	0.214400	0.060700	0.855100
C271	C27	0.195700	0.027100	0.835500
C281	C28	0.174900	0.990100	0.812900
C291	C29	0.156000	0.955900	0.792900
C301	C30	0.127000	0.914900	0.769740
C311	C31	0.085700	0.867500	0.780140
C321	C32	0.061200	0.825800	0.758950
C331	C33	0.078000	0.831600	0.727340
C341	C34	0.119300	0.879000	0.716940
C351	C35	0.143800	0.920700	0.738140
C361	C36	0.051700	0.785400	0.706300
C371	C37	0.078600	0.655700	0.725700
C381	C38	0.101200	0.628300	0.744500
C391	C39	0.074200	0.595200	0.769800
C401	C40	0.095800	0.569600	0.786200
C411	C41	0.144400	0.577000	0.777200
C421	C42	0.171300	0.610100	0.751900
C431	C43	0.149700	0.635700	0.735450
C441	C44	0.162800	0.548700	0.796000
C451	C45	0.182300	0.527800	0.810700
C461	C46	0.199600	0.499500	0.826900
C471	C47	0.214200	0.481600	0.847900
C481	C48	0.230200	0.457800	0.872400
C491	C49	0.200100	0.404700	0.879200
C501	C50	0.216400	0.382400	0.902500
C511	C51	0.262700	0.413200	0.919040
C521	C52	0.292700	0.466200	0.912300
C531	C53	0.276500	0.488500	0.888900
C541	C54	0.277200	0.388800	0.945200
C551	C55	0.468000	0.460300	0.030700
C561	C56	0.483100	0.415200	0.073600
C571	C57	0.542100	0.511100	0.065700
C581	C58	0.393400	0.522300	0.982500
C591	C59	0.464100	0.597300	0.007900
C601	C60	0.391700	0.603600	0.981400
C611	C61	0.954600	0.558200	0.613070
C621	C62	0.939000	0.512900	0.590270
C631	C63	0.975000	0.512200	0.569270
C641	C64	0.959500	0.470900	0.547870
C651	C65	0.907900	0.430300	0.547670
C661	C66	0.871800	0.431100	0.568670
C671	C67	0.887400	0.472400	0.590070
C681	C68	0.890800	0.392500	0.522070
C691	C69	0.868300	0.357600	0.503770
C701	C70	0.848900	0.324200	0.477970
C711	C71	0.828100	0.290100	0.458970
C721	C72	0.797700	0.246100	0.438580
C731	C73	0.805200	0.252900	0.405680
C741	C74	0.779800	0.210200	0.385280
C751	C75	0.746800	0.160700	0.397770
C761	C76	0.739300	0.153900	0.430670
C771	C77	0.764700	0.196600	0.451070
C781	C78	0.723200	0.114300	0.376070
C791	C79	0.943400	0.714700	0.611070
C801	C80	0.917300	0.733300	0.588750
C811	C81	0.937700	0.786500	0.583870
C821	C82	0.914500	0.803900	0.561670
C831	C83	0.871000	0.767900	0.544530
C841	C84	0.850500	0.714700	0.549470
C851	C85	0.873700	0.697300	0.571570
C861	C86	0.846300	0.785600	0.521770
C871	C87	0.831400	0.804300	0.502170
C881	C88	0.815200	0.825100	0.479570
C891	C89	0.799900	0.844000	0.459570
C901	C90	0.787900	0.873000	0.436410
C911	C91	0.781800	0.914300	0.446810
C921	C92	0.764600	0.938800	0.425620
C931	C93	0.753600	0.922000	0.394010
C941	C94	0.759700	0.880700	0.383610
C951	C95	0.776900	0.856200	0.404810
C961	C96	0.733700	0.948300	0.372970
C971	C97	0.577100	0.921400	0.392370
C981	C98	0.527100	0.898800	0.411170
C991	C99	0.521000	0.925800	0.436470
C1001	C100	0.473800	0.904200	0.452870
C1011	C101	0.432600	0.855600	0.443870
C1021	C102	0.438800	0.828700	0.418570
C1031	C103	0.486000	0.850300	0.402120
C1041	C104	0.385900	0.837200	0.462670
C1051	C105	0.345500	0.817700	0.477370
C1061	C106	0.299900	0.800400	0.493570
C1071	C107	0.267400	0.785800	0.514570
C1081	C108	0.227600	0.769800	0.539070
C1091	C109	0.204600	0.799900	0.545870
C1101	C110	0.166000	0.783600	0.569170
C1111	C111	0.150500	0.737300	0.585710
C1121	C112	0.173500	0.707300	0.578970
C1131	C113	0.212000	0.723500	0.555570
C1141	C114	0.111600	0.722800	0.611870
C1151	C115	0.992300	0.532000	0.697370
C1161	C116	0.932100	0.516900	0.740270
C1171	C117	0.969000	0.457900	0.732370
C1181	C118	0.128900	0.606600	0.649170
C1191	C119	0.133200	0.535900	0.674570
C1201	C120	0.211900	0.608300	0.648070
C1211	C121	0.603600	0.045400	0.279730
C1221	C122	0.573900	0.061000	0.256930
C1231	C123	0.537200	0.025000	0.235930
C1241	C124	0.511400	0.040500	0.214530
C1251	C125	0.522400	0.092100	0.214330
C1261	C126	0.559300	0.128200	0.235330
C1271	C127	0.585000	0.112600	0.256730
C1281	C128	0.501700	0.109200	0.188730
C1291	C129	0.489300	0.131700	0.170430
C1301	C130	0.475300	0.151100	0.144630
C1311	C131	0.462000	0.171900	0.125630
C1321	C132	0.448400	0.202300	0.105240
C1331	C133	0.447700	0.194800	0.072340
C1341	C134	0.430400	0.220200	0.051940
C1351	C135	0.413900	0.253200	0.064430
C1361	C136	0.414600	0.260700	0.097330
C1371	C137	0.431900	0.235300	0.117730
C1381	C138	0.391100	0.276800	0.042730
C1391	C139	0.771300	0.056600	0.277730
C1401	C140	0.816000	0.082700	0.255410
C1411	C141	0.848800	0.062300	0.250530
C1421	C142	0.889400	0.085500	0.228330
C1431	C143	0.896900	0.129000	0.211190
C1441	C144	0.864200	0.149500	0.216130
C1451	C145	0.823600	0.126300	0.238230
C1461	C146	0.939300	0.153700	0.188430
C1471	C147	0.972900	0.168600	0.168830
C1481	C148	0.009900	0.184800	0.146230
C1491	C149	0.044100	0.200100	0.126230
C1501	C150	0.085100	0.212100	0.103070
C1511	C151	0.132500	0.218200	0.113470
C1521	C152	0.174200	0.235400	0.092280
C1531	C153	0.168400	0.246400	0.060670
C1541	C154	0.121000	0.240300	0.050270
C1551	C155	0.079300	0.223100	0.071470
C1561	C156	0.214600	0.266300	0.039630
C1571	C157	0.344300	0.422900	0.059030
C1581	C158	0.371700	0.472900	0.077830
C1591	C159	0.404800	0.479000	0.103130
C1601	C160	0.430400	0.526200	0.119530
C1611	C161	0.423000	0.567400	0.110530
C1621	C162	0.389900	0.561200	0.085230
C1631	C163	0.364300	0.514000	0.068780
C1641	C164	0.451300	0.614100	0.129330
C1651	C165	0.472200	0.654500	0.144030
C1661	C166	0.500500	0.700100	0.160230
C1671	C167	0.518400	0.732600	0.181230
C1681	C168	0.542200	0.772400	0.205730
C1691	C169	0.595300	0.795400	0.212530
C1701	C170	0.617600	0.834000	0.235830
C1711	C171	0.586800	0.849500	0.252370
C1721	C172	0.533800	0.826500	0.245630
C1731	C173	0.511500	0.788000	0.222230
C1741	C174	0.611200	0.888400	0.278530
C1751	C175	0.539700	0.007700	0.364030
C1761	C176	0.584800	0.067900	0.406930
C1771	C177	0.488900	0.031000	0.399030
C1781	C178	0.477700	0.871100	0.315830
C1791	C179	0.402700	0.866800	0.341230
C1801	C180	0.396400	0.788100	0.314730
N11	N1	0.497300	0.462000	0.055000
N21	N2	0.416000	0.572400	0.989500
N31	N3	0.964700	0.502700	0.721670
N41	N4	0.156400	0.584000	0.656170
N51	N5	0.538000	0.035300	0.388330
N61	N6	0.427600	0.843600	0.322830
O11	O1	0.335500	0.339800	0.996860
O21	O2	0.438900	0.357800	0.959740
O31	O3	0.411000	0.413700	0.950400
O41	O4	0.929400	0.630400	0.723860
O51	O5	0.878700	0.604300	0.679680
O61	O6	0.333600	0.254800	0.949660
O71	O7	0.251700	0.238000	0.956680
O81	O8	0.067200	0.791600	0.677480
O91	O9	0.018500	0.744300	0.718670
O101	O10	0.095100	0.671100	0.699100
O111	O11	0.040800	0.657000	0.739700
O121	O12	0.315600	0.419200	0.961900
O131	O13	0.252700	0.340100	0.946190
O141	O14	0.428500	0.419700	0.021480
O151	O15	0.411800	0.493900	0.989800
O161	O16	0.004300	0.664500	0.663530
O171	O17	0.918900	0.561100	0.626410
O181	O18	0.002700	0.589000	0.617070
O191	O19	0.701000	0.070600	0.390530
O201	O20	0.725600	0.121300	0.346350
O211	O21	0.921200	0.666400	0.616330
O221	O22	0.986300	0.748300	0.623350
O231	O23	0.724400	0.932800	0.344150
O241	O24	0.725800	0.981500	0.385340
O251	O25	0.576000	0.904900	0.365770
O261	O26	0.616200	0.959200	0.406370
O271	O27	0.103600	0.684400	0.628570
O281	O28	0.087400	0.747300	0.612860
O291	O29	0.991200	0.571500	0.688150
O301	O30	0.082100	0.588200	0.656470
O311	O31	0.660200	0.995700	0.330190
O321	O32	0.642200	0.081100	0.293070
O331	O33	0.586300	0.997300	0.283730
O341	O34	0.369600	0.299000	0.057190
O351	O35	0.395700	0.274400	0.013010
O361	O36	0.745200	0.078800	0.282990
O371	O37	0.762000	0.013700	0.290010
O381	O38	0.208400	0.275600	0.010810
O391	O39	0.255700	0.274200	0.052000
O401	O40	0.328900	0.424000	0.032430
O411	O41	0.343000	0.383800	0.073030
O421	O42	0.580800	0.896400	0.295230
O431	O43	0.659900	0.912600	0.279520
O441	O44	0.580300	0.008800	0.354810
O451	O45	0.506100	0.917900	0.323130
Zn131	Zn13	0.934800	0.310070	0.351840
Zn141	Zn14	0.045370	0.415990	0.344430
Zn151	Zn15	0.036490	0.301690	0.354190
Zn161	Zn16	0.001420	0.330110	0.290480
Zn171	Zn17	0.689930	0.624730	0.685180
Zn181	Zn18	0.584010	0.629380	0.677770
Zn191	Zn19	0.698310	0.734800	0.687530
Zn201	Zn20	0.669890	0.671310	0.623820
Zn211	Zn21	0.375270	0.065200	0.018510
Zn221	Zn22	0.370620	0.954630	0.011100
Zn231	Zn23	0.265200	0.963510	0.020860
Zn241	Zn24	0.328690	0.998580	0.957150
H1151	H115	0.010300	0.470300	0.430630
H1161	H116	0.984200	0.513800	0.466530
H1171	H117	0.836600	0.433300	0.431430
H1181	H118	0.862700	0.389800	0.395530
H1191	H119	0.827700	0.541000	0.602830
H1201	H120	0.784900	0.570100	0.637230
H1211	H121	0.716700	0.596600	0.560830
H1221	H122	0.759500	0.567500	0.526430
H1231	H123	0.967500	0.156400	0.404430
H1241	H124	0.928500	0.088200	0.441630
H1251	H125	0.820800	0.130700	0.462330
H1261	H126	0.859700	0.198800	0.425030
H1271	H127	0.789300	0.863500	0.531630
H1281	H128	0.760400	0.793400	0.567230
H1291	H129	0.752200	0.883000	0.638030
H1301	H130	0.781100	0.953100	0.602330
H1311	H131	0.549100	0.590100	0.557330
H1321	H132	0.469600	0.547000	0.529830
H1331	H133	0.410700	0.615200	0.587630
H1341	H134	0.490100	0.658300	0.615130
H1351	H135	0.215200	0.383700	0.465530
H1361	H136	0.150400	0.346200	0.426130
H1371	H137	0.162800	0.487200	0.409730
H1381	H138	0.227800	0.524800	0.449030
H1391	H139	0.014400	0.492000	0.313730
H1401	H140	0.914500	0.423500	0.242730
H1411	H141	0.905900	0.388200	0.273730
H1421	H142	0.953900	0.402400	0.250130
H1431	H143	0.945500	0.504300	0.249430
H1441	H144	0.005100	0.535400	0.261130
H1451	H145	0.959100	0.526400	0.285230
H1461	H146	0.145700	0.506900	0.362130
H1471	H147	0.159000	0.634400	0.322430
H1481	H148	0.102800	0.594100	0.336930
H1491	H149	0.122100	0.580300	0.304530
H1501	H150	0.225400	0.639700	0.344730
H1511	H151	0.231200	0.588900	0.341130
H1521	H152	0.216300	0.603000	0.375130
H1531	H153	0.529700	0.540000	0.763970
H1541	H154	0.486200	0.470400	0.799870
H1551	H155	0.566700	0.403300	0.764770
H1561	H156	0.610200	0.472900	0.728870
H1571	H157	0.459000	0.286700	0.936170
H1581	H158	0.429900	0.214800	0.970570
H1591	H159	0.403400	0.120100	0.894170
H1601	H160	0.432500	0.192000	0.859770
H1611	H161	0.843600	0.811100	0.737770
H1621	H162	0.911800	0.840300	0.774970
H1631	H163	0.869300	0.690100	0.795670
H1641	H164	0.801200	0.660900	0.758370
H1651	H165	0.136500	0.925800	0.864970
H1661	H166	0.206600	0.967000	0.900570
H1671	H167	0.117000	0.869200	0.971370
H1681	H168	0.046900	0.828000	0.935670
H1691	H169	0.409900	0.959000	0.890670
H1701	H170	0.453000	0.922600	0.863170
H1711	H171	0.384800	0.795500	0.920970
H1721	H172	0.341700	0.831800	0.948470
H1731	H173	0.616300	0.831500	0.798870
H1741	H174	0.653800	0.804200	0.759470
H1751	H175	0.512800	0.675600	0.743070
H1761	H176	0.475200	0.703000	0.782370
H1771	H177	0.508000	0.522400	0.647070
H1781	H178	0.576500	0.491000	0.576070
H1791	H179	0.611800	0.517700	0.607070
H1801	H180	0.597600	0.551500	0.583470
H1811	H181	0.495700	0.441200	0.582770
H1821	H182	0.464600	0.469700	0.594470
H1831	H183	0.473600	0.432700	0.618570
H1841	H184	0.493100	0.638800	0.695470
H1851	H185	0.365600	0.524600	0.655770
H1861	H186	0.405900	0.508700	0.670270
H1871	H187	0.419700	0.541800	0.637870
H1881	H188	0.360300	0.585700	0.678070
H1891	H189	0.411100	0.642300	0.674470
H1901	H190	0.397000	0.613300	0.708470
H1911	H191	0.460000	0.989700	0.097300
H1921	H192	0.529600	0.015800	0.133200
H1931	H193	0.596700	0.163400	0.098100
H1941	H194	0.527100	0.137300	0.062200
H1951	H195	0.713300	0.172300	0.269500
H1961	H196	0.785200	0.215100	0.303900
H1971	H197	0.879900	0.283300	0.227500
H1981	H198	0.808000	0.240500	0.193100
H1991	H199	0.188900	0.032500	0.071100
H2001	H200	0.159700	0.071500	0.108300
H2011	H201	0.309900	0.179200	0.129000
H2021	H202	0.339100	0.140300	0.091700
H2031	H203	0.074200	0.210700	0.198300
H2041	H204	0.033000	0.239600	0.233900
H2051	H205	0.130800	0.247800	0.304700
H2061	H206	0.172000	0.218900	0.269000
H2071	H207	0.041000	0.450900	0.224000
H2081	H208	0.077400	0.530400	0.196500
H2091	H209	0.204500	0.589300	0.254300
H2101	H210	0.168200	0.509900	0.281800
H2111	H211	0.168500	0.784800	0.132200
H2121	H212	0.195800	0.849600	0.092800
H2131	H213	0.324400	0.837200	0.076400
H2141	H214	0.297000	0.772200	0.115700
H2151	H215	0.477600	0.985600	0.980400
H2161	H216	0.509000	0.085500	0.909400
H2171	H217	0.482300	0.094100	0.940400
H2181	H218	0.448500	0.046100	0.916800
H2191	H219	0.558800	0.054500	0.916100
H2201	H220	0.530300	0.994900	0.927800
H2211	H221	0.567300	0.040900	0.951900
H2221	H222	0.361200	0.854300	0.028800
H2231	H223	0.475400	0.841000	0.989100
H2241	H224	0.491300	0.897200	0.003600
H2251	H225	0.458200	0.877900	0.971200
H2261	H226	0.414300	0.774600	0.011400
H2271	H227	0.357700	0.768800	0.007800
H2281	H228	0.386700	0.783700	0.041800
C1811	C181	0.954600	0.396400	0.386930
C1821	C182	0.939000	0.426100	0.409730
C1831	C183	0.975000	0.462800	0.430730
C1841	C184	0.959500	0.488600	0.452130
C1851	C185	0.907900	0.477600	0.452330
C1861	C186	0.871800	0.440700	0.431330
C1871	C187	0.887400	0.415000	0.409930
C1881	C188	0.890800	0.498300	0.477930
C1891	C189	0.868300	0.510700	0.496230
C1901	C190	0.848900	0.524700	0.522030
C1911	C191	0.828100	0.538000	0.541030
C1921	C192	0.797700	0.551600	0.561420
C1931	C193	0.805200	0.552300	0.594320
C1941	C194	0.779800	0.569600	0.614720
C1951	C195	0.746800	0.586100	0.602230
C1961	C196	0.739300	0.585400	0.569330
C1971	C197	0.764700	0.568100	0.548930
C1981	C198	0.723200	0.608900	0.623930
C1991	C199	0.943400	0.228700	0.388930
C2001	C200	0.917300	0.184000	0.411250
C2011	C201	0.937700	0.151200	0.416130
C2021	C202	0.914500	0.110600	0.438330
C2031	C203	0.871000	0.103100	0.455470
C2041	C204	0.850500	0.135800	0.450530
C2051	C205	0.873700	0.176400	0.428430
C2061	C206	0.846300	0.060700	0.478230
C2071	C207	0.831400	0.027100	0.497830
C2081	C208	0.815200	0.990100	0.520430
C2091	C209	0.799900	0.955900	0.540430
C2101	C210	0.787900	0.914900	0.563590
C2111	C211	0.781800	0.867500	0.553190
C2121	C212	0.764600	0.825800	0.574380
C2131	C213	0.753600	0.831600	0.605990
C2141	C214	0.759700	0.879000	0.616390
C2151	C215	0.776900	0.920700	0.595190
C2161	C216	0.733700	0.785400	0.627030
C2171	C217	0.577100	0.655700	0.607630
C2181	C218	0.527100	0.628300	0.588830
C2191	C219	0.521000	0.595200	0.563530
C2201	C220	0.473800	0.569600	0.547130
C2211	C221	0.432600	0.577000	0.556130
C2221	C222	0.438800	0.610100	0.581430
C2231	C223	0.486000	0.635700	0.597880
C2241	C224	0.385900	0.548700	0.537330
C2251	C225	0.345500	0.527800	0.522630
C2261	C226	0.299900	0.499500	0.506430
C2271	C227	0.267400	0.481600	0.485430
C2281	C228	0.227600	0.457800	0.460930
C2291	C229	0.204600	0.404700	0.454130
C2301	C230	0.166000	0.382400	0.430830
C2311	C231	0.150500	0.413200	0.414290
C2321	C232	0.173500	0.466200	0.421030
C2331	C233	0.212000	0.488500	0.444430
C2341	C234	0.111600	0.388800	0.388130
C2351	C235	0.992300	0.460300	0.302630
C2361	C236	0.932100	0.415200	0.259730
C2371	C237	0.969000	0.511100	0.267630
C2381	C238	0.128900	0.522300	0.350830
C2391	C239	0.133200	0.597300	0.325430
C2401	C240	0.211900	0.603600	0.351930
C2411	C241	0.603600	0.558200	0.720270
C2421	C242	0.573900	0.512900	0.743070
C2431	C243	0.537200	0.512200	0.764070
C2441	C244	0.511400	0.470900	0.785470
C2451	C245	0.522400	0.430300	0.785670
C2461	C246	0.559300	0.431100	0.764670
C2471	C247	0.585000	0.472400	0.743270
C2481	C248	0.501700	0.392500	0.811270
C2491	C249	0.489300	0.357600	0.829570
C2501	C250	0.475300	0.324200	0.855370
C2511	C251	0.462000	0.290100	0.874370
C2521	C252	0.448400	0.246100	0.894760
C2531	C253	0.447700	0.252900	0.927660
C2541	C254	0.430400	0.210200	0.948060
C2551	C255	0.413900	0.160700	0.935570
C2561	C256	0.414600	0.153900	0.902670
C2571	C257	0.431900	0.196600	0.882270
C2581	C258	0.391100	0.114300	0.957270
C2591	C259	0.771300	0.714700	0.722270
C2601	C260	0.816000	0.733300	0.744590
C2611	C261	0.848800	0.786500	0.749470
C2621	C262	0.889400	0.803900	0.771670
C2631	C263	0.896900	0.767900	0.788810
C2641	C264	0.864200	0.714700	0.783870
C2651	C265	0.823600	0.697300	0.761770
C2661	C266	0.939300	0.785600	0.811570
C2671	C267	0.972900	0.804300	0.831170
C2681	C268	0.009900	0.825100	0.853770
C2691	C269	0.044100	0.844000	0.873770
C2701	C270	0.085100	0.873000	0.896930
C2711	C271	0.132500	0.914300	0.886530
C2721	C272	0.174200	0.938800	0.907720
C2731	C273	0.168400	0.922000	0.939330
C2741	C274	0.121000	0.880700	0.949730
C2751	C275	0.079300	0.856200	0.928530
C2761	C276	0.214600	0.948300	0.960370
C2771	C277	0.344300	0.921400	0.940970
C2781	C278	0.371700	0.898800	0.922170
C2791	C279	0.404800	0.925800	0.896870
C2801	C280	0.430400	0.904200	0.880470
C2811	C281	0.423000	0.855600	0.889470
C2821	C282	0.389900	0.828700	0.914770
C2831	C283	0.364300	0.850300	0.931220
C2841	C284	0.451300	0.837200	0.870670
C2851	C285	0.472200	0.817700	0.855970
C2861	C286	0.500500	0.800400	0.839770
C2871	C287	0.518400	0.785800	0.818770
C2881	C288	0.542200	0.769800	0.794270
C2891	C289	0.595300	0.799900	0.787470
C2901	C290	0.617600	0.783600	0.764170
C2911	C291	0.586800	0.737300	0.747630
C2921	C292	0.533800	0.707300	0.754370
C2931	C293	0.511500	0.723500	0.777770
C2941	C294	0.611200	0.722800	0.721470
C2951	C295	0.539700	0.532000	0.635970
C2961	C296	0.584800	0.516900	0.593070
C2971	C297	0.488900	0.457900	0.600970
C2981	C298	0.477700	0.606600	0.684170
C2991	C299	0.402700	0.535900	0.658770
C3001	C300	0.396400	0.608300	0.685270
C3011	C301	0.441800	0.045400	0.053600
C3021	C302	0.487100	0.061000	0.076400
C3031	C303	0.487800	0.025000	0.097400
C3041	C304	0.529100	0.040500	0.118800
C3051	C305	0.569700	0.092100	0.119000
C3061	C306	0.568900	0.128200	0.098000
C3071	C307	0.527600	0.112600	0.076600
C3081	C308	0.607500	0.109200	0.144600
C3091	C309	0.642400	0.131700	0.162900
C3101	C310	0.675800	0.151100	0.188700
C3111	C311	0.709900	0.171900	0.207700
C3121	C312	0.753900	0.202300	0.228090
C3131	C313	0.747100	0.194800	0.260990
C3141	C314	0.789800	0.220200	0.281390
C3151	C315	0.839300	0.253200	0.268900
C3161	C316	0.846100	0.260700	0.236000
C3171	C317	0.803400	0.235300	0.215600
C3181	C318	0.885700	0.276800	0.290600
C3191	C319	0.285300	0.056600	0.055600
C3201	C320	0.266700	0.082700	0.077920
C3211	C321	0.213500	0.062300	0.082800
C3221	C322	0.196100	0.085500	0.105000
C3231	C323	0.232100	0.129000	0.122140
C3241	C324	0.285300	0.149500	0.117200
C3251	C325	0.302700	0.126300	0.095100
C3261	C326	0.214400	0.153700	0.144900
C3271	C327	0.195700	0.168600	0.164500
C3281	C328	0.174900	0.184800	0.187100
C3291	C329	0.156000	0.200100	0.207100
C3301	C330	0.127000	0.212100	0.230260
C3311	C331	0.085700	0.218200	0.219860
C3321	C332	0.061200	0.235400	0.241050
C3331	C333	0.078000	0.246400	0.272660
C3341	C334	0.119300	0.240300	0.283060
C3351	C335	0.143800	0.223100	0.261860
C3361	C336	0.051700	0.266300	0.293700
C3371	C337	0.078600	0.422900	0.274300
C3381	C338	0.101200	0.472900	0.255500
C3391	C339	0.074200	0.479000	0.230200
C3401	C340	0.095800	0.526200	0.213800
C3411	C341	0.144400	0.567400	0.222800
C3421	C342	0.171300	0.561200	0.248100
C3431	C343	0.149700	0.514000	0.264550
C3441	C344	0.162800	0.614100	0.204000
C3451	C345	0.182300	0.654500	0.189300
C3461	C346	0.199600	0.700100	0.173100
C3471	C347	0.214200	0.732600	0.152100
C3481	C348	0.230200	0.772400	0.127600
C3491	C349	0.200100	0.795400	0.120800
C3501	C350	0.216400	0.834000	0.097500
C3511	C351	0.262700	0.849500	0.080960
C3521	C352	0.292700	0.826500	0.087700
C3531	C353	0.276500	0.788000	0.111100
C3541	C354	0.277200	0.888400	0.054800
C3551	C355	0.468000	0.007700	0.969300
C3561	C356	0.483100	0.067900	0.926400
C3571	C357	0.542100	0.031000	0.934300
C3581	C358	0.393400	0.871100	0.017500
C3591	C359	0.464100	0.866800	0.992100
C3601	C360	0.391700	0.788100	0.018600
N71	N7	0.964700	0.462000	0.278330
N81	N8	0.156400	0.572400	0.343830
N91	N9	0.538000	0.502700	0.611670
N101	N10	0.427600	0.584000	0.677170
N111	N11	0.497300	0.035300	0.945000
N121	N12	0.416000	0.843600	0.010500
O461	O46	0.004300	0.339800	0.336470
O471	O47	0.918900	0.357800	0.373590
O481	O48	0.002700	0.413700	0.382930
O491	O49	0.701000	0.630400	0.609470
O501	O50	0.725600	0.604300	0.653650
O511	O51	0.921200	0.254800	0.383670
O521	O52	0.986300	0.238000	0.376650
O531	O53	0.724400	0.791600	0.655850
O541	O54	0.725800	0.744300	0.614660
O551	O55	0.576000	0.671100	0.634230
O561	O56	0.616200	0.657000	0.593630
O571	O57	0.103600	0.419200	0.371430
O581	O58	0.087400	0.340100	0.387140
O591	O59	0.991200	0.419700	0.311850
O601	O60	0.082100	0.493900	0.343530
O611	O61	0.660200	0.664500	0.669810
O621	O62	0.642200	0.561100	0.706930
O631	O63	0.586300	0.589000	0.716270
O641	O64	0.369600	0.070600	0.942810
O651	O65	0.395700	0.121300	0.986990
O661	O66	0.745200	0.666400	0.717010
O671	O67	0.762000	0.748300	0.709990
O681	O68	0.208400	0.932800	0.989190
O691	O69	0.255700	0.981500	0.948000
O701	O70	0.328900	0.904900	0.967570
O711	O71	0.343000	0.959200	0.926970
O721	O72	0.580800	0.684400	0.704770
O731	O73	0.659900	0.747300	0.720480
O741	O74	0.580300	0.571500	0.645190
O751	O75	0.506100	0.588200	0.676870
O761	O76	0.335500	0.995700	0.003140
O771	O77	0.438900	0.081100	0.040260
O781	O78	0.411000	0.997300	0.049600
O791	O79	0.929400	0.299000	0.276140
O801	O80	0.878700	0.274400	0.320320
O811	O81	0.333600	0.078800	0.050340
O821	O82	0.251700	0.013700	0.043320
O831	O83	0.067200	0.275600	0.322520
O841	O84	0.018500	0.274200	0.281330
O851	O85	0.095100	0.424000	0.300900
O861	O86	0.040800	0.383800	0.260300
O871	O87	0.315600	0.896400	0.038100
O881	O88	0.252700	0.912600	0.053810
O891	O89	0.428500	0.008800	0.978520
O901	O90	0.411800	0.917900	0.010200
Zn251	Zn25	0.022080	0.729610	0.975580
Zn261	Zn26	0.034250	0.630000	0.974820
Zn271	Zn27	0.982250	0.651190	0.034740
Zn281	Zn28	0.922110	0.616510	0.968310
Zn291	Zn29	0.707530	0.977920	0.642250
Zn301	Zn30	0.595750	0.965750	0.641490
Zn311	Zn31	0.668940	0.017750	0.701410
Zn321	Zn32	0.694400	0.077890	0.634980
Zn331	Zn33	0.270390	0.292470	0.308910
Zn341	Zn34	0.370000	0.404250	0.308150
Zn351	Zn35	0.348810	0.331060	0.368070
Zn361	Zn36	0.383490	0.305600	0.301640
H2291	H229	0.120200	0.869500	0.030700
H2301	H230	0.161900	0.936300	0.068400
H2311	H231	0.083500	0.833500	0.139700
H2321	H232	0.041800	0.766600	0.101900
H2331	H233	0.298900	0.121500	0.195400
H2341	H234	0.330700	0.195400	0.228200
H2351	H235	0.189400	0.133800	0.271600
H2361	H236	0.157600	0.059900	0.238800
H2371	H237	0.187200	0.711900	0.935200
H2381	H238	0.258400	0.751100	0.900000
H2391	H239	0.204500	0.843300	0.865000
H2401	H240	0.133300	0.804100	0.900100
H2411	H241	0.483800	0.883900	0.801800
H2421	H242	0.551400	0.917000	0.764100
H2431	H243	0.450800	0.911500	0.696100
H2441	H244	0.383200	0.878400	0.733900
H2451	H245	0.891900	0.541400	0.880800
H2461	H246	0.873900	0.488200	0.835700
H2471	H247	0.993100	0.463600	0.859000
H2481	H248	0.011200	0.516900	0.904200
H2491	H249	0.827400	0.306400	0.701200
H2501	H250	0.781900	0.228300	0.672300
H2511	H251	0.775200	0.146100	0.751700
H2521	H252	0.820700	0.224200	0.780600
H2531	H253	0.749300	0.879800	0.697370
H2541	H254	0.774400	0.838100	0.735070
H2551	H255	0.750000	0.916500	0.806370
H2561	H256	0.724800	0.958200	0.768570
H2571	H257	0.822600	0.701100	0.862070
H2581	H258	0.864700	0.669300	0.894870
H2591	H259	0.944400	0.810600	0.938270
H2601	H260	0.902300	0.842400	0.905470
H2611	H261	0.524700	0.812800	0.601870
H2621	H262	0.492700	0.741600	0.566670
H2631	H263	0.638800	0.795500	0.531670
H2641	H264	0.670800	0.866700	0.566770
H2651	H265	0.400100	0.516200	0.468470
H2661	H266	0.365600	0.448600	0.430770
H2671	H267	0.460700	0.549200	0.362770
H2681	H268	0.495200	0.616800	0.400570
H2691	H269	0.649500	0.108100	0.547470
H2701	H270	0.614300	0.126100	0.502370
H2711	H271	0.470500	0.006900	0.525670
H2721	H272	0.505700	0.988800	0.570870
H2731	H273	0.479000	0.172600	0.367870
H2741	H274	0.446400	0.218100	0.338970
H2751	H275	0.370900	0.224800	0.418370
H2761	H276	0.403500	0.179300	0.447270
H2771	H277	0.130500	0.250700	0.364030
H2781	H278	0.063700	0.225600	0.401730
H2791	H279	0.166500	0.250000	0.473030
H2801	H280	0.233400	0.275200	0.435230
H2811	H281	0.878500	0.177400	0.528730
H2821	H282	0.804600	0.135300	0.561530
H2831	H283	0.866200	0.055600	0.604930
H2841	H284	0.940100	0.097700	0.572130
H2851	H285	0.288100	0.475300	0.268530
H2861	H286	0.248900	0.507300	0.233330
H2871	H287	0.156700	0.361200	0.198330
H2881	H288	0.195900	0.329200	0.233430
H2891	H289	0.116100	0.599900	0.135130
H2901	H290	0.083000	0.634400	0.097430
H2911	H291	0.088500	0.539300	0.029430
H2921	H292	0.121600	0.504800	0.067230
H2931	H293	0.458600	0.350500	0.214130
H2941	H294	0.511800	0.385700	0.169030
H2951	H295	0.536400	0.529500	0.192330
H2961	H296	0.483100	0.494300	0.237530
H2971	H297	0.693600	0.521000	0.034530
H2981	H298	0.771700	0.553600	0.005630
H2991	H299	0.853900	0.629100	0.085030
H3001	H300	0.775800	0.596500	0.113930
C3611	C361	0.051300	0.768800	0.039300
C3621	C362	0.077100	0.811800	0.062740
C3631	C363	0.112700	0.862100	0.052790
C3641	C364	0.137500	0.901900	0.075200
C3651	C365	0.126600	0.891200	0.107630
C3661	C366	0.090900	0.840700	0.117580
C3671	C367	0.066200	0.801100	0.095140
C3681	C368	0.150000	0.933700	0.130600
C3691	C369	0.167400	0.966100	0.150800
C3701	C370	0.186100	0.003700	0.174000
C3711	C371	0.203700	0.040300	0.192000
C3721	C372	0.225300	0.083800	0.214000
C3731	C373	0.276700	0.124100	0.210840
C3741	C374	0.295600	0.167900	0.230400
C3751	C375	0.263000	0.171500	0.253000
C3761	C376	0.211600	0.131300	0.256130
C3771	C377	0.192700	0.087400	0.236600
C3781	C378	0.284200	0.218400	0.274200
C3791	C379	0.107300	0.727800	0.942000
C3801	C380	0.153500	0.754300	0.920950
C3811	C381	0.190700	0.738600	0.920920
C3821	C382	0.233000	0.761800	0.900100
C3831	C383	0.238100	0.800800	0.879240
C3841	C384	0.201000	0.816600	0.879260
C3851	C385	0.158700	0.793400	0.900120
C3861	C386	0.282000	0.822900	0.857300
C3871	C387	0.314700	0.834400	0.837200
C3881	C388	0.354500	0.851800	0.816100
C3891	C389	0.387300	0.865500	0.795900
C3901	C390	0.427200	0.878100	0.771410
C3911	C391	0.477100	0.889500	0.780370
C3921	C392	0.517300	0.909200	0.757940
C3931	C393	0.507500	0.917400	0.726540
C3941	C394	0.457500	0.905900	0.717580
C3951	C395	0.417400	0.886300	0.740020
C3961	C396	0.551100	0.943100	0.703400
C3971	C397	0.971100	0.573700	0.922400
C3981	C398	0.953200	0.534100	0.896800
C3991	C399	0.912500	0.525600	0.876400
C4001	C400	0.901800	0.494000	0.849600
C4011	C401	0.931800	0.470900	0.843100
C4021	C402	0.972600	0.479400	0.863500
C4031	C403	0.983300	0.511000	0.890300
C4041	C404	0.913600	0.432900	0.817800
C4051	C405	0.895900	0.392800	0.803400
C4061	C406	0.861000	0.350700	0.784800
C4071	C407	0.852200	0.319400	0.762800
C4081	C408	0.828300	0.272600	0.743600
C4091	C409	0.816800	0.273900	0.711400
C4101	C410	0.789800	0.227500	0.694300
C4111	C411	0.774300	0.179900	0.709300
C4121	C412	0.785800	0.178700	0.741400
C4131	C413	0.812800	0.225000	0.758600
C4141	C414	0.750700	0.131500	0.688300
C4151	C415	0.717500	0.948700	0.705970
C4161	C416	0.734700	0.922900	0.729410
C4171	C417	0.749400	0.887300	0.719460
C4181	C418	0.764400	0.862500	0.741870
C4191	C419	0.764600	0.873400	0.774300
C4201	C420	0.749800	0.909100	0.784250
C4211	C421	0.734900	0.933800	0.761810
C4221	C422	0.783700	0.850000	0.797270
C4231	C423	0.798700	0.832600	0.817470
C4241	C424	0.817600	0.813900	0.840670
C4251	C425	0.836600	0.796300	0.858670
C4261	C426	0.858500	0.774700	0.880670
C4271	C427	0.847400	0.723300	0.877510
C4281	C428	0.872300	0.704400	0.897070
C4291	C429	0.908500	0.737000	0.919670
C4301	C430	0.919700	0.788400	0.922800
C4311	C431	0.894700	0.807300	0.903270
C4321	C432	0.934200	0.715800	0.940870
C4331	C433	0.620500	0.892700	0.608670
C4341	C434	0.600800	0.846500	0.587620
C4351	C435	0.547900	0.809300	0.587590
C4361	C436	0.528800	0.767000	0.566770
C4371	C437	0.562700	0.761900	0.545910
C4381	C438	0.615600	0.799000	0.545930
C4391	C439	0.634700	0.841300	0.566790
C4401	C440	0.540900	0.718000	0.523970
C4411	C441	0.519700	0.685300	0.503870
C4421	C442	0.497300	0.645500	0.482770
C4431	C443	0.478200	0.612700	0.462570
C4441	C444	0.450900	0.572800	0.438080
C4451	C445	0.412400	0.522900	0.447040
C4461	C446	0.391900	0.482700	0.424610
C4471	C447	0.409900	0.492500	0.393210
C4481	C448	0.448400	0.542500	0.384250
C4491	C449	0.468900	0.582600	0.406690
C4501	C450	0.392000	0.448900	0.370070
C4511	C451	0.602600	0.028900	0.589070
C4521	C452	0.580900	0.046800	0.563470
C4531	C453	0.613100	0.087500	0.543070
C4541	C454	0.592200	0.098200	0.516270
C4551	C455	0.539100	0.068200	0.509770
C4561	C456	0.506800	0.027400	0.530170
C4571	C457	0.527700	0.016700	0.556970
C4581	C458	0.519300	0.086400	0.484470
C4591	C459	0.496900	0.104100	0.470070
C4601	C460	0.489700	0.139000	0.451470
C4611	C461	0.467200	0.147800	0.429470
C4621	C462	0.444300	0.171700	0.410270
C4631	C463	0.457100	0.183200	0.378070
C4641	C464	0.437700	0.210200	0.360970
C4651	C465	0.405600	0.225700	0.375970
C4661	C466	0.392900	0.214200	0.408070
C4671	C467	0.412200	0.187200	0.425270
C4681	C468	0.380800	0.249300	0.354970
C4691	C469	0.231200	0.282500	0.372630
C4701	C470	0.188200	0.265300	0.396070
C4711	C471	0.137900	0.250600	0.386120
C4721	C472	0.098100	0.235600	0.408530
C4731	C473	0.108800	0.235400	0.440960
C4741	C474	0.159300	0.250200	0.450910
C4751	C475	0.198900	0.265100	0.428470
C4761	C476	0.066300	0.216300	0.463930
C4771	C477	0.033900	0.201300	0.484130
C4781	C478	0.996300	0.182400	0.507330
C4791	C479	0.959700	0.163400	0.525330
C4801	C480	0.916200	0.141500	0.547330
C4811	C481	0.875900	0.152600	0.544170
C4821	C482	0.832100	0.127700	0.563730
C4831	C483	0.828500	0.091500	0.586330
C4841	C484	0.868700	0.080300	0.589460
C4851	C485	0.912600	0.105300	0.569930
C4861	C486	0.781600	0.065800	0.607530
C4871	C487	0.272200	0.379500	0.275330
C4881	C488	0.245700	0.399200	0.254280
C4891	C489	0.261400	0.452100	0.254250
C4901	C490	0.238200	0.471200	0.233430
C4911	C491	0.199200	0.437300	0.212570
C4921	C492	0.183400	0.384400	0.212590
C4931	C493	0.206600	0.365300	0.233450
C4941	C494	0.177100	0.459100	0.190630
C4951	C495	0.165600	0.480300	0.170530
C4961	C496	0.148200	0.502700	0.149430
C4971	C497	0.134500	0.521800	0.129230
C4981	C498	0.121900	0.549100	0.104740
C4991	C499	0.110500	0.587600	0.113700
C5001	C500	0.090800	0.608100	0.091270
C5011	C501	0.082600	0.590100	0.059870
C5021	C502	0.094100	0.551600	0.050910
C5031	C503	0.113700	0.531100	0.073350
C5041	C504	0.056900	0.608000	0.036730
C5051	C505	0.426300	0.397400	0.255730
C5061	C506	0.465900	0.419100	0.230130
C5071	C507	0.474400	0.386900	0.209730
C5081	C508	0.506000	0.407800	0.182930
C5091	C509	0.529100	0.460900	0.176430
C5101	C510	0.520600	0.493200	0.196830
C5111	C511	0.489000	0.472300	0.223630
C5121	C512	0.567100	0.480700	0.151130
C5131	C513	0.607200	0.503100	0.136730
C5141	C514	0.649300	0.510300	0.118130
C5151	C515	0.680600	0.532800	0.096130
C5161	C516	0.727400	0.555700	0.076930
C5171	C517	0.726100	0.542900	0.044730
C5181	C518	0.772500	0.562300	0.027630
C5191	C519	0.820100	0.594400	0.042630
C5201	C520	0.821300	0.607100	0.074730
C5211	C521	0.775000	0.587800	0.091930
C5221	C522	0.868500	0.619200	0.021630
O911	O91	0.991700	0.657900	0.987570
O921	O92	0.058000	0.781000	0.010180
O931	O93	0.018900	0.723500	0.050620
O941	O94	0.331800	0.249500	0.273000
O951	O95	0.252200	0.225800	0.289400
O961	O96	0.076600	0.745600	0.943380
O971	O97	0.099400	0.687400	0.956120
O981	O98	0.541100	0.941400	0.674600
O991	O99	0.597400	0.962700	0.714900
O1001	O100	0.005800	0.580200	0.940000
O1011	O101	0.936100	0.583000	0.931300
O1021	O102	0.737100	0.135800	0.661600
O1031	O103	0.736100	0.089700	0.702700
O1041	O104	0.666200	0.008300	0.654240
O1051	O105	0.723000	0.942000	0.676850
O1061	O106	0.704600	0.981100	0.717290
O1071	O107	0.917700	0.668200	0.939670
O1081	O108	0.973600	0.747800	0.956070
O1091	O109	0.669000	0.923400	0.610050
O1101	O110	0.588000	0.900600	0.622790
O1111	O111	0.400300	0.458900	0.341270
O1121	O112	0.365300	0.402600	0.381570
O1131	O113	0.574400	0.994200	0.606670
O1141	O114	0.646900	0.063900	0.597970
O1151	O115	0.398700	0.262900	0.328270
O1161	O116	0.353600	0.263900	0.369370
O1171	O117	0.342100	0.333800	0.320900
O1181	O118	0.219000	0.277000	0.343510
O1191	O119	0.276500	0.295400	0.383950
O1201	O120	0.750500	0.082300	0.606330
O1211	O121	0.774200	0.026400	0.622730
O1221	O122	0.254400	0.331000	0.276710
O1231	O123	0.312600	0.412000	0.289450
O1241	O124	0.058600	0.599700	0.007930
O1251	O125	0.037300	0.634700	0.048230
O1261	O126	0.419800	0.425600	0.273330
O1271	O127	0.417000	0.353100	0.264630
O1281	O128	0.864200	0.601300	0.994930
O1291	O129	0.910300	0.646400	0.036030
Zn371	Zn37	0.707530	0.729610	0.357750
Zn381	Zn38	0.595750	0.630000	0.358510
Zn391	Zn39	0.668940	0.651190	0.298590
Zn401	Zn40	0.694400	0.616510	0.365020
Zn411	Zn41	0.270390	0.977920	0.691090
Zn421	Zn42	0.370000	0.965750	0.691850
Zn431	Zn43	0.348810	0.017750	0.631930
Zn441	Zn44	0.383490	0.077890	0.698360
Zn451	Zn45	0.022080	0.292470	0.024420
Zn461	Zn46	0.034250	0.404250	0.025180
Zn471	Zn47	0.982250	0.331060	0.965260
Zn481	Zn48	0.922110	0.305600	0.031690
H3011	H301	0.749300	0.869500	0.302630
H3021	H302	0.774400	0.936300	0.264930
H3031	H303	0.750000	0.833500	0.193630
H3041	H304	0.724800	0.766600	0.231430
H3051	H305	0.822600	0.121500	0.137930
H3061	H306	0.864700	0.195400	0.105130
H3071	H307	0.944400	0.133800	0.061730
H3081	H308	0.902300	0.059900	0.094530
H3091	H309	0.524700	0.711900	0.398130
H3101	H310	0.492700	0.751100	0.433330
H3111	H311	0.638800	0.843300	0.468330
H3121	H312	0.670800	0.804100	0.433230
H3131	H313	0.400100	0.883900	0.531530
H3141	H314	0.365600	0.917000	0.569230
H3151	H315	0.460700	0.911500	0.637230
H3161	H316	0.495200	0.878400	0.599430
H3171	H317	0.649500	0.541400	0.452530
H3181	H318	0.614300	0.488200	0.497630
H3191	H319	0.470500	0.463600	0.474330
H3201	H320	0.505700	0.516900	0.429130
H3211	H321	0.479000	0.306400	0.632130
H3221	H322	0.446400	0.228300	0.661030
H3231	H323	0.370900	0.146100	0.581630
H3241	H324	0.403500	0.224200	0.552730
H3251	H325	0.130500	0.879800	0.635970
H3261	H326	0.063700	0.838100	0.598270
H3271	H327	0.166500	0.916500	0.526970
H3281	H328	0.233400	0.958200	0.564770
H3291	H329	0.878500	0.701100	0.471270
H3301	H330	0.804600	0.669300	0.438470
H3311	H331	0.866200	0.810600	0.395070
H3321	H332	0.940100	0.842400	0.427870
H3331	H333	0.288100	0.812800	0.731470
H3341	H334	0.248900	0.741600	0.766670
H3351	H335	0.156700	0.795500	0.801670
H3361	H336	0.195900	0.866700	0.766570
H3371	H337	0.116100	0.516200	0.864870
H3381	H338	0.083000	0.448600	0.902570
H3391	H339	0.088500	0.549200	0.970570
H3401	H340	0.121600	0.616800	0.932770
H3411	H341	0.458600	0.108100	0.785870
H3421	H342	0.511800	0.126100	0.830970
H3431	H343	0.536400	0.006900	0.807670
H3441	H344	0.483100	0.988800	0.762470
H3451	H345	0.693600	0.172600	0.965470
H3461	H346	0.771700	0.218100	0.994370
H3471	H347	0.853900	0.224800	0.914970
H3481	H348	0.775800	0.179300	0.886070
H3491	H349	0.120200	0.250700	0.969300
H3501	H350	0.161900	0.225600	0.931600
H3511	H351	0.083500	0.250000	0.860300
H3521	H352	0.041800	0.275200	0.898100
H3531	H353	0.298900	0.177400	0.804600
H3541	H354	0.330700	0.135300	0.771800
H3551	H355	0.189400	0.055600	0.728400
H3561	H356	0.157600	0.097700	0.761200
H3571	H357	0.187200	0.475300	0.064800
H3581	H358	0.258400	0.507300	0.100000
H3591	H359	0.204500	0.361200	0.135000
H3601	H360	0.133300	0.329200	0.099900
H3611	H361	0.483800	0.599900	0.198200
H3621	H362	0.551400	0.634400	0.235900
H3631	H363	0.450800	0.539300	0.303900
H3641	H364	0.383200	0.504800	0.266100
H3651	H365	0.891900	0.350500	0.119200
H3661	H366	0.873900	0.385700	0.164300
H3671	H367	0.993100	0.529500	0.141000
H3681	H368	0.011200	0.494300	0.095800
H3691	H369	0.827400	0.521000	0.298800
H3701	H370	0.781900	0.553600	0.327700
H3711	H371	0.775200	0.629100	0.248300
H3721	H372	0.820700	0.596500	0.219400
C5231	C523	0.717500	0.768800	0.294030
C5241	C524	0.734700	0.811800	0.270590
C5251	C525	0.749400	0.862100	0.280540
C5261	C526	0.764400	0.901900	0.258130
C5271	C527	0.764600	0.891200	0.225700
C5281	C528	0.749800	0.840700	0.215750
C5291	C529	0.734900	0.801100	0.238190
C5301	C530	0.783700	0.933700	0.202730
C5311	C531	0.798700	0.966100	0.182530
C5321	C532	0.817600	0.003700	0.159330
C5331	C533	0.836600	0.040300	0.141330
C5341	C534	0.858500	0.083800	0.119330
C5351	C535	0.847400	0.124100	0.122490
C5361	C536	0.872300	0.167900	0.102930
C5371	C537	0.908500	0.171500	0.080330
C5381	C538	0.919700	0.131300	0.077200
C5391	C539	0.894700	0.087400	0.096730
C5401	C540	0.934200	0.218400	0.059130
C5411	C541	0.620500	0.727800	0.391330
C5421	C542	0.600800	0.754300	0.412380
C5431	C543	0.547900	0.738600	0.412410
C5441	C544	0.528800	0.761800	0.433230
C5451	C545	0.562700	0.800800	0.454090
C5461	C546	0.615600	0.816600	0.454070
C5471	C547	0.634700	0.793400	0.433210
C5481	C548	0.540900	0.822900	0.476030
C5491	C549	0.519700	0.834400	0.496130
C5501	C550	0.497300	0.851800	0.517230
C5511	C551	0.478200	0.865500	0.537430
C5521	C552	0.450900	0.878100	0.561920
C5531	C553	0.412400	0.889500	0.552960
C5541	C554	0.391900	0.909200	0.575390
C5551	C555	0.409900	0.917400	0.606790
C5561	C556	0.448400	0.905900	0.615750
C5571	C557	0.468900	0.886300	0.593310
C5581	C558	0.392000	0.943100	0.629930
C5591	C559	0.602600	0.573700	0.410930
C5601	C560	0.580900	0.534100	0.436530
C5611	C561	0.613100	0.525600	0.456930
C5621	C562	0.592200	0.494000	0.483730
C5631	C563	0.539100	0.470900	0.490230
C5641	C564	0.506800	0.479400	0.469830
C5651	C565	0.527700	0.511000	0.443030
C5661	C566	0.519300	0.432900	0.515530
C5671	C567	0.496900	0.392800	0.529930
C5681	C568	0.489700	0.350700	0.548530
C5691	C569	0.467200	0.319400	0.570530
C5701	C570	0.444300	0.272600	0.589730
C5711	C571	0.457100	0.273900	0.621930
C5721	C572	0.437700	0.227500	0.639030
C5731	C573	0.405600	0.179900	0.624030
C5741	C574	0.392900	0.178700	0.591930
C5751	C575	0.412200	0.225000	0.574730
C5761	C576	0.380800	0.131500	0.645030
C5771	C577	0.231200	0.948700	0.627370
C5781	C578	0.188200	0.922900	0.603930
C5791	C579	0.137900	0.887300	0.613880
C5801	C580	0.098100	0.862500	0.591470
C5811	C581	0.108800	0.873400	0.559040
C5821	C582	0.159300	0.909100	0.549090
C5831	C583	0.198900	0.933800	0.571530
C5841	C584	0.066300	0.850000	0.536070
C5851	C585	0.033900	0.832600	0.515870
C5861	C586	0.996300	0.813900	0.492670
C5871	C587	0.959700	0.796300	0.474670
C5881	C588	0.916200	0.774700	0.452670
C5891	C589	0.875900	0.723300	0.455830
C5901	C590	0.832100	0.704400	0.436270
C5911	C591	0.828500	0.737000	0.413670
C5921	C592	0.868700	0.788400	0.410540
C5931	C593	0.912600	0.807300	0.430070
C5941	C594	0.781600	0.715800	0.392470
C5951	C595	0.272200	0.892700	0.724670
C5961	C596	0.245700	0.846500	0.745720
C5971	C597	0.261400	0.809300	0.745750
C5981	C598	0.238200	0.767000	0.766570
C5991	C599	0.199200	0.761900	0.787430
C6001	C600	0.183400	0.799000	0.787410
C6011	C601	0.206600	0.841300	0.766550
C6021	C602	0.177100	0.718000	0.809370
C6031	C603	0.165600	0.685300	0.829470
C6041	C604	0.148200	0.645500	0.850570
C6051	C605	0.134500	0.612700	0.870770
C6061	C606	0.121900	0.572800	0.895260
C6071	C607	0.110500	0.522900	0.886300
C6081	C608	0.090800	0.482700	0.908730
C6091	C609	0.082600	0.492500	0.940130
C6101	C610	0.094100	0.542500	0.949090
C6111	C611	0.113700	0.582600	0.926650
C6121	C612	0.056900	0.448900	0.963270
C6131	C613	0.426300	0.028900	0.744270
C6141	C614	0.465900	0.046800	0.769870
C6151	C615	0.474400	0.087500	0.790270
C6161	C616	0.506000	0.098200	0.817070
C6171	C617	0.529100	0.068200	0.823570
C6181	C618	0.520600	0.027400	0.803170
C6191	C619	0.489000	0.016700	0.776370
C6201	C620	0.567100	0.086400	0.848870
C6211	C621	0.607200	0.104100	0.863270
C6221	C622	0.649300	0.139000	0.881870
C6231	C623	0.680600	0.147800	0.903870
C6241	C624	0.727400	0.171700	0.923070
C6251	C625	0.726100	0.183200	0.955270
C6261	C626	0.772500	0.210200	0.972370
C6271	C627	0.820100	0.225700	0.957370
C6281	C628	0.821300	0.214200	0.925270
C6291	C629	0.775000	0.187200	0.908070
C6301	C630	0.868500	0.249300	0.978370
C6311	C631	0.051300	0.282500	0.960700
C6321	C632	0.077100	0.265300	0.937260
C6331	C633	0.112700	0.250600	0.947210
C6341	C634	0.137500	0.235600	0.924800
C6351	C635	0.126600	0.235400	0.892370
C6361	C636	0.090900	0.250200	0.882420
C6371	C637	0.066200	0.265100	0.904860
C6381	C638	0.150000	0.216300	0.869400
C6391	C639	0.167400	0.201300	0.849200
C6401	C640	0.186100	0.182400	0.826000
C6411	C641	0.203700	0.163400	0.808000
C6421	C642	0.225300	0.141500	0.786000
C6431	C643	0.276700	0.152600	0.789160
C6441	C644	0.295600	0.127700	0.769600
C6451	C645	0.263000	0.091500	0.747000
C6461	C646	0.211600	0.080300	0.743870
C6471	C647	0.192700	0.105300	0.763400
C6481	C648	0.284200	0.065800	0.725800
C6491	C649	0.107300	0.379500	0.058000
C6501	C650	0.153500	0.399200	0.079050
C6511	C651	0.190700	0.452100	0.079080
C6521	C652	0.233000	0.471200	0.099900
C6531	C653	0.238100	0.437300	0.120760
C6541	C654	0.201000	0.384400	0.120740
C6551	C655	0.158700	0.365300	0.099880
C6561	C656	0.282000	0.459100	0.142700
C6571	C657	0.314700	0.480300	0.162800
C6581	C658	0.354500	0.502700	0.183900
C6591	C659	0.387300	0.521800	0.204100
C6601	C660	0.427200	0.549100	0.228590
C6611	C661	0.477100	0.587600	0.219630
C6621	C662	0.517300	0.608100	0.242060
C6631	C663	0.507500	0.590100	0.273460
C6641	C664	0.457500	0.551600	0.282420
C6651	C665	0.417400	0.531100	0.259980
C6661	C666	0.551100	0.608000	0.296600
C6671	C667	0.971100	0.397400	0.077600
C6681	C668	0.953200	0.419100	0.103200
C6691	C669	0.912500	0.386900	0.123600
C6701	C670	0.901800	0.407800	0.150400
C6711	C671	0.931800	0.460900	0.156900
C6721	C672	0.972600	0.493200	0.136500
C6731	C673	0.983300	0.472300	0.109700
C6741	C674	0.913600	0.480700	0.182200
C6751	C675	0.895900	0.503100	0.196600
C6761	C676	0.861000	0.510300	0.215200
C6771	C677	0.852200	0.532800	0.237200
C6781	C678	0.828300	0.555700	0.256400
C6791	C679	0.816800	0.542900	0.288600
C6801	C680	0.789800	0.562300	0.305700
C6811	C681	0.774300	0.594400	0.290700
C6821	C682	0.785800	0.607100	0.258600
C6831	C683	0.812800	0.587800	0.241400
C6841	C684	0.750700	0.619200	0.311700
O1301	O130	0.666200	0.657900	0.345760
O1311	O131	0.723000	0.781000	0.323150
O1321	O132	0.704600	0.723500	0.282710
O1331	O133	0.917700	0.249500	0.060330
O1341	O134	0.973600	0.225800	0.043930
O1351	O135	0.669000	0.745600	0.389950
O1361	O136	0.588000	0.687400	0.377210
O1371	O137	0.400300	0.941400	0.658730
O1381	O138	0.365300	0.962700	0.618430
O1391	O139	0.574400	0.580200	0.393330
O1401	O140	0.646900	0.583000	0.402030
O1411	O141	0.398700	0.135800	0.671730
O1421	O142	0.353600	0.089700	0.630630
O1431	O143	0.342100	0.008300	0.679100
O1441	O144	0.219000	0.942000	0.656490
O1451	O145	0.276500	0.981100	0.616050
O1461	O146	0.750500	0.668200	0.393670
O1471	O147	0.774200	0.747800	0.377270
O1481	O148	0.254400	0.923400	0.723290
O1491	O149	0.312600	0.900600	0.710550
O1501	O150	0.058600	0.458900	0.992070
O1511	O151	0.037300	0.402600	0.951770
O1521	O152	0.419800	0.994200	0.726670
O1531	O153	0.417000	0.063900	0.735370
O1541	O154	0.864200	0.262900	0.005070
O1551	O155	0.910300	0.263900	0.963970
O1561	O156	0.991700	0.333800	0.012430
O1571	O157	0.058000	0.277000	0.989820
O1581	O158	0.018900	0.295400	0.949380
O1591	O159	0.331800	0.082300	0.727000
O1601	O160	0.252200	0.026400	0.710600
O1611	O161	0.076600	0.331000	0.056620
O1621	O162	0.099400	0.412000	0.043880
O1631	O163	0.541100	0.599700	0.325400
O1641	O164	0.597400	0.634700	0.285100
O1651	O165	0.005800	0.425600	0.060000
O1661	O166	0.936100	0.353100	0.068700
O1671	O167	0.737100	0.601300	0.338400
O1681	O168	0.736100	0.646400	0.297300
