data_ETECAJ_freeONLY_PM
_symmetry_space_group_name_H-M	'P1'
_cell_length_a	15.232100
_cell_length_b	11.482000
_cell_length_c	13.491300
_cell_angle_alpha	90.000000
_cell_angle_beta	114.520000
_cell_angle_gamma	90.000000
_symmetry_Int_Tables_number 1

loop_
_symmetry_equiv_pos_as_xyz
'x,y,z'

loop_
_atom_site_label
_atom_site_type_symbol
_atom_site_fract_x
_atom_site_fract_y
_atom_site_fract_z
Bi11	Bi1	0.994980	0.499490	0.831740
Bi21	Bi2	0.575740	0.529790	0.825740
O11	O1	0.005300	0.706600	0.879100
O21	O2	0.019300	0.882400	0.820200
O31	O3	0.970600	0.618200	0.681100
O41	O4	0.995000	0.791500	0.626100
O51	O5	0.903400	0.511400	0.945100
O61	O6	0.753800	0.517800	0.936500
O71	O7	0.831200	0.475900	0.727800
O81	O8	0.685600	0.449000	0.725600
O91	O9	0.477800	0.411900	0.677000
O101	O10	0.457100	0.230700	0.615100
O111	O11	0.597600	0.334100	0.876800
O121	O12	0.560300	0.152400	0.817000
O131	O13	0.440100	0.494100	0.858300
O141	O14	0.381800	0.472900	0.983400
C11	C1	0.007200	0.775300	0.809000
C21	C2	0.989000	0.724200	0.695300
C31	C3	0.812000	0.505200	0.896000
C41	C4	0.772000	0.472400	0.772800
C51	C5	0.489800	0.304200	0.688200
C61	C6	0.552800	0.258900	0.802900
C71	C7	0.449500	0.490700	0.954900
Bi31	Bi3	0.005020	0.999490	0.668260
Bi41	Bi4	0.424260	0.029790	0.674260
O151	O15	0.994700	0.206600	0.620900
O161	O16	0.980700	0.382400	0.679800
O171	O17	0.029400	0.118200	0.818900
O181	O18	0.005000	0.291500	0.873900
O191	O19	0.096600	0.011400	0.554900
O201	O20	0.246200	0.017800	0.563500
O211	O21	0.168800	0.975900	0.772200
O221	O22	0.314400	0.949000	0.774400
O231	O23	0.522200	0.911900	0.823000
O241	O24	0.542900	0.730700	0.884900
O251	O25	0.402400	0.834100	0.623200
O261	O26	0.439700	0.652400	0.683000
O271	O27	0.559900	0.994100	0.641700
O281	O28	0.618200	0.972900	0.516600
C81	C8	0.992800	0.275300	0.691000
C91	C9	0.011000	0.224200	0.804700
C101	C10	0.188000	0.005200	0.604000
C111	C11	0.228000	0.972400	0.727200
C121	C12	0.510200	0.804200	0.811800
C131	C13	0.447200	0.758900	0.697100
C141	C14	0.550500	0.990700	0.545100
Bi51	Bi5	0.005020	0.500510	0.168260
Bi61	Bi6	0.424260	0.470210	0.174260
O291	O29	0.994700	0.293400	0.120900
O301	O30	0.980700	0.117600	0.179800
O311	O31	0.029400	0.381800	0.318900
O321	O32	0.005000	0.208500	0.373900
O331	O33	0.096600	0.488600	0.054900
O341	O34	0.246200	0.482200	0.063500
O351	O35	0.168800	0.524100	0.272200
O361	O36	0.314400	0.551000	0.274400
O371	O37	0.522200	0.588100	0.323000
O381	O38	0.542900	0.769300	0.384900
O391	O39	0.402400	0.665900	0.123200
O401	O40	0.439700	0.847600	0.183000
O411	O41	0.559900	0.505900	0.141700
O421	O42	0.618200	0.527100	0.016600
C151	C15	0.992800	0.224700	0.191000
C161	C16	0.011000	0.275800	0.304700
C171	C17	0.188000	0.494800	0.104000
C181	C18	0.228000	0.527600	0.227200
C191	C19	0.510200	0.695800	0.311800
C201	C20	0.447200	0.741100	0.197100
C211	C21	0.550500	0.509300	0.045100
Bi71	Bi7	0.994980	0.000510	0.331740
Bi81	Bi8	0.575740	0.970210	0.325740
O431	O43	0.005300	0.793400	0.379100
O441	O44	0.019300	0.617600	0.320200
O451	O45	0.970600	0.881800	0.181100
O461	O46	0.995000	0.708500	0.126100
O471	O47	0.903400	0.988600	0.445100
O481	O48	0.753800	0.982200	0.436500
O491	O49	0.831200	0.024100	0.227800
O501	O50	0.685600	0.051000	0.225600
O511	O51	0.477800	0.088100	0.177000
O521	O52	0.457100	0.269300	0.115100
O531	O53	0.597600	0.165900	0.376800
O541	O54	0.560300	0.347600	0.317000
O551	O55	0.440100	0.005900	0.358300
O561	O56	0.381800	0.027100	0.483400
C221	C22	0.007200	0.724700	0.309000
C231	C23	0.989000	0.775800	0.195300
C241	C24	0.812000	0.994800	0.396000
C251	C25	0.772000	0.027600	0.272800
C261	C26	0.489800	0.195800	0.188200
C271	C27	0.552800	0.241100	0.302900
C281	C28	0.449500	0.009300	0.454900
