data_ETECIR_freeONLY_PM
_symmetry_space_group_name_H-M	'P1'
_cell_length_a	25.133500
_cell_length_b	25.133500
_cell_length_c	9.745400
_cell_angle_alpha	90.000000
_cell_angle_beta	90.000000
_cell_angle_gamma	90.000000
_symmetry_Int_Tables_number 1

loop_
_symmetry_equiv_pos_as_xyz
'x,y,z'

loop_
_atom_site_label
_atom_site_type_symbol
_atom_site_fract_x
_atom_site_fract_y
_atom_site_fract_z
In11	In1	0.703160	0.356070	0.696720
O11	O1	0.740590	0.381630	0.492000
O21	O2	0.814630	0.416970	0.404500
O31	O3	0.780950	0.392100	0.744200
O41	O4	0.847790	0.440360	0.658300
O51	O5	0.734370	0.280840	0.596300
O61	O6	0.768720	0.200550	0.635500
O71	O7	0.640380	0.335440	0.538900
O81	O8	0.553090	0.328060	0.505500
O91	O9	0.628850	0.328120	0.804200
O101	O10	0.541400	0.330750	0.788600
C11	C1	0.785390	0.403240	0.501600
C21	C2	0.806590	0.413230	0.647600
C31	C3	0.751170	0.244770	0.672400
C41	C4	0.592660	0.331400	0.579800
C51	C5	0.585560	0.330060	0.736600
In21	In2	0.203160	0.856070	0.196720
O111	O11	0.240590	0.881630	0.992000
O121	O12	0.314630	0.916970	0.904500
O131	O13	0.280950	0.892100	0.244200
O141	O14	0.347790	0.940360	0.158300
O151	O15	0.234370	0.780840	0.096300
O161	O16	0.268720	0.700550	0.135500
O171	O17	0.140380	0.835440	0.038900
O181	O18	0.053090	0.828060	0.005500
O191	O19	0.128850	0.828120	0.304200
O201	O20	0.041400	0.830750	0.288600
C61	C6	0.285390	0.903240	0.001600
C71	C7	0.306590	0.913230	0.147600
C81	C8	0.251170	0.744770	0.172400
C91	C9	0.092660	0.831400	0.079800
C101	C10	0.085560	0.830060	0.236600
In31	In3	0.796840	0.643930	0.196720
O211	O21	0.759410	0.618370	0.992000
O221	O22	0.685370	0.583030	0.904500
O231	O23	0.719050	0.607900	0.244200
O241	O24	0.652210	0.559640	0.158300
O251	O25	0.765630	0.719160	0.096300
O261	O26	0.731280	0.799450	0.135500
O271	O27	0.859620	0.664560	0.038900
O281	O28	0.946910	0.671940	0.005500
O291	O29	0.871150	0.671880	0.304200
O301	O30	0.958600	0.669250	0.288600
C111	C11	0.714610	0.596760	0.001600
C121	C12	0.693410	0.586770	0.147600
C131	C13	0.748830	0.755230	0.172400
C141	C14	0.907340	0.668600	0.079800
C151	C15	0.914440	0.669940	0.236600
In41	In4	0.296840	0.143930	0.696720
O311	O31	0.259410	0.118370	0.492000
O321	O32	0.185370	0.083030	0.404500
O331	O33	0.219050	0.107900	0.744200
O341	O34	0.152210	0.059640	0.658300
O351	O35	0.265630	0.219160	0.596300
O361	O36	0.231280	0.299450	0.635500
O371	O37	0.359620	0.164560	0.538900
O381	O38	0.446910	0.171940	0.505500
O391	O39	0.371150	0.171880	0.804200
O401	O40	0.458600	0.169250	0.788600
C161	C16	0.214610	0.096760	0.501600
C171	C17	0.193410	0.086770	0.647600
C181	C18	0.248830	0.255230	0.672400
C191	C19	0.407340	0.168600	0.579800
C201	C20	0.414440	0.169940	0.736600
In51	In5	0.393930	0.953160	0.946720
O411	O41	0.368370	0.990590	0.742000
O421	O42	0.333030	0.064630	0.654500
O431	O43	0.357900	0.030950	0.994200
O441	O44	0.309640	0.097790	0.908300
O451	O45	0.469160	0.984370	0.846300
O461	O46	0.549450	0.018720	0.885500
O471	O47	0.414560	0.890380	0.788900
O481	O48	0.421940	0.803090	0.755500
O491	O49	0.421880	0.878850	0.054200
O501	O50	0.419250	0.791400	0.038600
C211	C21	0.346760	0.035390	0.751600
C221	C22	0.336770	0.056590	0.897600
C231	C23	0.505230	0.001170	0.922400
C241	C24	0.418600	0.842660	0.829800
C251	C25	0.419940	0.835560	0.986600
In61	In6	0.893930	0.453160	0.446720
O511	O51	0.868370	0.490590	0.242000
O521	O52	0.833030	0.564630	0.154500
O531	O53	0.857900	0.530950	0.494200
O541	O54	0.809640	0.597790	0.408300
O551	O55	0.969160	0.484370	0.346300
O561	O56	0.049450	0.518720	0.385500
O571	O57	0.914560	0.390380	0.288900
O581	O58	0.921940	0.303090	0.255500
O591	O59	0.921880	0.378850	0.554200
O601	O60	0.919250	0.291400	0.538600
C261	C26	0.846760	0.535390	0.251600
C271	C27	0.836770	0.556590	0.397600
C281	C28	0.005230	0.501170	0.422400
C291	C29	0.918600	0.342660	0.329800
C301	C30	0.919940	0.335560	0.486600
In71	In7	0.106070	0.046840	0.446720
O611	O61	0.131630	0.009410	0.242000
O621	O62	0.166970	0.935370	0.154500
O631	O63	0.142100	0.969050	0.494200
O641	O64	0.190360	0.902210	0.408300
O651	O65	0.030840	0.015630	0.346300
O661	O66	0.950550	0.981280	0.385500
O671	O67	0.085440	0.109620	0.288900
O681	O68	0.078060	0.196910	0.255500
O691	O69	0.078120	0.121150	0.554200
O701	O70	0.080750	0.208600	0.538600
C311	C31	0.153240	0.964610	0.251600
C321	C32	0.163230	0.943410	0.397600
C331	C33	0.994770	0.998830	0.422400
C341	C34	0.081400	0.157340	0.329800
C351	C35	0.080060	0.164440	0.486600
In81	In8	0.606070	0.546840	0.946720
O711	O71	0.631630	0.509410	0.742000
O721	O72	0.666970	0.435370	0.654500
O731	O73	0.642100	0.469050	0.994200
O741	O74	0.690360	0.402210	0.908300
O751	O75	0.530840	0.515630	0.846300
O761	O76	0.450550	0.481280	0.885500
O771	O77	0.585440	0.609620	0.788900
O781	O78	0.578060	0.696910	0.755500
O791	O79	0.578120	0.621150	0.054200
O801	O80	0.580750	0.708600	0.038600
C361	C36	0.653240	0.464610	0.751600
C371	C37	0.663230	0.443410	0.897600
C381	C38	0.494770	0.498830	0.922400
C391	C39	0.581400	0.657340	0.829800
C401	C40	0.580060	0.664440	0.986600
In91	In9	0.296840	0.643930	0.303280
O811	O81	0.259410	0.618370	0.508000
O821	O82	0.185370	0.583030	0.595500
O831	O83	0.219050	0.607900	0.255800
O841	O84	0.152210	0.559640	0.341700
O851	O85	0.265630	0.719160	0.403700
O861	O86	0.231280	0.799450	0.364500
O871	O87	0.359620	0.664560	0.461100
O881	O88	0.446910	0.671940	0.494500
O891	O89	0.371150	0.671880	0.195800
O901	O90	0.458600	0.669250	0.211400
C411	C41	0.214610	0.596760	0.498400
C421	C42	0.193410	0.586770	0.352400
C431	C43	0.248830	0.755230	0.327600
C441	C44	0.407340	0.668600	0.420200
C451	C45	0.414440	0.669940	0.263400
In101	In10	0.796840	0.143930	0.803280
O911	O91	0.759410	0.118370	0.008000
O921	O92	0.685370	0.083030	0.095500
O931	O93	0.719050	0.107900	0.755800
O941	O94	0.652210	0.059640	0.841700
O951	O95	0.765630	0.219160	0.903700
O961	O96	0.731280	0.299450	0.864500
O971	O97	0.859620	0.164560	0.961100
O981	O98	0.946910	0.171940	0.994500
O991	O99	0.871150	0.171880	0.695800
O1001	O100	0.958600	0.169250	0.711400
C461	C46	0.714610	0.096760	0.998400
C471	C47	0.693410	0.086770	0.852400
C481	C48	0.748830	0.255230	0.827600
C491	C49	0.907340	0.168600	0.920200
C501	C50	0.914440	0.169940	0.763400
In111	In11	0.203160	0.356070	0.803280
O1011	O101	0.240590	0.381630	0.008000
O1021	O102	0.314630	0.416970	0.095500
O1031	O103	0.280950	0.392100	0.755800
O1041	O104	0.347790	0.440360	0.841700
O1051	O105	0.234370	0.280840	0.903700
O1061	O106	0.268720	0.200550	0.864500
O1071	O107	0.140380	0.335440	0.961100
O1081	O108	0.053090	0.328060	0.994500
O1091	O109	0.128850	0.328120	0.695800
O1101	O110	0.041400	0.330750	0.711400
C511	C51	0.285390	0.403240	0.998400
C521	C52	0.306590	0.413230	0.852400
C531	C53	0.251170	0.244770	0.827600
C541	C54	0.092660	0.331400	0.920200
C551	C55	0.085560	0.330060	0.763400
In121	In12	0.703160	0.856070	0.303280
O1111	O111	0.740590	0.881630	0.508000
O1121	O112	0.814630	0.916970	0.595500
O1131	O113	0.780950	0.892100	0.255800
O1141	O114	0.847790	0.940360	0.341700
O1151	O115	0.734370	0.780840	0.403700
O1161	O116	0.768720	0.700550	0.364500
O1171	O117	0.640380	0.835440	0.461100
O1181	O118	0.553090	0.828060	0.494500
O1191	O119	0.628850	0.828120	0.195800
O1201	O120	0.541400	0.830750	0.211400
C561	C56	0.785390	0.903240	0.498400
C571	C57	0.806590	0.913230	0.352400
C581	C58	0.751170	0.744770	0.327600
C591	C59	0.592660	0.831400	0.420200
C601	C60	0.585560	0.830060	0.263400
In131	In13	0.606070	0.046840	0.053280
O1211	O121	0.631630	0.009410	0.258000
O1221	O122	0.666970	0.935370	0.345500
O1231	O123	0.642100	0.969050	0.005800
O1241	O124	0.690360	0.902210	0.091700
O1251	O125	0.530840	0.015630	0.153700
O1261	O126	0.450550	0.981280	0.114500
O1271	O127	0.585440	0.109620	0.211100
O1281	O128	0.578060	0.196910	0.244500
O1291	O129	0.578120	0.121150	0.945800
O1301	O130	0.580750	0.208600	0.961400
C611	C61	0.653240	0.964610	0.248400
C621	C62	0.663230	0.943410	0.102400
C631	C63	0.494770	0.998830	0.077600
C641	C64	0.581400	0.157340	0.170200
C651	C65	0.580060	0.164440	0.013400
In141	In14	0.106070	0.546840	0.553280
O1311	O131	0.131630	0.509410	0.758000
O1321	O132	0.166970	0.435370	0.845500
O1331	O133	0.142100	0.469050	0.505800
O1341	O134	0.190360	0.402210	0.591700
O1351	O135	0.030840	0.515630	0.653700
O1361	O136	0.950550	0.481280	0.614500
O1371	O137	0.085440	0.609620	0.711100
O1381	O138	0.078060	0.696910	0.744500
O1391	O139	0.078120	0.621150	0.445800
O1401	O140	0.080750	0.708600	0.461400
C661	C66	0.153240	0.464610	0.748400
C671	C67	0.163230	0.443410	0.602400
C681	C68	0.994770	0.498830	0.577600
C691	C69	0.081400	0.657340	0.670200
C701	C70	0.080060	0.664440	0.513400
In151	In15	0.893930	0.953160	0.553280
O1411	O141	0.868370	0.990590	0.758000
O1421	O142	0.833030	0.064630	0.845500
O1431	O143	0.857900	0.030950	0.505800
O1441	O144	0.809640	0.097790	0.591700
O1451	O145	0.969160	0.984370	0.653700
O1461	O146	0.049450	0.018720	0.614500
O1471	O147	0.914560	0.890380	0.711100
O1481	O148	0.921940	0.803090	0.744500
O1491	O149	0.921880	0.878850	0.445800
O1501	O150	0.919250	0.791400	0.461400
C711	C71	0.846760	0.035390	0.748400
C721	C72	0.836770	0.056590	0.602400
C731	C73	0.005230	0.001170	0.577600
C741	C74	0.918600	0.842660	0.670200
C751	C75	0.919940	0.835560	0.513400
In161	In16	0.393930	0.453160	0.053280
O1511	O151	0.368370	0.490590	0.258000
O1521	O152	0.333030	0.564630	0.345500
O1531	O153	0.357900	0.530950	0.005800
O1541	O154	0.309640	0.597790	0.091700
O1551	O155	0.469160	0.484370	0.153700
O1561	O156	0.549450	0.518720	0.114500
O1571	O157	0.414560	0.390380	0.211100
O1581	O158	0.421940	0.303090	0.244500
O1591	O159	0.421880	0.378850	0.945800
O1601	O160	0.419250	0.291400	0.961400
C761	C76	0.346760	0.535390	0.248400
C771	C77	0.336770	0.556590	0.102400
C781	C78	0.505230	0.501170	0.077600
C791	C79	0.418600	0.342660	0.170200
C801	C80	0.419940	0.335560	0.013400
