data_ETIXIQ_freeONLY_PM
_symmetry_space_group_name_H-M	'P1'
_cell_length_a	44.260000
_cell_length_b	15.016000
_cell_length_c	14.974000
_cell_angle_alpha	90.000000
_cell_angle_beta	94.012000
_cell_angle_gamma	90.000000
_symmetry_Int_Tables_number 1

loop_
_symmetry_equiv_pos_as_xyz
'x,y,z'

loop_
_atom_site_label
_atom_site_type_symbol
_atom_site_fract_x
_atom_site_fract_y
_atom_site_fract_z
Zn11	Zn1	0.216870	0.250560	0.995640
O11	O1	0.224330	0.330050	0.101730
O21	O2	0.230900	0.648760	0.418420
O31	O3	0.274100	0.330680	0.106910
O41	O4	0.280660	0.644410	0.423300
N11	N1	0.172940	0.259100	0.960000
C11	C1	0.279690	0.469400	0.347900
C21	C2	0.253550	0.571700	0.243100
C31	C3	0.253470	0.535400	0.338000
C41	C4	0.250700	0.412800	0.215900
C51	C5	0.252460	0.506900	0.179200
C61	C6	0.223670	0.411600	0.273300
C71	C7	0.225320	0.477000	0.339700
C81	C8	0.203470	0.481400	0.400000
H11	H1	0.204600	0.525300	0.445700
C91	C9	0.277960	0.403000	0.283200
C101	C10	0.253900	0.618400	0.066400
H21	H2	0.254200	0.634400	0.005100
C111	C11	0.254830	0.659800	0.219400
H31	H3	0.255700	0.704600	0.264300
C121	C12	0.302320	0.467400	0.415300
H41	H4	0.303800	0.513300	0.459100
C131	C13	0.254800	0.683300	0.130800
H51	H5	0.255400	0.744400	0.114200
C141	C14	0.298520	0.334800	0.287900
H61	H6	0.297300	0.288900	0.244000
C151	C15	0.320880	0.332700	0.355600
H71	H7	0.335100	0.285200	0.358800
C161	C16	0.249570	0.350800	0.135800
C171	C17	0.255160	0.615200	0.400000
C181	C18	0.322940	0.398500	0.419000
H81	H8	0.338600	0.396700	0.465700
C191	C19	0.200070	0.352100	0.268200
H91	H9	0.199000	0.307100	0.223600
C201	C20	0.164240	0.297600	0.881700
H101	H10	0.179000	0.328700	0.850500
C211	C21	0.252610	0.530200	0.090400
H111	H11	0.251800	0.485400	0.045600
C221	C22	0.177900	0.358000	0.328100
H121	H12	0.161300	0.317900	0.323700
C231	C23	0.135340	0.294300	0.844800
H131	H13	0.130100	0.321600	0.788600
C241	C24	0.179710	0.421400	0.393800
H141	H14	0.164500	0.424300	0.435500
C251	C25	0.122530	0.211700	0.971300
H151	H15	0.108100	0.181400	0.004200
C261	C26	0.152090	0.217000	0.003700
H161	H16	0.158000	0.189700	0.059400
C271	C27	0.083440	0.246000	0.852200
C281	C28	0.058880	0.245900	0.819500
C291	C29	0.027800	0.246100	0.781700
C301	C30	0.023190	0.293300	0.692400
C311	C31	0.006740	0.293700	0.842100
C321	C32	0.113860	0.250900	0.890100
C331	C33	0.029580	0.076000	0.784600
H171	H17	0.050000	0.076400	0.808600
C341	C34	0.044850	0.332600	0.645100
H181	H18	0.065500	0.331000	0.667000
C351	C35	0.036530	0.374700	0.565400
H191	H19	0.051600	0.403000	0.533300
C361	C36	0.007040	0.376700	0.531400
H201	H20	0.001600	0.406000	0.476400
C371	C37	0.014960	0.996700	0.767400
H211	H21	0.025200	0.942000	0.779300
C381	C38	0.014740	0.334800	0.921100
H221	H22	0.035300	0.335000	0.943900
C391	C39	0.014920	0.152900	0.767400
Zn21	Zn2	0.716870	0.750560	0.995640
O51	O5	0.724330	0.830050	0.101730
O61	O6	0.730900	0.148760	0.418420
O71	O7	0.774100	0.830680	0.106910
O81	O8	0.780660	0.144410	0.423300
N21	N2	0.672940	0.759100	0.960000
C401	C40	0.779690	0.969400	0.347900
C411	C41	0.753550	0.071700	0.243100
C421	C42	0.753470	0.035400	0.338000
C431	C43	0.750700	0.912800	0.215900
C441	C44	0.752460	0.006900	0.179200
C451	C45	0.723670	0.911600	0.273300
C461	C46	0.725320	0.977000	0.339700
C471	C47	0.703470	0.981400	0.400000
H231	H23	0.704600	0.025300	0.445700
C481	C48	0.777960	0.903000	0.283200
C491	C49	0.753900	0.118400	0.066400
H241	H24	0.754200	0.134400	0.005100
C501	C50	0.754830	0.159800	0.219400
H251	H25	0.755700	0.204600	0.264300
C511	C51	0.802320	0.967400	0.415300
H261	H26	0.803800	0.013300	0.459100
C521	C52	0.754800	0.183300	0.130800
H271	H27	0.755400	0.244400	0.114200
C531	C53	0.798520	0.834800	0.287900
H281	H28	0.797300	0.788900	0.244000
C541	C54	0.820880	0.832700	0.355600
H291	H29	0.835100	0.785200	0.358800
C551	C55	0.749570	0.850800	0.135800
C561	C56	0.755160	0.115200	0.400000
C571	C57	0.822940	0.898500	0.419000
H301	H30	0.838600	0.896700	0.465700
C581	C58	0.700070	0.852100	0.268200
H311	H31	0.699000	0.807100	0.223600
C591	C59	0.664240	0.797600	0.881700
H321	H32	0.679000	0.828700	0.850500
C601	C60	0.752610	0.030200	0.090400
H331	H33	0.751800	0.985400	0.045600
C611	C61	0.677900	0.858000	0.328100
H341	H34	0.661300	0.817900	0.323700
C621	C62	0.635340	0.794300	0.844800
H351	H35	0.630100	0.821600	0.788600
C631	C63	0.679710	0.921400	0.393800
H361	H36	0.664500	0.924300	0.435500
C641	C64	0.622530	0.711700	0.971300
H371	H37	0.608100	0.681400	0.004200
C651	C65	0.652090	0.717000	0.003700
H381	H38	0.658000	0.689700	0.059400
C661	C66	0.583440	0.746000	0.852200
C671	C67	0.558880	0.745900	0.819500
C681	C68	0.527800	0.746100	0.781700
C691	C69	0.523190	0.793300	0.692400
C701	C70	0.506740	0.793700	0.842100
C711	C71	0.613860	0.750900	0.890100
C721	C72	0.529580	0.576000	0.784600
H391	H39	0.550000	0.576400	0.808600
C731	C73	0.544850	0.832600	0.645100
H401	H40	0.565500	0.831000	0.667000
C741	C74	0.536530	0.874700	0.565400
H411	H41	0.551600	0.903000	0.533300
C751	C75	0.507040	0.876700	0.531400
H421	H42	0.501600	0.906000	0.476400
C761	C76	0.514960	0.496700	0.767400
H431	H43	0.525200	0.442000	0.779300
C771	C77	0.514740	0.834800	0.921100
H441	H44	0.535300	0.835000	0.943900
C781	C78	0.514920	0.652900	0.767400
Zn31	Zn3	0.783130	0.250560	0.504360
O91	O9	0.775670	0.330050	0.398270
O101	O10	0.769100	0.648760	0.081580
O111	O11	0.725900	0.330680	0.393090
O121	O12	0.719340	0.644410	0.076700
N31	N3	0.827060	0.259100	0.540000
C791	C79	0.720310	0.469400	0.152100
C801	C80	0.746450	0.571700	0.256900
C811	C81	0.746530	0.535400	0.162000
C821	C82	0.749300	0.412800	0.284100
C831	C83	0.747540	0.506900	0.320800
C841	C84	0.776330	0.411600	0.226700
C851	C85	0.774680	0.477000	0.160300
C861	C86	0.796530	0.481400	0.100000
H451	H45	0.795400	0.525300	0.054300
C871	C87	0.722040	0.403000	0.216800
C881	C88	0.746100	0.618400	0.433600
H461	H46	0.745800	0.634400	0.494900
C891	C89	0.745170	0.659800	0.280600
H471	H47	0.744300	0.704600	0.235700
C901	C90	0.697680	0.467400	0.084700
H481	H48	0.696200	0.513300	0.040900
C911	C91	0.745200	0.683300	0.369200
H491	H49	0.744600	0.744400	0.385800
C921	C92	0.701480	0.334800	0.212100
H501	H50	0.702700	0.288900	0.256000
C931	C93	0.679120	0.332700	0.144400
H511	H51	0.664900	0.285200	0.141200
C941	C94	0.750430	0.350800	0.364200
C951	C95	0.744840	0.615200	0.100000
C961	C96	0.677060	0.398500	0.081000
H521	H52	0.661400	0.396700	0.034300
C971	C97	0.799930	0.352100	0.231800
H531	H53	0.801000	0.307100	0.276400
C981	C98	0.835760	0.297600	0.618300
H541	H54	0.821000	0.328700	0.649500
C991	C99	0.747390	0.530200	0.409600
H551	H55	0.748200	0.485400	0.454400
C1001	C100	0.822100	0.358000	0.171900
H561	H56	0.838700	0.317900	0.176300
C1011	C101	0.864660	0.294300	0.655200
H571	H57	0.869900	0.321600	0.711400
C1021	C102	0.820290	0.421400	0.106200
H581	H58	0.835500	0.424300	0.064500
C1031	C103	0.877470	0.211700	0.528700
H591	H59	0.891900	0.181400	0.495800
C1041	C104	0.847910	0.217000	0.496300
H601	H60	0.842000	0.189700	0.440600
C1051	C105	0.916560	0.246000	0.647800
C1061	C106	0.941120	0.245900	0.680500
C1071	C107	0.972200	0.246100	0.718300
C1081	C108	0.976810	0.293300	0.807600
C1091	C109	0.993260	0.293700	0.657900
C1101	C110	0.886140	0.250900	0.609900
C1111	C111	0.970420	0.076000	0.715400
H611	H61	0.950000	0.076400	0.691400
C1121	C112	0.955150	0.332600	0.854900
H621	H62	0.934500	0.331000	0.833000
C1131	C113	0.963470	0.374700	0.934600
H631	H63	0.948400	0.403000	0.966700
C1141	C114	0.992960	0.376700	0.968600
H641	H64	0.998400	0.406000	0.023600
C1151	C115	0.985040	0.996700	0.732600
H651	H65	0.974800	0.942000	0.720700
C1161	C116	0.985260	0.334800	0.578900
H661	H66	0.964700	0.335000	0.556100
C1171	C117	0.985080	0.152900	0.732600
Zn41	Zn4	0.283130	0.750560	0.504360
O131	O13	0.275670	0.830050	0.398270
O141	O14	0.269100	0.148760	0.081580
O151	O15	0.225900	0.830680	0.393090
O161	O16	0.219340	0.144410	0.076700
N41	N4	0.327060	0.759100	0.540000
C1181	C118	0.220310	0.969400	0.152100
C1191	C119	0.246450	0.071700	0.256900
C1201	C120	0.246530	0.035400	0.162000
C1211	C121	0.249300	0.912800	0.284100
C1221	C122	0.247540	0.006900	0.320800
C1231	C123	0.276330	0.911600	0.226700
C1241	C124	0.274680	0.977000	0.160300
C1251	C125	0.296530	0.981400	0.100000
H671	H67	0.295400	0.025300	0.054300
C1261	C126	0.222040	0.903000	0.216800
C1271	C127	0.246100	0.118400	0.433600
H681	H68	0.245800	0.134400	0.494900
C1281	C128	0.245170	0.159800	0.280600
H691	H69	0.244300	0.204600	0.235700
C1291	C129	0.197680	0.967400	0.084700
H701	H70	0.196200	0.013300	0.040900
C1301	C130	0.245200	0.183300	0.369200
H711	H71	0.244600	0.244400	0.385800
C1311	C131	0.201480	0.834800	0.212100
H721	H72	0.202700	0.788900	0.256000
C1321	C132	0.179120	0.832700	0.144400
H731	H73	0.164900	0.785200	0.141200
C1331	C133	0.250430	0.850800	0.364200
C1341	C134	0.244840	0.115200	0.100000
C1351	C135	0.177060	0.898500	0.081000
H741	H74	0.161400	0.896700	0.034300
C1361	C136	0.299930	0.852100	0.231800
H751	H75	0.301000	0.807100	0.276400
C1371	C137	0.335760	0.797600	0.618300
H761	H76	0.321000	0.828700	0.649500
C1381	C138	0.247390	0.030200	0.409600
H771	H77	0.248200	0.985400	0.454400
C1391	C139	0.322100	0.858000	0.171900
H781	H78	0.338700	0.817900	0.176300
C1401	C140	0.364660	0.794300	0.655200
H791	H79	0.369900	0.821600	0.711400
C1411	C141	0.320290	0.921400	0.106200
H801	H80	0.335500	0.924300	0.064500
C1421	C142	0.377470	0.711700	0.528700
H811	H81	0.391900	0.681400	0.495800
C1431	C143	0.347910	0.717000	0.496300
H821	H82	0.342000	0.689700	0.440600
C1441	C144	0.416560	0.746000	0.647800
C1451	C145	0.441120	0.745900	0.680500
C1461	C146	0.472200	0.746100	0.718300
C1471	C147	0.476810	0.793300	0.807600
C1481	C148	0.493260	0.793700	0.657900
C1491	C149	0.386140	0.750900	0.609900
C1501	C150	0.470420	0.576000	0.715400
H831	H83	0.450000	0.576400	0.691400
C1511	C151	0.455150	0.832600	0.854900
H841	H84	0.434500	0.831000	0.833000
C1521	C152	0.463470	0.874700	0.934600
H851	H85	0.448400	0.903000	0.966700
C1531	C153	0.492960	0.876700	0.968600
H861	H86	0.498400	0.906000	0.023600
C1541	C154	0.485040	0.496700	0.732600
H871	H87	0.474800	0.442000	0.720700
C1551	C155	0.485260	0.834800	0.578900
H881	H88	0.464700	0.835000	0.556100
C1561	C156	0.485080	0.652900	0.732600
Zn51	Zn5	0.783130	0.749440	0.004360
O171	O17	0.775670	0.669950	0.898270
O181	O18	0.769100	0.351240	0.581580
O191	O19	0.725900	0.669320	0.893090
O201	O20	0.719340	0.355590	0.576700
N51	N5	0.827060	0.740900	0.040000
C1571	C157	0.720310	0.530600	0.652100
C1581	C158	0.746450	0.428300	0.756900
C1591	C159	0.746530	0.464600	0.662000
C1601	C160	0.749300	0.587200	0.784100
C1611	C161	0.747540	0.493100	0.820800
C1621	C162	0.776330	0.588400	0.726700
C1631	C163	0.774680	0.523000	0.660300
C1641	C164	0.796530	0.518600	0.600000
H891	H89	0.795400	0.474700	0.554300
C1651	C165	0.722040	0.597000	0.716800
C1661	C166	0.746100	0.381600	0.933600
H901	H90	0.745800	0.365600	0.994900
C1671	C167	0.745170	0.340200	0.780600
H911	H91	0.744300	0.295400	0.735700
C1681	C168	0.697680	0.532600	0.584700
H921	H92	0.696200	0.486700	0.540900
C1691	C169	0.745200	0.316700	0.869200
H931	H93	0.744600	0.255600	0.885800
C1701	C170	0.701480	0.665200	0.712100
H941	H94	0.702700	0.711100	0.756000
C1711	C171	0.679120	0.667300	0.644400
H951	H95	0.664900	0.714800	0.641200
C1721	C172	0.750430	0.649200	0.864200
C1731	C173	0.744840	0.384800	0.600000
C1741	C174	0.677060	0.601500	0.581000
H961	H96	0.661400	0.603300	0.534300
C1751	C175	0.799930	0.647900	0.731800
H971	H97	0.801000	0.692900	0.776400
C1761	C176	0.835760	0.702400	0.118300
H981	H98	0.821000	0.671300	0.149500
C1771	C177	0.747390	0.469800	0.909600
H991	H99	0.748200	0.514600	0.954400
C1781	C178	0.822100	0.642000	0.671900
H1001	H100	0.838700	0.682100	0.676300
C1791	C179	0.864660	0.705700	0.155200
H1011	H101	0.869900	0.678400	0.211400
C1801	C180	0.820290	0.578600	0.606200
H1021	H102	0.835500	0.575700	0.564500
C1811	C181	0.877470	0.788300	0.028700
H1031	H103	0.891900	0.818600	0.995800
C1821	C182	0.847910	0.783000	0.996300
H1041	H104	0.842000	0.810300	0.940600
C1831	C183	0.916560	0.754000	0.147800
C1841	C184	0.941120	0.754100	0.180500
C1851	C185	0.972200	0.753900	0.218300
C1861	C186	0.976810	0.706700	0.307600
C1871	C187	0.993260	0.706300	0.157900
C1881	C188	0.886140	0.749100	0.109900
C1891	C189	0.970420	0.924000	0.215400
H1051	H105	0.950000	0.923600	0.191400
C1901	C190	0.955150	0.667400	0.354900
H1061	H106	0.934500	0.669000	0.333000
C1911	C191	0.963470	0.625300	0.434600
H1071	H107	0.948400	0.597000	0.466700
C1921	C192	0.992960	0.623300	0.468600
H1081	H108	0.998400	0.594000	0.523600
C1931	C193	0.985040	0.003300	0.232600
H1091	H109	0.974800	0.058000	0.220700
C1941	C194	0.985260	0.665200	0.078900
H1101	H110	0.964700	0.665000	0.056100
C1951	C195	0.985080	0.847100	0.232600
Zn61	Zn6	0.283130	0.249440	0.004360
O211	O21	0.275670	0.169950	0.898270
O221	O22	0.269100	0.851240	0.581580
O231	O23	0.225900	0.169320	0.893090
O241	O24	0.219340	0.855590	0.576700
N61	N6	0.327060	0.240900	0.040000
C1961	C196	0.220310	0.030600	0.652100
C1971	C197	0.246450	0.928300	0.756900
C1981	C198	0.246530	0.964600	0.662000
C1991	C199	0.249300	0.087200	0.784100
C2001	C200	0.247540	0.993100	0.820800
C2011	C201	0.276330	0.088400	0.726700
C2021	C202	0.274680	0.023000	0.660300
C2031	C203	0.296530	0.018600	0.600000
H1111	H111	0.295400	0.974700	0.554300
C2041	C204	0.222040	0.097000	0.716800
C2051	C205	0.246100	0.881600	0.933600
H1121	H112	0.245800	0.865600	0.994900
C2061	C206	0.245170	0.840200	0.780600
H1131	H113	0.244300	0.795400	0.735700
C2071	C207	0.197680	0.032600	0.584700
H1141	H114	0.196200	0.986700	0.540900
C2081	C208	0.245200	0.816700	0.869200
H1151	H115	0.244600	0.755600	0.885800
C2091	C209	0.201480	0.165200	0.712100
H1161	H116	0.202700	0.211100	0.756000
C2101	C210	0.179120	0.167300	0.644400
H1171	H117	0.164900	0.214800	0.641200
C2111	C211	0.250430	0.149200	0.864200
C2121	C212	0.244840	0.884800	0.600000
C2131	C213	0.177060	0.101500	0.581000
H1181	H118	0.161400	0.103300	0.534300
C2141	C214	0.299930	0.147900	0.731800
H1191	H119	0.301000	0.192900	0.776400
C2151	C215	0.335760	0.202400	0.118300
H1201	H120	0.321000	0.171300	0.149500
C2161	C216	0.247390	0.969800	0.909600
H1211	H121	0.248200	0.014600	0.954400
C2171	C217	0.322100	0.142000	0.671900
H1221	H122	0.338700	0.182100	0.676300
C2181	C218	0.364660	0.205700	0.155200
H1231	H123	0.369900	0.178400	0.211400
C2191	C219	0.320290	0.078600	0.606200
H1241	H124	0.335500	0.075700	0.564500
C2201	C220	0.377470	0.288300	0.028700
H1251	H125	0.391900	0.318600	0.995800
C2211	C221	0.347910	0.283000	0.996300
H1261	H126	0.342000	0.310300	0.940600
C2221	C222	0.416560	0.254000	0.147800
C2231	C223	0.441120	0.254100	0.180500
C2241	C224	0.472200	0.253900	0.218300
C2251	C225	0.476810	0.206700	0.307600
C2261	C226	0.493260	0.206300	0.157900
C2271	C227	0.386140	0.249100	0.109900
C2281	C228	0.470420	0.424000	0.215400
H1271	H127	0.450000	0.423600	0.191400
C2291	C229	0.455150	0.167400	0.354900
H1281	H128	0.434500	0.169000	0.333000
C2301	C230	0.463470	0.125300	0.434600
H1291	H129	0.448400	0.097000	0.466700
C2311	C231	0.492960	0.123300	0.468600
H1301	H130	0.498400	0.094000	0.523600
C2321	C232	0.485040	0.503300	0.232600
H1311	H131	0.474800	0.558000	0.220700
C2331	C233	0.485260	0.165200	0.078900
H1321	H132	0.464700	0.165000	0.056100
C2341	C234	0.485080	0.347100	0.232600
Zn71	Zn7	0.216870	0.749440	0.495640
O251	O25	0.224330	0.669950	0.601730
O261	O26	0.230900	0.351240	0.918420
O271	O27	0.274100	0.669320	0.606910
O281	O28	0.280660	0.355590	0.923300
N71	N7	0.172940	0.740900	0.460000
C2351	C235	0.279690	0.530600	0.847900
C2361	C236	0.253550	0.428300	0.743100
C2371	C237	0.253470	0.464600	0.838000
C2381	C238	0.250700	0.587200	0.715900
C2391	C239	0.252460	0.493100	0.679200
C2401	C240	0.223670	0.588400	0.773300
C2411	C241	0.225320	0.523000	0.839700
C2421	C242	0.203470	0.518600	0.900000
H1331	H133	0.204600	0.474700	0.945700
C2431	C243	0.277960	0.597000	0.783200
C2441	C244	0.253900	0.381600	0.566400
H1341	H134	0.254200	0.365600	0.505100
C2451	C245	0.254830	0.340200	0.719400
H1351	H135	0.255700	0.295400	0.764300
C2461	C246	0.302320	0.532600	0.915300
H1361	H136	0.303800	0.486700	0.959100
C2471	C247	0.254800	0.316700	0.630800
H1371	H137	0.255400	0.255600	0.614200
C2481	C248	0.298520	0.665200	0.787900
H1381	H138	0.297300	0.711100	0.744000
C2491	C249	0.320880	0.667300	0.855600
H1391	H139	0.335100	0.714800	0.858800
C2501	C250	0.249570	0.649200	0.635800
C2511	C251	0.255160	0.384800	0.900000
C2521	C252	0.322940	0.601500	0.919000
H1401	H140	0.338600	0.603300	0.965700
C2531	C253	0.200070	0.647900	0.768200
H1411	H141	0.199000	0.692900	0.723600
C2541	C254	0.164240	0.702400	0.381700
H1421	H142	0.179000	0.671300	0.350500
C2551	C255	0.252610	0.469800	0.590400
H1431	H143	0.251800	0.514600	0.545600
C2561	C256	0.177900	0.642000	0.828100
H1441	H144	0.161300	0.682100	0.823700
C2571	C257	0.135340	0.705700	0.344800
H1451	H145	0.130100	0.678400	0.288600
C2581	C258	0.179710	0.578600	0.893800
H1461	H146	0.164500	0.575700	0.935500
C2591	C259	0.122530	0.788300	0.471300
H1471	H147	0.108100	0.818600	0.504200
C2601	C260	0.152090	0.783000	0.503700
H1481	H148	0.158000	0.810300	0.559400
C2611	C261	0.083440	0.754000	0.352200
C2621	C262	0.058880	0.754100	0.319500
C2631	C263	0.027800	0.753900	0.281700
C2641	C264	0.023190	0.706700	0.192400
C2651	C265	0.006740	0.706300	0.342100
C2661	C266	0.113860	0.749100	0.390100
C2671	C267	0.029580	0.924000	0.284600
H1491	H149	0.050000	0.923600	0.308600
C2681	C268	0.044850	0.667400	0.145100
H1501	H150	0.065500	0.669000	0.167000
C2691	C269	0.036530	0.625300	0.065400
H1511	H151	0.051600	0.597000	0.033300
C2701	C270	0.007040	0.623300	0.031400
H1521	H152	0.001600	0.594000	0.976400
C2711	C271	0.014960	0.003300	0.267400
H1531	H153	0.025200	0.058000	0.279300
C2721	C272	0.014740	0.665200	0.421100
H1541	H154	0.035300	0.665000	0.443900
C2731	C273	0.014920	0.847100	0.267400
Zn81	Zn8	0.716870	0.249440	0.495640
O291	O29	0.724330	0.169950	0.601730
O301	O30	0.730900	0.851240	0.918420
O311	O31	0.774100	0.169320	0.606910
O321	O32	0.780660	0.855590	0.923300
N81	N8	0.672940	0.240900	0.460000
C2741	C274	0.779690	0.030600	0.847900
C2751	C275	0.753550	0.928300	0.743100
C2761	C276	0.753470	0.964600	0.838000
C2771	C277	0.750700	0.087200	0.715900
C2781	C278	0.752460	0.993100	0.679200
C2791	C279	0.723670	0.088400	0.773300
C2801	C280	0.725320	0.023000	0.839700
C2811	C281	0.703470	0.018600	0.900000
H1551	H155	0.704600	0.974700	0.945700
C2821	C282	0.777960	0.097000	0.783200
C2831	C283	0.753900	0.881600	0.566400
H1561	H156	0.754200	0.865600	0.505100
C2841	C284	0.754830	0.840200	0.719400
H1571	H157	0.755700	0.795400	0.764300
C2851	C285	0.802320	0.032600	0.915300
H1581	H158	0.803800	0.986700	0.959100
C2861	C286	0.754800	0.816700	0.630800
H1591	H159	0.755400	0.755600	0.614200
C2871	C287	0.798520	0.165200	0.787900
H1601	H160	0.797300	0.211100	0.744000
C2881	C288	0.820880	0.167300	0.855600
H1611	H161	0.835100	0.214800	0.858800
C2891	C289	0.749570	0.149200	0.635800
C2901	C290	0.755160	0.884800	0.900000
C2911	C291	0.822940	0.101500	0.919000
H1621	H162	0.838600	0.103300	0.965700
C2921	C292	0.700070	0.147900	0.768200
H1631	H163	0.699000	0.192900	0.723600
C2931	C293	0.664240	0.202400	0.381700
H1641	H164	0.679000	0.171300	0.350500
C2941	C294	0.752610	0.969800	0.590400
H1651	H165	0.751800	0.014600	0.545600
C2951	C295	0.677900	0.142000	0.828100
H1661	H166	0.661300	0.182100	0.823700
C2961	C296	0.635340	0.205700	0.344800
H1671	H167	0.630100	0.178400	0.288600
C2971	C297	0.679710	0.078600	0.893800
H1681	H168	0.664500	0.075700	0.935500
C2981	C298	0.622530	0.288300	0.471300
H1691	H169	0.608100	0.318600	0.504200
C2991	C299	0.652090	0.283000	0.503700
H1701	H170	0.658000	0.310300	0.559400
C3001	C300	0.583440	0.254000	0.352200
C3011	C301	0.558880	0.254100	0.319500
C3021	C302	0.527800	0.253900	0.281700
C3031	C303	0.523190	0.206700	0.192400
C3041	C304	0.506740	0.206300	0.342100
C3051	C305	0.613860	0.249100	0.390100
C3061	C306	0.529580	0.424000	0.284600
H1711	H171	0.550000	0.423600	0.308600
C3071	C307	0.544850	0.167400	0.145100
H1721	H172	0.565500	0.169000	0.167000
C3081	C308	0.536530	0.125300	0.065400
H1731	H173	0.551600	0.097000	0.033300
C3091	C309	0.507040	0.123300	0.031400
H1741	H174	0.501600	0.094000	0.976400
C3101	C310	0.514960	0.503300	0.267400
H1751	H175	0.525200	0.558000	0.279300
C3111	C311	0.514740	0.165200	0.421100
H1761	H176	0.535300	0.165000	0.443900
C3121	C312	0.514920	0.347100	0.267400
