data_ETUWIA_freeONLY_PM
_symmetry_space_group_name_H-M	'P1'
_cell_length_a	9.600800
_cell_length_b	11.542200
_cell_length_c	14.288600
_cell_angle_alpha	90.000000
_cell_angle_beta	122.460000
_cell_angle_gamma	90.000000
_symmetry_Int_Tables_number 1

loop_
_symmetry_equiv_pos_as_xyz
'x,y,z'

loop_
_atom_site_label
_atom_site_type_symbol
_atom_site_fract_x
_atom_site_fract_y
_atom_site_fract_z
Y11	Y1	0.617700	0.988460	0.332570
O11	O1	0.704900	0.789900	0.342860
O21	O2	0.616700	0.607330	0.295000
O31	O3	0.305400	0.683340	0.170130
O41	O4	0.395900	0.865350	0.207430
O51	O5	0.519800	0.882680	0.431900
O61	O6	0.461300	0.887620	0.563300
O71	O7	0.889200	0.991230	0.356400
O81	O8	0.161100	0.010360	0.478480
O91	O9	0.604400	0.980800	0.157800
H11	H1	0.617000	0.039000	0.129000
H21	H2	0.568000	0.931000	0.122000
C11	C1	0.596000	0.714800	0.291900
C21	C2	0.416300	0.758700	0.216600
C31	C3	0.494700	0.933500	0.498400
C41	C4	0.015100	0.000500	0.452400
Y21	Y2	0.382300	0.488460	0.167430
O101	O10	0.295100	0.289900	0.157140
O111	O11	0.383300	0.107330	0.205000
O121	O12	0.694600	0.183340	0.329870
O131	O13	0.604100	0.365350	0.292570
O141	O14	0.480200	0.382680	0.068100
O151	O15	0.538700	0.387620	0.936700
O161	O16	0.110800	0.491230	0.143600
O171	O17	0.838900	0.510360	0.021520
O181	O18	0.395600	0.480800	0.342200
H31	H3	0.383000	0.539000	0.371000
H41	H4	0.432000	0.431000	0.378000
C51	C5	0.404000	0.214800	0.208100
C61	C6	0.583700	0.258700	0.283400
C71	C7	0.505300	0.433500	0.001600
C81	C8	0.984900	0.500500	0.047600
Y31	Y3	0.382300	0.011540	0.667430
O191	O19	0.295100	0.210100	0.657140
O201	O20	0.383300	0.392670	0.705000
O211	O21	0.694600	0.316660	0.829870
O221	O22	0.604100	0.134650	0.792570
O231	O23	0.480200	0.117320	0.568100
O241	O24	0.538700	0.112380	0.436700
O251	O25	0.110800	0.008770	0.643600
O261	O26	0.838900	0.989640	0.521520
O271	O27	0.395600	0.019200	0.842200
H51	H5	0.383000	0.961000	0.871000
H61	H6	0.432000	0.069000	0.878000
C91	C9	0.404000	0.285200	0.708100
C101	C10	0.583700	0.241300	0.783400
C111	C11	0.505300	0.066500	0.501600
C121	C12	0.984900	0.999500	0.547600
Y41	Y4	0.617700	0.511540	0.832570
O281	O28	0.704900	0.710100	0.842860
O291	O29	0.616700	0.892670	0.795000
O301	O30	0.305400	0.816660	0.670130
O311	O31	0.395900	0.634650	0.707430
O321	O32	0.519800	0.617320	0.931900
O331	O33	0.461300	0.612380	0.063300
O341	O34	0.889200	0.508770	0.856400
O351	O35	0.161100	0.489640	0.978480
O361	O36	0.604400	0.519200	0.657800
H71	H7	0.617000	0.461000	0.629000
H81	H8	0.568000	0.569000	0.622000
C131	C13	0.596000	0.785200	0.791900
C141	C14	0.416300	0.741300	0.716600
C151	C15	0.494700	0.566500	0.998400
C161	C16	0.015100	0.499500	0.952400
