data_EVEGIV_freeONLY_PM
_symmetry_space_group_name_H-M	'P1'
_cell_length_a	23.040000
_cell_length_b	23.040000
_cell_length_c	25.139800
_cell_angle_alpha	90.000000
_cell_angle_beta	90.000000
_cell_angle_gamma	120.000000
_symmetry_Int_Tables_number 1

loop_
_symmetry_equiv_pos_as_xyz
'x,y,z'

loop_
_atom_site_label
_atom_site_type_symbol
_atom_site_fract_x
_atom_site_fract_y
_atom_site_fract_z
N11	N1	0.632370	0.868740	0.680600
C11	C1	0.695190	0.900230	0.705600
H11	H1	0.716510	0.946580	0.714080
N21	N2	0.848220	0.046690	0.453700
C21	C2	0.865530	0.029580	0.405190
H21	H2	0.835650	0.988110	0.388610
N31	N3	0.672360	0.947570	0.522480
C31	C3	0.550520	0.857210	0.570700
H31	H3	0.509180	0.826550	0.587070
C41	C4	0.621230	0.896530	0.492350
H41	H4	0.627860	0.892540	0.455520
C51	C5	0.662570	0.953430	0.576720
C61	C6	0.560310	0.851350	0.516460
H51	H5	0.525600	0.816700	0.496000
N41	N4	0.601650	0.908250	0.600830
O11	O1	0.708240	0.999020	0.603650
N51	N5	0.299040	0.202070	0.013930
C71	C7	0.361860	0.233560	0.038930
H61	H6	0.383180	0.279910	0.047410
N61	N6	0.514890	0.380020	0.787030
C81	C8	0.532200	0.362910	0.738520
H71	H7	0.502320	0.321440	0.721940
N71	N7	0.339030	0.280900	0.855810
C91	C9	0.217190	0.190540	0.904030
H81	H8	0.175850	0.159880	0.920400
C101	C10	0.287900	0.229860	0.825680
H91	H9	0.294530	0.225870	0.788850
C111	C11	0.329240	0.286760	0.910050
C121	C12	0.226980	0.184680	0.849790
H101	H10	0.192270	0.150030	0.829330
N81	N8	0.268320	0.241580	0.934160
O21	O2	0.374910	0.332350	0.936980
N91	N9	0.965700	0.535410	0.347270
C131	C13	0.028520	0.566900	0.372270
H111	H11	0.049840	0.613250	0.380750
N101	N10	0.181550	0.713360	0.120370
C141	C14	0.198860	0.696250	0.071860
H121	H12	0.168980	0.654780	0.055280
N111	N11	0.005690	0.614240	0.189150
C151	C15	0.883850	0.523880	0.237370
H131	H13	0.842510	0.493220	0.253740
C161	C16	0.954560	0.563200	0.159020
H141	H14	0.961190	0.559210	0.122190
C171	C17	0.995900	0.620100	0.243390
C181	C18	0.893640	0.518020	0.183130
H151	H15	0.858930	0.483370	0.162670
N121	N12	0.934980	0.574920	0.267500
O31	O3	0.041570	0.665690	0.270320
N131	N13	0.131260	0.763630	0.680600
C191	C19	0.099770	0.794960	0.705600
H161	H16	0.053420	0.769930	0.714080
N141	N14	0.953310	0.801530	0.453700
C201	C20	0.970420	0.835950	0.405190
H171	H17	0.011890	0.847540	0.388610
N151	N15	0.052430	0.724790	0.522480
C211	C21	0.142790	0.693310	0.570700
H181	H18	0.173450	0.682630	0.587070
C221	C22	0.103470	0.724700	0.492350
H191	H19	0.107460	0.735320	0.455520
C231	C23	0.046570	0.709140	0.576720
C241	C24	0.148650	0.708960	0.516460
H201	H20	0.183300	0.708900	0.496000
N161	N16	0.091750	0.693400	0.600830
O41	O4	0.000980	0.709220	0.603650
N171	N17	0.797930	0.096960	0.013930
C251	C25	0.766440	0.128290	0.038930
H211	H21	0.720090	0.103260	0.047410
N181	N18	0.619980	0.134860	0.787030
C261	C26	0.637090	0.169280	0.738520
H221	H22	0.678560	0.180870	0.721940
N191	N19	0.719100	0.058120	0.855810
C271	C27	0.809460	0.026640	0.904030
H231	H23	0.840120	0.015960	0.920400
C281	C28	0.770140	0.058030	0.825680
H241	H24	0.774130	0.068650	0.788850
C291	C29	0.713240	0.042470	0.910050
C301	C30	0.815320	0.042290	0.849790
H251	H25	0.849970	0.042230	0.829330
N201	N20	0.758420	0.026730	0.934160
O51	O5	0.667650	0.042550	0.936980
N211	N21	0.464590	0.430300	0.347270
C311	C31	0.433100	0.461630	0.372270
H261	H26	0.386750	0.436600	0.380750
N221	N22	0.286640	0.468200	0.120370
C321	C32	0.303750	0.502620	0.071860
H271	H27	0.345220	0.514210	0.055280
N231	N23	0.385760	0.391460	0.189150
C331	C33	0.476120	0.359980	0.237370
H281	H28	0.506780	0.349300	0.253740
C341	C34	0.436800	0.391370	0.159020
H291	H29	0.440790	0.401990	0.122190
C351	C35	0.379900	0.375810	0.243390
C361	C36	0.481980	0.375630	0.183130
H301	H30	0.516630	0.375570	0.162670
N241	N24	0.425080	0.360070	0.267500
O61	O6	0.334310	0.375890	0.270320
N251	N25	0.236370	0.367630	0.680600
C371	C37	0.205040	0.304810	0.705600
H311	H31	0.230070	0.283490	0.714080
N261	N26	0.198470	0.151780	0.453700
C381	C38	0.164050	0.134470	0.405190
H321	H32	0.152460	0.164350	0.388610
N271	N27	0.275210	0.327640	0.522480
C391	C39	0.306690	0.449480	0.570700
H331	H33	0.317370	0.490820	0.587070
C401	C40	0.275300	0.378770	0.492350
H341	H34	0.264680	0.372140	0.455520
C411	C41	0.290860	0.337430	0.576720
C421	C42	0.291040	0.439690	0.516460
H351	H35	0.291100	0.474400	0.496000
N281	N28	0.306600	0.398350	0.600830
O71	O7	0.290780	0.291760	0.603650
N291	N29	0.903040	0.700960	0.013930
C431	C43	0.871710	0.638140	0.038930
H361	H36	0.896740	0.616820	0.047410
N301	N30	0.865140	0.485110	0.787030
C441	C44	0.830720	0.467800	0.738520
H371	H37	0.819130	0.497680	0.721940
N311	N31	0.941880	0.660970	0.855810
C451	C45	0.973360	0.782810	0.904030
H381	H38	0.984040	0.824150	0.920400
C461	C46	0.941970	0.712100	0.825680
H391	H39	0.931350	0.705470	0.788850
C471	C47	0.957530	0.670760	0.910050
C481	C48	0.957710	0.773020	0.849790
H401	H40	0.957770	0.807730	0.829330
N321	N32	0.973270	0.731680	0.934160
O81	O8	0.957450	0.625090	0.936980
N331	N33	0.569700	0.034300	0.347270
C491	C49	0.538370	0.971480	0.372270
H411	H41	0.563400	0.950160	0.380750
N341	N34	0.531800	0.818450	0.120370
C501	C50	0.497380	0.801140	0.071860
H421	H42	0.485790	0.831020	0.055280
N351	N35	0.608540	0.994310	0.189150
C511	C51	0.640020	0.116150	0.237370
H431	H43	0.650700	0.157490	0.253740
C521	C52	0.608630	0.045440	0.159020
H441	H44	0.598010	0.038810	0.122190
C531	C53	0.624190	0.004100	0.243390
C541	C54	0.624370	0.106360	0.183130
H451	H45	0.624430	0.141070	0.162670
N361	N36	0.639930	0.065020	0.267500
O91	O9	0.624110	0.958430	0.270320
N371	N37	0.868740	0.632370	0.319400
C551	C55	0.900230	0.695190	0.294400
H461	H46	0.946580	0.716510	0.285920
N381	N38	0.046690	0.848220	0.546300
C561	C56	0.029580	0.865530	0.594810
H471	H47	0.988110	0.835650	0.611390
N391	N39	0.947570	0.672360	0.477520
C571	C57	0.857210	0.550520	0.429300
H481	H48	0.826550	0.509180	0.412930
C581	C58	0.896530	0.621230	0.507650
H491	H49	0.892540	0.627860	0.544480
C591	C59	0.953430	0.662570	0.423280
C601	C60	0.851350	0.560310	0.483540
H501	H50	0.816700	0.525600	0.504000
N401	N40	0.908250	0.601650	0.399170
O101	O10	0.999020	0.708240	0.396350
N411	N41	0.535410	0.965700	0.652730
C611	C61	0.566900	0.028520	0.627730
H511	H51	0.613250	0.049840	0.619250
N421	N42	0.713360	0.181550	0.879630
C621	C62	0.696250	0.198860	0.928140
H521	H52	0.654780	0.168980	0.944720
N431	N43	0.614240	0.005690	0.810850
C631	C63	0.523880	0.883850	0.762630
H531	H53	0.493220	0.842510	0.746260
C641	C64	0.563200	0.954560	0.840980
H541	H54	0.559210	0.961190	0.877810
C651	C65	0.620100	0.995900	0.756610
C661	C66	0.518020	0.893640	0.816870
H551	H55	0.483370	0.858930	0.837330
N441	N44	0.574920	0.934980	0.732500
O111	O11	0.665690	0.041570	0.729680
N451	N45	0.202070	0.299040	0.986070
C671	C67	0.233560	0.361860	0.961070
H561	H56	0.279910	0.383180	0.952590
N461	N46	0.380020	0.514890	0.212970
C681	C68	0.362910	0.532200	0.261480
H571	H57	0.321440	0.502320	0.278060
N471	N47	0.280900	0.339030	0.144190
C691	C69	0.190540	0.217190	0.095970
H581	H58	0.159880	0.175850	0.079600
C701	C70	0.229860	0.287900	0.174320
H591	H59	0.225870	0.294530	0.211150
C711	C71	0.286760	0.329240	0.089950
C721	C72	0.184680	0.226980	0.150210
H601	H60	0.150030	0.192270	0.170670
N481	N48	0.241580	0.268320	0.065840
O121	O12	0.332350	0.374910	0.063020
N491	N49	0.763630	0.131260	0.319400
C731	C73	0.794960	0.099770	0.294400
H611	H61	0.769930	0.053420	0.285920
N501	N50	0.801530	0.953310	0.546300
C741	C74	0.835950	0.970420	0.594810
H621	H62	0.847540	0.011890	0.611390
N511	N51	0.724790	0.052430	0.477520
C751	C75	0.693310	0.142790	0.429300
H631	H63	0.682630	0.173450	0.412930
C761	C76	0.724700	0.103470	0.507650
H641	H64	0.735320	0.107460	0.544480
C771	C77	0.709140	0.046570	0.423280
C781	C78	0.708960	0.148650	0.483540
H651	H65	0.708900	0.183300	0.504000
N521	N52	0.693400	0.091750	0.399170
O131	O13	0.709220	0.000980	0.396350
N531	N53	0.430300	0.464590	0.652730
C791	C79	0.461630	0.433100	0.627730
H661	H66	0.436600	0.386750	0.619250
N541	N54	0.468200	0.286640	0.879630
C801	C80	0.502620	0.303750	0.928140
H671	H67	0.514210	0.345220	0.944720
N551	N55	0.391460	0.385760	0.810850
C811	C81	0.359980	0.476120	0.762630
H681	H68	0.349300	0.506780	0.746260
C821	C82	0.391370	0.436800	0.840980
H691	H69	0.401990	0.440790	0.877810
C831	C83	0.375810	0.379900	0.756610
C841	C84	0.375630	0.481980	0.816870
H701	H70	0.375570	0.516630	0.837330
N561	N56	0.360070	0.425080	0.732500
O141	O14	0.375890	0.334310	0.729680
N571	N57	0.096960	0.797930	0.986070
C851	C85	0.128290	0.766440	0.961070
H711	H71	0.103260	0.720090	0.952590
N581	N58	0.134860	0.619980	0.212970
C861	C86	0.169280	0.637090	0.261480
H721	H72	0.180870	0.678560	0.278060
N591	N59	0.058120	0.719100	0.144190
C871	C87	0.026640	0.809460	0.095970
H731	H73	0.015960	0.840120	0.079600
C881	C88	0.058030	0.770140	0.174320
H741	H74	0.068650	0.774130	0.211150
C891	C89	0.042470	0.713240	0.089950
C901	C90	0.042290	0.815320	0.150210
H751	H75	0.042230	0.849970	0.170670
N601	N60	0.026730	0.758420	0.065840
O151	O15	0.042550	0.667650	0.063020
N611	N61	0.367630	0.236370	0.319400
C911	C91	0.304810	0.205040	0.294400
H761	H76	0.283490	0.230070	0.285920
N621	N62	0.151780	0.198470	0.546300
C921	C92	0.134470	0.164050	0.594810
H771	H77	0.164350	0.152460	0.611390
N631	N63	0.327640	0.275210	0.477520
C931	C93	0.449480	0.306690	0.429300
H781	H78	0.490820	0.317370	0.412930
C941	C94	0.378770	0.275300	0.507650
H791	H79	0.372140	0.264680	0.544480
C951	C95	0.337430	0.290860	0.423280
C961	C96	0.439690	0.291040	0.483540
H801	H80	0.474400	0.291100	0.504000
N641	N64	0.398350	0.306600	0.399170
O161	O16	0.291760	0.290780	0.396350
N651	N65	0.034300	0.569700	0.652730
C971	C97	0.971480	0.538370	0.627730
H811	H81	0.950160	0.563400	0.619250
N661	N66	0.818450	0.531800	0.879630
C981	C98	0.801140	0.497380	0.928140
H821	H82	0.831020	0.485790	0.944720
N671	N67	0.994310	0.608540	0.810850
C991	C99	0.116150	0.640020	0.762630
H831	H83	0.157490	0.650700	0.746260
C1001	C100	0.045440	0.608630	0.840980
H841	H84	0.038810	0.598010	0.877810
C1011	C101	0.004100	0.624190	0.756610
C1021	C102	0.106360	0.624370	0.816870
H851	H85	0.141070	0.624430	0.837330
N681	N68	0.065020	0.639930	0.732500
O171	O17	0.958430	0.624110	0.729680
N691	N69	0.700960	0.903040	0.986070
C1031	C103	0.638140	0.871710	0.961070
H861	H86	0.616820	0.896740	0.952590
N701	N70	0.485110	0.865140	0.212970
C1041	C104	0.467800	0.830720	0.261480
H871	H87	0.497680	0.819130	0.278060
N711	N71	0.660970	0.941880	0.144190
C1051	C105	0.782810	0.973360	0.095970
H881	H88	0.824150	0.984040	0.079600
C1061	C106	0.712100	0.941970	0.174320
H891	H89	0.705470	0.931350	0.211150
C1071	C107	0.670760	0.957530	0.089950
C1081	C108	0.773020	0.957710	0.150210
H901	H90	0.807730	0.957770	0.170670
N721	N72	0.731680	0.973270	0.065840
O181	O18	0.625090	0.957450	0.063020
N731	N73	0.367630	0.131260	0.319400
C1091	C109	0.304810	0.099770	0.294400
H911	H91	0.283490	0.053420	0.285920
N741	N74	0.151780	0.953310	0.546300
C1101	C110	0.134470	0.970420	0.594810
H921	H92	0.164350	0.011890	0.611390
N751	N75	0.327640	0.052430	0.477520
C1111	C111	0.449480	0.142790	0.429300
H931	H93	0.490820	0.173450	0.412930
C1121	C112	0.378770	0.103470	0.507650
H941	H94	0.372140	0.107460	0.544480
C1131	C113	0.337430	0.046570	0.423280
C1141	C114	0.439690	0.148650	0.483540
H951	H95	0.474400	0.183300	0.504000
N761	N76	0.398350	0.091750	0.399170
O191	O19	0.291760	0.000980	0.396350
N771	N77	0.034300	0.464590	0.652730
C1151	C115	0.971480	0.433100	0.627730
H961	H96	0.950160	0.386750	0.619250
N781	N78	0.818450	0.286640	0.879630
C1161	C116	0.801140	0.303750	0.928140
H971	H97	0.831020	0.345220	0.944720
N791	N79	0.994310	0.385760	0.810850
C1171	C117	0.116150	0.476120	0.762630
H981	H98	0.157490	0.506780	0.746260
C1181	C118	0.045440	0.436800	0.840980
H991	H99	0.038810	0.440790	0.877810
C1191	C119	0.004100	0.379900	0.756610
C1201	C120	0.106360	0.481980	0.816870
H1001	H100	0.141070	0.516630	0.837330
N801	N80	0.065020	0.425080	0.732500
O201	O20	0.958430	0.334310	0.729680
N811	N81	0.700960	0.797930	0.986070
C1211	C121	0.638140	0.766440	0.961070
H1011	H101	0.616820	0.720090	0.952590
N821	N82	0.485110	0.619980	0.212970
C1221	C122	0.467800	0.637090	0.261480
H1021	H102	0.497680	0.678560	0.278060
N831	N83	0.660970	0.719100	0.144190
C1231	C123	0.782810	0.809460	0.095970
H1031	H103	0.824150	0.840120	0.079600
C1241	C124	0.712100	0.770140	0.174320
H1041	H104	0.705470	0.774130	0.211150
C1251	C125	0.670760	0.713240	0.089950
C1261	C126	0.773020	0.815320	0.150210
H1051	H105	0.807730	0.849970	0.170670
N841	N84	0.731680	0.758420	0.065840
O211	O21	0.625090	0.667650	0.063020
N851	N85	0.868740	0.236370	0.319400
C1271	C127	0.900230	0.205040	0.294400
H1061	H106	0.946580	0.230070	0.285920
N861	N86	0.046690	0.198470	0.546300
C1281	C128	0.029580	0.164050	0.594810
H1071	H107	0.988110	0.152460	0.611390
N871	N87	0.947570	0.275210	0.477520
C1291	C129	0.857210	0.306690	0.429300
H1081	H108	0.826550	0.317370	0.412930
C1301	C130	0.896530	0.275300	0.507650
H1091	H109	0.892540	0.264680	0.544480
C1311	C131	0.953430	0.290860	0.423280
C1321	C132	0.851350	0.291040	0.483540
H1101	H110	0.816700	0.291100	0.504000
N881	N88	0.908250	0.306600	0.399170
O221	O22	0.999020	0.290780	0.396350
N891	N89	0.535410	0.569700	0.652730
C1331	C133	0.566900	0.538370	0.627730
H1111	H111	0.613250	0.563400	0.619250
N901	N90	0.713360	0.531800	0.879630
C1341	C134	0.696250	0.497380	0.928140
H1121	H112	0.654780	0.485790	0.944720
N911	N91	0.614240	0.608540	0.810850
C1351	C135	0.523880	0.640020	0.762630
H1131	H113	0.493220	0.650700	0.746260
C1361	C136	0.563200	0.608630	0.840980
H1141	H114	0.559210	0.598010	0.877810
C1371	C137	0.620100	0.624190	0.756610
C1381	C138	0.518020	0.624370	0.816870
H1151	H115	0.483370	0.624430	0.837330
N921	N92	0.574920	0.639930	0.732500
O231	O23	0.665690	0.624110	0.729680
N931	N93	0.202070	0.903040	0.986070
C1391	C139	0.233560	0.871710	0.961070
H1161	H116	0.279910	0.896740	0.952590
N941	N94	0.380020	0.865140	0.212970
C1401	C140	0.362910	0.830720	0.261480
H1171	H117	0.321440	0.819130	0.278060
N951	N95	0.280900	0.941880	0.144190
C1411	C141	0.190540	0.973360	0.095970
H1181	H118	0.159880	0.984040	0.079600
C1421	C142	0.229860	0.941970	0.174320
H1191	H119	0.225870	0.931350	0.211150
C1431	C143	0.286760	0.957530	0.089950
C1441	C144	0.184680	0.957710	0.150210
H1201	H120	0.150030	0.957770	0.170670
N961	N96	0.241580	0.973270	0.065840
O241	O24	0.332350	0.957450	0.063020
N971	N97	0.763630	0.632370	0.319400
C1451	C145	0.794960	0.695190	0.294400
H1211	H121	0.769930	0.716510	0.285920
N981	N98	0.801530	0.848220	0.546300
C1461	C146	0.835950	0.865530	0.594810
H1221	H122	0.847540	0.835650	0.611390
N991	N99	0.724790	0.672360	0.477520
C1471	C147	0.693310	0.550520	0.429300
H1231	H123	0.682630	0.509180	0.412930
C1481	C148	0.724700	0.621230	0.507650
H1241	H124	0.735320	0.627860	0.544480
C1491	C149	0.709140	0.662570	0.423280
C1501	C150	0.708960	0.560310	0.483540
H1251	H125	0.708900	0.525600	0.504000
N1001	N100	0.693400	0.601650	0.399170
O251	O25	0.709220	0.708240	0.396350
N1011	N101	0.430300	0.965700	0.652730
C1511	C151	0.461630	0.028520	0.627730
H1261	H126	0.436600	0.049840	0.619250
N1021	N102	0.468200	0.181550	0.879630
C1521	C152	0.502620	0.198860	0.928140
H1271	H127	0.514210	0.168980	0.944720
N1031	N103	0.391460	0.005690	0.810850
C1531	C153	0.359980	0.883850	0.762630
H1281	H128	0.349300	0.842510	0.746260
C1541	C154	0.391370	0.954560	0.840980
H1291	H129	0.401990	0.961190	0.877810
C1551	C155	0.375810	0.995900	0.756610
C1561	C156	0.375630	0.893640	0.816870
H1301	H130	0.375570	0.858930	0.837330
N1041	N104	0.360070	0.934980	0.732500
O261	O26	0.375890	0.041570	0.729680
N1051	N105	0.096960	0.299040	0.986070
C1571	C157	0.128290	0.361860	0.961070
H1311	H131	0.103260	0.383180	0.952590
N1061	N106	0.134860	0.514890	0.212970
C1581	C158	0.169280	0.532200	0.261480
H1321	H132	0.180870	0.502320	0.278060
N1071	N107	0.058120	0.339030	0.144190
C1591	C159	0.026640	0.217190	0.095970
H1331	H133	0.015960	0.175850	0.079600
C1601	C160	0.058030	0.287900	0.174320
H1341	H134	0.068650	0.294530	0.211150
C1611	C161	0.042470	0.329240	0.089950
C1621	C162	0.042290	0.226980	0.150210
H1351	H135	0.042230	0.192270	0.170670
N1081	N108	0.026730	0.268320	0.065840
O271	O27	0.042550	0.374910	0.063020
N1091	N109	0.131260	0.367630	0.680600
C1631	C163	0.099770	0.304810	0.705600
H1361	H136	0.053420	0.283490	0.714080
N1101	N110	0.953310	0.151780	0.453700
C1641	C164	0.970420	0.134470	0.405190
H1371	H137	0.011890	0.164350	0.388610
N1111	N111	0.052430	0.327640	0.522480
C1651	C165	0.142790	0.449480	0.570700
H1381	H138	0.173450	0.490820	0.587070
C1661	C166	0.103470	0.378770	0.492350
H1391	H139	0.107460	0.372140	0.455520
C1671	C167	0.046570	0.337430	0.576720
C1681	C168	0.148650	0.439690	0.516460
H1401	H140	0.183300	0.474400	0.496000
N1121	N112	0.091750	0.398350	0.600830
O281	O28	0.000980	0.291760	0.603650
N1131	N113	0.797930	0.700960	0.013930
C1691	C169	0.766440	0.638140	0.038930
H1411	H141	0.720090	0.616820	0.047410
N1141	N114	0.619980	0.485110	0.787030
C1701	C170	0.637090	0.467800	0.738520
H1421	H142	0.678560	0.497680	0.721940
N1151	N115	0.719100	0.660970	0.855810
C1711	C171	0.809460	0.782810	0.904030
H1431	H143	0.840120	0.824150	0.920400
C1721	C172	0.770140	0.712100	0.825680
H1441	H144	0.774130	0.705470	0.788850
C1731	C173	0.713240	0.670760	0.910050
C1741	C174	0.815320	0.773020	0.849790
H1451	H145	0.849970	0.807730	0.829330
N1161	N116	0.758420	0.731680	0.934160
O291	O29	0.667650	0.625090	0.936980
N1171	N117	0.464590	0.034300	0.347270
C1751	C175	0.433100	0.971480	0.372270
H1461	H146	0.386750	0.950160	0.380750
N1181	N118	0.286640	0.818450	0.120370
C1761	C176	0.303750	0.801140	0.071860
H1471	H147	0.345220	0.831020	0.055280
N1191	N119	0.385760	0.994310	0.189150
C1771	C177	0.476120	0.116150	0.237370
H1481	H148	0.506780	0.157490	0.253740
C1781	C178	0.436800	0.045440	0.159020
H1491	H149	0.440790	0.038810	0.122190
C1791	C179	0.379900	0.004100	0.243390
C1801	C180	0.481980	0.106360	0.183130
H1501	H150	0.516630	0.141070	0.162670
N1201	N120	0.425080	0.065020	0.267500
O301	O30	0.334310	0.958430	0.270320
N1211	N121	0.236370	0.868740	0.680600
C1811	C181	0.205040	0.900230	0.705600
H1511	H151	0.230070	0.946580	0.714080
N1221	N122	0.198470	0.046690	0.453700
C1821	C182	0.164050	0.029580	0.405190
H1521	H152	0.152460	0.988110	0.388610
N1231	N123	0.275210	0.947570	0.522480
C1831	C183	0.306690	0.857210	0.570700
H1531	H153	0.317370	0.826550	0.587070
C1841	C184	0.275300	0.896530	0.492350
H1541	H154	0.264680	0.892540	0.455520
C1851	C185	0.290860	0.953430	0.576720
C1861	C186	0.291040	0.851350	0.516460
H1551	H155	0.291100	0.816700	0.496000
N1241	N124	0.306600	0.908250	0.600830
O311	O31	0.290780	0.999020	0.603650
N1251	N125	0.903040	0.202070	0.013930
C1871	C187	0.871710	0.233560	0.038930
H1561	H156	0.896740	0.279910	0.047410
N1261	N126	0.865140	0.380020	0.787030
C1881	C188	0.830720	0.362910	0.738520
H1571	H157	0.819130	0.321440	0.721940
N1271	N127	0.941880	0.280900	0.855810
C1891	C189	0.973360	0.190540	0.904030
H1581	H158	0.984040	0.159880	0.920400
C1901	C190	0.941970	0.229860	0.825680
H1591	H159	0.931350	0.225870	0.788850
C1911	C191	0.957530	0.286760	0.910050
C1921	C192	0.957710	0.184680	0.849790
H1601	H160	0.957770	0.150030	0.829330
N1281	N128	0.973270	0.241580	0.934160
O321	O32	0.957450	0.332350	0.936980
N1291	N129	0.569700	0.535410	0.347270
C1931	C193	0.538370	0.566900	0.372270
H1611	H161	0.563400	0.613250	0.380750
N1301	N130	0.531800	0.713360	0.120370
C1941	C194	0.497380	0.696250	0.071860
H1621	H162	0.485790	0.654780	0.055280
N1311	N131	0.608540	0.614240	0.189150
C1951	C195	0.640020	0.523880	0.237370
H1631	H163	0.650700	0.493220	0.253740
C1961	C196	0.608630	0.563200	0.159020
H1641	H164	0.598010	0.559210	0.122190
C1971	C197	0.624190	0.620100	0.243390
C1981	C198	0.624370	0.518020	0.183130
H1651	H165	0.624430	0.483370	0.162670
N1321	N132	0.639930	0.574920	0.267500
O331	O33	0.624110	0.665690	0.270320
N1331	N133	0.632370	0.763630	0.680600
C1991	C199	0.695190	0.794960	0.705600
H1661	H166	0.716510	0.769930	0.714080
N1341	N134	0.848220	0.801530	0.453700
C2001	C200	0.865530	0.835950	0.405190
H1671	H167	0.835650	0.847540	0.388610
N1351	N135	0.672360	0.724790	0.522480
C2011	C201	0.550520	0.693310	0.570700
H1681	H168	0.509180	0.682630	0.587070
C2021	C202	0.621230	0.724700	0.492350
H1691	H169	0.627860	0.735320	0.455520
C2031	C203	0.662570	0.709140	0.576720
C2041	C204	0.560310	0.708960	0.516460
H1701	H170	0.525600	0.708900	0.496000
N1361	N136	0.601650	0.693400	0.600830
O341	O34	0.708240	0.709220	0.603650
N1371	N137	0.299040	0.096960	0.013930
C2051	C205	0.361860	0.128290	0.038930
H1711	H171	0.383180	0.103260	0.047410
N1381	N138	0.514890	0.134860	0.787030
C2061	C206	0.532200	0.169280	0.738520
H1721	H172	0.502320	0.180870	0.721940
N1391	N139	0.339030	0.058120	0.855810
C2071	C207	0.217190	0.026640	0.904030
H1731	H173	0.175850	0.015960	0.920400
C2081	C208	0.287900	0.058030	0.825680
H1741	H174	0.294530	0.068650	0.788850
C2091	C209	0.329240	0.042470	0.910050
C2101	C210	0.226980	0.042290	0.849790
H1751	H175	0.192270	0.042230	0.829330
N1401	N140	0.268320	0.026730	0.934160
O351	O35	0.374910	0.042550	0.936980
N1411	N141	0.965700	0.430300	0.347270
C2111	C211	0.028520	0.461630	0.372270
H1761	H176	0.049840	0.436600	0.380750
N1421	N142	0.181550	0.468200	0.120370
C2121	C212	0.198860	0.502620	0.071860
H1771	H177	0.168980	0.514210	0.055280
N1431	N143	0.005690	0.391460	0.189150
C2131	C213	0.883850	0.359980	0.237370
H1781	H178	0.842510	0.349300	0.253740
C2141	C214	0.954560	0.391370	0.159020
H1791	H179	0.961190	0.401990	0.122190
C2151	C215	0.995900	0.375810	0.243390
C2161	C216	0.893640	0.375630	0.183130
H1801	H180	0.858930	0.375570	0.162670
N1441	N144	0.934980	0.360070	0.267500
O361	O36	0.041570	0.375890	0.270320
Cu11	Cu1	0.767470	0.000000	0.500000
Cu21	Cu2	0.434140	0.333330	0.833330
Cu31	Cu3	0.100800	0.666670	0.166670
Cu41	Cu4	0.000000	0.767470	0.500000
Cu51	Cu5	0.666670	0.100800	0.833330
Cu61	Cu6	0.333330	0.434140	0.166670
Cu71	Cu7	0.232530	0.232530	0.500000
Cu81	Cu8	0.899200	0.565860	0.833330
Cu91	Cu9	0.565860	0.899200	0.166670
Cu101	Cu10	0.232530	0.000000	0.500000
Cu111	Cu11	0.899200	0.333330	0.833330
Cu121	Cu12	0.565860	0.666670	0.166670
Cu131	Cu13	0.000000	0.232530	0.500000
Cu141	Cu14	0.666670	0.565860	0.833330
Cu151	Cu15	0.333330	0.899200	0.166670
Cu161	Cu16	0.767470	0.767470	0.500000
Cu171	Cu17	0.434140	0.100800	0.833330
Cu181	Cu18	0.100800	0.434140	0.166670
Cu191	Cu19	0.579870	0.913210	0.666670
Cu201	Cu20	0.246540	0.246540	0.000000
Cu211	Cu21	0.086790	0.666670	0.666670
Cu221	Cu22	0.753460	0.000000	0.000000
Cu231	Cu23	0.333330	0.420130	0.666670
Cu241	Cu24	0.000000	0.753460	0.000000
Cu251	Cu25	0.913210	0.579870	0.333330
Cu261	Cu26	0.666670	0.086790	0.333330
Cu271	Cu27	0.420130	0.333330	0.333330
Cu281	Cu28	0.420130	0.086790	0.333330
Cu291	Cu29	0.913210	0.333330	0.333330
Cu301	Cu30	0.666670	0.579870	0.333330
Cu311	Cu31	0.086790	0.420130	0.666670
Cu321	Cu32	0.753460	0.753460	0.000000
Cu331	Cu33	0.333330	0.913210	0.666670
Cu341	Cu34	0.000000	0.246540	0.000000
Cu351	Cu35	0.579870	0.666670	0.666670
Cu361	Cu36	0.246540	0.000000	0.000000
C2171	C217	0.601120	0.800560	0.668080
C2181	C218	0.726440	0.863220	0.718120
H1811	H181	0.768990	0.884500	0.735100
O371	O37	0.545130	0.772570	0.645730
C2191	C219	0.267790	0.133890	0.001410
C2201	C220	0.393110	0.196550	0.051450
H1821	H182	0.435660	0.217830	0.068430
O381	O38	0.211800	0.105900	0.979060
C2211	C221	0.934450	0.467230	0.334750
C2221	C222	0.059770	0.529890	0.384790
H1831	H183	0.102320	0.551160	0.401770
O391	O39	0.878460	0.439230	0.312400
C2231	C223	0.199440	0.800560	0.668080
C2241	C224	0.136780	0.863220	0.718120
H1841	H184	0.115500	0.884500	0.735100
O401	O40	0.227440	0.772570	0.645730
C2251	C225	0.866110	0.133890	0.001410
C2261	C226	0.803450	0.196550	0.051450
H1851	H185	0.782170	0.217830	0.068430
O411	O41	0.894100	0.105900	0.979060
C2271	C227	0.532770	0.467230	0.334750
C2281	C228	0.470110	0.529890	0.384790
H1861	H186	0.448840	0.551160	0.401770
O421	O42	0.560770	0.439230	0.312400
C2291	C229	0.199440	0.398880	0.668080
C2301	C230	0.136780	0.273560	0.718120
H1871	H187	0.115500	0.231010	0.735100
O431	O43	0.227430	0.454870	0.645730
C2311	C231	0.866110	0.732210	0.001410
C2321	C232	0.803450	0.606890	0.051450
H1881	H188	0.782170	0.564340	0.068430
O441	O44	0.894100	0.788200	0.979060
C2331	C233	0.532770	0.065550	0.334750
C2341	C234	0.470110	0.940230	0.384790
H1891	H189	0.448840	0.897680	0.401770
O451	O45	0.560770	0.121540	0.312400
C2351	C235	0.800560	0.601120	0.331920
C2361	C236	0.863220	0.726440	0.281880
H1901	H190	0.884500	0.768990	0.264900
O461	O46	0.772570	0.545130	0.354270
C2371	C237	0.467230	0.934450	0.665250
C2381	C238	0.529890	0.059770	0.615210
H1911	H191	0.551160	0.102320	0.598230
O471	O47	0.439230	0.878460	0.687600
C2391	C239	0.133890	0.267790	0.998590
C2401	C240	0.196550	0.393110	0.948550
H1921	H192	0.217830	0.435660	0.931570
O481	O48	0.105900	0.211800	0.020940
C2411	C241	0.800560	0.199440	0.331920
C2421	C242	0.863220	0.136780	0.281880
H1931	H193	0.884500	0.115500	0.264900
O491	O49	0.772570	0.227440	0.354270
C2431	C243	0.467230	0.532770	0.665250
C2441	C244	0.529890	0.470110	0.615210
H1941	H194	0.551160	0.448840	0.598230
O501	O50	0.439230	0.560770	0.687600
C2451	C245	0.133890	0.866110	0.998590
C2461	C246	0.196550	0.803450	0.948550
H1951	H195	0.217830	0.782170	0.931570
O511	O51	0.105900	0.894100	0.020940
C2471	C247	0.398880	0.199440	0.331920
C2481	C248	0.273560	0.136780	0.281880
H1961	H196	0.231010	0.115500	0.264900
O521	O52	0.454870	0.227430	0.354270
C2491	C249	0.065550	0.532770	0.665250
C2501	C250	0.940230	0.470110	0.615210
H1971	H197	0.897680	0.448840	0.598230
O531	O53	0.121540	0.560770	0.687600
C2511	C251	0.732210	0.866110	0.998590
C2521	C252	0.606890	0.803450	0.948550
H1981	H198	0.564340	0.782170	0.931570
O541	O54	0.788200	0.894100	0.020940
C2531	C253	0.892230	0.107770	0.478090
C2541	C254	0.926650	0.073350	0.381070
H1991	H199	0.938340	0.061660	0.348140
O551	O55	0.876860	0.123140	0.521430
C2551	C255	0.558900	0.441100	0.811420
C2561	C256	0.593320	0.406680	0.714400
H2001	H200	0.605000	0.395000	0.681470
O561	O56	0.543530	0.456470	0.854760
C2571	C257	0.225560	0.774440	0.144760
C2581	C258	0.259980	0.740020	0.047740
H2011	H201	0.271670	0.728330	0.014810
O571	O57	0.210190	0.789810	0.188100
C2591	C259	0.892230	0.784460	0.478090
C2601	C260	0.926650	0.853300	0.381070
H2021	H202	0.938340	0.876670	0.348140
O581	O58	0.876860	0.753720	0.521430
C2611	C261	0.558900	0.117790	0.811420
C2621	C262	0.593320	0.186630	0.714400
H2031	H203	0.605000	0.210000	0.681470
O591	O59	0.543530	0.087050	0.854760
C2631	C263	0.225560	0.451130	0.144760
C2641	C264	0.259980	0.519970	0.047740
H2041	H204	0.271670	0.543340	0.014810
O601	O60	0.210190	0.420390	0.188100
C2651	C265	0.215540	0.107770	0.478090
C2661	C266	0.146700	0.073350	0.381070
H2051	H205	0.123330	0.061660	0.348140
O611	O61	0.246280	0.123140	0.521430
C2671	C267	0.882210	0.441100	0.811420
C2681	C268	0.813370	0.406680	0.714400
H2061	H206	0.790000	0.395000	0.681470
O621	O62	0.912950	0.456470	0.854760
C2691	C269	0.548870	0.774440	0.144760
C2701	C270	0.480030	0.740020	0.047740
H2071	H207	0.456660	0.728330	0.014810
O631	O63	0.579610	0.789810	0.188100
C2711	C271	0.107770	0.892230	0.521910
C2721	C272	0.073350	0.926650	0.618930
H2081	H208	0.061660	0.938340	0.651860
O641	O64	0.123140	0.876860	0.478570
C2731	C273	0.774440	0.225560	0.855240
C2741	C274	0.740020	0.259980	0.952260
H2091	H209	0.728330	0.271670	0.985190
O651	O65	0.789810	0.210190	0.811900
C2751	C275	0.441100	0.558900	0.188580
C2761	C276	0.406680	0.593320	0.285600
H2101	H210	0.395000	0.605000	0.318530
O661	O66	0.456470	0.543530	0.145240
C2771	C277	0.784460	0.892230	0.521910
C2781	C278	0.853300	0.926650	0.618930
H2111	H211	0.876670	0.938340	0.651860
O671	O67	0.753720	0.876860	0.478570
C2791	C279	0.451130	0.225560	0.855240
C2801	C280	0.519970	0.259980	0.952260
H2121	H212	0.543340	0.271670	0.985190
O681	O68	0.420390	0.210190	0.811900
C2811	C281	0.117790	0.558900	0.188580
C2821	C282	0.186630	0.593320	0.285600
H2131	H213	0.210000	0.605000	0.318530
O691	O69	0.087050	0.543530	0.145240
C2831	C283	0.107770	0.215540	0.521910
C2841	C284	0.073350	0.146700	0.618930
H2141	H214	0.061660	0.123330	0.651860
O701	O70	0.123140	0.246280	0.478570
C2851	C285	0.774440	0.548870	0.855240
C2861	C286	0.740020	0.480030	0.952260
H2151	H215	0.728330	0.456660	0.985190
O711	O71	0.789810	0.579610	0.811900
C2871	C287	0.441100	0.882210	0.188580
C2881	C288	0.406680	0.813370	0.285600
H2161	H216	0.395000	0.790000	0.318530
O721	O72	0.456470	0.912950	0.145240
