data_EVURAP_freeONLY_PM
_symmetry_space_group_name_H-M	'P1'
_cell_length_a	9.604700
_cell_length_b	10.042700
_cell_length_c	11.458900
_cell_angle_alpha	96.126000
_cell_angle_beta	97.206500
_cell_angle_gamma	111.859000
_symmetry_Int_Tables_number 1

loop_
_symmetry_equiv_pos_as_xyz
'x,y,z'

loop_
_atom_site_label
_atom_site_type_symbol
_atom_site_fract_x
_atom_site_fract_y
_atom_site_fract_z
Ce11	Ce1	0.713240	0.954920	0.008220
Ce21	Ce2	0.286760	0.045080	0.991780
H11	H1	0.682300	0.505100	0.973700
H21	H2	0.804000	0.210400	0.788100
H31	H3	0.077700	0.638400	0.844600
H41	H4	0.829000	0.409600	0.581400
H51	H5	0.745800	0.296800	0.382200
H61	H6	0.050200	0.107200	0.418300
H71	H7	0.167800	0.152700	0.681500
H81	H8	0.262100	0.303800	0.684600
H91	H9	0.751800	0.913300	0.736200
H101	H10	0.902400	0.955700	0.803700
H111	H11	0.484900	0.678800	0.828300
H121	H12	0.428300	0.808500	0.837600
H131	H13	0.317700	0.494900	0.026300
H141	H14	0.196000	0.789600	0.211900
H151	H15	0.922300	0.361600	0.155400
H161	H16	0.171000	0.590400	0.418600
H171	H17	0.254200	0.703200	0.617800
H181	H18	0.949800	0.892800	0.581700
H191	H19	0.832200	0.847300	0.318500
H201	H20	0.737900	0.696200	0.315400
H211	H21	0.248200	0.086700	0.263800
H221	H22	0.097600	0.044300	0.196300
H231	H23	0.515100	0.321200	0.171700
H241	H24	0.571700	0.191500	0.162400
C11	C1	0.921800	0.747000	0.977400
C21	C2	0.886900	0.593200	0.920500
C31	C3	0.752500	0.483000	0.932000
C41	C4	0.720500	0.339700	0.882600
C51	C5	0.422000	0.778900	0.101200
C61	C6	0.822300	0.308200	0.819100
C71	C7	0.949800	0.421100	0.802000
C81	C8	0.986300	0.562900	0.854000
C91	C9	0.991000	0.326300	0.617400
C101	C10	0.874300	0.348500	0.548000
C111	C11	0.824600	0.281100	0.430100
C121	C12	0.889600	0.190800	0.381800
C131	C13	0.829600	0.109500	0.257300
C141	C14	0.006300	0.169500	0.451700
C151	C15	0.059300	0.238100	0.569300
C161	C16	0.078200	0.253000	0.022600
C171	C17	0.113100	0.406800	0.079500
C181	C18	0.247500	0.517000	0.068000
C191	C19	0.279500	0.660300	0.117400
C201	C20	0.578000	0.221100	0.898800
C211	C21	0.177700	0.691800	0.180900
C221	C22	0.050200	0.578900	0.198000
C231	C23	0.013700	0.437100	0.146000
C241	C24	0.009000	0.673700	0.382600
C251	C25	0.125700	0.651500	0.452000
C261	C26	0.175400	0.718900	0.569900
C271	C27	0.110400	0.809200	0.618200
C281	C28	0.170400	0.890500	0.742700
C291	C29	0.993700	0.830500	0.548300
C301	C30	0.940700	0.761900	0.430700
N11	N1	0.182100	0.225100	0.640300
N21	N2	0.817900	0.774900	0.359700
O11	O1	0.543700	0.757300	0.109900
O21	O2	0.881800	0.017600	0.217700
O31	O3	0.817000	0.773500	0.016900
O41	O4	0.946100	0.159400	0.016100
O51	O5	0.419200	0.899700	0.077700
O61	O6	0.050600	0.392200	0.734600
O71	O7	0.724400	0.129700	0.192100
O81	O8	0.806700	0.937400	0.808100
O91	O9	0.502000	0.774200	0.848100
O101	O10	0.456300	0.242700	0.890100
O111	O11	0.118200	0.982400	0.782300
O121	O12	0.183000	0.226500	0.983100
O131	O13	0.053900	0.840600	0.983900
O141	O14	0.580800	0.100300	0.922300
O151	O15	0.949400	0.607800	0.265400
O161	O16	0.275600	0.870300	0.807900
O171	O17	0.193300	0.062600	0.191900
O181	O18	0.498000	0.225800	0.151900
