data_EWIMIH_charged_PM
_symmetry_space_group_name_H-M	'P1'
_cell_length_a	11.343000
_cell_length_b	13.748000
_cell_length_c	24.652000
_cell_angle_alpha	92.980000
_cell_angle_beta	90.000000
_cell_angle_gamma	90.000000
_symmetry_Int_Tables_number 1

loop_
_symmetry_equiv_pos_as_xyz
'x,y,z'

loop_
_atom_site_label
_atom_site_type_symbol
_atom_site_fract_x
_atom_site_fract_y
_atom_site_fract_z
Mn11	Mn1	0.751310	0.503680	0.713780
Mn21	Mn2	0.902330	0.496750	0.891220
Mn31	Mn3	0.251310	0.496320	0.786220
Mn41	Mn4	0.402330	0.503250	0.608780
Mn51	Mn5	0.248690	0.496320	0.286220
Mn61	Mn6	0.097670	0.503250	0.108780
Mn71	Mn7	0.748690	0.503680	0.213780
Mn81	Mn8	0.597670	0.496750	0.391220
H11	H1	0.789500	0.498900	0.593300
H21	H2	0.686400	0.510300	0.622200
H31	H3	0.646500	0.495300	0.867800
H41	H4	0.697800	0.489900	0.918000
H51	H5	0.634600	0.682600	0.782800
H61	H6	0.627200	0.845000	0.791500
H71	H7	0.880300	0.854900	0.682900
H81	H8	0.877700	0.688000	0.674800
H91	H9	0.692100	0.004000	0.767800
H101	H10	0.837000	0.005400	0.682000
H111	H11	0.669900	0.157400	0.776900
H121	H12	0.656400	0.322700	0.775400
H131	H13	0.863800	0.325500	0.651700
H141	H14	0.885500	0.161500	0.649800
H151	H15	0.751100	0.308000	0.892600
H161	H16	0.762400	0.138000	0.880900
H171	H17	0.099200	0.162100	0.859100
H181	H18	0.083200	0.325600	0.867200
H191	H19	0.022000	0.996000	0.854900
H201	H20	0.800100	0.991100	0.884700
H211	H21	0.729400	0.838000	0.909700
H221	H22	0.743600	0.676700	0.914800
H231	H23	0.059900	0.675800	0.858800
H241	H24	0.050400	0.837500	0.846700
H251	H25	0.289500	0.501100	0.906700
H261	H26	0.186400	0.489700	0.877800
H271	H27	0.146500	0.504700	0.632200
H281	H28	0.197800	0.510100	0.582000
H291	H29	0.134600	0.317400	0.717200
H301	H30	0.127200	0.155000	0.708500
H311	H31	0.380300	0.145100	0.817100
H321	H32	0.377700	0.312000	0.825200
H331	H33	0.192100	0.996000	0.732200
H341	H34	0.337000	0.994600	0.818000
H351	H35	0.169900	0.842600	0.723100
H361	H36	0.156400	0.677300	0.724600
H371	H37	0.363800	0.674500	0.848300
H381	H38	0.385500	0.838500	0.850200
H391	H39	0.251100	0.692000	0.607400
H401	H40	0.262400	0.862000	0.619100
H411	H41	0.599200	0.837900	0.640900
H421	H42	0.583200	0.674400	0.632800
H431	H43	0.522000	0.004000	0.645100
H441	H44	0.300100	0.008900	0.615300
H451	H45	0.229400	0.162000	0.590300
H461	H46	0.243600	0.323300	0.585200
H471	H47	0.559900	0.324200	0.641200
H481	H48	0.550400	0.162500	0.653300
H491	H49	0.210500	0.501100	0.406700
H501	H50	0.313600	0.489700	0.377800
H511	H51	0.353500	0.504700	0.132200
H521	H52	0.302200	0.510100	0.082000
H531	H53	0.365400	0.317400	0.217200
H541	H54	0.372800	0.155000	0.208500
H551	H55	0.119700	0.145100	0.317100
H561	H56	0.122300	0.312000	0.325200
H571	H57	0.307900	0.996000	0.232200
H581	H58	0.163000	0.994600	0.318000
H591	H59	0.330100	0.842600	0.223100
H601	H60	0.343600	0.677300	0.224600
H611	H61	0.136200	0.674500	0.348300
H621	H62	0.114500	0.838500	0.350200
H631	H63	0.248900	0.692000	0.107400
H641	H64	0.237600	0.862000	0.119100
H651	H65	0.900800	0.837900	0.140900
H661	H66	0.916800	0.674400	0.132800
H671	H67	0.978000	0.004000	0.145100
H681	H68	0.199900	0.008900	0.115300
H691	H69	0.270600	0.162000	0.090300
H701	H70	0.256400	0.323300	0.085200
H711	H71	0.940100	0.324200	0.141200
H721	H72	0.949600	0.162500	0.153300
H731	H73	0.710500	0.498900	0.093300
H741	H74	0.813600	0.510300	0.122200
H751	H75	0.853500	0.495300	0.367800
H761	H76	0.802200	0.489900	0.418000
H771	H77	0.865400	0.682600	0.282800
H781	H78	0.872800	0.845000	0.291500
H791	H79	0.619700	0.854900	0.182900
H801	H80	0.622300	0.688000	0.174800
H811	H81	0.807900	0.004000	0.267800
H821	H82	0.663000	0.005400	0.182000
H831	H83	0.830100	0.157400	0.276900
H841	H84	0.843600	0.322700	0.275400
H851	H85	0.636200	0.325500	0.151700
H861	H86	0.614500	0.161500	0.149800
H871	H87	0.748900	0.308000	0.392600
H881	H88	0.737600	0.138000	0.380900
H891	H89	0.400800	0.162100	0.359100
H901	H90	0.416800	0.325600	0.367200
H911	H91	0.478000	0.996000	0.354900
H921	H92	0.699900	0.991100	0.384700
H931	H93	0.770600	0.838000	0.409700
H941	H94	0.756400	0.676700	0.414800
H951	H95	0.440100	0.675800	0.358800
H961	H96	0.449600	0.837500	0.346700
C11	C1	0.976700	0.497300	0.784250
C21	C2	0.017800	0.500900	0.725380
C31	C3	0.937400	0.499300	0.011700
C41	C4	0.684000	0.717700	0.760990
C51	C5	0.679000	0.815200	0.766530
C61	C6	0.748600	0.870400	0.736050
C71	C7	0.826200	0.820800	0.702900
C81	C8	0.825300	0.719800	0.698700
C91	C9	0.739000	0.976400	0.740100
C101	C10	0.789000	0.033200	0.709200
C111	C11	0.778500	0.140300	0.712250
C121	C12	0.710100	0.190500	0.750620
C131	C13	0.702500	0.289500	0.749380
C141	C14	0.823600	0.291000	0.677390
C151	C15	0.836900	0.192500	0.675700
C161	C16	0.823800	0.279000	0.885400
C171	C17	0.830500	0.175300	0.878900
C181	C18	0.934400	0.131800	0.869930
C191	C19	0.025300	0.189500	0.865800
C201	C20	0.015500	0.288400	0.871200
C211	C21	0.949300	0.021100	0.866110
C221	C22	0.874100	0.965400	0.876500
C231	C23	0.887400	0.858200	0.877580
C241	C24	0.798000	0.806400	0.898000
C251	C25	0.807800	0.709900	0.901500
C261	C26	0.990900	0.709200	0.868230
C271	C27	0.986700	0.806000	0.861760
C281	C28	0.476700	0.502700	0.715750
C291	C29	0.517800	0.499100	0.774620
C301	C30	0.437400	0.500700	0.488300
C311	C31	0.184000	0.282300	0.739010
C321	C32	0.179000	0.184800	0.733470
C331	C33	0.248600	0.129600	0.763950
C341	C34	0.326200	0.179200	0.797100
C351	C35	0.325300	0.280200	0.801300
C361	C36	0.239000	0.023600	0.759900
C371	C37	0.289000	0.966800	0.790800
C381	C38	0.278500	0.859700	0.787750
C391	C39	0.210100	0.809500	0.749380
C401	C40	0.202500	0.710500	0.750620
C411	C41	0.323600	0.709000	0.822610
C421	C42	0.336900	0.807500	0.824300
C431	C43	0.323800	0.721000	0.614600
C441	C44	0.330500	0.824700	0.621100
C451	C45	0.434400	0.868200	0.630070
C461	C46	0.525300	0.810500	0.634200
C471	C47	0.515500	0.711600	0.628800
C481	C48	0.449300	0.978900	0.633890
C491	C49	0.374100	0.034600	0.623500
C501	C50	0.387400	0.141800	0.622420
C511	C51	0.298000	0.193600	0.602000
C521	C52	0.307800	0.290100	0.598500
C531	C53	0.490900	0.290800	0.631770
C541	C54	0.486700	0.194000	0.638240
C551	C55	0.023300	0.502700	0.215750
C561	C56	0.982200	0.499100	0.274620
C571	C57	0.062600	0.500700	0.988300
C581	C58	0.316000	0.282300	0.239010
C591	C59	0.321000	0.184800	0.233470
C601	C60	0.251400	0.129600	0.263950
C611	C61	0.173800	0.179200	0.297100
C621	C62	0.174700	0.280200	0.301300
C631	C63	0.261000	0.023600	0.259900
C641	C64	0.211000	0.966800	0.290800
C651	C65	0.221500	0.859700	0.287750
C661	C66	0.289900	0.809500	0.249380
C671	C67	0.297500	0.710500	0.250620
C681	C68	0.176400	0.709000	0.322610
C691	C69	0.163100	0.807500	0.324300
C701	C70	0.176200	0.721000	0.114600
C711	C71	0.169500	0.824700	0.121100
C721	C72	0.065600	0.868200	0.130070
C731	C73	0.974700	0.810500	0.134200
C741	C74	0.984500	0.711600	0.128800
C751	C75	0.050700	0.978900	0.133890
C761	C76	0.125900	0.034600	0.123500
C771	C77	0.112600	0.141800	0.122420
C781	C78	0.202000	0.193600	0.102000
C791	C79	0.192200	0.290100	0.098500
C801	C80	0.009100	0.290800	0.131770
C811	C81	0.013300	0.194000	0.138240
C821	C82	0.523300	0.497300	0.284250
C831	C83	0.482200	0.500900	0.225380
C841	C84	0.562600	0.499300	0.511700
C851	C85	0.816000	0.717700	0.260990
C861	C86	0.821000	0.815200	0.266530
C871	C87	0.751400	0.870400	0.236050
C881	C88	0.673800	0.820800	0.202900
C891	C89	0.674700	0.719800	0.198700
C901	C90	0.761000	0.976400	0.240100
C911	C91	0.711000	0.033200	0.209200
C921	C92	0.721500	0.140300	0.212250
C931	C93	0.789900	0.190500	0.250620
C941	C94	0.797500	0.289500	0.249380
C951	C95	0.676400	0.291000	0.177390
C961	C96	0.663100	0.192500	0.175700
C971	C97	0.676200	0.279000	0.385400
C981	C98	0.669500	0.175300	0.378900
C991	C99	0.565600	0.131800	0.369930
C1001	C100	0.474700	0.189500	0.365800
C1011	C101	0.484500	0.288400	0.371200
C1021	C102	0.550700	0.021100	0.366110
C1031	C103	0.625900	0.965400	0.376500
C1041	C104	0.612600	0.858200	0.377580
C1051	C105	0.702000	0.806400	0.398000
C1061	C106	0.692200	0.709900	0.401500
C1071	C107	0.509100	0.709200	0.368230
C1081	C108	0.513300	0.806000	0.361760
N11	N1	0.753700	0.667600	0.726930
N21	N2	0.757600	0.340500	0.712940
N31	N3	0.916200	0.333900	0.881540
N41	N4	0.901000	0.659400	0.887440
N51	N5	0.253700	0.332400	0.773070
N61	N6	0.257600	0.659500	0.787060
N71	N7	0.416200	0.666100	0.618460
N81	N8	0.401000	0.340600	0.612560
N91	N9	0.246300	0.332400	0.273070
N101	N10	0.242400	0.659500	0.287060
N111	N11	0.083800	0.666100	0.118460
N121	N12	0.099000	0.340600	0.112560
N131	N13	0.746300	0.667600	0.226930
N141	N14	0.742400	0.340500	0.212940
N151	N15	0.583800	0.333900	0.381540
N161	N16	0.599000	0.659400	0.387440
O11	O1	0.761220	0.505400	0.625680
O21	O2	0.713000	0.492000	0.884220
O31	O3	0.869600	0.497130	0.793150
O41	O4	0.053000	0.495480	0.820140
O51	O5	0.940770	0.505160	0.690270
O61	O6	0.126420	0.498650	0.717920
O71	O7	0.854600	0.499740	0.979800
O81	O8	0.932190	0.498390	0.062170
O91	O9	0.261220	0.494600	0.874320
O101	O10	0.213000	0.508000	0.615780
O111	O11	0.369600	0.502870	0.706850
O121	O12	0.553000	0.504520	0.679860
O131	O13	0.440770	0.494840	0.809730
O141	O14	0.626420	0.501350	0.782080
O151	O15	0.354600	0.500260	0.520200
O161	O16	0.432190	0.501610	0.437830
O171	O17	0.238780	0.494600	0.374320
O181	O18	0.287000	0.508000	0.115780
O191	O19	0.130400	0.502870	0.206850
O201	O20	0.947000	0.504520	0.179860
O211	O21	0.059230	0.494840	0.309730
O221	O22	0.873580	0.501350	0.282080
O231	O23	0.145400	0.500260	0.020200
O241	O24	0.067810	0.501610	0.937830
O251	O25	0.738780	0.505400	0.125680
O261	O26	0.787000	0.492000	0.384220
O271	O27	0.630400	0.497130	0.293150
O281	O28	0.447000	0.495480	0.320140
O291	O29	0.559230	0.505160	0.190270
O301	O30	0.373580	0.498650	0.217920
O311	O31	0.645400	0.499740	0.479800
O321	O32	0.567810	0.498390	0.562170
N171	N17	0.037600	0.973000	0.611000
O331	O33	0.947500	0.940400	0.590900
O341	O34	0.071200	0.937800	0.652300
O351	O35	0.056600	0.058800	0.606500
N181	N18	0.537600	0.027000	0.889000
O361	O36	0.447500	0.059600	0.909100
O371	O37	0.571200	0.062200	0.847700
O381	O38	0.556600	0.941200	0.893500
N191	N19	0.962400	0.027000	0.389000
O391	O39	0.052500	0.059600	0.409100
O401	O40	0.928800	0.062200	0.347700
O411	O41	0.943400	0.941200	0.393500
N201	N20	0.462400	0.973000	0.111000
O421	O42	0.552500	0.940400	0.090900
O431	O43	0.428800	0.937800	0.152300
O441	O44	0.443400	0.058800	0.106500
