data_EWUKIS_freeONLY_PM
_symmetry_space_group_name_H-M	'P1'
_cell_length_a	18.368000
_cell_length_b	18.368000
_cell_length_c	17.964000
_cell_angle_alpha	90.000000
_cell_angle_beta	90.000000
_cell_angle_gamma	120.000000
_symmetry_Int_Tables_number 1

loop_
_symmetry_equiv_pos_as_xyz
'x,y,z'

loop_
_atom_site_label
_atom_site_type_symbol
_atom_site_fract_x
_atom_site_fract_y
_atom_site_fract_z
O11	O1	0.389400	0.479100	0.821300
O21	O2	0.317600	0.224300	0.842600
Zn11	Zn1	0.243130	0.341570	0.670440
C11	C1	0.421800	0.531200	0.865500
C21	C2	0.279200	0.157400	0.806500
O31	O3	0.211900	0.281900	0.575500
O41	O4	0.236500	0.442000	0.654800
O51	O5	0.151600	0.271300	0.737300
N11	N1	0.466000	0.611000	0.862000
H11	H1	0.413800	0.510400	0.914400
C31	C3	0.241700	0.075900	0.849600
C41	C4	0.308600	0.499000	0.633000
C51	C5	0.516900	0.655700	0.801600
C61	C6	0.495700	0.664100	0.929500
C71	C7	0.253700	0.076000	0.925000
O61	O6	0.368100	0.486000	0.621400
C81	C8	0.321600	0.585900	0.624400
H21	H2	0.212800	0.262600	0.100700
H31	H3	0.456000	0.406200	0.071600
H41	H4	0.544300	0.715500	0.811800
H51	H5	0.559100	0.639500	0.793800
H61	H6	0.482600	0.643100	0.757200
H71	H7	0.528200	0.722700	0.915200
H81	H8	0.447700	0.655300	0.959000
H91	H9	0.530700	0.649000	0.958700
H101	H10	0.283000	0.127300	0.950700
C91	C9	0.252400	0.598700	0.624500
H111	H11	0.197600	0.552200	0.624700
O71	O7	0.520900	0.910300	0.821300
O81	O8	0.775700	0.093300	0.842600
Zn21	Zn2	0.658430	0.901560	0.670440
C101	C10	0.468800	0.890600	0.865500
C111	C11	0.842600	0.121800	0.806500
O91	O9	0.718100	0.930000	0.575500
O101	O10	0.558000	0.794500	0.654800
O111	O11	0.728700	0.880300	0.737300
N21	N2	0.389000	0.855000	0.862000
H121	H12	0.489600	0.903400	0.914400
C121	C12	0.924100	0.165800	0.849600
C131	C13	0.501000	0.809600	0.633000
C141	C14	0.344300	0.861200	0.801600
C151	C15	0.335900	0.831600	0.929500
C161	C16	0.924000	0.177700	0.925000
O121	O12	0.514000	0.882100	0.621400
C171	C17	0.414100	0.735700	0.624400
H131	H13	0.737400	0.950200	0.100700
H141	H14	0.593800	0.049800	0.071600
H151	H15	0.284500	0.828800	0.811800
H161	H16	0.360500	0.919600	0.793800
H171	H17	0.356900	0.839500	0.757200
H181	H18	0.277300	0.805500	0.915200
H191	H19	0.344700	0.792400	0.959000
H201	H20	0.351000	0.881700	0.958700
H211	H21	0.872700	0.155700	0.950700
C181	C18	0.401300	0.653700	0.624500
H221	H22	0.447800	0.645400	0.624700
O131	O13	0.089700	0.610600	0.821300
O141	O14	0.906700	0.682400	0.842600
Zn31	Zn3	0.098440	0.756870	0.670440
C191	C19	0.109400	0.578200	0.865500
C201	C20	0.878200	0.720800	0.806500
O151	O15	0.070000	0.788100	0.575500
O161	O16	0.205500	0.763500	0.654800
O171	O17	0.119700	0.848400	0.737300
N31	N3	0.145000	0.534000	0.862000
H231	H23	0.096600	0.586200	0.914400
C211	C21	0.834200	0.758300	0.849600
C221	C22	0.190400	0.691400	0.633000
C231	C23	0.138800	0.483100	0.801600
C241	C24	0.168400	0.504300	0.929500
C251	C25	0.822300	0.746300	0.925000
O181	O18	0.117900	0.631900	0.621400
C261	C26	0.264300	0.678400	0.624400
H241	H24	0.049800	0.787200	0.100700
H251	H25	0.950200	0.544000	0.071600
H261	H26	0.171200	0.455700	0.811800
H271	H27	0.080400	0.440900	0.793800
H281	H28	0.160500	0.517400	0.757200
H291	H29	0.194500	0.471800	0.915200
H301	H30	0.207600	0.552300	0.959000
H311	H31	0.118300	0.469300	0.958700
H321	H32	0.844300	0.717000	0.950700
C271	C27	0.346300	0.747600	0.624500
H331	H33	0.354600	0.802400	0.624700
O191	O19	0.610600	0.520900	0.321300
O201	O20	0.682400	0.775700	0.342600
Zn41	Zn4	0.756870	0.658430	0.170440
C281	C28	0.578200	0.468800	0.365500
C291	C29	0.720800	0.842600	0.306500
O211	O21	0.788100	0.718100	0.075500
O221	O22	0.763500	0.558000	0.154800
O231	O23	0.848400	0.728700	0.237300
N41	N4	0.534000	0.389000	0.362000
H341	H34	0.586200	0.489600	0.414400
C301	C30	0.758300	0.924100	0.349600
C311	C31	0.691400	0.501000	0.133000
C321	C32	0.483100	0.344300	0.301600
C331	C33	0.504300	0.335900	0.429500
C341	C34	0.746300	0.924000	0.425000
O241	O24	0.631900	0.514000	0.121400
C351	C35	0.678400	0.414100	0.124400
H351	H35	0.787200	0.737400	0.600700
H361	H36	0.544000	0.593800	0.571600
H371	H37	0.455700	0.284500	0.311800
H381	H38	0.440900	0.360500	0.293800
H391	H39	0.517400	0.356900	0.257200
H401	H40	0.471800	0.277300	0.415200
H411	H41	0.552300	0.344700	0.459000
H421	H42	0.469300	0.351000	0.458700
H431	H43	0.717000	0.872700	0.450700
C361	C36	0.747600	0.401300	0.124500
H441	H44	0.802400	0.447800	0.124700
O251	O25	0.479100	0.089700	0.321300
O261	O26	0.224300	0.906700	0.342600
Zn51	Zn5	0.341570	0.098440	0.170440
C371	C37	0.531200	0.109400	0.365500
C381	C38	0.157400	0.878200	0.306500
O271	O27	0.281900	0.070000	0.075500
O281	O28	0.442000	0.205500	0.154800
O291	O29	0.271300	0.119700	0.237300
N51	N5	0.611000	0.145000	0.362000
H451	H45	0.510400	0.096600	0.414400
C391	C39	0.075900	0.834200	0.349600
C401	C40	0.499000	0.190400	0.133000
C411	C41	0.655700	0.138800	0.301600
C421	C42	0.664100	0.168400	0.429500
C431	C43	0.076000	0.822300	0.425000
O301	O30	0.486000	0.117900	0.121400
C441	C44	0.585900	0.264300	0.124400
H461	H46	0.262600	0.049800	0.600700
H471	H47	0.406200	0.950200	0.571600
H481	H48	0.715500	0.171200	0.311800
H491	H49	0.639500	0.080400	0.293800
H501	H50	0.643100	0.160500	0.257200
H511	H51	0.722700	0.194500	0.415200
H521	H52	0.655300	0.207600	0.459000
H531	H53	0.649000	0.118300	0.458700
H541	H54	0.127300	0.844300	0.450700
C451	C45	0.598700	0.346300	0.124500
H551	H55	0.552200	0.354600	0.124700
O311	O31	0.910300	0.389400	0.321300
O321	O32	0.093300	0.317600	0.342600
Zn61	Zn6	0.901560	0.243130	0.170440
C461	C46	0.890600	0.421800	0.365500
C471	C47	0.121800	0.279200	0.306500
O331	O33	0.930000	0.211900	0.075500
O341	O34	0.794500	0.236500	0.154800
O351	O35	0.880300	0.151600	0.237300
N61	N6	0.855000	0.466000	0.362000
H561	H56	0.903400	0.413800	0.414400
C481	C48	0.165800	0.241700	0.349600
C491	C49	0.809600	0.308600	0.133000
C501	C50	0.861200	0.516900	0.301600
C511	C51	0.831600	0.495700	0.429500
C521	C52	0.177700	0.253700	0.425000
O361	O36	0.882100	0.368100	0.121400
C531	C53	0.735700	0.321600	0.124400
H571	H57	0.950200	0.212800	0.600700
H581	H58	0.049800	0.456000	0.571600
H591	H59	0.828800	0.544300	0.311800
H601	H60	0.919600	0.559100	0.293800
H611	H61	0.839500	0.482600	0.257200
H621	H62	0.805500	0.528200	0.415200
H631	H63	0.792400	0.447700	0.459000
H641	H64	0.881700	0.530700	0.458700
H651	H65	0.155700	0.283000	0.450700
C541	C54	0.653700	0.252400	0.124500
H661	H66	0.645400	0.197600	0.124700
O371	O37	0.520900	0.610600	0.321300
O381	O38	0.775700	0.682400	0.342600
Zn71	Zn7	0.658430	0.756870	0.170440
C551	C55	0.468800	0.578200	0.365500
C561	C56	0.842600	0.720800	0.306500
O391	O39	0.718100	0.788100	0.075500
O401	O40	0.558000	0.763500	0.154800
O411	O41	0.728700	0.848400	0.237300
N71	N7	0.389000	0.534000	0.362000
H671	H67	0.489600	0.586200	0.414400
C571	C57	0.924100	0.758300	0.349600
C581	C58	0.501000	0.691400	0.133000
C591	C59	0.344300	0.483100	0.301600
C601	C60	0.335900	0.504300	0.429500
C611	C61	0.924000	0.746300	0.425000
O421	O42	0.514000	0.631900	0.121400
C621	C62	0.414100	0.678400	0.124400
H681	H68	0.737400	0.787200	0.600700
H691	H69	0.593800	0.544000	0.571600
H701	H70	0.284500	0.455700	0.311800
H711	H71	0.360500	0.440900	0.293800
H721	H72	0.356900	0.517400	0.257200
H731	H73	0.277300	0.471800	0.415200
H741	H74	0.344700	0.552300	0.459000
H751	H75	0.351000	0.469300	0.458700
H761	H76	0.872700	0.717000	0.450700
C631	C63	0.401300	0.747600	0.124500
H771	H77	0.447800	0.802400	0.124700
O431	O43	0.089700	0.479100	0.321300
O441	O44	0.906700	0.224300	0.342600
Zn81	Zn8	0.098440	0.341570	0.170440
C641	C64	0.109400	0.531200	0.365500
C651	C65	0.878200	0.157400	0.306500
O451	O45	0.070000	0.281900	0.075500
O461	O46	0.205500	0.442000	0.154800
O471	O47	0.119700	0.271300	0.237300
N81	N8	0.145000	0.611000	0.362000
H781	H78	0.096600	0.510400	0.414400
C661	C66	0.834200	0.075900	0.349600
C671	C67	0.190400	0.499000	0.133000
C681	C68	0.138800	0.655700	0.301600
C691	C69	0.168400	0.664100	0.429500
C701	C70	0.822300	0.076000	0.425000
O481	O48	0.117900	0.486000	0.121400
C711	C71	0.264300	0.585900	0.124400
H791	H79	0.049800	0.262600	0.600700
H801	H80	0.950200	0.406200	0.571600
H811	H81	0.171200	0.715500	0.311800
H821	H82	0.080400	0.639500	0.293800
H831	H83	0.160500	0.643100	0.257200
H841	H84	0.194500	0.722700	0.415200
H851	H85	0.207600	0.655300	0.459000
H861	H86	0.118300	0.649000	0.458700
H871	H87	0.844300	0.127300	0.450700
C721	C72	0.346300	0.598700	0.124500
H881	H88	0.354600	0.552200	0.124700
O491	O49	0.389400	0.910300	0.321300
O501	O50	0.317600	0.093300	0.342600
Zn91	Zn9	0.243130	0.901560	0.170440
C731	C73	0.421800	0.890600	0.365500
C741	C74	0.279200	0.121800	0.306500
O511	O51	0.211900	0.930000	0.075500
O521	O52	0.236500	0.794500	0.154800
O531	O53	0.151600	0.880300	0.237300
N91	N9	0.466000	0.855000	0.362000
H891	H89	0.413800	0.903400	0.414400
C751	C75	0.241700	0.165800	0.349600
C761	C76	0.308600	0.809600	0.133000
C771	C77	0.516900	0.861200	0.301600
C781	C78	0.495700	0.831600	0.429500
C791	C79	0.253700	0.177700	0.425000
O541	O54	0.368100	0.882100	0.121400
C801	C80	0.321600	0.735700	0.124400
H901	H90	0.212800	0.950200	0.600700
H911	H91	0.456000	0.049800	0.571600
H921	H92	0.544300	0.828800	0.311800
H931	H93	0.559100	0.919600	0.293800
H941	H94	0.482600	0.839500	0.257200
H951	H95	0.528200	0.805500	0.415200
H961	H96	0.447700	0.792400	0.459000
H971	H97	0.530700	0.881700	0.458700
H981	H98	0.283000	0.155700	0.450700
C811	C81	0.252400	0.653700	0.124500
H991	H99	0.197600	0.645400	0.124700
O551	O55	0.479100	0.389400	0.821300
O561	O56	0.224300	0.317600	0.842600
Zn101	Zn10	0.341570	0.243130	0.670440
C821	C82	0.531200	0.421800	0.865500
C831	C83	0.157400	0.279200	0.806500
O571	O57	0.281900	0.211900	0.575500
O581	O58	0.442000	0.236500	0.654800
O591	O59	0.271300	0.151600	0.737300
N101	N10	0.611000	0.466000	0.862000
H1001	H100	0.510400	0.413800	0.914400
C841	C84	0.075900	0.241700	0.849600
C851	C85	0.499000	0.308600	0.633000
C861	C86	0.655700	0.516900	0.801600
C871	C87	0.664100	0.495700	0.929500
C881	C88	0.076000	0.253700	0.925000
O601	O60	0.486000	0.368100	0.621400
C891	C89	0.585900	0.321600	0.624400
H1011	H101	0.262600	0.212800	0.100700
H1021	H102	0.406200	0.456000	0.071600
H1031	H103	0.715500	0.544300	0.811800
H1041	H104	0.639500	0.559100	0.793800
H1051	H105	0.643100	0.482600	0.757200
H1061	H106	0.722700	0.528200	0.915200
H1071	H107	0.655300	0.447700	0.959000
H1081	H108	0.649000	0.530700	0.958700
H1091	H109	0.127300	0.283000	0.950700
C901	C90	0.598700	0.252400	0.624500
H1101	H110	0.552200	0.197600	0.624700
O611	O61	0.910300	0.520900	0.821300
O621	O62	0.093300	0.775700	0.842600
Zn111	Zn11	0.901560	0.658430	0.670440
C911	C91	0.890600	0.468800	0.865500
C921	C92	0.121800	0.842600	0.806500
O631	O63	0.930000	0.718100	0.575500
O641	O64	0.794500	0.558000	0.654800
O651	O65	0.880300	0.728700	0.737300
N111	N11	0.855000	0.389000	0.862000
H1111	H111	0.903400	0.489600	0.914400
C931	C93	0.165800	0.924100	0.849600
C941	C94	0.809600	0.501000	0.633000
C951	C95	0.861200	0.344300	0.801600
C961	C96	0.831600	0.335900	0.929500
C971	C97	0.177700	0.924000	0.925000
O661	O66	0.882100	0.514000	0.621400
C981	C98	0.735700	0.414100	0.624400
H1121	H112	0.950200	0.737400	0.100700
H1131	H113	0.049800	0.593800	0.071600
H1141	H114	0.828800	0.284500	0.811800
H1151	H115	0.919600	0.360500	0.793800
H1161	H116	0.839500	0.356900	0.757200
H1171	H117	0.805500	0.277300	0.915200
H1181	H118	0.792400	0.344700	0.959000
H1191	H119	0.881700	0.351000	0.958700
H1201	H120	0.155700	0.872700	0.950700
C991	C99	0.653700	0.401300	0.624500
H1211	H121	0.645400	0.447800	0.624700
O671	O67	0.610600	0.089700	0.821300
O681	O68	0.682400	0.906700	0.842600
Zn121	Zn12	0.756870	0.098440	0.670440
C1001	C100	0.578200	0.109400	0.865500
C1011	C101	0.720800	0.878200	0.806500
O691	O69	0.788100	0.070000	0.575500
O701	O70	0.763500	0.205500	0.654800
O711	O71	0.848400	0.119700	0.737300
N121	N12	0.534000	0.145000	0.862000
H1221	H122	0.586200	0.096600	0.914400
C1021	C102	0.758300	0.834200	0.849600
C1031	C103	0.691400	0.190400	0.633000
C1041	C104	0.483100	0.138800	0.801600
C1051	C105	0.504300	0.168400	0.929500
C1061	C106	0.746300	0.822300	0.925000
O721	O72	0.631900	0.117900	0.621400
C1071	C107	0.678400	0.264300	0.624400
H1231	H123	0.787200	0.049800	0.100700
H1241	H124	0.544000	0.950200	0.071600
H1251	H125	0.455700	0.171200	0.811800
H1261	H126	0.440900	0.080400	0.793800
H1271	H127	0.517400	0.160500	0.757200
H1281	H128	0.471800	0.194500	0.915200
H1291	H129	0.552300	0.207600	0.959000
H1301	H130	0.469300	0.118300	0.958700
H1311	H131	0.717000	0.844300	0.950700
C1081	C108	0.747600	0.346300	0.624500
H1321	H132	0.802400	0.354600	0.624700
Zn131	Zn13	0.349100	0.349100	0.828240
O731	O73	0.343500	0.343500	0.712700
O741	O74	0.365800	0.365800	0.942600
C1091	C109	0.317500	0.317500	0.989100
H1331	H133	0.268900	0.268900	0.972700
N131	N13	0.330200	0.330200	0.062400
C1101	C110	0.239100	0.239100	0.545200
C1111	C111	0.266600	0.266600	0.110500
C1121	C112	0.406300	0.406300	0.089700
C1131	C113	0.222400	0.222400	0.464200
H1341	H134	0.282100	0.282100	0.162100
H1351	H135	0.406500	0.406500	0.143700
Zn141	Zn14	0.650900	0.000000	0.828240
O751	O75	0.656500	0.000000	0.712700
O761	O76	0.634200	0.000000	0.942600
C1141	C114	0.682500	0.000000	0.989100
H1361	H136	0.731100	0.000000	0.972700
N141	N14	0.669800	0.000000	0.062400
C1151	C115	0.760900	0.000000	0.545200
C1161	C116	0.733400	0.000000	0.110500
C1171	C117	0.593700	0.000000	0.089700
C1181	C118	0.777600	0.000000	0.464200
H1371	H137	0.717900	0.000000	0.162100
H1381	H138	0.593500	0.000000	0.143700
Zn151	Zn15	0.000000	0.650900	0.828240
O771	O77	0.000000	0.656500	0.712700
O781	O78	0.000000	0.634200	0.942600
C1191	C119	0.000000	0.682500	0.989100
H1391	H139	0.000000	0.731100	0.972700
N151	N15	0.000000	0.669800	0.062400
C1201	C120	0.000000	0.760900	0.545200
C1211	C121	0.000000	0.733400	0.110500
C1221	C122	0.000000	0.593700	0.089700
C1231	C123	0.000000	0.777600	0.464200
H1401	H140	0.000000	0.717900	0.162100
H1411	H141	0.000000	0.593500	0.143700
Zn161	Zn16	0.650900	0.650900	0.328240
O791	O79	0.656500	0.656500	0.212700
O801	O80	0.634200	0.634200	0.442600
C1241	C124	0.682500	0.682500	0.489100
H1421	H142	0.731100	0.731100	0.472700
N161	N16	0.669800	0.669800	0.562400
C1251	C125	0.760900	0.760900	0.045200
C1261	C126	0.733400	0.733400	0.610500
C1271	C127	0.593700	0.593700	0.589700
C1281	C128	0.777600	0.777600	0.964200
H1431	H143	0.717900	0.717900	0.662100
H1441	H144	0.593500	0.593500	0.643700
Zn171	Zn17	0.349100	0.000000	0.328240
O811	O81	0.343500	0.000000	0.212700
O821	O82	0.365800	0.000000	0.442600
C1291	C129	0.317500	0.000000	0.489100
H1451	H145	0.268900	0.000000	0.472700
N171	N17	0.330200	0.000000	0.562400
C1301	C130	0.239100	0.000000	0.045200
C1311	C131	0.266600	0.000000	0.610500
C1321	C132	0.406300	0.000000	0.589700
C1331	C133	0.222400	0.000000	0.964200
H1461	H146	0.282100	0.000000	0.662100
H1471	H147	0.406500	0.000000	0.643700
Zn181	Zn18	0.000000	0.349100	0.328240
O831	O83	0.000000	0.343500	0.212700
O841	O84	0.000000	0.365800	0.442600
C1341	C134	0.000000	0.317500	0.489100
H1481	H148	0.000000	0.268900	0.472700
N181	N18	0.000000	0.330200	0.562400
C1351	C135	0.000000	0.239100	0.045200
C1361	C136	0.000000	0.266600	0.610500
C1371	C137	0.000000	0.406300	0.589700
C1381	C138	0.000000	0.222400	0.964200
H1491	H149	0.000000	0.282100	0.662100
H1501	H150	0.000000	0.406500	0.643700
C1391	C139	0.197700	0.000000	0.811100
H1511	H151	0.189600	0.000000	0.759500
C1401	C140	0.000000	0.197700	0.811100
H1521	H152	0.000000	0.189600	0.759500
C1411	C141	0.802300	0.802300	0.811100
H1531	H153	0.810400	0.810400	0.759500
C1421	C142	0.802300	0.000000	0.311100
H1541	H154	0.810400	0.000000	0.259500
C1431	C143	0.000000	0.802300	0.311100
H1551	H155	0.000000	0.810400	0.259500
C1441	C144	0.197700	0.197700	0.311100
H1561	H156	0.189600	0.189600	0.259500
