data_EWUKEO_freeONLY_PM
_symmetry_space_group_name_H-M	'P1'
_cell_length_a	18.389000
_cell_length_b	18.389000
_cell_length_c	17.969000
_cell_angle_alpha	90.000000
_cell_angle_beta	90.000000
_cell_angle_gamma	120.000000
_symmetry_Int_Tables_number 1

loop_
_symmetry_equiv_pos_as_xyz
'x,y,z'

loop_
_atom_site_label
_atom_site_type_symbol
_atom_site_fract_x
_atom_site_fract_y
_atom_site_fract_z
Zn11	Zn1	0.756910	0.658580	0.333160
O11	O1	0.787700	0.718600	0.429300
O21	O2	0.760300	0.556800	0.349900
O31	O3	0.879900	0.729000	0.766900
C11	C1	0.691700	0.503700	0.370700
O41	O4	0.615400	0.526400	0.184100
O51	O5	0.907000	0.684400	0.662700
O61	O6	0.631100	0.513000	0.380900
C21	C2	0.677500	0.413200	0.377000
C31	C3	0.579000	0.463100	0.148000
C41	C4	0.822100	0.746300	0.577600
C51	C5	0.747400	0.401000	0.377200
H11	H1	0.578900	0.482500	0.099800
N11	N1	0.541000	0.387400	0.141700
H21	H2	0.844300	0.717600	0.551300
C61	C6	0.833500	0.756600	0.654000
H31	H3	0.802100	0.447500	0.377500
C71	C7	0.492000	0.338000	0.078000
C81	C8	0.490000	0.338000	0.201000
C91	C9	0.877000	0.721800	0.696800
H41	H4	0.736700	0.786400	0.906300
H51	H5	0.595100	0.545300	0.928800
H61	H6	0.469200	0.278400	0.089000
H71	H7	0.445900	0.348200	0.069500
H81	H8	0.527100	0.352800	0.034500
H91	H9	0.463900	0.278900	0.188000
H101	H10	0.523500	0.348700	0.245500
H111	H11	0.446200	0.351900	0.210200
Zn21	Zn2	0.341420	0.098330	0.333160
O71	O7	0.281400	0.069100	0.429300
O81	O8	0.443200	0.203500	0.349900
O91	O9	0.271000	0.150900	0.766900
C101	C10	0.496300	0.188000	0.370700
O101	O10	0.473600	0.089000	0.184100
O111	O11	0.315600	0.222600	0.662700
O121	O12	0.487000	0.118100	0.380900
C111	C11	0.586800	0.264300	0.377000
C121	C12	0.536900	0.115900	0.148000
C131	C13	0.253700	0.075800	0.577600
C141	C14	0.599000	0.346400	0.377200
H121	H12	0.517500	0.096400	0.099800
N21	N2	0.612600	0.153600	0.141700
H131	H13	0.282400	0.126700	0.551300
C151	C15	0.243400	0.076900	0.654000
H141	H14	0.552500	0.354600	0.377500
C161	C16	0.662000	0.154000	0.078000
C171	C17	0.662000	0.152000	0.201000
C181	C18	0.278200	0.155200	0.696800
H151	H15	0.213600	0.950300	0.906300
H161	H16	0.454700	0.049800	0.928800
H171	H17	0.721600	0.190800	0.089000
H181	H18	0.651800	0.097700	0.069500
H191	H19	0.647200	0.174300	0.034500
H201	H20	0.721100	0.185000	0.188000
H211	H21	0.651300	0.174800	0.245500
H221	H22	0.648100	0.094300	0.210200
Zn31	Zn3	0.901670	0.243090	0.333160
O131	O13	0.930900	0.212300	0.429300
O141	O14	0.796500	0.239700	0.349900
O151	O15	0.849100	0.120100	0.766900
C191	C19	0.812000	0.308300	0.370700
O161	O16	0.911000	0.384600	0.184100
O171	O17	0.777400	0.093000	0.662700
O181	O18	0.881900	0.368900	0.380900
C201	C20	0.735700	0.322500	0.377000
C211	C21	0.884100	0.421000	0.148000
C221	C22	0.924200	0.177900	0.577600
C231	C23	0.653600	0.252600	0.377200
H231	H23	0.903600	0.421100	0.099800
N31	N3	0.846400	0.459000	0.141700
H241	H24	0.873300	0.155700	0.551300
C241	C24	0.923100	0.166500	0.654000
H251	H25	0.645400	0.197900	0.377500
C251	C25	0.846000	0.508000	0.078000
C261	C26	0.848000	0.510000	0.201000
C271	C27	0.844800	0.123000	0.696800
H261	H26	0.049700	0.263300	0.906300
H271	H27	0.950200	0.404900	0.928800
H281	H28	0.809200	0.530800	0.089000
H291	H29	0.902300	0.554100	0.069500
H301	H30	0.825700	0.472900	0.034500
H311	H31	0.815000	0.536100	0.188000
H321	H32	0.825200	0.476500	0.245500
H331	H33	0.905700	0.553800	0.210200
Zn41	Zn4	0.243090	0.341420	0.833160
O191	O19	0.212300	0.281400	0.929300
O201	O20	0.239700	0.443200	0.849900
O211	O21	0.120100	0.271000	0.266900
C281	C28	0.308300	0.496300	0.870700
O221	O22	0.384600	0.473600	0.684100
O231	O23	0.093000	0.315600	0.162700
O241	O24	0.368900	0.487000	0.880900
C291	C29	0.322500	0.586800	0.877000
C301	C30	0.421000	0.536900	0.648000
C311	C31	0.177900	0.253700	0.077600
C321	C32	0.252600	0.599000	0.877200
H341	H34	0.421100	0.517500	0.599800
N41	N4	0.459000	0.612600	0.641700
H351	H35	0.155700	0.282400	0.051300
C331	C33	0.166500	0.243400	0.154000
H361	H36	0.197900	0.552500	0.877500
C341	C34	0.508000	0.662000	0.578000
C351	C35	0.510000	0.662000	0.701000
C361	C36	0.123000	0.278200	0.196800
H371	H37	0.263300	0.213600	0.406300
H381	H38	0.404900	0.454700	0.428800
H391	H39	0.530800	0.721600	0.589000
H401	H40	0.554100	0.651800	0.569500
H411	H41	0.472900	0.647200	0.534500
H421	H42	0.536100	0.721100	0.688000
H431	H43	0.476500	0.651300	0.745500
H441	H44	0.553800	0.648100	0.710200
Zn51	Zn5	0.658580	0.901670	0.833160
O251	O25	0.718600	0.930900	0.929300
O261	O26	0.556800	0.796500	0.849900
O271	O27	0.729000	0.849100	0.266900
C371	C37	0.503700	0.812000	0.870700
O281	O28	0.526400	0.911000	0.684100
O291	O29	0.684400	0.777400	0.162700
O301	O30	0.513000	0.881900	0.880900
C381	C38	0.413200	0.735700	0.877000
C391	C39	0.463100	0.884100	0.648000
C401	C40	0.746300	0.924200	0.077600
C411	C41	0.401000	0.653600	0.877200
H451	H45	0.482500	0.903600	0.599800
N51	N5	0.387400	0.846400	0.641700
H461	H46	0.717600	0.873300	0.051300
C421	C42	0.756600	0.923100	0.154000
H471	H47	0.447500	0.645400	0.877500
C431	C43	0.338000	0.846000	0.578000
C441	C44	0.338000	0.848000	0.701000
C451	C45	0.721800	0.844800	0.196800
H481	H48	0.786400	0.049700	0.406300
H491	H49	0.545300	0.950200	0.428800
H501	H50	0.278400	0.809200	0.589000
H511	H51	0.348200	0.902300	0.569500
H521	H52	0.352800	0.825700	0.534500
H531	H53	0.278900	0.815000	0.688000
H541	H54	0.348700	0.825200	0.745500
H551	H55	0.351900	0.905700	0.710200
Zn61	Zn6	0.098330	0.756910	0.833160
O311	O31	0.069100	0.787700	0.929300
O321	O32	0.203500	0.760300	0.849900
O331	O33	0.150900	0.879900	0.266900
C461	C46	0.188000	0.691700	0.870700
O341	O34	0.089000	0.615400	0.684100
O351	O35	0.222600	0.907000	0.162700
O361	O36	0.118100	0.631100	0.880900
C471	C47	0.264300	0.677500	0.877000
C481	C48	0.115900	0.579000	0.648000
C491	C49	0.075800	0.822100	0.077600
C501	C50	0.346400	0.747400	0.877200
H561	H56	0.096400	0.578900	0.599800
N61	N6	0.153600	0.541000	0.641700
H571	H57	0.126700	0.844300	0.051300
C511	C51	0.076900	0.833500	0.154000
H581	H58	0.354600	0.802100	0.877500
C521	C52	0.154000	0.492000	0.578000
C531	C53	0.152000	0.490000	0.701000
C541	C54	0.155200	0.877000	0.196800
H591	H59	0.950300	0.736700	0.406300
H601	H60	0.049800	0.595100	0.428800
H611	H61	0.190800	0.469200	0.589000
H621	H62	0.097700	0.445900	0.569500
H631	H63	0.174300	0.527100	0.534500
H641	H64	0.185000	0.463900	0.688000
H651	H65	0.174800	0.523500	0.745500
H661	H66	0.094300	0.446200	0.710200
Zn71	Zn7	0.341420	0.243090	0.833160
O371	O37	0.281400	0.212300	0.929300
O381	O38	0.443200	0.239700	0.849900
O391	O39	0.271000	0.120100	0.266900
C551	C55	0.496300	0.308300	0.870700
O401	O40	0.473600	0.384600	0.684100
O411	O41	0.315600	0.093000	0.162700
O421	O42	0.487000	0.368900	0.880900
C561	C56	0.586800	0.322500	0.877000
C571	C57	0.536900	0.421000	0.648000
C581	C58	0.253700	0.177900	0.077600
C591	C59	0.599000	0.252600	0.877200
H671	H67	0.517500	0.421100	0.599800
N71	N7	0.612600	0.459000	0.641700
H681	H68	0.282400	0.155700	0.051300
C601	C60	0.243400	0.166500	0.154000
H691	H69	0.552500	0.197900	0.877500
C611	C61	0.662000	0.508000	0.578000
C621	C62	0.662000	0.510000	0.701000
C631	C63	0.278200	0.123000	0.196800
H701	H70	0.213600	0.263300	0.406300
H711	H71	0.454700	0.404900	0.428800
H721	H72	0.721600	0.530800	0.589000
H731	H73	0.651800	0.554100	0.569500
H741	H74	0.647200	0.472900	0.534500
H751	H75	0.721100	0.536100	0.688000
H761	H76	0.651300	0.476500	0.745500
H771	H77	0.648100	0.553800	0.710200
Zn81	Zn8	0.901670	0.658580	0.833160
O431	O43	0.930900	0.718600	0.929300
O441	O44	0.796500	0.556800	0.849900
O451	O45	0.849100	0.729000	0.266900
C641	C64	0.812000	0.503700	0.870700
O461	O46	0.911000	0.526400	0.684100
O471	O47	0.777400	0.684400	0.162700
O481	O48	0.881900	0.513000	0.880900
C651	C65	0.735700	0.413200	0.877000
C661	C66	0.884100	0.463100	0.648000
C671	C67	0.924200	0.746300	0.077600
C681	C68	0.653600	0.401000	0.877200
H781	H78	0.903600	0.482500	0.599800
N81	N8	0.846400	0.387400	0.641700
H791	H79	0.873300	0.717600	0.051300
C691	C69	0.923100	0.756600	0.154000
H801	H80	0.645400	0.447500	0.877500
C701	C70	0.846000	0.338000	0.578000
C711	C71	0.848000	0.338000	0.701000
C721	C72	0.844800	0.721800	0.196800
H811	H81	0.049700	0.786400	0.406300
H821	H82	0.950200	0.545300	0.428800
H831	H83	0.809200	0.278400	0.589000
H841	H84	0.902300	0.348200	0.569500
H851	H85	0.825700	0.352800	0.534500
H861	H86	0.815000	0.278900	0.688000
H871	H87	0.825200	0.348700	0.745500
H881	H88	0.905700	0.351900	0.710200
Zn91	Zn9	0.756910	0.098330	0.833160
O491	O49	0.787700	0.069100	0.929300
O501	O50	0.760300	0.203500	0.849900
O511	O51	0.879900	0.150900	0.266900
C731	C73	0.691700	0.188000	0.870700
O521	O52	0.615400	0.089000	0.684100
O531	O53	0.907000	0.222600	0.162700
O541	O54	0.631100	0.118100	0.880900
C741	C74	0.677500	0.264300	0.877000
C751	C75	0.579000	0.115900	0.648000
C761	C76	0.822100	0.075800	0.077600
C771	C77	0.747400	0.346400	0.877200
H891	H89	0.578900	0.096400	0.599800
N91	N9	0.541000	0.153600	0.641700
H901	H90	0.844300	0.126700	0.051300
C781	C78	0.833500	0.076900	0.154000
H911	H91	0.802100	0.354600	0.877500
C791	C79	0.492000	0.154000	0.578000
C801	C80	0.490000	0.152000	0.701000
C811	C81	0.877000	0.155200	0.196800
H921	H92	0.736700	0.950300	0.406300
H931	H93	0.595100	0.049800	0.428800
H941	H94	0.469200	0.190800	0.589000
H951	H95	0.445900	0.097700	0.569500
H961	H96	0.527100	0.174300	0.534500
H971	H97	0.463900	0.185000	0.688000
H981	H98	0.523500	0.174800	0.745500
H991	H99	0.446200	0.094300	0.710200
Zn101	Zn10	0.658580	0.756910	0.333160
O551	O55	0.718600	0.787700	0.429300
O561	O56	0.556800	0.760300	0.349900
O571	O57	0.729000	0.879900	0.766900
C821	C82	0.503700	0.691700	0.370700
O581	O58	0.526400	0.615400	0.184100
O591	O59	0.684400	0.907000	0.662700
O601	O60	0.513000	0.631100	0.380900
C831	C83	0.413200	0.677500	0.377000
C841	C84	0.463100	0.579000	0.148000
C851	C85	0.746300	0.822100	0.577600
C861	C86	0.401000	0.747400	0.377200
H1001	H100	0.482500	0.578900	0.099800
N101	N10	0.387400	0.541000	0.141700
H1011	H101	0.717600	0.844300	0.551300
C871	C87	0.756600	0.833500	0.654000
H1021	H102	0.447500	0.802100	0.377500
C881	C88	0.338000	0.492000	0.078000
C891	C89	0.338000	0.490000	0.201000
C901	C90	0.721800	0.877000	0.696800
H1031	H103	0.786400	0.736700	0.906300
H1041	H104	0.545300	0.595100	0.928800
H1051	H105	0.278400	0.469200	0.089000
H1061	H106	0.348200	0.445900	0.069500
H1071	H107	0.352800	0.527100	0.034500
H1081	H108	0.278900	0.463900	0.188000
H1091	H109	0.348700	0.523500	0.245500
H1101	H110	0.351900	0.446200	0.210200
Zn111	Zn11	0.098330	0.341420	0.333160
O611	O61	0.069100	0.281400	0.429300
O621	O62	0.203500	0.443200	0.349900
O631	O63	0.150900	0.271000	0.766900
C911	C91	0.188000	0.496300	0.370700
O641	O64	0.089000	0.473600	0.184100
O651	O65	0.222600	0.315600	0.662700
O661	O66	0.118100	0.487000	0.380900
C921	C92	0.264300	0.586800	0.377000
C931	C93	0.115900	0.536900	0.148000
C941	C94	0.075800	0.253700	0.577600
C951	C95	0.346400	0.599000	0.377200
H1111	H111	0.096400	0.517500	0.099800
N111	N11	0.153600	0.612600	0.141700
H1121	H112	0.126700	0.282400	0.551300
C961	C96	0.076900	0.243400	0.654000
H1131	H113	0.354600	0.552500	0.377500
C971	C97	0.154000	0.662000	0.078000
C981	C98	0.152000	0.662000	0.201000
C991	C99	0.155200	0.278200	0.696800
H1141	H114	0.950300	0.213600	0.906300
H1151	H115	0.049800	0.454700	0.928800
H1161	H116	0.190800	0.721600	0.089000
H1171	H117	0.097700	0.651800	0.069500
H1181	H118	0.174300	0.647200	0.034500
H1191	H119	0.185000	0.721100	0.188000
H1201	H120	0.174800	0.651300	0.245500
H1211	H121	0.094300	0.648100	0.210200
Zn121	Zn12	0.243090	0.901670	0.333160
O671	O67	0.212300	0.930900	0.429300
O681	O68	0.239700	0.796500	0.349900
O691	O69	0.120100	0.849100	0.766900
C1001	C100	0.308300	0.812000	0.370700
O701	O70	0.384600	0.911000	0.184100
O711	O71	0.093000	0.777400	0.662700
O721	O72	0.368900	0.881900	0.380900
C1011	C101	0.322500	0.735700	0.377000
C1021	C102	0.421000	0.884100	0.148000
C1031	C103	0.177900	0.924200	0.577600
C1041	C104	0.252600	0.653600	0.377200
H1221	H122	0.421100	0.903600	0.099800
N121	N12	0.459000	0.846400	0.141700
H1231	H123	0.155700	0.873300	0.551300
C1051	C105	0.166500	0.923100	0.654000
H1241	H124	0.197900	0.645400	0.377500
C1061	C106	0.508000	0.846000	0.078000
C1071	C107	0.510000	0.848000	0.201000
C1081	C108	0.123000	0.844800	0.696800
H1251	H125	0.263300	0.049700	0.906300
H1261	H126	0.404900	0.950200	0.928800
H1271	H127	0.530800	0.809200	0.089000
H1281	H128	0.554100	0.902300	0.069500
H1291	H129	0.472900	0.825700	0.034500
H1301	H130	0.536100	0.815000	0.188000
H1311	H131	0.476500	0.825200	0.245500
H1321	H132	0.553800	0.905700	0.210200
O731	O73	0.657100	0.657100	0.292100
Co11	Co1	0.650660	0.650660	0.175400
C1091	C109	0.760200	0.760200	0.460400
O741	O74	0.633700	0.633700	0.061900
C1101	C110	0.778000	0.778000	0.539400
C1111	C111	0.681200	0.681200	0.013500
H1331	H133	0.730000	0.730000	0.029100
N131	N13	0.668600	0.668600	0.942700
C1121	C112	0.733000	0.733000	0.896000
C1131	C113	0.596000	0.596000	0.912000
C1141	C114	0.803700	0.803700	0.692100
H1341	H134	0.718300	0.718300	0.844100
H1351	H135	0.598600	0.598600	0.858200
H1361	H136	0.815250	0.815250	0.743000
O751	O75	0.342900	0.000000	0.292100
Co21	Co2	0.349340	0.000000	0.175400
C1151	C115	0.239800	0.000000	0.460400
O761	O76	0.366300	0.000000	0.061900
C1161	C116	0.222000	0.000000	0.539400
C1171	C117	0.318800	0.000000	0.013500
H1371	H137	0.270000	0.000000	0.029100
N141	N14	0.331400	0.000000	0.942700
C1181	C118	0.267000	0.000000	0.896000
C1191	C119	0.404000	0.000000	0.912000
C1201	C120	0.196300	0.000000	0.692100
H1381	H138	0.281700	0.000000	0.844100
H1391	H139	0.401400	0.000000	0.858200
H1401	H140	0.184750	0.000000	0.743000
O771	O77	0.000000	0.342900	0.292100
Co31	Co3	0.000000	0.349340	0.175400
C1211	C121	0.000000	0.239800	0.460400
O781	O78	0.000000	0.366300	0.061900
C1221	C122	0.000000	0.222000	0.539400
C1231	C123	0.000000	0.318800	0.013500
H1411	H141	0.000000	0.270000	0.029100
N151	N15	0.000000	0.331400	0.942700
C1241	C124	0.000000	0.267000	0.896000
C1251	C125	0.000000	0.404000	0.912000
C1261	C126	0.000000	0.196300	0.692100
H1421	H142	0.000000	0.281700	0.844100
H1431	H143	0.000000	0.401400	0.858200
H1441	H144	0.000000	0.184750	0.743000
O791	O79	0.342900	0.342900	0.792100
Co41	Co4	0.349340	0.349340	0.675400
C1271	C127	0.239800	0.239800	0.960400
O801	O80	0.366300	0.366300	0.561900
C1281	C128	0.222000	0.222000	0.039400
C1291	C129	0.318800	0.318800	0.513500
H1451	H145	0.270000	0.270000	0.529100
N161	N16	0.331400	0.331400	0.442700
C1301	C130	0.267000	0.267000	0.396000
C1311	C131	0.404000	0.404000	0.412000
C1321	C132	0.196300	0.196300	0.192100
H1461	H146	0.281700	0.281700	0.344100
H1471	H147	0.401400	0.401400	0.358200
H1481	H148	0.184750	0.184750	0.243000
O811	O81	0.657100	0.000000	0.792100
Co51	Co5	0.650660	0.000000	0.675400
C1331	C133	0.760200	0.000000	0.960400
O821	O82	0.633700	0.000000	0.561900
C1341	C134	0.778000	0.000000	0.039400
C1351	C135	0.681200	0.000000	0.513500
H1491	H149	0.730000	0.000000	0.529100
N171	N17	0.668600	0.000000	0.442700
C1361	C136	0.733000	0.000000	0.396000
C1371	C137	0.596000	0.000000	0.412000
C1381	C138	0.803700	0.000000	0.192100
H1501	H150	0.718300	0.000000	0.344100
H1511	H151	0.598600	0.000000	0.358200
H1521	H152	0.815250	0.000000	0.243000
O831	O83	0.000000	0.657100	0.792100
Co61	Co6	0.000000	0.650660	0.675400
C1391	C139	0.000000	0.760200	0.960400
O841	O84	0.000000	0.633700	0.561900
C1401	C140	0.000000	0.778000	0.039400
C1411	C141	0.000000	0.681200	0.513500
H1531	H153	0.000000	0.730000	0.529100
N181	N18	0.000000	0.668600	0.442700
C1421	C142	0.000000	0.733000	0.396000
C1431	C143	0.000000	0.596000	0.412000
C1441	C144	0.000000	0.803700	0.192100
H1541	H154	0.000000	0.718300	0.344100
H1551	H155	0.000000	0.598600	0.358200
H1561	H156	0.000000	0.815250	0.243000
