data_EXEWIO_freeONLY_PM
_symmetry_space_group_name_H-M	'P1'
_cell_length_a	21.954400
_cell_length_b	23.891400
_cell_length_c	17.039800
_cell_angle_alpha	90.000000
_cell_angle_beta	106.568000
_cell_angle_gamma	90.000000
_symmetry_Int_Tables_number 1

loop_
_symmetry_equiv_pos_as_xyz
'x,y,z'

loop_
_atom_site_label
_atom_site_type_symbol
_atom_site_fract_x
_atom_site_fract_y
_atom_site_fract_z
S11	S1	0.953330	0.170550	0.128180
O11	O1	0.991890	0.070270	0.216960
O21	O2	0.655690	0.423170	0.942080
O31	O3	0.909930	0.053350	0.265400
O41	O4	0.737930	0.444870	0.896200
C11	C1	0.712300	0.414730	0.936100
C21	C2	0.903800	0.130350	0.177700
C31	C3	0.936400	0.081230	0.223400
C41	C4	0.747100	0.366230	0.981900
C51	C5	0.775600	0.282400	0.055500
C61	C6	0.829200	0.298600	0.036800
C71	C7	0.829800	0.199700	0.120200
C81	C8	0.884400	0.217100	0.100200
C91	C9	0.885900	0.266100	0.057600
H11	H1	0.921900	0.277100	0.043400
C101	C10	0.772300	0.232200	0.099600
H21	H2	0.736100	0.221400	0.113700
Zn11	Zn1	0.311520	0.017690	0.045880
Zn21	Zn2	0.017860	0.000100	0.279390
Zn31	Zn3	0.635720	0.499870	0.896230
S21	S2	0.540500	0.631440	0.254990
S31	S3	0.960440	0.775860	0.261290
S41	S4	0.793910	0.612930	0.083060
S51	S5	0.375210	0.789830	0.063740
O51	O5	0.359600	0.951400	0.090200
N11	N1	0.044340	0.019580	0.400300
N21	N2	0.292060	0.035000	0.924100
O61	O6	0.639390	0.572790	0.379570
O71	O7	0.643680	0.624620	0.891400
O81	O8	0.690520	0.552590	0.968500
N31	N3	0.107120	0.987950	0.263200
N41	N4	0.543140	0.991290	0.401500
O91	O9	0.307920	0.891750	0.992100
O101	O10	0.696080	0.647260	0.437100
N51	N5	0.217610	0.008960	0.040500
O111	O11	0.967270	0.937220	0.226600
C111	C11	0.880100	0.691660	0.174600
C121	C12	0.543580	0.739560	0.272000
O121	O12	0.023210	0.882820	0.328300
C131	C13	0.512300	0.943000	0.383200
C141	C14	0.100480	0.050970	0.562500
N61	N6	0.612690	0.500860	0.772400
C151	C15	0.391600	0.857810	0.099400
C161	C16	0.071800	0.982400	0.457300
H31	H3	0.071900	0.944900	0.442200
C171	C17	0.471800	0.807980	0.192000
C181	C18	0.861200	0.790790	0.135000
C191	C19	0.524900	0.795270	0.255900
H41	H4	0.548000	0.823800	0.288200
C201	C20	0.508400	0.696890	0.222000
C211	C21	0.349300	0.903090	0.056000
C221	C22	0.141900	0.943300	0.294100
C231	C23	0.456200	0.708380	0.155900
C241	C24	0.980700	0.890900	0.264000
C251	C25	0.438800	0.763870	0.142300
C261	C26	0.235100	0.981400	0.267400
C271	C27	0.789800	0.720780	0.059200
C281	C28	0.238640	0.055820	0.756500
C291	C29	0.133600	0.065500	0.650000
C301	C30	0.244800	0.002850	0.787800
H51	H5	0.231200	0.972600	0.752800
C311	C31	0.684990	0.604440	0.949500
C321	C32	0.261300	0.098450	0.811500
H61	H6	0.258700	0.135300	0.793400
C331	C33	0.896290	0.747810	0.186200
C341	C34	0.412700	0.984500	0.381200
C351	C35	0.206410	0.065090	0.667000
H71	H7	0.218500	0.035600	0.635300
H81	H8	0.220200	0.100500	0.650100
C361	C36	0.941100	0.843250	0.223900
C371	C37	0.287800	0.086630	0.893700
H91	H9	0.303300	0.116100	0.929400
C381	C38	0.205100	0.938400	0.296600
H101	H10	0.227600	0.906200	0.317800
C391	C39	0.069700	0.089500	0.505000
H111	H11	0.067000	0.126700	0.519700
C401	C40	0.733200	0.641350	0.003700
C411	C41	0.135400	0.028740	0.231900
H121	H12	0.111500	0.059700	0.208100
C421	C42	0.442900	0.861800	0.165600
C431	C43	0.649500	0.625170	0.388200
C441	C44	0.601100	0.661320	0.332200
C451	C45	0.198500	0.026400	0.233800
H131	H13	0.216400	0.055700	0.211900
C461	C46	0.180900	0.054200	0.030500
H141	H14	0.200000	0.089200	0.039600
C471	C47	0.042600	0.072500	0.424900
C481	C48	0.445400	0.034400	0.401600
H151	H15	0.423800	0.066600	0.408600
C491	C49	0.808000	0.776800	0.071800
H161	H16	0.784500	0.804500	0.038000
C501	C50	0.826600	0.678730	0.110800
C511	C51	0.342100	0.981500	0.366900
H171	H17	0.332100	0.948400	0.393900
H181	H18	0.328400	0.013900	0.391600
C521	C52	0.888700	0.844870	0.159300
H191	H19	0.871900	0.877900	0.133000
C531	C53	0.737600	0.697350	0.999200
C541	C54	0.509600	0.036420	0.411400
H201	H20	0.530600	0.070300	0.425400
C551	C55	0.447700	0.937500	0.372500
H211	H21	0.428000	0.902900	0.359700
C561	C56	0.270800	0.993550	0.870300
H221	H22	0.273800	0.956900	0.889600
C571	C57	0.100100	0.996500	0.537100
H231	H23	0.119300	0.969000	0.574500
C581	C58	0.596400	0.717410	0.333600
H241	H24	0.625000	0.739800	0.371400
C591	C59	0.189000	0.958400	0.029300
H251	H25	0.213900	0.926300	0.037900
C601	C60	0.305600	0.979300	0.277500
H261	H26	0.317600	0.010800	0.249200
H271	H27	0.315900	0.945100	0.253400
C611	C61	0.578200	0.448700	0.648800
H281	H28	0.571500	0.413900	0.623400
C621	C62	0.123900	0.953100	0.005700
H291	H29	0.105600	0.917600	0.998300
C631	C63	0.013100	0.995800	0.965100
H301	H30	0.000400	0.959300	0.941000
H311	H31	0.996100	0.024000	0.923700
C641	C64	0.599000	0.547500	0.728000
C651	C65	0.574800	0.547400	0.644400
H321	H32	0.565700	0.581000	0.615900
C661	C66	0.564100	0.497300	0.602600
C671	C67	0.602100	0.452400	0.732200
C681	C68	0.115200	0.051000	0.007000
H331	H33	0.091100	0.083600	0.000700
C691	C69	0.536300	0.496500	0.511500
H341	H34	0.546600	0.461400	0.489800
H351	H35	0.554500	0.526700	0.487400
C701	C70	0.085700	0.999600	0.992800
H361	H36	0.122000	0.096200	0.665000
H371	H37	0.712200	0.713600	0.967000
H381	H38	0.461900	0.896500	0.190000
H391	H39	0.537000	0.918000	0.384000
H401	H40	0.124000	0.033000	0.694000
H411	H41	0.434000	0.676000	0.116000
H421	H42	0.903000	0.668000	0.217000
H431	H43	0.117000	0.912000	0.319000
H441	H44	0.607000	0.582000	0.765000
H451	H45	0.027000	0.102700	0.390000
H461	H46	0.617000	0.416000	0.766000
S61	S6	0.172970	0.860650	0.526020
S71	S7	0.046670	0.670550	0.371820
O131	O13	0.008110	0.570270	0.283040
O141	O14	0.344310	0.923170	0.557920
O151	O15	0.090070	0.553350	0.234600
O161	O16	0.262070	0.944870	0.603800
C711	C71	0.287700	0.914730	0.563900
C721	C72	0.096200	0.630350	0.322300
C731	C73	0.063600	0.581230	0.276600
C741	C74	0.252900	0.866230	0.518100
C751	C75	0.224400	0.782400	0.444500
C761	C76	0.170800	0.798600	0.463200
C771	C77	0.170200	0.699700	0.379800
C781	C78	0.115600	0.717100	0.399800
C791	C79	0.114100	0.766100	0.442400
H471	H47	0.078100	0.777100	0.456600
C801	C80	0.227700	0.732200	0.400400
H481	H48	0.263900	0.721400	0.386300
Zn41	Zn4	0.688480	0.517690	0.454120
Zn51	Zn5	0.982140	0.500100	0.220610
Zn61	Zn6	0.364280	0.999870	0.603770
S81	S8	0.459500	0.131440	0.245010
S91	S9	0.039560	0.275860	0.238710
S101	S10	0.206090	0.112930	0.416940
S111	S11	0.624790	0.289830	0.436260
O171	O17	0.640400	0.451400	0.409800
N71	N7	0.955660	0.519580	0.099700
N81	N8	0.707940	0.535000	0.575900
O181	O18	0.360610	0.072790	0.120430
O191	O19	0.356320	0.124620	0.608600
O201	O20	0.309480	0.052590	0.531500
N91	N9	0.892880	0.487950	0.236800
N101	N10	0.456860	0.491290	0.098500
O211	O21	0.692080	0.391750	0.507900
O221	O22	0.303920	0.147260	0.062900
N111	N11	0.782390	0.508960	0.459500
O231	O23	0.032730	0.437220	0.273400
C811	C81	0.119900	0.191660	0.325400
C821	C82	0.456420	0.239560	0.228000
O241	O24	0.976790	0.382820	0.171700
C831	C83	0.487700	0.443000	0.116800
C841	C84	0.899520	0.550970	0.937500
N121	N12	0.387310	0.000860	0.727600
C851	C85	0.608400	0.357810	0.400600
C861	C86	0.928200	0.482400	0.042700
H491	H49	0.928100	0.444900	0.057800
C871	C87	0.528200	0.307980	0.308000
C881	C88	0.138800	0.290790	0.365000
C891	C89	0.475100	0.295270	0.244100
H501	H50	0.452000	0.323800	0.211800
C901	C90	0.491600	0.196890	0.278000
C911	C91	0.650700	0.403090	0.444000
C921	C92	0.858100	0.443300	0.205900
C931	C93	0.543800	0.208380	0.344100
C941	C94	0.019300	0.390900	0.236000
C951	C95	0.561200	0.263870	0.357700
C961	C96	0.764900	0.481400	0.232600
C971	C97	0.210200	0.220780	0.440800
C981	C98	0.761360	0.555820	0.743500
C991	C99	0.866400	0.565500	0.850000
C1001	C100	0.755200	0.502850	0.712200
H511	H51	0.768800	0.472600	0.747200
C1011	C101	0.315010	0.104440	0.550500
C1021	C102	0.738700	0.598450	0.688500
H521	H52	0.741300	0.635300	0.706600
C1031	C103	0.103710	0.247810	0.313800
C1041	C104	0.587300	0.484500	0.118800
C1051	C105	0.793590	0.565090	0.833000
H531	H53	0.781500	0.535600	0.864700
H541	H54	0.779800	0.600500	0.849900
C1061	C106	0.058900	0.343250	0.276100
C1071	C107	0.712200	0.586630	0.606300
H551	H55	0.696700	0.616100	0.570600
C1081	C108	0.794900	0.438400	0.203400
H561	H56	0.772400	0.406200	0.182200
C1091	C109	0.930300	0.589500	0.995000
H571	H57	0.933000	0.626700	0.980300
C1101	C110	0.266800	0.141350	0.496300
C1111	C111	0.864600	0.528740	0.268100
H581	H58	0.888500	0.559700	0.291900
C1121	C112	0.557100	0.361800	0.334400
C1131	C113	0.350500	0.125170	0.111800
C1141	C114	0.398900	0.161320	0.167800
C1151	C115	0.801500	0.526400	0.266200
H591	H59	0.783600	0.555700	0.288100
C1161	C116	0.819100	0.554200	0.469500
H601	H60	0.800000	0.589200	0.460400
C1171	C117	0.957400	0.572500	0.075100
C1181	C118	0.554600	0.534400	0.098400
H611	H61	0.576200	0.566600	0.091400
C1191	C119	0.192000	0.276800	0.428200
H621	H62	0.215500	0.304500	0.462000
C1201	C120	0.173400	0.178730	0.389200
C1211	C121	0.657900	0.481500	0.133100
H631	H63	0.667900	0.448400	0.106100
H641	H64	0.671600	0.513900	0.108400
C1221	C122	0.111300	0.344870	0.340700
H651	H65	0.128100	0.377900	0.367000
C1231	C123	0.262400	0.197350	0.500800
C1241	C124	0.490400	0.536420	0.088600
H661	H66	0.469400	0.570300	0.074600
C1251	C125	0.552300	0.437500	0.127500
H671	H67	0.572000	0.402900	0.140300
C1261	C126	0.729200	0.493550	0.629700
H681	H68	0.726200	0.456900	0.610400
C1271	C127	0.899900	0.496500	0.962900
H691	H69	0.880700	0.469000	0.925500
C1281	C128	0.403600	0.217410	0.166400
H701	H70	0.375000	0.239800	0.128600
C1291	C129	0.811000	0.458400	0.470700
H711	H71	0.786100	0.426300	0.462100
C1301	C130	0.694400	0.479300	0.222500
H721	H72	0.682400	0.510800	0.250800
H731	H73	0.684100	0.445100	0.246600
C1311	C131	0.421800	0.948700	0.851200
H741	H74	0.428500	0.913900	0.876600
C1321	C132	0.876100	0.453100	0.494300
H751	H75	0.894400	0.417600	0.501700
C1331	C133	0.986900	0.495800	0.534900
H761	H76	0.999600	0.459300	0.559000
H771	H77	0.003900	0.524000	0.576300
C1341	C134	0.401000	0.047500	0.772000
C1351	C135	0.425200	0.047400	0.855600
H781	H78	0.434300	0.081000	0.884100
C1361	C136	0.435900	0.997300	0.897400
C1371	C137	0.397900	0.952400	0.767800
C1381	C138	0.884800	0.551000	0.493000
H791	H79	0.908900	0.583600	0.499300
C1391	C139	0.463700	0.996500	0.988500
H801	H80	0.453400	0.961400	0.010200
H811	H81	0.445500	0.026700	0.012600
C1401	C140	0.914300	0.499600	0.507200
H821	H82	0.878000	0.596200	0.835000
H831	H83	0.287800	0.213600	0.533000
H841	H84	0.538100	0.396500	0.310000
H851	H85	0.463000	0.418000	0.116000
H861	H86	0.876000	0.533000	0.806000
H871	H87	0.566000	0.176000	0.384000
H881	H88	0.097000	0.168000	0.283000
H891	H89	0.883000	0.412000	0.181000
H901	H90	0.393000	0.082000	0.735000
H911	H91	0.973000	0.602700	0.110000
H921	H92	0.383000	0.916000	0.734000
S121	S12	0.046670	0.829450	0.871820
O251	O25	0.008110	0.929730	0.783040
O261	O26	0.344310	0.576830	0.057920
O271	O27	0.090070	0.946650	0.734600
O281	O28	0.262070	0.555130	0.103800
C1411	C141	0.287700	0.585270	0.063900
C1421	C142	0.096200	0.869650	0.822300
C1431	C143	0.063600	0.918770	0.776600
C1441	C144	0.252900	0.633770	0.018100
C1451	C145	0.224400	0.717600	0.944500
C1461	C146	0.170800	0.701400	0.963200
C1471	C147	0.170200	0.800300	0.879800
C1481	C148	0.115600	0.782900	0.899800
C1491	C149	0.114100	0.733900	0.942400
H931	H93	0.078100	0.722900	0.956600
C1501	C150	0.227700	0.767800	0.900400
H941	H94	0.263900	0.778600	0.886300
Zn71	Zn7	0.688480	0.982310	0.954120
Zn81	Zn8	0.982140	0.999900	0.720610
Zn91	Zn9	0.364280	0.500130	0.103770
S131	S13	0.459500	0.368560	0.745010
S141	S14	0.039560	0.224140	0.738710
S151	S15	0.206090	0.387070	0.916940
S161	S16	0.624790	0.210170	0.936260
O291	O29	0.640400	0.048600	0.909800
N131	N13	0.955660	0.980420	0.599700
N141	N14	0.707940	0.965000	0.075900
O301	O30	0.360610	0.427210	0.620430
O311	O31	0.356320	0.375380	0.108600
O321	O32	0.309480	0.447410	0.031500
N151	N15	0.892880	0.012050	0.736800
N161	N16	0.456860	0.008710	0.598500
O331	O33	0.692080	0.108250	0.007900
O341	O34	0.303920	0.352740	0.562900
N171	N17	0.782390	0.991040	0.959500
O351	O35	0.032730	0.062780	0.773400
C1511	C151	0.119900	0.308340	0.825400
C1521	C152	0.456420	0.260440	0.728000
O361	O36	0.976790	0.117180	0.671700
C1531	C153	0.487700	0.057000	0.616800
C1541	C154	0.899520	0.949030	0.437500
N181	N18	0.387310	0.499140	0.227600
C1551	C155	0.608400	0.142190	0.900600
C1561	C156	0.928200	0.017600	0.542700
H951	H95	0.928100	0.055100	0.557800
C1571	C157	0.528200	0.192020	0.808000
C1581	C158	0.138800	0.209210	0.865000
C1591	C159	0.475100	0.204730	0.744100
H961	H96	0.452000	0.176200	0.711800
C1601	C160	0.491600	0.303110	0.778000
C1611	C161	0.650700	0.096910	0.944000
C1621	C162	0.858100	0.056700	0.705900
C1631	C163	0.543800	0.291620	0.844100
C1641	C164	0.019300	0.109100	0.736000
C1651	C165	0.561200	0.236130	0.857700
C1661	C166	0.764900	0.018600	0.732600
C1671	C167	0.210200	0.279220	0.940800
C1681	C168	0.761360	0.944180	0.243500
C1691	C169	0.866400	0.934500	0.350000
C1701	C170	0.755200	0.997150	0.212200
H971	H97	0.768800	0.027400	0.247200
C1711	C171	0.315010	0.395560	0.050500
C1721	C172	0.738700	0.901550	0.188500
H981	H98	0.741300	0.864700	0.206600
C1731	C173	0.103710	0.252190	0.813800
C1741	C174	0.587300	0.015500	0.618800
C1751	C175	0.793590	0.934910	0.333000
H991	H99	0.781500	0.964400	0.364700
H1001	H100	0.779800	0.899500	0.349900
C1761	C176	0.058900	0.156750	0.776100
C1771	C177	0.712200	0.913370	0.106300
H1011	H101	0.696700	0.883900	0.070600
C1781	C178	0.794900	0.061600	0.703400
H1021	H102	0.772400	0.093800	0.682200
C1791	C179	0.930300	0.910500	0.495000
H1031	H103	0.933000	0.873300	0.480300
C1801	C180	0.266800	0.358650	0.996300
C1811	C181	0.864600	0.971260	0.768100
H1041	H104	0.888500	0.940300	0.791900
C1821	C182	0.557100	0.138200	0.834400
C1831	C183	0.350500	0.374830	0.611800
C1841	C184	0.398900	0.338680	0.667800
C1851	C185	0.801500	0.973600	0.766200
H1051	H105	0.783600	0.944300	0.788100
C1861	C186	0.819100	0.945800	0.969500
H1061	H106	0.800000	0.910800	0.960400
C1871	C187	0.957400	0.927500	0.575100
C1881	C188	0.554600	0.965600	0.598400
H1071	H107	0.576200	0.933400	0.591400
C1891	C189	0.192000	0.223200	0.928200
H1081	H108	0.215500	0.195500	0.962000
C1901	C190	0.173400	0.321270	0.889200
C1911	C191	0.657900	0.018500	0.633100
H1091	H109	0.667900	0.051600	0.606100
H1101	H110	0.671600	0.986100	0.608400
C1921	C192	0.111300	0.155130	0.840700
H1111	H111	0.128100	0.122100	0.867000
C1931	C193	0.262400	0.302650	0.000800
C1941	C194	0.490400	0.963580	0.588600
H1121	H112	0.469400	0.929700	0.574600
C1951	C195	0.552300	0.062500	0.627500
H1131	H113	0.572000	0.097100	0.640300
C1961	C196	0.729200	0.006450	0.129700
H1141	H114	0.726200	0.043100	0.110400
C1971	C197	0.899900	0.003500	0.462900
H1151	H115	0.880700	0.031000	0.425500
C1981	C198	0.403600	0.282590	0.666400
H1161	H116	0.375000	0.260200	0.628600
C1991	C199	0.811000	0.041600	0.970700
H1171	H117	0.786100	0.073700	0.962100
C2001	C200	0.694400	0.020700	0.722500
H1181	H118	0.682400	0.989200	0.750800
H1191	H119	0.684100	0.054900	0.746600
C2011	C201	0.421800	0.551300	0.351200
H1201	H120	0.428500	0.586100	0.376600
C2021	C202	0.876100	0.046900	0.994300
H1211	H121	0.894400	0.082400	0.001700
C2031	C203	0.986900	0.004200	0.034900
H1221	H122	0.999600	0.040700	0.059000
H1231	H123	0.003900	0.976000	0.076300
C2041	C204	0.401000	0.452500	0.272000
C2051	C205	0.425200	0.452600	0.355600
H1241	H124	0.434300	0.419000	0.384100
C2061	C206	0.435900	0.502700	0.397400
C2071	C207	0.397900	0.547600	0.267800
C2081	C208	0.884800	0.949000	0.993000
H1251	H125	0.908900	0.916400	0.999300
C2091	C209	0.463700	0.503500	0.488500
H1261	H126	0.453400	0.538600	0.510200
H1271	H127	0.445500	0.473300	0.512600
C2101	C210	0.914300	0.000400	0.007200
H1281	H128	0.878000	0.903800	0.335000
H1291	H129	0.287800	0.286400	0.033000
H1301	H130	0.538100	0.103500	0.810000
H1311	H131	0.463000	0.082000	0.616000
H1321	H132	0.876000	0.967000	0.306000
H1331	H133	0.566000	0.324000	0.884000
H1341	H134	0.097000	0.332000	0.783000
H1351	H135	0.883000	0.088000	0.681000
H1361	H136	0.393000	0.418000	0.235000
H1371	H137	0.973000	0.897300	0.610000
H1381	H138	0.383000	0.584000	0.234000
S171	S17	0.827030	0.139350	0.473980
S181	S18	0.953330	0.329450	0.628180
O371	O37	0.991890	0.429730	0.716960
O381	O38	0.655690	0.076830	0.442080
O391	O39	0.909930	0.446650	0.765400
O401	O40	0.737930	0.055130	0.396200
C2111	C211	0.712300	0.085270	0.436100
C2121	C212	0.903800	0.369650	0.677700
C2131	C213	0.936400	0.418770	0.723400
C2141	C214	0.747100	0.133770	0.481900
C2151	C215	0.775600	0.217600	0.555500
C2161	C216	0.829200	0.201400	0.536800
C2171	C217	0.829800	0.300300	0.620200
C2181	C218	0.884400	0.282900	0.600200
C2191	C219	0.885900	0.233900	0.557600
H1391	H139	0.921900	0.222900	0.543400
C2201	C220	0.772300	0.267800	0.599600
H1401	H140	0.736100	0.278600	0.613700
Zn101	Zn10	0.311520	0.482310	0.545880
Zn111	Zn11	0.017860	0.499900	0.779390
Zn121	Zn12	0.635720	0.000130	0.396230
S191	S19	0.540500	0.868560	0.754990
S201	S20	0.960440	0.724140	0.761290
S211	S21	0.793910	0.887070	0.583060
S221	S22	0.375210	0.710170	0.563740
O411	O41	0.359600	0.548600	0.590200
N191	N19	0.044340	0.480420	0.900300
N201	N20	0.292060	0.465000	0.424100
O421	O42	0.639390	0.927210	0.879570
O431	O43	0.643680	0.875380	0.391400
O441	O44	0.690520	0.947410	0.468500
N211	N21	0.107120	0.512050	0.763200
N221	N22	0.543140	0.508710	0.901500
O451	O45	0.307920	0.608250	0.492100
O461	O46	0.696080	0.852740	0.937100
N231	N23	0.217610	0.491040	0.540500
O471	O47	0.967270	0.562780	0.726600
C2211	C221	0.880100	0.808340	0.674600
C2221	C222	0.543580	0.760440	0.772000
O481	O48	0.023210	0.617180	0.828300
C2231	C223	0.512300	0.557000	0.883200
C2241	C224	0.100480	0.449030	0.062500
N241	N24	0.612690	0.999140	0.272400
C2251	C225	0.391600	0.642190	0.599400
C2261	C226	0.071800	0.517600	0.957300
H1411	H141	0.071900	0.555100	0.942200
C2271	C227	0.471800	0.692020	0.692000
C2281	C228	0.861200	0.709210	0.635000
C2291	C229	0.524900	0.704730	0.755900
H1421	H142	0.548000	0.676200	0.788200
C2301	C230	0.508400	0.803110	0.722000
C2311	C231	0.349300	0.596910	0.556000
C2321	C232	0.141900	0.556700	0.794100
C2331	C233	0.456200	0.791620	0.655900
C2341	C234	0.980700	0.609100	0.764000
C2351	C235	0.438800	0.736130	0.642300
C2361	C236	0.235100	0.518600	0.767400
C2371	C237	0.789800	0.779220	0.559200
C2381	C238	0.238640	0.444180	0.256500
C2391	C239	0.133600	0.434500	0.150000
C2401	C240	0.244800	0.497150	0.287800
H1431	H143	0.231200	0.527400	0.252800
C2411	C241	0.684990	0.895560	0.449500
C2421	C242	0.261300	0.401550	0.311500
H1441	H144	0.258700	0.364700	0.293400
C2431	C243	0.896290	0.752190	0.686200
C2441	C244	0.412700	0.515500	0.881200
C2451	C245	0.206410	0.434910	0.167000
H1451	H145	0.218500	0.464400	0.135300
H1461	H146	0.220200	0.399500	0.150100
C2461	C246	0.941100	0.656750	0.723900
C2471	C247	0.287800	0.413370	0.393700
H1471	H147	0.303300	0.383900	0.429400
C2481	C248	0.205100	0.561600	0.796600
H1481	H148	0.227600	0.593800	0.817800
C2491	C249	0.069700	0.410500	0.005000
H1491	H149	0.067000	0.373300	0.019700
C2501	C250	0.733200	0.858650	0.503700
C2511	C251	0.135400	0.471260	0.731900
H1501	H150	0.111500	0.440300	0.708100
C2521	C252	0.442900	0.638200	0.665600
C2531	C253	0.649500	0.874830	0.888200
C2541	C254	0.601100	0.838680	0.832200
C2551	C255	0.198500	0.473600	0.733800
H1511	H151	0.216400	0.444300	0.711900
C2561	C256	0.180900	0.445800	0.530500
H1521	H152	0.200000	0.410800	0.539600
C2571	C257	0.042600	0.427500	0.924900
C2581	C258	0.445400	0.465600	0.901600
H1531	H153	0.423800	0.433400	0.908600
C2591	C259	0.808000	0.723200	0.571800
H1541	H154	0.784500	0.695500	0.538000
C2601	C260	0.826600	0.821270	0.610800
C2611	C261	0.342100	0.518500	0.866900
H1551	H155	0.332100	0.551600	0.893900
H1561	H156	0.328400	0.486100	0.891600
C2621	C262	0.888700	0.655130	0.659300
H1571	H157	0.871900	0.622100	0.633000
C2631	C263	0.737600	0.802650	0.499200
C2641	C264	0.509600	0.463580	0.911400
H1581	H158	0.530600	0.429700	0.925400
C2651	C265	0.447700	0.562500	0.872500
H1591	H159	0.428000	0.597100	0.859700
C2661	C266	0.270800	0.506450	0.370300
H1601	H160	0.273800	0.543100	0.389600
C2671	C267	0.100100	0.503500	0.037100
H1611	H161	0.119300	0.531000	0.074500
C2681	C268	0.596400	0.782590	0.833600
H1621	H162	0.625000	0.760200	0.871400
C2691	C269	0.189000	0.541600	0.529300
H1631	H163	0.213900	0.573700	0.537900
C2701	C270	0.305600	0.520700	0.777500
H1641	H164	0.317600	0.489200	0.749200
H1651	H165	0.315900	0.554900	0.753400
C2711	C271	0.578200	0.051300	0.148800
H1661	H166	0.571500	0.086100	0.123400
C2721	C272	0.123900	0.546900	0.505700
H1671	H167	0.105600	0.582400	0.498300
C2731	C273	0.013100	0.504200	0.465100
H1681	H168	0.000400	0.540700	0.441000
H1691	H169	0.996100	0.476000	0.423700
C2741	C274	0.599000	0.952500	0.228000
C2751	C275	0.574800	0.952600	0.144400
H1701	H170	0.565700	0.919000	0.115900
C2761	C276	0.564100	0.002700	0.102600
C2771	C277	0.602100	0.047600	0.232200
C2781	C278	0.115200	0.449000	0.507000
H1711	H171	0.091100	0.416400	0.500700
C2791	C279	0.536300	0.003500	0.011500
H1721	H172	0.546600	0.038600	0.989800
H1731	H173	0.554500	0.973300	0.987400
C2801	C280	0.085700	0.500400	0.492800
H1741	H174	0.122000	0.403800	0.165000
H1751	H175	0.712200	0.786400	0.467000
H1761	H176	0.461900	0.603500	0.690000
H1771	H177	0.537000	0.582000	0.884000
H1781	H178	0.124000	0.467000	0.194000
H1791	H179	0.434000	0.824000	0.616000
H1801	H180	0.903000	0.832000	0.717000
H1811	H181	0.117000	0.588000	0.819000
H1821	H182	0.607000	0.918000	0.265000
H1831	H183	0.027000	0.397300	0.890000
H1841	H184	0.617000	0.084000	0.266000
