data_EXOJAC_freeONLY_PM
_symmetry_space_group_name_H-M	'P1'
_cell_length_a	18.110000
_cell_length_b	19.789000
_cell_length_c	9.205000
_cell_angle_alpha	90.000000
_cell_angle_beta	102.480000
_cell_angle_gamma	90.000000
_symmetry_Int_Tables_number 1

loop_
_symmetry_equiv_pos_as_xyz
'x,y,z'

loop_
_atom_site_label
_atom_site_type_symbol
_atom_site_fract_x
_atom_site_fract_y
_atom_site_fract_z
N11	N1	0.584200	0.395500	0.781600
N21	N2	0.921400	0.749000	0.727300
C11	C1	0.646300	0.388000	0.723700
H11	H1	0.651000	0.349300	0.669200
C21	C2	0.702900	0.436200	0.743100
H21	H2	0.746400	0.427900	0.707400
C31	C3	0.696000	0.496200	0.814500
C41	C4	0.632700	0.503900	0.873800
H31	H3	0.625600	0.543300	0.924200
C51	C5	0.580700	0.453100	0.857600
H41	H4	0.539700	0.458700	0.902400
C61	C6	0.872500	0.734800	0.602200
H51	H5	0.874400	0.760500	0.518500
C71	C7	0.819000	0.684500	0.587900
H61	H6	0.785500	0.677600	0.497200
C81	C8	0.815500	0.644000	0.710200
C91	C9	0.868400	0.657100	0.840500
H71	H7	0.869500	0.630700	0.924600
C101	C10	0.919600	0.709300	0.845000
H81	H8	0.954400	0.717400	0.933600
C111	C11	0.754700	0.591400	0.695700
H91	H9	0.759400	0.560500	0.616400
H101	H10	0.705800	0.613300	0.667300
C121	C12	0.757100	0.551100	0.836600
H111	H11	0.750000	0.581500	0.915200
H121	H12	0.806400	0.530200	0.867500
C131	C13	0.497500	0.349400	0.374000
N31	N3	0.494700	0.335400	0.488400
N41	N4	0.084200	0.895500	0.781600
N51	N5	0.421400	0.249000	0.727300
C141	C14	0.146300	0.888000	0.723700
H131	H13	0.151000	0.849300	0.669200
C151	C15	0.202900	0.936200	0.743100
H141	H14	0.246400	0.927900	0.707400
C161	C16	0.196000	0.996200	0.814500
C171	C17	0.132700	0.003900	0.873800
H151	H15	0.125600	0.043300	0.924200
C181	C18	0.080700	0.953100	0.857600
H161	H16	0.039700	0.958700	0.902400
C191	C19	0.372500	0.234800	0.602200
H171	H17	0.374400	0.260500	0.518500
C201	C20	0.319000	0.184500	0.587900
H181	H18	0.285500	0.177600	0.497200
C211	C21	0.315500	0.144000	0.710200
C221	C22	0.368400	0.157100	0.840500
H191	H19	0.369500	0.130700	0.924600
C231	C23	0.419600	0.209300	0.845000
H201	H20	0.454400	0.217400	0.933600
C241	C24	0.254700	0.091400	0.695700
H211	H21	0.259400	0.060500	0.616400
H221	H22	0.205800	0.113300	0.667300
C251	C25	0.257100	0.051100	0.836600
H231	H23	0.250000	0.081500	0.915200
H241	H24	0.306400	0.030200	0.867500
C261	C26	0.997500	0.849400	0.374000
N61	N6	0.994700	0.835400	0.488400
N71	N7	0.415800	0.395500	0.718400
N81	N8	0.078600	0.749000	0.772700
C271	C27	0.353700	0.388000	0.776300
H251	H25	0.349000	0.349300	0.830800
C281	C28	0.297100	0.436200	0.756900
H261	H26	0.253600	0.427900	0.792600
C291	C29	0.304000	0.496200	0.685500
C301	C30	0.367300	0.503900	0.626200
H271	H27	0.374400	0.543300	0.575800
C311	C31	0.419300	0.453100	0.642400
H281	H28	0.460300	0.458700	0.597600
C321	C32	0.127500	0.734800	0.897800
H291	H29	0.125600	0.760500	0.981500
C331	C33	0.181000	0.684500	0.912100
H301	H30	0.214500	0.677600	0.002800
C341	C34	0.184500	0.644000	0.789800
C351	C35	0.131600	0.657100	0.659500
H311	H31	0.130500	0.630700	0.575400
C361	C36	0.080400	0.709300	0.655000
H321	H32	0.045600	0.717400	0.566400
C371	C37	0.245300	0.591400	0.804300
H331	H33	0.240600	0.560500	0.883600
H341	H34	0.294200	0.613300	0.832700
C381	C38	0.242900	0.551100	0.663400
H351	H35	0.250000	0.581500	0.584800
H361	H36	0.193600	0.530200	0.632500
C391	C39	0.502500	0.349400	0.126000
N91	N9	0.505300	0.335400	0.011600
N101	N10	0.915800	0.895500	0.718400
N111	N11	0.578600	0.249000	0.772700
C401	C40	0.853700	0.888000	0.776300
H371	H37	0.849000	0.849300	0.830800
C411	C41	0.797100	0.936200	0.756900
H381	H38	0.753600	0.927900	0.792600
C421	C42	0.804000	0.996200	0.685500
C431	C43	0.867300	0.003900	0.626200
H391	H39	0.874400	0.043300	0.575800
C441	C44	0.919300	0.953100	0.642400
H401	H40	0.960300	0.958700	0.597600
C451	C45	0.627500	0.234800	0.897800
H411	H41	0.625600	0.260500	0.981500
C461	C46	0.681000	0.184500	0.912100
H421	H42	0.714500	0.177600	0.002800
C471	C47	0.684500	0.144000	0.789800
C481	C48	0.631600	0.157100	0.659500
H431	H43	0.630500	0.130700	0.575400
C491	C49	0.580400	0.209300	0.655000
H441	H44	0.545600	0.217400	0.566400
C501	C50	0.745300	0.091400	0.804300
H451	H45	0.740600	0.060500	0.883600
H461	H46	0.794200	0.113300	0.832700
C511	C51	0.742900	0.051100	0.663400
H471	H47	0.750000	0.081500	0.584800
H481	H48	0.693600	0.030200	0.632500
C521	C52	0.002500	0.849400	0.126000
N121	N12	0.005300	0.835400	0.011600
Cu11	Cu1	0.500000	0.323940	0.750000
Cu21	Cu2	0.000000	0.823940	0.750000
N131	N13	0.500000	0.379500	0.250000
N141	N14	0.000000	0.879500	0.250000
N151	N15	0.415800	0.604500	0.218400
N161	N16	0.078600	0.251000	0.272700
C531	C53	0.353700	0.612000	0.276300
H491	H49	0.349000	0.650700	0.330800
C541	C54	0.297100	0.563800	0.256900
H501	H50	0.253600	0.572100	0.292600
C551	C55	0.304000	0.503800	0.185500
C561	C56	0.367300	0.496100	0.126200
H511	H51	0.374400	0.456700	0.075800
C571	C57	0.419300	0.546900	0.142400
H521	H52	0.460300	0.541300	0.097600
C581	C58	0.127500	0.265200	0.397800
H531	H53	0.125600	0.239500	0.481500
C591	C59	0.181000	0.315500	0.412100
H541	H54	0.214500	0.322400	0.502800
C601	C60	0.184500	0.356000	0.289800
C611	C61	0.131600	0.342900	0.159500
H551	H55	0.130500	0.369300	0.075400
C621	C62	0.080400	0.290700	0.155000
H561	H56	0.045600	0.282600	0.066400
C631	C63	0.245300	0.408600	0.304300
H571	H57	0.240600	0.439500	0.383600
H581	H58	0.294200	0.386700	0.332700
C641	C64	0.242900	0.448900	0.163400
H591	H59	0.250000	0.418500	0.084800
H601	H60	0.193600	0.469800	0.132500
C651	C65	0.502500	0.650600	0.626000
N171	N17	0.505300	0.664600	0.511600
N181	N18	0.915800	0.104500	0.218400
N191	N19	0.578600	0.751000	0.272700
C661	C66	0.853700	0.112000	0.276300
H611	H61	0.849000	0.150700	0.330800
C671	C67	0.797100	0.063800	0.256900
H621	H62	0.753600	0.072100	0.292600
C681	C68	0.804000	0.003800	0.185500
C691	C69	0.867300	0.996100	0.126200
H631	H63	0.874400	0.956700	0.075800
C701	C70	0.919300	0.046900	0.142400
H641	H64	0.960300	0.041300	0.097600
C711	C71	0.627500	0.765200	0.397800
H651	H65	0.625600	0.739500	0.481500
C721	C72	0.681000	0.815500	0.412100
H661	H66	0.714500	0.822400	0.502800
C731	C73	0.684500	0.856000	0.289800
C741	C74	0.631600	0.842900	0.159500
H671	H67	0.630500	0.869300	0.075400
C751	C75	0.580400	0.790700	0.155000
H681	H68	0.545600	0.782600	0.066400
C761	C76	0.745300	0.908600	0.304300
H691	H69	0.740600	0.939500	0.383600
H701	H70	0.794200	0.886700	0.332700
C771	C77	0.742900	0.948900	0.163400
H711	H71	0.750000	0.918500	0.084800
H721	H72	0.693600	0.969800	0.132500
C781	C78	0.002500	0.150600	0.626000
N201	N20	0.005300	0.164600	0.511600
N211	N21	0.584200	0.604500	0.281600
N221	N22	0.921400	0.251000	0.227300
C791	C79	0.646300	0.612000	0.223700
H731	H73	0.651000	0.650700	0.169200
C801	C80	0.702900	0.563800	0.243100
H741	H74	0.746400	0.572100	0.207400
C811	C81	0.696000	0.503800	0.314500
C821	C82	0.632700	0.496100	0.373800
H751	H75	0.625600	0.456700	0.424200
C831	C83	0.580700	0.546900	0.357600
H761	H76	0.539700	0.541300	0.402400
C841	C84	0.872500	0.265200	0.102200
H771	H77	0.874400	0.239500	0.018500
C851	C85	0.819000	0.315500	0.087900
H781	H78	0.785500	0.322400	0.997200
C861	C86	0.815500	0.356000	0.210200
C871	C87	0.868400	0.342900	0.340500
H791	H79	0.869500	0.369300	0.424600
C881	C88	0.919600	0.290700	0.345000
H801	H80	0.954400	0.282600	0.433600
C891	C89	0.754700	0.408600	0.195700
H811	H81	0.759400	0.439500	0.116400
H821	H82	0.705800	0.386700	0.167300
C901	C90	0.757100	0.448900	0.336600
H831	H83	0.750000	0.418500	0.415200
H841	H84	0.806400	0.469800	0.367500
C911	C91	0.497500	0.650600	0.874000
N231	N23	0.494700	0.664600	0.988400
N241	N24	0.084200	0.104500	0.281600
N251	N25	0.421400	0.751000	0.227300
C921	C92	0.146300	0.112000	0.223700
H851	H85	0.151000	0.150700	0.169200
C931	C93	0.202900	0.063800	0.243100
H861	H86	0.246400	0.072100	0.207400
C941	C94	0.196000	0.003800	0.314500
C951	C95	0.132700	0.996100	0.373800
H871	H87	0.125600	0.956700	0.424200
C961	C96	0.080700	0.046900	0.357600
H881	H88	0.039700	0.041300	0.402400
C971	C97	0.372500	0.765200	0.102200
H891	H89	0.374400	0.739500	0.018500
C981	C98	0.319000	0.815500	0.087900
H901	H90	0.285500	0.822400	0.997200
C991	C99	0.315500	0.856000	0.210200
C1001	C100	0.368400	0.842900	0.340500
H911	H91	0.369500	0.869300	0.424600
C1011	C101	0.419600	0.790700	0.345000
H921	H92	0.454400	0.782600	0.433600
C1021	C102	0.254700	0.908600	0.195700
H931	H93	0.259400	0.939500	0.116400
H941	H94	0.205800	0.886700	0.167300
C1031	C103	0.257100	0.948900	0.336600
H951	H95	0.250000	0.918500	0.415200
H961	H96	0.306400	0.969800	0.367500
C1041	C104	0.997500	0.150600	0.874000
N261	N26	0.994700	0.164600	0.988400
Cu31	Cu3	0.500000	0.676060	0.250000
Cu41	Cu4	0.000000	0.176060	0.250000
N271	N27	0.500000	0.620500	0.750000
N281	N28	0.000000	0.120500	0.750000
