data_EXOTUH_SL_PM
_symmetry_space_group_name_H-M	'P1'
_cell_length_a	15.214000
_cell_length_b	15.214000
_cell_length_c	19.686000
_cell_angle_alpha	90.000000
_cell_angle_beta	90.000000
_cell_angle_gamma	120.000000
_symmetry_Int_Tables_number 1

loop_
_symmetry_equiv_pos_as_xyz
'x,y,z'

loop_
_atom_site_label
_atom_site_type_symbol
_atom_site_fract_x
_atom_site_fract_y
_atom_site_fract_z
C11	C1	0.754900	0.599600	0.258500
H21	H2	0.690700	0.572400	0.239200
C31	C3	0.773400	0.545400	0.307800
H41	H4	0.721600	0.482000	0.321500
C51	C5	0.869500	0.586100	0.336500
C61	C6	0.946900	0.680800	0.316000
C71	C7	0.928400	0.735000	0.266700
C81	C8	0.832400	0.694400	0.238000
H91	H9	0.820000	0.730600	0.205000
C101	C10	0.873000	0.513000	0.378000
C111	C11	0.006000	0.829300	0.233800
C121	C12	0.329200	0.963500	0.219000
H131	H13	0.285400	0.938600	0.256000
C141	C14	0.418700	0.961600	0.219800
H151	H15	0.434600	0.934100	0.256800
C161	C16	0.934800	0.090400	0.992000
H171	H17	0.998900	0.096800	0.992800
C181	C18	0.882100	0.071500	0.051900
H191	H19	0.913000	0.073100	0.093000
C201	C20	0.780200	0.049700	0.050200
C211	C21	0.749200	0.061800	0.990600
H221	H22	0.684000	0.052200	0.987400
C231	C23	0.807000	0.087600	0.932500
H241	H24	0.781100	0.096500	0.891900
C251	C25	0.721000	0.022700	0.112000
N261	N26	0.898900	0.099800	0.934200
N271	N27	0.635600	0.026200	0.109300
O281	O28	0.092000	0.846500	0.231500
O291	O29	0.908000	0.552000	0.430000
O301	O30	0.851000	0.418000	0.387000
O311	O31	0.982300	0.886900	0.213000
H321	H32	0.410520	0.879510	0.562670
C331	C33	0.400400	0.155300	0.925170
H341	H34	0.427600	0.118300	0.905870
C351	C35	0.454600	0.228000	0.974470
H361	H36	0.518000	0.239600	0.988170
C371	C37	0.413900	0.283400	0.003170
C381	C38	0.319200	0.266100	0.982670
C391	C39	0.265000	0.193400	0.933370
C401	C40	0.305600	0.138000	0.904670
H411	H41	0.269400	0.089400	0.871670
C421	C42	0.487000	0.360000	0.044670
C431	C43	0.170700	0.176700	0.900470
C441	C44	0.036500	0.365700	0.885670
H451	H45	0.061400	0.346800	0.922670
C461	C46	0.038400	0.457100	0.886470
H471	H47	0.065900	0.500500	0.923470
C481	C48	0.909600	0.844400	0.658670
H491	H49	0.903200	0.902100	0.659470
C501	C50	0.928500	0.810600	0.718570
H511	H51	0.926900	0.839900	0.759670
C521	C52	0.950300	0.730500	0.716870
C531	C53	0.938200	0.687400	0.657270
H541	H54	0.947800	0.631800	0.654070
C551	C55	0.912400	0.719400	0.599170
H561	H56	0.903500	0.684600	0.558570
C571	C57	0.977300	0.698300	0.778670
N581	N58	0.900200	0.799100	0.600870
N591	N59	0.973800	0.609400	0.775970
O601	O60	0.153500	0.245500	0.898170
O611	O61	0.448000	0.356000	0.096670
O621	O62	0.582000	0.433000	0.053670
O631	O63	0.113100	0.095400	0.879670
H641	H64	0.120490	0.531010	0.229340
C651	C65	0.844700	0.245100	0.591830
H661	H66	0.881700	0.309300	0.572530
C671	C67	0.772000	0.226600	0.641130
H681	H68	0.760400	0.278400	0.654830
C691	C69	0.716600	0.130500	0.669830
C701	C70	0.733900	0.053100	0.649330
C711	C71	0.806600	0.071600	0.600030
C721	C72	0.862000	0.167600	0.571330
H731	H73	0.910600	0.180000	0.538330
C741	C74	0.640000	0.127000	0.711330
C751	C75	0.823300	0.994000	0.567130
C761	C76	0.634300	0.670800	0.552330
H771	H77	0.653200	0.714600	0.589330
C781	C78	0.542900	0.581300	0.553130
H791	H79	0.499500	0.565400	0.590130
C801	C80	0.155600	0.065200	0.325330
H811	H81	0.097900	0.001100	0.326130
C821	C82	0.189400	0.117900	0.385230
H831	H83	0.160100	0.087000	0.426330
C841	C84	0.269500	0.219800	0.383530
C851	C85	0.312600	0.250800	0.323930
H861	H86	0.368200	0.316000	0.320730
C871	C87	0.280600	0.193000	0.265830
H881	H88	0.315400	0.218900	0.225230
C891	C89	0.301700	0.279000	0.445330
N901	N90	0.200900	0.101100	0.267530
N911	N91	0.390600	0.364400	0.442630
O921	O92	0.754500	0.908000	0.564830
O931	O93	0.644000	0.092000	0.763330
O941	O94	0.567000	0.149000	0.720330
O951	O95	0.904600	0.017700	0.546330
H961	H96	0.468990	0.589480	0.896010
C971	C97	0.599600	0.754900	0.741500
H981	H98	0.572400	0.690700	0.760800
C991	C99	0.545400	0.773400	0.692200
H1001	H100	0.482000	0.721600	0.678500
C1011	C101	0.586100	0.869500	0.663500
C1021	C102	0.680800	0.946900	0.684000
C1031	C103	0.735000	0.928400	0.733300
C1041	C104	0.694400	0.832400	0.762000
H1051	H105	0.730600	0.820000	0.795000
C1061	C106	0.513000	0.873000	0.622000
C1071	C107	0.829300	0.006000	0.766200
C1081	C108	0.963500	0.329200	0.781000
H1091	H109	0.938600	0.285400	0.744000
C1101	C110	0.961600	0.418700	0.780200
H1111	H111	0.934100	0.434600	0.743200
C1121	C112	0.090400	0.934800	0.008000
H1131	H113	0.096800	0.998900	0.007200
C1141	C114	0.071500	0.882100	0.948100
H1151	H115	0.073100	0.913000	0.907000
C1161	C116	0.049700	0.780200	0.949800
C1171	C117	0.061800	0.749200	0.009400
H1181	H118	0.052200	0.684000	0.012600
C1191	C119	0.087600	0.807000	0.067500
H1201	H120	0.096500	0.781100	0.108100
C1211	C121	0.022700	0.721000	0.888000
N1221	N122	0.099800	0.898900	0.065800
N1231	N123	0.026200	0.635600	0.890700
O1241	O124	0.846500	0.092000	0.768500
O1251	O125	0.552000	0.908000	0.570000
O1261	O126	0.418000	0.851000	0.613000
O1271	O127	0.886900	0.982300	0.787000
H1281	H128	0.879510	0.410520	0.437330
C1291	C129	0.155300	0.400400	0.074830
H1301	H130	0.118300	0.427600	0.094130
C1311	C131	0.228000	0.454600	0.025530
H1321	H132	0.239600	0.518000	0.011830
C1331	C133	0.283400	0.413900	0.996830
C1341	C134	0.266100	0.319200	0.017330
C1351	C135	0.193400	0.265000	0.066630
C1361	C136	0.138000	0.305600	0.095330
H1371	H137	0.089400	0.269400	0.128330
C1381	C138	0.360000	0.487000	0.955330
C1391	C139	0.176700	0.170700	0.099530
C1401	C140	0.365700	0.036500	0.114330
H1411	H141	0.346800	0.061400	0.077330
C1421	C142	0.457100	0.038400	0.113530
H1431	H143	0.500500	0.065900	0.076530
C1441	C144	0.844400	0.909600	0.341330
H1451	H145	0.902100	0.903200	0.340530
C1461	C146	0.810600	0.928500	0.281430
H1471	H147	0.839900	0.926900	0.240330
C1481	C148	0.730500	0.950300	0.283130
C1491	C149	0.687400	0.938200	0.342730
H1501	H150	0.631800	0.947800	0.345930
C1511	C151	0.719400	0.912400	0.400830
H1521	H152	0.684600	0.903500	0.441430
C1531	C153	0.698300	0.977300	0.221330
N1541	N154	0.799100	0.900200	0.399130
N1551	N155	0.609400	0.973800	0.224030
O1561	O156	0.245500	0.153500	0.101830
O1571	O157	0.356000	0.448000	0.903330
O1581	O158	0.433000	0.582000	0.946330
O1591	O159	0.095400	0.113100	0.120330
H1601	H160	0.531010	0.120490	0.770660
C1611	C161	0.245100	0.844700	0.408170
H1621	H162	0.309300	0.881700	0.427470
C1631	C163	0.226600	0.772000	0.358870
H1641	H164	0.278400	0.760400	0.345170
C1651	C165	0.130500	0.716600	0.330170
C1661	C166	0.053100	0.733900	0.350670
C1671	C167	0.071600	0.806600	0.399970
C1681	C168	0.167600	0.862000	0.428670
H1691	H169	0.180000	0.910600	0.461670
C1701	C170	0.127000	0.640000	0.288670
C1711	C171	0.994000	0.823300	0.432870
C1721	C172	0.670800	0.634300	0.447670
H1731	H173	0.714600	0.653200	0.410670
C1741	C174	0.581300	0.542900	0.446870
H1751	H175	0.565400	0.499500	0.409870
C1761	C176	0.065200	0.155600	0.674670
H1771	H177	0.001100	0.097900	0.673870
C1781	C178	0.117900	0.189400	0.614770
H1791	H179	0.087000	0.160100	0.573670
C1801	C180	0.219800	0.269500	0.616470
C1811	C181	0.250800	0.312600	0.676070
H1821	H182	0.316000	0.368200	0.679270
C1831	C183	0.193000	0.280600	0.734170
H1841	H184	0.218900	0.315400	0.774770
C1851	C185	0.279000	0.301700	0.554670
N1861	N186	0.101100	0.200900	0.732470
N1871	N187	0.364400	0.390600	0.557370
O1881	O188	0.908000	0.754500	0.435170
O1891	O189	0.092000	0.644000	0.236670
O1901	O190	0.149000	0.567000	0.279670
O1911	O191	0.017700	0.904600	0.453670
H1921	H192	0.589480	0.468990	0.103990
C1931	C193	0.580500	0.000000	0.166670
C1941	C194	0.483400	0.000000	0.166670
Cd1951	Cd195	0.143650	0.000000	0.166670
N1961	N196	0.305500	0.000000	0.166670
N1971	N197	0.756700	0.000000	0.166670
C1981	C198	0.000000	0.580500	0.833330
C1991	C199	0.000000	0.483400	0.833330
Cd2001	Cd200	0.000000	0.143650	0.833330
N2011	N201	0.000000	0.305500	0.833330
N2021	N202	0.000000	0.756700	0.833330
C2031	C203	0.419500	0.419500	0.500000
C2041	C204	0.516600	0.516600	0.500000
Cd2051	Cd205	0.856350	0.856350	0.500000
N2061	N206	0.694500	0.694500	0.500000
N2071	N207	0.243300	0.243300	0.500000
