data_EZEQIL_freeONLY_PM
_symmetry_space_group_name_H-M	'P1'
_cell_length_a	17.655000
_cell_length_b	17.638000
_cell_length_c	12.956000
_cell_angle_alpha	90.000000
_cell_angle_beta	127.421000
_cell_angle_gamma	90.000000
_symmetry_Int_Tables_number 1

loop_
_symmetry_equiv_pos_as_xyz
'x,y,z'

loop_
_atom_site_label
_atom_site_type_symbol
_atom_site_fract_x
_atom_site_fract_y
_atom_site_fract_z
O11	O1	0.098700	0.221050	0.389000
O21	O2	0.077400	0.298910	0.182100
O31	O3	0.087100	0.615200	0.879200
O41	O4	0.227800	0.650850	0.063400
O51	O5	0.232000	0.312130	0.350700
N11	N1	0.072500	0.160540	0.421600
C11	C1	0.089500	0.091000	0.397200
C21	C2	0.014700	0.033500	0.482300
C31	C3	0.060600	0.027800	0.426700
C41	C4	0.157700	0.330800	0.240400
C51	C5	0.160200	0.604800	0.994100
C61	C6	0.164700	0.530500	0.056600
C71	C7	0.239500	0.447300	0.241000
C81	C8	0.164000	0.397000	0.173700
C91	C9	0.000900	0.106900	0.508500
C101	C10	0.089700	0.479600	0.986600
C111	C11	0.088500	0.413300	0.044500
C121	C12	0.029000	0.168600	0.476800
C131	C13	0.239900	0.513400	0.183700
H11	H1	0.024000	0.498000	0.889000
H21	H2	0.013000	0.219000	0.489000
H31	H3	0.967000	0.116000	0.544000
H41	H4	0.028000	0.373000	0.999000
H51	H5	0.114000	0.085000	0.361000
H61	H6	0.295000	0.549000	0.238000
H71	H7	0.056000	0.988000	0.394000
H81	H8	0.290000	0.443000	0.326000
O61	O6	0.598700	0.721050	0.389000
O71	O7	0.577400	0.798910	0.182100
O81	O8	0.587100	0.115200	0.879200
O91	O9	0.727800	0.150850	0.063400
O101	O10	0.732000	0.812130	0.350700
N21	N2	0.572500	0.660540	0.421600
C141	C14	0.589500	0.591000	0.397200
C151	C15	0.514700	0.533500	0.482300
C161	C16	0.560600	0.527800	0.426700
C171	C17	0.657700	0.830800	0.240400
C181	C18	0.660200	0.104800	0.994100
C191	C19	0.664700	0.030500	0.056600
C201	C20	0.739500	0.947300	0.241000
C211	C21	0.664000	0.897000	0.173700
C221	C22	0.500900	0.606900	0.508500
C231	C23	0.589700	0.979600	0.986600
C241	C24	0.588500	0.913300	0.044500
C251	C25	0.529000	0.668600	0.476800
C261	C26	0.739900	0.013400	0.183700
H91	H9	0.524000	0.998000	0.889000
H101	H10	0.513000	0.719000	0.489000
H111	H11	0.467000	0.616000	0.544000
H121	H12	0.528000	0.873000	0.999000
H131	H13	0.614000	0.585000	0.361000
H141	H14	0.795000	0.049000	0.238000
H151	H15	0.556000	0.488000	0.394000
H161	H16	0.790000	0.943000	0.326000
O111	O11	0.901300	0.221050	0.111000
O121	O12	0.922600	0.298910	0.317900
O131	O13	0.912900	0.615200	0.620800
O141	O14	0.772200	0.650850	0.436600
O151	O15	0.768000	0.312130	0.149300
N31	N3	0.927500	0.160540	0.078400
C271	C27	0.910500	0.091000	0.102800
C281	C28	0.985300	0.033500	0.017700
C291	C29	0.939400	0.027800	0.073300
C301	C30	0.842300	0.330800	0.259600
C311	C31	0.839800	0.604800	0.505900
C321	C32	0.835300	0.530500	0.443400
C331	C33	0.760500	0.447300	0.259000
C341	C34	0.836000	0.397000	0.326300
C351	C35	0.999100	0.106900	0.991500
C361	C36	0.910300	0.479600	0.513400
C371	C37	0.911500	0.413300	0.455500
C381	C38	0.971000	0.168600	0.023200
C391	C39	0.760100	0.513400	0.316300
H171	H17	0.976000	0.498000	0.611000
H181	H18	0.987000	0.219000	0.011000
H191	H19	0.033000	0.116000	0.956000
H201	H20	0.972000	0.373000	0.501000
H211	H21	0.886000	0.085000	0.139000
H221	H22	0.705000	0.549000	0.262000
H231	H23	0.944000	0.988000	0.106000
H241	H24	0.710000	0.443000	0.174000
O161	O16	0.401300	0.721050	0.111000
O171	O17	0.422600	0.798910	0.317900
O181	O18	0.412900	0.115200	0.620800
O191	O19	0.272200	0.150850	0.436600
O201	O20	0.268000	0.812130	0.149300
N41	N4	0.427500	0.660540	0.078400
C401	C40	0.410500	0.591000	0.102800
C411	C41	0.485300	0.533500	0.017700
C421	C42	0.439400	0.527800	0.073300
C431	C43	0.342300	0.830800	0.259600
C441	C44	0.339800	0.104800	0.505900
C451	C45	0.335300	0.030500	0.443400
C461	C46	0.260500	0.947300	0.259000
C471	C47	0.336000	0.897000	0.326300
C481	C48	0.499100	0.606900	0.991500
C491	C49	0.410300	0.979600	0.513400
C501	C50	0.411500	0.913300	0.455500
C511	C51	0.471000	0.668600	0.023200
C521	C52	0.260100	0.013400	0.316300
H251	H25	0.476000	0.998000	0.611000
H261	H26	0.487000	0.719000	0.011000
H271	H27	0.533000	0.616000	0.956000
H281	H28	0.472000	0.873000	0.501000
H291	H29	0.386000	0.585000	0.139000
H301	H30	0.205000	0.049000	0.262000
H311	H31	0.444000	0.488000	0.106000
H321	H32	0.210000	0.943000	0.174000
O211	O21	0.901300	0.778950	0.611000
O221	O22	0.922600	0.701090	0.817900
O231	O23	0.912900	0.384800	0.120800
O241	O24	0.772200	0.349150	0.936600
O251	O25	0.768000	0.687870	0.649300
N51	N5	0.927500	0.839460	0.578400
C531	C53	0.910500	0.909000	0.602800
C541	C54	0.985300	0.966500	0.517700
C551	C55	0.939400	0.972200	0.573300
C561	C56	0.842300	0.669200	0.759600
C571	C57	0.839800	0.395200	0.005900
C581	C58	0.835300	0.469500	0.943400
C591	C59	0.760500	0.552700	0.759000
C601	C60	0.836000	0.603000	0.826300
C611	C61	0.999100	0.893100	0.491500
C621	C62	0.910300	0.520400	0.013400
C631	C63	0.911500	0.586700	0.955500
C641	C64	0.971000	0.831400	0.523200
C651	C65	0.760100	0.486600	0.816300
H331	H33	0.976000	0.502000	0.111000
H341	H34	0.987000	0.781000	0.511000
H351	H35	0.033000	0.884000	0.456000
H361	H36	0.972000	0.627000	0.001000
H371	H37	0.886000	0.915000	0.639000
H381	H38	0.705000	0.451000	0.762000
H391	H39	0.944000	0.012000	0.606000
H401	H40	0.710000	0.557000	0.674000
O261	O26	0.401300	0.278950	0.611000
O271	O27	0.422600	0.201090	0.817900
O281	O28	0.412900	0.884800	0.120800
O291	O29	0.272200	0.849150	0.936600
O301	O30	0.268000	0.187870	0.649300
N61	N6	0.427500	0.339460	0.578400
C661	C66	0.410500	0.409000	0.602800
C671	C67	0.485300	0.466500	0.517700
C681	C68	0.439400	0.472200	0.573300
C691	C69	0.342300	0.169200	0.759600
C701	C70	0.339800	0.895200	0.005900
C711	C71	0.335300	0.969500	0.943400
C721	C72	0.260500	0.052700	0.759000
C731	C73	0.336000	0.103000	0.826300
C741	C74	0.499100	0.393100	0.491500
C751	C75	0.410300	0.020400	0.013400
C761	C76	0.411500	0.086700	0.955500
C771	C77	0.471000	0.331400	0.523200
C781	C78	0.260100	0.986600	0.816300
H411	H41	0.476000	0.002000	0.111000
H421	H42	0.487000	0.281000	0.511000
H431	H43	0.533000	0.384000	0.456000
H441	H44	0.472000	0.127000	0.001000
H451	H45	0.386000	0.415000	0.639000
H461	H46	0.205000	0.951000	0.762000
H471	H47	0.444000	0.512000	0.606000
H481	H48	0.210000	0.057000	0.674000
O311	O31	0.098700	0.778950	0.889000
O321	O32	0.077400	0.701090	0.682100
O331	O33	0.087100	0.384800	0.379200
O341	O34	0.227800	0.349150	0.563400
O351	O35	0.232000	0.687870	0.850700
N71	N7	0.072500	0.839460	0.921600
C791	C79	0.089500	0.909000	0.897200
C801	C80	0.014700	0.966500	0.982300
C811	C81	0.060600	0.972200	0.926700
C821	C82	0.157700	0.669200	0.740400
C831	C83	0.160200	0.395200	0.494100
C841	C84	0.164700	0.469500	0.556600
C851	C85	0.239500	0.552700	0.741000
C861	C86	0.164000	0.603000	0.673700
C871	C87	0.000900	0.893100	0.008500
C881	C88	0.089700	0.520400	0.486600
C891	C89	0.088500	0.586700	0.544500
C901	C90	0.029000	0.831400	0.976800
C911	C91	0.239900	0.486600	0.683700
H491	H49	0.024000	0.502000	0.389000
H501	H50	0.013000	0.781000	0.989000
H511	H51	0.967000	0.884000	0.044000
H521	H52	0.028000	0.627000	0.499000
H531	H53	0.114000	0.915000	0.861000
H541	H54	0.295000	0.451000	0.738000
H551	H55	0.056000	0.012000	0.894000
H561	H56	0.290000	0.557000	0.826000
O361	O36	0.598700	0.278950	0.889000
O371	O37	0.577400	0.201090	0.682100
O381	O38	0.587100	0.884800	0.379200
O391	O39	0.727800	0.849150	0.563400
O401	O40	0.732000	0.187870	0.850700
N81	N8	0.572500	0.339460	0.921600
C921	C92	0.589500	0.409000	0.897200
C931	C93	0.514700	0.466500	0.982300
C941	C94	0.560600	0.472200	0.926700
C951	C95	0.657700	0.169200	0.740400
C961	C96	0.660200	0.895200	0.494100
C971	C97	0.664700	0.969500	0.556600
C981	C98	0.739500	0.052700	0.741000
C991	C99	0.664000	0.103000	0.673700
C1001	C100	0.500900	0.393100	0.008500
C1011	C101	0.589700	0.020400	0.486600
C1021	C102	0.588500	0.086700	0.544500
C1031	C103	0.529000	0.331400	0.976800
C1041	C104	0.739900	0.986600	0.683700
H571	H57	0.524000	0.002000	0.389000
H581	H58	0.513000	0.281000	0.989000
H591	H59	0.467000	0.384000	0.044000
H601	H60	0.528000	0.127000	0.499000
H611	H61	0.614000	0.415000	0.861000
H621	H62	0.795000	0.951000	0.738000
H631	H63	0.556000	0.512000	0.894000
H641	H64	0.790000	0.057000	0.826000
Mg11	Mg1	0.000000	0.304270	0.250000
Mg21	Mg2	0.500000	0.804270	0.250000
Mg31	Mg3	0.000000	0.695730	0.750000
Mg41	Mg4	0.500000	0.195730	0.750000
Mg51	Mg5	0.250000	0.250000	0.500000
Mg61	Mg6	0.750000	0.250000	0.000000
Mg71	Mg7	0.750000	0.750000	0.500000
Mg81	Mg8	0.250000	0.750000	0.000000
