data_EZEQEH_freeONLY_PM
_symmetry_space_group_name_H-M	'P1'
_cell_length_a	16.751300
_cell_length_b	18.192300
_cell_length_c	12.025800
_cell_angle_alpha	90.000000
_cell_angle_beta	123.870000
_cell_angle_gamma	90.000000
_symmetry_Int_Tables_number 1

loop_
_symmetry_equiv_pos_as_xyz
'x,y,z'

loop_
_atom_site_label
_atom_site_type_symbol
_atom_site_fract_x
_atom_site_fract_y
_atom_site_fract_z
O11	O1	0.098660	0.222540	0.390260
O21	O2	0.082450	0.296680	0.173300
O31	O3	0.084880	0.619310	0.880100
O41	O4	0.223110	0.654510	0.066490
O51	O5	0.235490	0.311270	0.344320
N11	N1	0.071410	0.161020	0.421300
C11	C1	0.066100	0.032080	0.423700
C21	C2	0.094100	0.096100	0.394400
C31	C3	0.156900	0.608400	0.996200
C41	C4	0.015200	0.034120	0.483400
C51	C5	0.163600	0.534280	0.055700
C61	C6	0.161900	0.329740	0.233000
C71	C7	0.166700	0.398640	0.167400
C81	C8	0.994500	0.103120	0.510700
C91	C9	0.236500	0.450590	0.242000
C101	C10	0.023300	0.165780	0.480100
C111	C11	0.234500	0.517830	0.187300
C121	C12	0.095300	0.481210	0.980100
C131	C13	0.096400	0.414260	0.035600
H11	H1	0.085000	0.986700	0.405000
H21	H2	0.129000	0.098400	0.355000
H31	H3	0.963000	0.108000	0.559000
H41	H4	0.050000	0.381000	0.991000
H51	H5	0.279000	0.555000	0.243000
H61	H6	0.285000	0.441000	0.340000
H71	H7	0.042000	0.496000	0.886000
H81	H8	0.009000	0.218000	0.494000
O61	O6	0.598660	0.722540	0.390260
O71	O7	0.582450	0.796680	0.173300
O81	O8	0.584880	0.119310	0.880100
O91	O9	0.723110	0.154510	0.066490
O101	O10	0.735490	0.811270	0.344320
N21	N2	0.571410	0.661020	0.421300
C141	C14	0.566100	0.532080	0.423700
C151	C15	0.594100	0.596100	0.394400
C161	C16	0.656900	0.108400	0.996200
C171	C17	0.515200	0.534120	0.483400
C181	C18	0.663600	0.034280	0.055700
C191	C19	0.661900	0.829740	0.233000
C201	C20	0.666700	0.898640	0.167400
C211	C21	0.494500	0.603120	0.510700
C221	C22	0.736500	0.950590	0.242000
C231	C23	0.523300	0.665780	0.480100
C241	C24	0.734500	0.017830	0.187300
C251	C25	0.595300	0.981210	0.980100
C261	C26	0.596400	0.914260	0.035600
H91	H9	0.585000	0.486700	0.405000
H101	H10	0.629000	0.598400	0.355000
H111	H11	0.463000	0.608000	0.559000
H121	H12	0.550000	0.881000	0.991000
H131	H13	0.779000	0.055000	0.243000
H141	H14	0.785000	0.941000	0.340000
H151	H15	0.542000	0.996000	0.886000
H161	H16	0.509000	0.718000	0.494000
O111	O11	0.901340	0.222540	0.109740
O121	O12	0.917550	0.296680	0.326700
O131	O13	0.915120	0.619310	0.619900
O141	O14	0.776890	0.654510	0.433510
O151	O15	0.764510	0.311270	0.155680
N31	N3	0.928590	0.161020	0.078700
C271	C27	0.933900	0.032080	0.076300
C281	C28	0.905900	0.096100	0.105600
C291	C29	0.843100	0.608400	0.503800
C301	C30	0.984800	0.034120	0.016600
C311	C31	0.836400	0.534280	0.444300
C321	C32	0.838100	0.329740	0.267000
C331	C33	0.833300	0.398640	0.332600
C341	C34	0.005500	0.103120	0.989300
C351	C35	0.763500	0.450590	0.258000
C361	C36	0.976700	0.165780	0.019900
C371	C37	0.765500	0.517830	0.312700
C381	C38	0.904700	0.481210	0.519900
C391	C39	0.903600	0.414260	0.464400
H171	H17	0.915000	0.986700	0.095000
H181	H18	0.871000	0.098400	0.145000
H191	H19	0.037000	0.108000	0.941000
H201	H20	0.950000	0.381000	0.509000
H211	H21	0.721000	0.555000	0.257000
H221	H22	0.715000	0.441000	0.160000
H231	H23	0.958000	0.496000	0.614000
H241	H24	0.991000	0.218000	0.006000
O161	O16	0.401340	0.722540	0.109740
O171	O17	0.417550	0.796680	0.326700
O181	O18	0.415120	0.119310	0.619900
O191	O19	0.276890	0.154510	0.433510
O201	O20	0.264510	0.811270	0.155680
N41	N4	0.428590	0.661020	0.078700
C401	C40	0.433900	0.532080	0.076300
C411	C41	0.405900	0.596100	0.105600
C421	C42	0.343100	0.108400	0.503800
C431	C43	0.484800	0.534120	0.016600
C441	C44	0.336400	0.034280	0.444300
C451	C45	0.338100	0.829740	0.267000
C461	C46	0.333300	0.898640	0.332600
C471	C47	0.505500	0.603120	0.989300
C481	C48	0.263500	0.950590	0.258000
C491	C49	0.476700	0.665780	0.019900
C501	C50	0.265500	0.017830	0.312700
C511	C51	0.404700	0.981210	0.519900
C521	C52	0.403600	0.914260	0.464400
H251	H25	0.415000	0.486700	0.095000
H261	H26	0.371000	0.598400	0.145000
H271	H27	0.537000	0.608000	0.941000
H281	H28	0.450000	0.881000	0.509000
H291	H29	0.221000	0.055000	0.257000
H301	H30	0.215000	0.941000	0.160000
H311	H31	0.458000	0.996000	0.614000
H321	H32	0.491000	0.718000	0.006000
O211	O21	0.901340	0.777460	0.609740
O221	O22	0.917550	0.703320	0.826700
O231	O23	0.915120	0.380690	0.119900
O241	O24	0.776890	0.345490	0.933510
O251	O25	0.764510	0.688730	0.655680
N51	N5	0.928590	0.838980	0.578700
C531	C53	0.933900	0.967920	0.576300
C541	C54	0.905900	0.903900	0.605600
C551	C55	0.843100	0.391600	0.003800
C561	C56	0.984800	0.965880	0.516600
C571	C57	0.836400	0.465720	0.944300
C581	C58	0.838100	0.670260	0.767000
C591	C59	0.833300	0.601360	0.832600
C601	C60	0.005500	0.896880	0.489300
C611	C61	0.763500	0.549410	0.758000
C621	C62	0.976700	0.834220	0.519900
C631	C63	0.765500	0.482170	0.812700
C641	C64	0.904700	0.518790	0.019900
C651	C65	0.903600	0.585740	0.964400
H331	H33	0.915000	0.013300	0.595000
H341	H34	0.871000	0.901600	0.645000
H351	H35	0.037000	0.892000	0.441000
H361	H36	0.950000	0.619000	0.009000
H371	H37	0.721000	0.445000	0.757000
H381	H38	0.715000	0.559000	0.660000
H391	H39	0.958000	0.504000	0.114000
H401	H40	0.991000	0.782000	0.506000
O261	O26	0.401340	0.277460	0.609740
O271	O27	0.417550	0.203320	0.826700
O281	O28	0.415120	0.880690	0.119900
O291	O29	0.276890	0.845490	0.933510
O301	O30	0.264510	0.188730	0.655680
N61	N6	0.428590	0.338980	0.578700
C661	C66	0.433900	0.467920	0.576300
C671	C67	0.405900	0.403900	0.605600
C681	C68	0.343100	0.891600	0.003800
C691	C69	0.484800	0.465880	0.516600
C701	C70	0.336400	0.965720	0.944300
C711	C71	0.338100	0.170260	0.767000
C721	C72	0.333300	0.101360	0.832600
C731	C73	0.505500	0.396880	0.489300
C741	C74	0.263500	0.049410	0.758000
C751	C75	0.476700	0.334220	0.519900
C761	C76	0.265500	0.982170	0.812700
C771	C77	0.404700	0.018790	0.019900
C781	C78	0.403600	0.085740	0.964400
H411	H41	0.415000	0.513300	0.595000
H421	H42	0.371000	0.401600	0.645000
H431	H43	0.537000	0.392000	0.441000
H441	H44	0.450000	0.119000	0.009000
H451	H45	0.221000	0.945000	0.757000
H461	H46	0.215000	0.059000	0.660000
H471	H47	0.458000	0.004000	0.114000
H481	H48	0.491000	0.282000	0.506000
O311	O31	0.098660	0.777460	0.890260
O321	O32	0.082450	0.703320	0.673300
O331	O33	0.084880	0.380690	0.380100
O341	O34	0.223110	0.345490	0.566490
O351	O35	0.235490	0.688730	0.844320
N71	N7	0.071410	0.838980	0.921300
C791	C79	0.066100	0.967920	0.923700
C801	C80	0.094100	0.903900	0.894400
C811	C81	0.156900	0.391600	0.496200
C821	C82	0.015200	0.965880	0.983400
C831	C83	0.163600	0.465720	0.555700
C841	C84	0.161900	0.670260	0.733000
C851	C85	0.166700	0.601360	0.667400
C861	C86	0.994500	0.896880	0.010700
C871	C87	0.236500	0.549410	0.742000
C881	C88	0.023300	0.834220	0.980100
C891	C89	0.234500	0.482170	0.687300
C901	C90	0.095300	0.518790	0.480100
C911	C91	0.096400	0.585740	0.535600
H491	H49	0.085000	0.013300	0.905000
H501	H50	0.129000	0.901600	0.855000
H511	H51	0.963000	0.892000	0.059000
H521	H52	0.050000	0.619000	0.491000
H531	H53	0.279000	0.445000	0.743000
H541	H54	0.285000	0.559000	0.840000
H551	H55	0.042000	0.504000	0.386000
H561	H56	0.009000	0.782000	0.994000
O361	O36	0.598660	0.277460	0.890260
O371	O37	0.582450	0.203320	0.673300
O381	O38	0.584880	0.880690	0.380100
O391	O39	0.723110	0.845490	0.566490
O401	O40	0.735490	0.188730	0.844320
N81	N8	0.571410	0.338980	0.921300
C921	C92	0.566100	0.467920	0.923700
C931	C93	0.594100	0.403900	0.894400
C941	C94	0.656900	0.891600	0.496200
C951	C95	0.515200	0.465880	0.983400
C961	C96	0.663600	0.965720	0.555700
C971	C97	0.661900	0.170260	0.733000
C981	C98	0.666700	0.101360	0.667400
C991	C99	0.494500	0.396880	0.010700
C1001	C100	0.736500	0.049410	0.742000
C1011	C101	0.523300	0.334220	0.980100
C1021	C102	0.734500	0.982170	0.687300
C1031	C103	0.595300	0.018790	0.480100
C1041	C104	0.596400	0.085740	0.535600
H571	H57	0.585000	0.513300	0.905000
H581	H58	0.629000	0.401600	0.855000
H591	H59	0.463000	0.392000	0.059000
H601	H60	0.550000	0.119000	0.491000
H611	H61	0.779000	0.945000	0.743000
H621	H62	0.785000	0.059000	0.840000
H631	H63	0.542000	0.004000	0.386000
H641	H64	0.509000	0.282000	0.994000
Mg11	Mg1	0.000000	0.302080	0.250000
Mg21	Mg2	0.500000	0.802080	0.250000
Mg31	Mg3	0.000000	0.697920	0.750000
Mg41	Mg4	0.500000	0.197920	0.750000
Mg51	Mg5	0.250000	0.250000	0.500000
Mg61	Mg6	0.750000	0.250000	0.000000
Mg71	Mg7	0.750000	0.750000	0.500000
Mg81	Mg8	0.250000	0.750000	0.000000
