data_FAFMAC_freeONLY_PM
_symmetry_space_group_name_H-M	'P1'
_cell_length_a	6.390200
_cell_length_b	10.542800
_cell_length_c	31.161900
_cell_angle_alpha	90.000000
_cell_angle_beta	90.000000
_cell_angle_gamma	93.770000
_symmetry_Int_Tables_number 1

loop_
_symmetry_equiv_pos_as_xyz
'x,y,z'

loop_
_atom_site_label
_atom_site_type_symbol
_atom_site_fract_x
_atom_site_fract_y
_atom_site_fract_z
Ag11	Ag1	0.864120	0.585360	0.751670
Ag21	Ag2	0.364120	0.085360	0.748330
H11	H1	0.203000	0.241700	0.835600
H21	H2	0.454100	0.248500	0.837800
H31	H3	0.151100	0.569600	0.834900
H41	H4	0.021900	0.434300	0.833900
H51	H5	0.650300	0.454600	0.838800
H61	H6	0.527000	0.582000	0.837400
H71	H7	0.027600	0.301800	0.770900
H81	H8	0.159800	0.348400	0.729500
H91	H9	0.359700	0.553700	0.730400
H101	H10	0.354600	0.642500	0.772100
H111	H11	0.544000	0.360000	0.732500
H121	H12	0.658900	0.320000	0.775600
H131	H13	0.703000	0.741700	0.664400
H141	H14	0.954100	0.748500	0.662200
H151	H15	0.651100	0.069600	0.665100
H161	H16	0.521900	0.934300	0.666100
H171	H17	0.150300	0.954600	0.661200
H181	H18	0.027000	0.082000	0.662600
H191	H19	0.527600	0.801800	0.729100
H201	H20	0.659800	0.848400	0.770500
H211	H21	0.859700	0.053700	0.769600
H221	H22	0.854600	0.142500	0.727900
H231	H23	0.044000	0.860000	0.767500
H241	H24	0.158900	0.820000	0.724400
C11	C1	0.332300	0.289900	0.825830
C21	C2	0.152100	0.481500	0.823970
C31	C3	0.526300	0.493500	0.826750
C41	C4	0.157400	0.349900	0.761230
C51	C5	0.353500	0.553200	0.762190
C61	C6	0.535400	0.360900	0.764180
C71	C7	0.832300	0.789900	0.674170
C81	C8	0.652100	0.981500	0.676030
C91	C9	0.026300	0.993500	0.673250
C101	C10	0.657400	0.849900	0.738770
C111	C11	0.853500	0.053200	0.737810
C121	C12	0.035400	0.860900	0.735820
N11	N1	0.540800	0.494400	0.779360
N21	N2	0.333600	0.421600	0.841580
N31	N3	0.342200	0.287400	0.777950
N41	N4	0.155200	0.483700	0.776250
N51	N5	0.040800	0.994400	0.720640
N61	N6	0.833600	0.921600	0.658420
N71	N7	0.842200	0.787400	0.722050
N81	N8	0.655200	0.983700	0.723750
Ag31	Ag3	0.635880	0.914640	0.251670
Ag41	Ag4	0.135880	0.414640	0.248330
H251	H25	0.297000	0.258300	0.335600
H261	H26	0.045900	0.251500	0.337800
H271	H27	0.348900	0.930400	0.334900
H281	H28	0.478100	0.065700	0.333900
H291	H29	0.849700	0.045400	0.338800
H301	H30	0.973000	0.918000	0.337400
H311	H31	0.472400	0.198200	0.270900
H321	H32	0.340200	0.151600	0.229500
H331	H33	0.140300	0.946300	0.230400
H341	H34	0.145400	0.857500	0.272100
H351	H35	0.956000	0.140000	0.232500
H361	H36	0.841100	0.180000	0.275600
H371	H37	0.797000	0.758300	0.164400
H381	H38	0.545900	0.751500	0.162200
H391	H39	0.848900	0.430400	0.165100
H401	H40	0.978100	0.565700	0.166100
H411	H41	0.349700	0.545400	0.161200
H421	H42	0.473000	0.418000	0.162600
H431	H43	0.972400	0.698200	0.229100
H441	H44	0.840200	0.651600	0.270500
H451	H45	0.640300	0.446300	0.269600
H461	H46	0.645400	0.357500	0.227900
H471	H47	0.456000	0.640000	0.267500
H481	H48	0.341100	0.680000	0.224400
C131	C13	0.167700	0.210100	0.325830
C141	C14	0.347900	0.018500	0.323970
C151	C15	0.973700	0.006500	0.326750
C161	C16	0.342600	0.150100	0.261230
C171	C17	0.146500	0.946800	0.262190
C181	C18	0.964600	0.139100	0.264180
C191	C19	0.667700	0.710100	0.174170
C201	C20	0.847900	0.518500	0.176030
C211	C21	0.473700	0.506500	0.173250
C221	C22	0.842600	0.650100	0.238770
C231	C23	0.646500	0.446800	0.237810
C241	C24	0.464600	0.639100	0.235820
N91	N9	0.959200	0.005600	0.279360
N101	N10	0.166400	0.078400	0.341580
N111	N11	0.157800	0.212600	0.277950
N121	N12	0.344800	0.016300	0.276250
N131	N13	0.459200	0.505600	0.220640
N141	N14	0.666400	0.578400	0.158420
N151	N15	0.657800	0.712600	0.222050
N161	N16	0.844800	0.516300	0.223750
H491	H49	0.928600	0.544900	0.592300
H501	H50	0.929700	0.398900	0.578400
H511	H51	0.564200	0.371200	0.586800
H521	H52	0.555700	0.511300	0.606200
H531	H53	0.326600	0.587900	0.557200
H541	H54	0.292400	0.445600	0.539200
H551	H55	0.586200	0.337400	0.512700
H561	H56	0.816100	0.408100	0.512500
H571	H57	0.071400	0.455100	0.407700
H581	H58	0.070300	0.601100	0.421600
H591	H59	0.435800	0.628800	0.413200
H601	H60	0.444300	0.488700	0.393800
H611	H61	0.673400	0.412100	0.442800
H621	H62	0.707600	0.554400	0.460800
H631	H63	0.413800	0.662600	0.487300
H641	H64	0.183900	0.591900	0.487500
C251	C25	0.860700	0.459000	0.597260
C261	C26	0.628400	0.459100	0.585210
C271	C27	0.374500	0.527800	0.535410
C281	C28	0.664900	0.420800	0.509060
C291	C29	0.139300	0.541000	0.402740
C301	C30	0.371600	0.540900	0.414790
C311	C31	0.625500	0.472200	0.464590
C321	C32	0.335100	0.579200	0.490940
S11	S1	0.898750	0.415520	0.651350
S21	S2	0.101250	0.584480	0.348650
N171	N17	0.598600	0.509500	0.542060
N181	N18	0.401400	0.490500	0.457940
O11	O1	0.781700	0.500600	0.677740
O21	O2	0.820400	0.283200	0.656150
O31	O3	0.126400	0.432300	0.658140
O41	O4	0.218300	0.499400	0.322260
O51	O5	0.179600	0.716800	0.343850
O61	O6	0.873600	0.567700	0.341860
H651	H65	0.571400	0.955100	0.092300
H661	H66	0.570300	0.101100	0.078400
H671	H67	0.935800	0.128800	0.086800
H681	H68	0.944300	0.988700	0.106200
H691	H69	0.173400	0.912100	0.057200
H701	H70	0.207600	0.054400	0.039200
H711	H71	0.913800	0.162600	0.012700
H721	H72	0.683900	0.091900	0.012500
H731	H73	0.428600	0.044900	0.907700
H741	H74	0.429700	0.898900	0.921600
H751	H75	0.064200	0.871200	0.913200
H761	H76	0.055700	0.011300	0.893800
H771	H77	0.826600	0.087900	0.942800
H781	H78	0.792400	0.945600	0.960800
H791	H79	0.086200	0.837400	0.987300
H801	H80	0.316100	0.908100	0.987500
C331	C33	0.639300	0.041000	0.097260
C341	C34	0.871600	0.040900	0.085210
C351	C35	0.125500	0.972200	0.035410
C361	C36	0.835100	0.079200	0.009060
C371	C37	0.360700	0.959000	0.902740
C381	C38	0.128400	0.959100	0.914790
C391	C39	0.874500	0.027800	0.964590
C401	C40	0.164900	0.920800	0.990940
S31	S3	0.601250	0.084480	0.151350
S41	S4	0.398750	0.915520	0.848650
N191	N19	0.901400	0.990500	0.042060
N201	N20	0.098600	0.009500	0.957940
O71	O7	0.718300	0.999400	0.177740
O81	O8	0.679600	0.216800	0.156150
O91	O9	0.373600	0.067700	0.158140
O101	O10	0.281700	0.000600	0.822260
O111	O11	0.320400	0.783200	0.843850
O121	O12	0.626400	0.932300	0.841860
