data_FAFQEJ01_freeONLY_PM
_symmetry_space_group_name_H-M	'P1'
_cell_length_a	14.619000
_cell_length_b	17.211000
_cell_length_c	21.215000
_cell_angle_alpha	90.000000
_cell_angle_beta	90.000000
_cell_angle_gamma	90.000000
_symmetry_Int_Tables_number 1

loop_
_symmetry_equiv_pos_as_xyz
'x,y,z'

loop_
_atom_site_label
_atom_site_type_symbol
_atom_site_fract_x
_atom_site_fract_y
_atom_site_fract_z
O11	O1	0.566900	0.583500	0.947400
O21	O2	0.645400	0.471300	0.876900
O31	O3	0.493900	0.440800	0.947700
O41	O4	0.658700	0.467600	0.005400
O51	O5	0.828400	0.542200	0.030500
O61	O6	0.855600	0.643900	0.928500
O71	O7	0.652100	0.224200	0.931700
O81	O8	0.724000	0.321800	0.032800
O91	O9	0.573300	0.502900	0.748600
O101	O10	0.393800	0.557900	0.780500
O111	O11	0.611000	0.480900	0.129600
O121	O12	0.426000	0.536300	0.129900
N11	N1	0.455300	0.733100	0.755200
O131	O13	0.533900	0.907500	0.688200
O141	O14	0.443900	0.815200	0.647100
O151	O15	0.708700	0.635300	0.854000
O161	O16	0.569800	0.627800	0.811500
C11	C1	0.498800	0.842600	0.687700
C21	C2	0.527500	0.789900	0.740300
C31	C3	0.618900	0.752400	0.723000
C41	C4	0.679500	0.724600	0.775800
C51	C5	0.649600	0.653900	0.816200
N21	N2	0.976900	0.434200	0.835500
O171	O17	0.836700	0.472900	0.907200
O181	O18	0.773700	0.355200	0.904500
O191	O19	0.036600	0.196000	0.980500
O201	O20	0.966200	0.104100	0.927100
C61	C6	0.835400	0.401900	0.893900
C71	C7	0.916900	0.368000	0.856600
C81	C8	0.974400	0.311900	0.896600
C91	C9	0.924100	0.233700	0.907400
C101	C10	0.979600	0.174100	0.940900
N31	N3	0.769100	0.803100	0.974000
O211	O21	0.877200	0.912800	0.096700
O221	O22	0.886100	0.921500	0.991600
O231	O23	0.578600	0.632600	0.073500
O241	O24	0.702800	0.659400	0.016500
C111	C11	0.851200	0.896900	0.041900
C121	C12	0.766000	0.847000	0.035600
C131	C13	0.747000	0.792300	0.091000
C141	C14	0.652900	0.752800	0.092800
C151	C15	0.644600	0.675600	0.059500
H11	H1	0.551900	0.640100	0.949300
H21	H2	0.678400	0.459300	0.836800
H31	H3	0.435800	0.410300	0.949300
H41	H4	0.698600	0.453900	0.042100
H51	H5	0.860900	0.492800	0.025500
H61	H6	0.793500	0.541400	0.069900
H71	H7	0.872700	0.584900	0.031600
H81	H8	0.869700	0.648100	0.883400
H91	H9	0.908200	0.621900	0.950800
H101	H10	0.841900	0.695600	0.945400
H111	H11	0.653700	0.199500	0.973300
H121	H12	0.710600	0.215600	0.910200
H131	H13	0.602500	0.201500	0.906600
H141	H14	0.690300	0.328900	0.072300
H151	H15	0.779300	0.354000	0.033400
H161	H16	0.741200	0.267100	0.028200
H171	H17	0.618500	0.543700	0.740600
H181	H18	0.525000	0.505500	0.716700
H191	H19	0.603200	0.452000	0.746700
H201	H20	0.416600	0.540500	0.739500
H211	H21	0.385900	0.614400	0.780100
H221	H22	0.334800	0.533000	0.789200
H231	H23	0.663900	0.515900	0.132100
H241	H24	0.632400	0.427200	0.125300
H251	H25	0.574300	0.485800	0.168000
H261	H26	0.433600	0.590000	0.144400
H271	H27	0.445400	0.500500	0.163200
H281	H28	0.361600	0.527000	0.119700
H291	H29	0.478100	0.696200	0.781700
H301	H30	0.435600	0.710100	0.719100
H311	H31	0.407700	0.757800	0.774200
H321	H32	0.537600	0.822700	0.778600
H331	H33	0.606000	0.707500	0.695200
H341	H34	0.654100	0.790500	0.697800
H351	H35	0.688800	0.768900	0.804900
H361	H36	0.739900	0.712100	0.757400
H371	H37	0.027500	0.415000	0.816000
H381	H38	0.994200	0.462800	0.869500
H391	H39	0.945400	0.464900	0.808100
H401	H40	0.893300	0.339800	0.818800
H411	H41	0.987700	0.336300	0.937900
H421	H42	0.033400	0.302000	0.875200
H431	H43	0.867800	0.243700	0.932000
H441	H44	0.905400	0.212500	0.865900
H451	H45	0.721500	0.769100	0.972200
H461	H46	0.822700	0.776600	0.971200
H471	H47	0.764900	0.837300	0.941400
H481	H48	0.712800	0.883400	0.033000
H491	H49	0.754600	0.822200	0.130500
H501	H50	0.794400	0.751200	0.090800
H511	H51	0.635700	0.745200	0.137500
H521	H52	0.607800	0.788900	0.074000
Er11	Er1	0.724900	0.560700	0.942600
Er21	Er2	0.626700	0.360700	0.943700
Er31	Er3	0.501400	0.522900	0.861100
Er41	Er4	0.517500	0.515600	0.037900
O251	O25	0.933100	0.416500	0.447400
O261	O26	0.854600	0.528700	0.376900
O271	O27	0.006100	0.559200	0.447700
O281	O28	0.841300	0.532400	0.505400
O291	O29	0.671600	0.457800	0.530500
O301	O30	0.644400	0.356100	0.428500
O311	O31	0.847900	0.775800	0.431700
O321	O32	0.776000	0.678200	0.532800
O331	O33	0.926700	0.497100	0.248600
O341	O34	0.106200	0.442100	0.280500
O351	O35	0.889000	0.519100	0.629600
O361	O36	0.074000	0.463700	0.629900
N41	N4	0.044700	0.266900	0.255200
O371	O37	0.966100	0.092500	0.188200
O381	O38	0.056100	0.184800	0.147100
O391	O39	0.791300	0.364700	0.354000
O401	O40	0.930200	0.372200	0.311500
C161	C16	0.001200	0.157400	0.187700
C171	C17	0.972500	0.210100	0.240300
C181	C18	0.881100	0.247600	0.223000
C191	C19	0.820500	0.275400	0.275800
C201	C20	0.850400	0.346100	0.316200
N51	N5	0.523100	0.565800	0.335500
O411	O41	0.663300	0.527100	0.407200
O421	O42	0.726300	0.644800	0.404500
O431	O43	0.463400	0.804000	0.480500
O441	O44	0.533800	0.895900	0.427100
C211	C21	0.664600	0.598100	0.393900
C221	C22	0.583100	0.632000	0.356600
C231	C23	0.525600	0.688100	0.396600
C241	C24	0.575900	0.766300	0.407400
C251	C25	0.520400	0.825900	0.440900
N61	N6	0.730900	0.196900	0.474000
O451	O45	0.622800	0.087200	0.596700
O461	O46	0.613900	0.078500	0.491600
O471	O47	0.921400	0.367400	0.573500
O481	O48	0.797200	0.340600	0.516500
C261	C26	0.648800	0.103100	0.541900
C271	C27	0.734000	0.153000	0.535600
C281	C28	0.753000	0.207700	0.591000
C291	C29	0.847100	0.247200	0.592800
C301	C30	0.855400	0.324400	0.559500
H531	H53	0.948100	0.359900	0.449300
H541	H54	0.821600	0.540700	0.336800
H551	H55	0.064200	0.589700	0.449300
H561	H56	0.801400	0.546100	0.542100
H571	H57	0.639100	0.507200	0.525500
H581	H58	0.706500	0.458600	0.569900
H591	H59	0.627300	0.415100	0.531600
H601	H60	0.630300	0.351900	0.383400
H611	H61	0.591800	0.378100	0.450800
H621	H62	0.658100	0.304400	0.445400
H631	H63	0.846300	0.800500	0.473300
H641	H64	0.789400	0.784400	0.410200
H651	H65	0.897500	0.798500	0.406600
H661	H66	0.809700	0.671100	0.572300
H671	H67	0.720700	0.646000	0.533400
H681	H68	0.758800	0.732900	0.528200
H691	H69	0.881500	0.456300	0.240600
H701	H70	0.975000	0.494500	0.216700
H711	H71	0.896800	0.548000	0.246700
H721	H72	0.083400	0.459500	0.239500
H731	H73	0.114100	0.385600	0.280100
H741	H74	0.165200	0.467000	0.289200
H751	H75	0.836100	0.484100	0.632100
H761	H76	0.867600	0.572800	0.625300
H771	H77	0.925700	0.514200	0.668000
H781	H78	0.066400	0.410000	0.644400
H791	H79	0.054600	0.499500	0.663200
H801	H80	0.138400	0.473000	0.619700
H811	H81	0.021900	0.303800	0.281700
H821	H82	0.064400	0.289900	0.219100
H831	H83	0.092300	0.242200	0.274200
H841	H84	0.962400	0.177300	0.278600
H851	H85	0.894000	0.292500	0.195200
H861	H86	0.845900	0.209500	0.197800
H871	H87	0.811200	0.231100	0.304900
H881	H88	0.760100	0.287900	0.257400
H891	H89	0.472500	0.585000	0.316000
H901	H90	0.505800	0.537200	0.369500
H911	H91	0.554600	0.535100	0.308100
H921	H92	0.606700	0.660200	0.318800
H931	H93	0.512300	0.663700	0.437900
H941	H94	0.466600	0.698000	0.375200
H951	H95	0.632200	0.756300	0.432000
H961	H96	0.594600	0.787500	0.365900
H971	H97	0.778500	0.230900	0.472200
H981	H98	0.677300	0.223400	0.471200
H991	H99	0.735100	0.162700	0.441400
H1001	H100	0.787200	0.116600	0.533000
H1011	H101	0.745400	0.177800	0.630500
H1021	H102	0.705600	0.248800	0.590800
H1031	H103	0.864300	0.254800	0.637500
H1041	H104	0.892200	0.211100	0.574000
Er51	Er5	0.775100	0.439300	0.442600
Er61	Er6	0.873300	0.639300	0.443700
Er71	Er7	0.998600	0.477100	0.361100
Er81	Er8	0.982500	0.484400	0.537900
O491	O49	0.433100	0.083500	0.552600
O501	O50	0.354600	0.971300	0.623100
O511	O51	0.506100	0.940800	0.552300
O521	O52	0.341300	0.967600	0.494600
O531	O53	0.171600	0.042200	0.469500
O541	O54	0.144400	0.143900	0.571500
O551	O55	0.347900	0.724200	0.568300
O561	O56	0.276000	0.821800	0.467200
O571	O57	0.426700	0.002900	0.751400
O581	O58	0.606200	0.057900	0.719500
O591	O59	0.389000	0.980900	0.370400
O601	O60	0.574000	0.036300	0.370100
N71	N7	0.544700	0.233100	0.744800
O611	O61	0.466100	0.407500	0.811800
O621	O62	0.556100	0.315200	0.852900
O631	O63	0.291300	0.135300	0.646000
O641	O64	0.430200	0.127800	0.688500
C311	C31	0.501200	0.342600	0.812300
C321	C32	0.472500	0.289900	0.759700
C331	C33	0.381100	0.252400	0.777000
C341	C34	0.320500	0.224600	0.724200
C351	C35	0.350400	0.153900	0.683800
N81	N8	0.023100	0.934200	0.664500
O651	O65	0.163300	0.972900	0.592800
O661	O66	0.226300	0.855200	0.595500
O671	O67	0.963400	0.696000	0.519500
O681	O68	0.033800	0.604100	0.572900
C361	C36	0.164600	0.901900	0.606100
C371	C37	0.083100	0.868000	0.643400
C381	C38	0.025600	0.811900	0.603400
C391	C39	0.075900	0.733700	0.592600
C401	C40	0.020400	0.674100	0.559100
N91	N9	0.230900	0.303100	0.526000
O691	O69	0.122800	0.412800	0.403300
O701	O70	0.113900	0.421500	0.508400
O711	O71	0.421400	0.132600	0.426500
O721	O72	0.297200	0.159400	0.483500
C411	C41	0.148800	0.396900	0.458100
C421	C42	0.234000	0.347000	0.464400
C431	C43	0.253000	0.292300	0.409000
C441	C44	0.347100	0.252800	0.407200
C451	C45	0.355400	0.175600	0.440500
H1051	H105	0.448100	0.140100	0.550700
H1061	H106	0.321600	0.959300	0.663200
H1071	H107	0.564200	0.910300	0.550700
H1081	H108	0.301400	0.953900	0.457900
H1091	H109	0.139100	0.992800	0.474500
H1101	H110	0.206500	0.041400	0.430100
H1111	H111	0.127300	0.084900	0.468400
H1121	H112	0.130300	0.148100	0.616600
H1131	H113	0.091800	0.121900	0.549200
H1141	H114	0.158100	0.195600	0.554600
H1151	H115	0.346300	0.699500	0.526700
H1161	H116	0.289400	0.715600	0.589800
H1171	H117	0.397500	0.701500	0.593400
H1181	H118	0.309700	0.828900	0.427700
H1191	H119	0.220700	0.854000	0.466600
H1201	H120	0.258800	0.767100	0.471800
H1211	H121	0.381500	0.043700	0.759400
H1221	H122	0.475000	0.005500	0.783300
H1231	H123	0.396800	0.952000	0.753300
H1241	H124	0.583400	0.040500	0.760500
H1251	H125	0.614100	0.114400	0.719900
H1261	H126	0.665200	0.033000	0.710800
H1271	H127	0.336100	0.015900	0.367900
H1281	H128	0.367600	0.927200	0.374700
H1291	H129	0.425700	0.985800	0.332000
H1301	H130	0.566400	0.090000	0.355600
H1311	H131	0.554600	0.000500	0.336800
H1321	H132	0.638400	0.027000	0.380300
H1331	H133	0.521900	0.196200	0.718300
H1341	H134	0.564400	0.210100	0.780900
H1351	H135	0.592300	0.257800	0.725800
H1361	H136	0.462400	0.322700	0.721400
H1371	H137	0.394000	0.207500	0.804800
H1381	H138	0.345900	0.290500	0.802200
H1391	H139	0.311200	0.268900	0.695100
H1401	H140	0.260100	0.212100	0.742600
H1411	H141	0.972500	0.915000	0.684000
H1421	H142	0.005800	0.962800	0.630500
H1431	H143	0.054600	0.964900	0.691900
H1441	H144	0.106700	0.839800	0.681200
H1451	H145	0.012300	0.836300	0.562100
H1461	H146	0.966600	0.802000	0.624800
H1471	H147	0.132200	0.743700	0.568000
H1481	H148	0.094600	0.712500	0.634100
H1491	H149	0.278500	0.269100	0.527800
H1501	H150	0.177300	0.276600	0.528800
H1511	H151	0.235100	0.337300	0.558600
H1521	H152	0.287200	0.383400	0.467000
H1531	H153	0.245400	0.322200	0.369500
H1541	H154	0.205600	0.251200	0.409200
H1551	H155	0.364300	0.245200	0.362500
H1561	H156	0.392200	0.288900	0.426000
Er91	Er9	0.275100	0.060700	0.557400
Er101	Er10	0.373300	0.860700	0.556300
Er111	Er11	0.498600	0.022900	0.638900
Er121	Er12	0.482500	0.015600	0.462100
O731	O73	0.066900	0.916500	0.052600
O741	O74	0.145400	0.028700	0.123100
O751	O75	0.993900	0.059200	0.052300
O761	O76	0.158700	0.032400	0.994600
O771	O77	0.328400	0.957800	0.969500
O781	O78	0.355600	0.856100	0.071500
O791	O79	0.152100	0.275800	0.068300
O801	O80	0.224000	0.178200	0.967200
O811	O81	0.073300	0.997100	0.251400
O821	O82	0.893800	0.942100	0.219500
O831	O83	0.111000	0.019100	0.870400
O841	O84	0.926000	0.963700	0.870100
N101	N10	0.955300	0.766900	0.244800
O851	O85	0.033900	0.592500	0.311800
O861	O86	0.943900	0.684800	0.352900
O871	O87	0.208700	0.864700	0.146000
O881	O88	0.069800	0.872200	0.188500
C461	C46	0.998800	0.657400	0.312300
C471	C47	0.027500	0.710100	0.259700
C481	C48	0.118900	0.747600	0.277000
C491	C49	0.179500	0.775400	0.224200
C501	C50	0.149600	0.846100	0.183800
N111	N11	0.476900	0.065800	0.164500
O891	O89	0.336700	0.027100	0.092800
O901	O90	0.273700	0.144800	0.095500
O911	O91	0.536600	0.304000	0.019500
O921	O92	0.466200	0.395900	0.072900
C511	C51	0.335400	0.098100	0.106100
C521	C52	0.416900	0.132000	0.143400
C531	C53	0.474400	0.188100	0.103400
C541	C54	0.424100	0.266300	0.092600
C551	C55	0.479600	0.325900	0.059100
N121	N12	0.269100	0.696900	0.026000
O931	O93	0.377200	0.587200	0.903300
O941	O94	0.386100	0.578500	0.008400
O951	O95	0.078600	0.867400	0.926500
O961	O96	0.202800	0.840600	0.983500
C561	C56	0.351200	0.603100	0.958100
C571	C57	0.266000	0.653000	0.964400
C581	C58	0.247000	0.707700	0.909000
C591	C59	0.152900	0.747200	0.907200
C601	C60	0.144600	0.824400	0.940500
H1571	H157	0.051900	0.859900	0.050700
H1581	H158	0.178400	0.040700	0.163200
H1591	H159	0.935800	0.089700	0.050700
H1601	H160	0.198600	0.046100	0.957900
H1611	H161	0.360900	0.007200	0.974500
H1621	H162	0.293500	0.958600	0.930100
H1631	H163	0.372700	0.915100	0.968400
H1641	H164	0.369700	0.851900	0.116600
H1651	H165	0.408200	0.878100	0.049200
H1661	H166	0.341900	0.804400	0.054600
H1671	H167	0.153700	0.300500	0.026700
H1681	H168	0.210600	0.284400	0.089800
H1691	H169	0.102500	0.298500	0.093400
H1701	H170	0.190300	0.171100	0.927700
H1711	H171	0.279300	0.146000	0.966600
H1721	H172	0.241200	0.232900	0.971800
H1731	H173	0.118500	0.956300	0.259400
H1741	H174	0.025000	0.994500	0.283300
H1751	H175	0.103200	0.048000	0.253300
H1761	H176	0.916600	0.959500	0.260500
H1771	H177	0.885900	0.885600	0.219900
H1781	H178	0.834800	0.967000	0.210800
H1791	H179	0.163900	0.984100	0.867900
H1801	H180	0.132400	0.072800	0.874700
H1811	H181	0.074300	0.014200	0.832000
H1821	H182	0.933600	0.910000	0.855600
H1831	H183	0.945400	0.999500	0.836800
H1841	H184	0.861600	0.973000	0.880300
H1851	H185	0.978100	0.803800	0.218300
H1861	H186	0.935600	0.789900	0.280900
H1871	H187	0.907700	0.742200	0.225800
H1881	H188	0.037600	0.677300	0.221400
H1891	H189	0.106000	0.792500	0.304800
H1901	H190	0.154100	0.709500	0.302200
H1911	H191	0.188800	0.731100	0.195100
H1921	H192	0.239900	0.787900	0.242600
H1931	H193	0.527500	0.085000	0.184000
H1941	H194	0.494200	0.037200	0.130500
H1951	H195	0.445400	0.035100	0.191900
H1961	H196	0.393300	0.160200	0.181200
H1971	H197	0.487700	0.163700	0.062100
H1981	H198	0.533400	0.198000	0.124800
H1991	H199	0.367800	0.256300	0.068000
H2001	H200	0.405400	0.287500	0.134100
H2011	H201	0.221500	0.730900	0.027800
H2021	H202	0.322700	0.723400	0.028800
H2031	H203	0.264900	0.662700	0.058600
H2041	H204	0.212800	0.616600	0.967000
H2051	H205	0.254600	0.677800	0.869500
H2061	H206	0.294400	0.748800	0.909200
H2071	H207	0.135700	0.754800	0.862500
H2081	H208	0.107800	0.711100	0.926000
Er131	Er13	0.224900	0.939300	0.057400
Er141	Er14	0.126700	0.139300	0.056300
Er151	Er15	0.001400	0.977100	0.138900
Er161	Er16	0.017500	0.984400	0.962100
