data_FAGMOS_freeONLY_PM
_symmetry_space_group_name_H-M	'P1'
_cell_length_a	24.416500
_cell_length_b	24.416500
_cell_length_c	13.745700
_cell_angle_alpha	90.000000
_cell_angle_beta	90.000000
_cell_angle_gamma	90.000000
_symmetry_Int_Tables_number 1

loop_
_symmetry_equiv_pos_as_xyz
'x,y,z'

loop_
_atom_site_label
_atom_site_type_symbol
_atom_site_fract_x
_atom_site_fract_y
_atom_site_fract_z
N11	N1	0.201600	0.082800	0.245000
N21	N2	0.345600	0.110800	0.516100
C11	C1	0.287100	0.061500	0.592400
C21	C2	0.370000	0.143500	0.437800
C31	C3	0.364200	0.105500	0.608600
C41	C4	0.327300	0.074900	0.659900
H11	H1	0.255700	0.039900	0.606400
C51	C5	0.429800	0.133800	0.426500
H21	H2	0.351400	0.134600	0.375700
H31	H3	0.363700	0.182800	0.451400
H41	H4	0.397200	0.120600	0.633500
H51	H5	0.328900	0.065000	0.726600
S11	S1	0.447390	0.068780	0.368310
H61	H6	0.445600	0.164000	0.387600
H71	H7	0.447100	0.134900	0.491600
C61	C6	0.432800	0.088800	0.247000
C71	C7	0.465300	0.126600	0.198000
C81	C8	0.387300	0.068100	0.198600
S21	S2	0.522500	0.161070	0.247690
C91	C9	0.450100	0.145900	0.105900
C101	C10	0.371800	0.087500	0.107000
C111	C11	0.401900	0.129000	0.060200
H81	H8	0.473300	0.171300	0.073500
H91	H9	0.340400	0.072500	0.075900
C121	C12	0.385000	0.152700	0.962700
C131	C13	0.325500	0.142000	0.937500
C141	C14	0.420600	0.125400	0.883800
C151	C15	0.394800	0.214500	0.961800
H101	H10	0.301800	0.162700	0.981800
H111	H11	0.318500	0.153600	0.870400
H121	H12	0.317700	0.102800	0.943900
H131	H13	0.414500	0.085800	0.884500
H141	H14	0.410600	0.140100	0.819800
H151	H15	0.459300	0.133100	0.896700
H161	H16	0.381700	0.229800	0.900200
H171	H17	0.374900	0.231400	0.015900
H181	H18	0.434000	0.221900	0.968800
N31	N3	0.701600	0.582800	0.745000
N41	N4	0.845600	0.610800	0.016100
C161	C16	0.787100	0.561500	0.092400
C171	C17	0.870000	0.643500	0.937800
C181	C18	0.864200	0.605500	0.108600
C191	C19	0.827300	0.574900	0.159900
H191	H19	0.755700	0.539900	0.106400
C201	C20	0.929800	0.633800	0.926500
H201	H20	0.851400	0.634600	0.875700
H211	H21	0.863700	0.682800	0.951400
H221	H22	0.897200	0.620600	0.133500
H231	H23	0.828900	0.565000	0.226600
S31	S3	0.947390	0.568780	0.868310
H241	H24	0.945600	0.664000	0.887600
H251	H25	0.947100	0.634900	0.991600
C211	C21	0.932800	0.588800	0.747000
C221	C22	0.965300	0.626600	0.698000
C231	C23	0.887300	0.568100	0.698600
S41	S4	0.022500	0.661070	0.747690
C241	C24	0.950100	0.645900	0.605900
C251	C25	0.871800	0.587500	0.607000
C261	C26	0.901900	0.629000	0.560200
H261	H26	0.973300	0.671300	0.573500
H271	H27	0.840400	0.572500	0.575900
C271	C27	0.885000	0.652700	0.462700
C281	C28	0.825500	0.642000	0.437500
C291	C29	0.920600	0.625400	0.383800
C301	C30	0.894800	0.714500	0.461800
H281	H28	0.801800	0.662700	0.481800
H291	H29	0.818500	0.653600	0.370400
H301	H30	0.817700	0.602800	0.443900
H311	H31	0.914500	0.585800	0.384500
H321	H32	0.910600	0.640100	0.319800
H331	H33	0.959300	0.633100	0.396700
H341	H34	0.881700	0.729800	0.400200
H351	H35	0.874900	0.731400	0.515900
H361	H36	0.934000	0.721900	0.468800
N51	N5	0.798400	0.917200	0.245000
N61	N6	0.654400	0.889200	0.516100
C311	C31	0.712900	0.938500	0.592400
C321	C32	0.630000	0.856500	0.437800
C331	C33	0.635800	0.894500	0.608600
C341	C34	0.672700	0.925100	0.659900
H371	H37	0.744300	0.960100	0.606400
C351	C35	0.570200	0.866200	0.426500
H381	H38	0.648600	0.865400	0.375700
H391	H39	0.636300	0.817200	0.451400
H401	H40	0.602800	0.879400	0.633500
H411	H41	0.671100	0.935000	0.726600
S51	S5	0.552610	0.931220	0.368310
H421	H42	0.554400	0.836000	0.387600
H431	H43	0.552900	0.865100	0.491600
C361	C36	0.567200	0.911200	0.247000
C371	C37	0.534700	0.873400	0.198000
C381	C38	0.612700	0.931900	0.198600
S61	S6	0.477500	0.838930	0.247690
C391	C39	0.549900	0.854100	0.105900
C401	C40	0.628200	0.912500	0.107000
C411	C41	0.598100	0.871000	0.060200
H441	H44	0.526700	0.828700	0.073500
H451	H45	0.659600	0.927500	0.075900
C421	C42	0.615000	0.847300	0.962700
C431	C43	0.674500	0.858000	0.937500
C441	C44	0.579400	0.874600	0.883800
C451	C45	0.605200	0.785500	0.961800
H461	H46	0.698200	0.837300	0.981800
H471	H47	0.681500	0.846400	0.870400
H481	H48	0.682300	0.897200	0.943900
H491	H49	0.585500	0.914200	0.884500
H501	H50	0.589400	0.859900	0.819800
H511	H51	0.540700	0.866900	0.896700
H521	H52	0.618300	0.770200	0.900200
H531	H53	0.625100	0.768600	0.015900
H541	H54	0.566000	0.778100	0.968800
N71	N7	0.298400	0.417200	0.745000
N81	N8	0.154400	0.389200	0.016100
C461	C46	0.212900	0.438500	0.092400
C471	C47	0.130000	0.356500	0.937800
C481	C48	0.135800	0.394500	0.108600
C491	C49	0.172700	0.425100	0.159900
H551	H55	0.244300	0.460100	0.106400
C501	C50	0.070200	0.366200	0.926500
H561	H56	0.148600	0.365400	0.875700
H571	H57	0.136300	0.317200	0.951400
H581	H58	0.102800	0.379400	0.133500
H591	H59	0.171100	0.435000	0.226600
S71	S7	0.052610	0.431220	0.868310
H601	H60	0.054400	0.336000	0.887600
H611	H61	0.052900	0.365100	0.991600
C511	C51	0.067200	0.411200	0.747000
C521	C52	0.034700	0.373400	0.698000
C531	C53	0.112700	0.431900	0.698600
S81	S8	0.977500	0.338930	0.747690
C541	C54	0.049900	0.354100	0.605900
C551	C55	0.128200	0.412500	0.607000
C561	C56	0.098100	0.371000	0.560200
H621	H62	0.026700	0.328700	0.573500
H631	H63	0.159600	0.427500	0.575900
C571	C57	0.115000	0.347300	0.462700
C581	C58	0.174500	0.358000	0.437500
C591	C59	0.079400	0.374600	0.383800
C601	C60	0.105200	0.285500	0.461800
H641	H64	0.198200	0.337300	0.481800
H651	H65	0.181500	0.346400	0.370400
H661	H66	0.182300	0.397200	0.443900
H671	H67	0.085500	0.414200	0.384500
H681	H68	0.089400	0.359900	0.319800
H691	H69	0.040700	0.366900	0.396700
H701	H70	0.118300	0.270200	0.400200
H711	H71	0.125100	0.268600	0.515900
H721	H72	0.066000	0.278100	0.468800
N91	N9	0.082800	0.798400	0.755000
N101	N10	0.110800	0.654400	0.483900
C611	C61	0.061500	0.712900	0.407600
C621	C62	0.143500	0.630000	0.562200
C631	C63	0.105500	0.635800	0.391400
C641	C64	0.074900	0.672700	0.340100
H731	H73	0.039900	0.744300	0.393600
C651	C65	0.133800	0.570200	0.573500
H741	H74	0.134600	0.648600	0.624300
H751	H75	0.182800	0.636300	0.548600
H761	H76	0.120600	0.602800	0.366500
H771	H77	0.065000	0.671100	0.273400
S91	S9	0.068780	0.552610	0.631690
H781	H78	0.164000	0.554400	0.612400
H791	H79	0.134900	0.552900	0.508400
C661	C66	0.088800	0.567200	0.753000
C671	C67	0.126600	0.534700	0.802000
C681	C68	0.068100	0.612700	0.801400
S101	S10	0.161070	0.477500	0.752310
C691	C69	0.145900	0.549900	0.894100
C701	C70	0.087500	0.628200	0.893000
C711	C71	0.129000	0.598100	0.939800
H801	H80	0.171300	0.526700	0.926500
H811	H81	0.072500	0.659600	0.924100
C721	C72	0.152700	0.615000	0.037300
C731	C73	0.142000	0.674500	0.062500
C741	C74	0.125400	0.579400	0.116200
C751	C75	0.214500	0.605200	0.038200
H821	H82	0.162700	0.698200	0.018200
H831	H83	0.153600	0.681500	0.129600
H841	H84	0.102800	0.682300	0.056100
H851	H85	0.085800	0.585500	0.115500
H861	H86	0.140100	0.589400	0.180200
H871	H87	0.133100	0.540700	0.103300
H881	H88	0.229800	0.618300	0.099800
H891	H89	0.231400	0.625100	0.984100
H901	H90	0.221900	0.566000	0.031200
N111	N11	0.582800	0.298400	0.255000
N121	N12	0.610800	0.154400	0.983900
C761	C76	0.561500	0.212900	0.907600
C771	C77	0.643500	0.130000	0.062200
C781	C78	0.605500	0.135800	0.891400
C791	C79	0.574900	0.172700	0.840100
H911	H91	0.539900	0.244300	0.893600
C801	C80	0.633800	0.070200	0.073500
H921	H92	0.634600	0.148600	0.124300
H931	H93	0.682800	0.136300	0.048600
H941	H94	0.620600	0.102800	0.866500
H951	H95	0.565000	0.171100	0.773400
S111	S11	0.568780	0.052610	0.131690
H961	H96	0.664000	0.054400	0.112400
H971	H97	0.634900	0.052900	0.008400
C811	C81	0.588800	0.067200	0.253000
C821	C82	0.626600	0.034700	0.302000
C831	C83	0.568100	0.112700	0.301400
S121	S12	0.661070	0.977500	0.252310
C841	C84	0.645900	0.049900	0.394100
C851	C85	0.587500	0.128200	0.393000
C861	C86	0.629000	0.098100	0.439800
H981	H98	0.671300	0.026700	0.426500
H991	H99	0.572500	0.159600	0.424100
C871	C87	0.652700	0.115000	0.537300
C881	C88	0.642000	0.174500	0.562500
C891	C89	0.625400	0.079400	0.616200
C901	C90	0.714500	0.105200	0.538200
H1001	H100	0.662700	0.198200	0.518200
H1011	H101	0.653600	0.181500	0.629600
H1021	H102	0.602800	0.182300	0.556100
H1031	H103	0.585800	0.085500	0.615500
H1041	H104	0.640100	0.089400	0.680200
H1051	H105	0.633100	0.040700	0.603300
H1061	H106	0.729800	0.118300	0.599800
H1071	H107	0.731400	0.125100	0.484100
H1081	H108	0.721900	0.066000	0.531200
N131	N13	0.917200	0.201600	0.755000
N141	N14	0.889200	0.345600	0.483900
C911	C91	0.938500	0.287100	0.407600
C921	C92	0.856500	0.370000	0.562200
C931	C93	0.894500	0.364200	0.391400
C941	C94	0.925100	0.327300	0.340100
H1091	H109	0.960100	0.255700	0.393600
C951	C95	0.866200	0.429800	0.573500
H1101	H110	0.865400	0.351400	0.624300
H1111	H111	0.817200	0.363700	0.548600
H1121	H112	0.879400	0.397200	0.366500
H1131	H113	0.935000	0.328900	0.273400
S131	S13	0.931220	0.447390	0.631690
H1141	H114	0.836000	0.445600	0.612400
H1151	H115	0.865100	0.447100	0.508400
C961	C96	0.911200	0.432800	0.753000
C971	C97	0.873400	0.465300	0.802000
C981	C98	0.931900	0.387300	0.801400
S141	S14	0.838930	0.522500	0.752310
C991	C99	0.854100	0.450100	0.894100
C1001	C100	0.912500	0.371800	0.893000
C1011	C101	0.871000	0.401900	0.939800
H1161	H116	0.828700	0.473300	0.926500
H1171	H117	0.927500	0.340400	0.924100
C1021	C102	0.847300	0.385000	0.037300
C1031	C103	0.858000	0.325500	0.062500
C1041	C104	0.874600	0.420600	0.116200
C1051	C105	0.785500	0.394800	0.038200
H1181	H118	0.837300	0.301800	0.018200
H1191	H119	0.846400	0.318500	0.129600
H1201	H120	0.897200	0.317700	0.056100
H1211	H121	0.914200	0.414500	0.115500
H1221	H122	0.859900	0.410600	0.180200
H1231	H123	0.866900	0.459300	0.103300
H1241	H124	0.770200	0.381700	0.099800
H1251	H125	0.768600	0.374900	0.984100
H1261	H126	0.778100	0.434000	0.031200
N151	N15	0.417200	0.701600	0.255000
N161	N16	0.389200	0.845600	0.983900
C1061	C106	0.438500	0.787100	0.907600
C1071	C107	0.356500	0.870000	0.062200
C1081	C108	0.394500	0.864200	0.891400
C1091	C109	0.425100	0.827300	0.840100
H1271	H127	0.460100	0.755700	0.893600
C1101	C110	0.366200	0.929800	0.073500
H1281	H128	0.365400	0.851400	0.124300
H1291	H129	0.317200	0.863700	0.048600
H1301	H130	0.379400	0.897200	0.866500
H1311	H131	0.435000	0.828900	0.773400
S151	S15	0.431220	0.947390	0.131690
H1321	H132	0.336000	0.945600	0.112400
H1331	H133	0.365100	0.947100	0.008400
C1111	C111	0.411200	0.932800	0.253000
C1121	C112	0.373400	0.965300	0.302000
C1131	C113	0.431900	0.887300	0.301400
S161	S16	0.338930	0.022500	0.252310
C1141	C114	0.354100	0.950100	0.394100
C1151	C115	0.412500	0.871800	0.393000
C1161	C116	0.371000	0.901900	0.439800
H1341	H134	0.328700	0.973300	0.426500
H1351	H135	0.427500	0.840400	0.424100
C1171	C117	0.347300	0.885000	0.537300
C1181	C118	0.358000	0.825500	0.562500
C1191	C119	0.374600	0.920600	0.616200
C1201	C120	0.285500	0.894800	0.538200
H1361	H136	0.337300	0.801800	0.518200
H1371	H137	0.346400	0.818500	0.629600
H1381	H138	0.397200	0.817700	0.556100
H1391	H139	0.414200	0.914500	0.615500
H1401	H140	0.359900	0.910600	0.680200
H1411	H141	0.366900	0.959300	0.603300
H1421	H142	0.270200	0.881700	0.599800
H1431	H143	0.268600	0.874900	0.484100
H1441	H144	0.278100	0.934000	0.531200
N171	N17	0.298400	0.082800	0.505000
N181	N18	0.154400	0.110800	0.233900
C1211	C121	0.212900	0.061500	0.157600
C1221	C122	0.130000	0.143500	0.312200
C1231	C123	0.135800	0.105500	0.141400
C1241	C124	0.172700	0.074900	0.090100
H1451	H145	0.244300	0.039900	0.143600
C1251	C125	0.070200	0.133800	0.323500
H1461	H146	0.148600	0.134600	0.374300
H1471	H147	0.136300	0.182800	0.298600
H1481	H148	0.102800	0.120600	0.116500
H1491	H149	0.171100	0.065000	0.023400
S171	S17	0.052610	0.068780	0.381690
H1501	H150	0.054400	0.164000	0.362400
H1511	H151	0.052900	0.134900	0.258400
C1261	C126	0.067200	0.088800	0.503000
C1271	C127	0.034700	0.126600	0.552000
C1281	C128	0.112700	0.068100	0.551400
S181	S18	0.977500	0.161070	0.502310
C1291	C129	0.049900	0.145900	0.644100
C1301	C130	0.128200	0.087500	0.643000
C1311	C131	0.098100	0.129000	0.689800
H1521	H152	0.026700	0.171300	0.676500
H1531	H153	0.159600	0.072500	0.674100
C1321	C132	0.115000	0.152700	0.787300
C1331	C133	0.174500	0.142000	0.812500
C1341	C134	0.079400	0.125400	0.866200
C1351	C135	0.105200	0.214500	0.788200
H1541	H154	0.198200	0.162700	0.768200
H1551	H155	0.181500	0.153600	0.879600
H1561	H156	0.182300	0.102800	0.806100
H1571	H157	0.085500	0.085800	0.865500
H1581	H158	0.089400	0.140100	0.930200
H1591	H159	0.040700	0.133100	0.853300
H1601	H160	0.118300	0.229800	0.849800
H1611	H161	0.125100	0.231400	0.734100
H1621	H162	0.066000	0.221900	0.781200
N191	N19	0.798400	0.582800	0.005000
N201	N20	0.654400	0.610800	0.733900
C1361	C136	0.712900	0.561500	0.657600
C1371	C137	0.630000	0.643500	0.812200
C1381	C138	0.635800	0.605500	0.641400
C1391	C139	0.672700	0.574900	0.590100
H1631	H163	0.744300	0.539900	0.643600
C1401	C140	0.570200	0.633800	0.823500
H1641	H164	0.648600	0.634600	0.874300
H1651	H165	0.636300	0.682800	0.798600
H1661	H166	0.602800	0.620600	0.616500
H1671	H167	0.671100	0.565000	0.523400
S191	S19	0.552610	0.568780	0.881690
H1681	H168	0.554400	0.664000	0.862400
H1691	H169	0.552900	0.634900	0.758400
C1411	C141	0.567200	0.588800	0.003000
C1421	C142	0.534700	0.626600	0.052000
C1431	C143	0.612700	0.568100	0.051400
S201	S20	0.477500	0.661070	0.002310
C1441	C144	0.549900	0.645900	0.144100
C1451	C145	0.628200	0.587500	0.143000
C1461	C146	0.598100	0.629000	0.189800
H1701	H170	0.526700	0.671300	0.176500
H1711	H171	0.659600	0.572500	0.174100
C1471	C147	0.615000	0.652700	0.287300
C1481	C148	0.674500	0.642000	0.312500
C1491	C149	0.579400	0.625400	0.366200
C1501	C150	0.605200	0.714500	0.288200
H1721	H172	0.698200	0.662700	0.268200
H1731	H173	0.681500	0.653600	0.379600
H1741	H174	0.682300	0.602800	0.306100
H1751	H175	0.585500	0.585800	0.365500
H1761	H176	0.589400	0.640100	0.430200
H1771	H177	0.540700	0.633100	0.353300
H1781	H178	0.618300	0.729800	0.349800
H1791	H179	0.625100	0.731400	0.234100
H1801	H180	0.566000	0.721900	0.281200
N211	N21	0.701600	0.917200	0.505000
N221	N22	0.845600	0.889200	0.233900
C1511	C151	0.787100	0.938500	0.157600
C1521	C152	0.870000	0.856500	0.312200
C1531	C153	0.864200	0.894500	0.141400
C1541	C154	0.827300	0.925100	0.090100
H1811	H181	0.755700	0.960100	0.143600
C1551	C155	0.929800	0.866200	0.323500
H1821	H182	0.851400	0.865400	0.374300
H1831	H183	0.863700	0.817200	0.298600
H1841	H184	0.897200	0.879400	0.116500
H1851	H185	0.828900	0.935000	0.023400
S211	S21	0.947390	0.931220	0.381690
H1861	H186	0.945600	0.836000	0.362400
H1871	H187	0.947100	0.865100	0.258400
C1561	C156	0.932800	0.911200	0.503000
C1571	C157	0.965300	0.873400	0.552000
C1581	C158	0.887300	0.931900	0.551400
S221	S22	0.022500	0.838930	0.502310
C1591	C159	0.950100	0.854100	0.644100
C1601	C160	0.871800	0.912500	0.643000
C1611	C161	0.901900	0.871000	0.689800
H1881	H188	0.973300	0.828700	0.676500
H1891	H189	0.840400	0.927500	0.674100
C1621	C162	0.885000	0.847300	0.787300
C1631	C163	0.825500	0.858000	0.812500
C1641	C164	0.920600	0.874600	0.866200
C1651	C165	0.894800	0.785500	0.788200
H1901	H190	0.801800	0.837300	0.768200
H1911	H191	0.818500	0.846400	0.879600
H1921	H192	0.817700	0.897200	0.806100
H1931	H193	0.914500	0.914200	0.865500
H1941	H194	0.910600	0.859900	0.930200
H1951	H195	0.959300	0.866900	0.853300
H1961	H196	0.881700	0.770200	0.849800
H1971	H197	0.874900	0.768600	0.734100
H1981	H198	0.934000	0.778100	0.781200
N231	N23	0.201600	0.417200	0.005000
N241	N24	0.345600	0.389200	0.733900
C1661	C166	0.287100	0.438500	0.657600
C1671	C167	0.370000	0.356500	0.812200
C1681	C168	0.364200	0.394500	0.641400
C1691	C169	0.327300	0.425100	0.590100
H1991	H199	0.255700	0.460100	0.643600
C1701	C170	0.429800	0.366200	0.823500
H2001	H200	0.351400	0.365400	0.874300
H2011	H201	0.363700	0.317200	0.798600
H2021	H202	0.397200	0.379400	0.616500
H2031	H203	0.328900	0.435000	0.523400
S231	S23	0.447390	0.431220	0.881690
H2041	H204	0.445600	0.336000	0.862400
H2051	H205	0.447100	0.365100	0.758400
C1711	C171	0.432800	0.411200	0.003000
C1721	C172	0.465300	0.373400	0.052000
C1731	C173	0.387300	0.431900	0.051400
S241	S24	0.522500	0.338930	0.002310
C1741	C174	0.450100	0.354100	0.144100
C1751	C175	0.371800	0.412500	0.143000
C1761	C176	0.401900	0.371000	0.189800
H2061	H206	0.473300	0.328700	0.176500
H2071	H207	0.340400	0.427500	0.174100
C1771	C177	0.385000	0.347300	0.287300
C1781	C178	0.325500	0.358000	0.312500
C1791	C179	0.420600	0.374600	0.366200
C1801	C180	0.394800	0.285500	0.288200
H2081	H208	0.301800	0.337300	0.268200
H2091	H209	0.318500	0.346400	0.379600
H2101	H210	0.317700	0.397200	0.306100
H2111	H211	0.414500	0.414200	0.365500
H2121	H212	0.410600	0.359900	0.430200
H2131	H213	0.459300	0.366900	0.353300
H2141	H214	0.381700	0.270200	0.349800
H2151	H215	0.374900	0.268600	0.234100
H2161	H216	0.434000	0.278100	0.281200
N251	N25	0.417200	0.798400	0.995000
N261	N26	0.389200	0.654400	0.266100
C1811	C181	0.438500	0.712900	0.342400
C1821	C182	0.356500	0.630000	0.187800
C1831	C183	0.394500	0.635800	0.358600
C1841	C184	0.425100	0.672700	0.409900
H2171	H217	0.460100	0.744300	0.356400
C1851	C185	0.366200	0.570200	0.176500
H2181	H218	0.365400	0.648600	0.125700
H2191	H219	0.317200	0.636300	0.201400
H2201	H220	0.379400	0.602800	0.383500
H2211	H221	0.435000	0.671100	0.476600
S251	S25	0.431220	0.552610	0.118310
H2221	H222	0.336000	0.554400	0.137600
H2231	H223	0.365100	0.552900	0.241600
C1861	C186	0.411200	0.567200	0.997000
C1871	C187	0.373400	0.534700	0.948000
C1881	C188	0.431900	0.612700	0.948600
S261	S26	0.338930	0.477500	0.997690
C1891	C189	0.354100	0.549900	0.855900
C1901	C190	0.412500	0.628200	0.857000
C1911	C191	0.371000	0.598100	0.810200
H2241	H224	0.328700	0.526700	0.823500
H2251	H225	0.427500	0.659600	0.825900
C1921	C192	0.347300	0.615000	0.712700
C1931	C193	0.358000	0.674500	0.687500
C1941	C194	0.374600	0.579400	0.633800
C1951	C195	0.285500	0.605200	0.711800
H2261	H226	0.337300	0.698200	0.731800
H2271	H227	0.346400	0.681500	0.620400
H2281	H228	0.397200	0.682300	0.693900
H2291	H229	0.414200	0.585500	0.634500
H2301	H230	0.359900	0.589400	0.569800
H2311	H231	0.366900	0.540700	0.646700
H2321	H232	0.270200	0.618300	0.650200
H2331	H233	0.268600	0.625100	0.765900
H2341	H234	0.278100	0.566000	0.718800
N271	N27	0.917200	0.298400	0.495000
N281	N28	0.889200	0.154400	0.766100
C1961	C196	0.938500	0.212900	0.842400
C1971	C197	0.856500	0.130000	0.687800
C1981	C198	0.894500	0.135800	0.858600
C1991	C199	0.925100	0.172700	0.909900
H2351	H235	0.960100	0.244300	0.856400
C2001	C200	0.866200	0.070200	0.676500
H2361	H236	0.865400	0.148600	0.625700
H2371	H237	0.817200	0.136300	0.701400
H2381	H238	0.879400	0.102800	0.883500
H2391	H239	0.935000	0.171100	0.976600
S271	S27	0.931220	0.052610	0.618310
H2401	H240	0.836000	0.054400	0.637600
H2411	H241	0.865100	0.052900	0.741600
C2011	C201	0.911200	0.067200	0.497000
C2021	C202	0.873400	0.034700	0.448000
C2031	C203	0.931900	0.112700	0.448600
S281	S28	0.838930	0.977500	0.497690
C2041	C204	0.854100	0.049900	0.355900
C2051	C205	0.912500	0.128200	0.357000
C2061	C206	0.871000	0.098100	0.310200
H2421	H242	0.828700	0.026700	0.323500
H2431	H243	0.927500	0.159600	0.325900
C2071	C207	0.847300	0.115000	0.212700
C2081	C208	0.858000	0.174500	0.187500
C2091	C209	0.874600	0.079400	0.133800
C2101	C210	0.785500	0.105200	0.211800
H2441	H244	0.837300	0.198200	0.231800
H2451	H245	0.846400	0.181500	0.120400
H2461	H246	0.897200	0.182300	0.193900
H2471	H247	0.914200	0.085500	0.134500
H2481	H248	0.859900	0.089400	0.069800
H2491	H249	0.866900	0.040700	0.146700
H2501	H250	0.770200	0.118300	0.150200
H2511	H251	0.768600	0.125100	0.265900
H2521	H252	0.778100	0.066000	0.218800
N291	N29	0.582800	0.201600	0.995000
N301	N30	0.610800	0.345600	0.266100
C2111	C211	0.561500	0.287100	0.342400
C2121	C212	0.643500	0.370000	0.187800
C2131	C213	0.605500	0.364200	0.358600
C2141	C214	0.574900	0.327300	0.409900
H2531	H253	0.539900	0.255700	0.356400
C2151	C215	0.633800	0.429800	0.176500
H2541	H254	0.634600	0.351400	0.125700
H2551	H255	0.682800	0.363700	0.201400
H2561	H256	0.620600	0.397200	0.383500
H2571	H257	0.565000	0.328900	0.476600
S291	S29	0.568780	0.447390	0.118310
H2581	H258	0.664000	0.445600	0.137600
H2591	H259	0.634900	0.447100	0.241600
C2161	C216	0.588800	0.432800	0.997000
C2171	C217	0.626600	0.465300	0.948000
C2181	C218	0.568100	0.387300	0.948600
S301	S30	0.661070	0.522500	0.997690
C2191	C219	0.645900	0.450100	0.855900
C2201	C220	0.587500	0.371800	0.857000
C2211	C221	0.629000	0.401900	0.810200
H2601	H260	0.671300	0.473300	0.823500
H2611	H261	0.572500	0.340400	0.825900
C2221	C222	0.652700	0.385000	0.712700
C2231	C223	0.642000	0.325500	0.687500
C2241	C224	0.625400	0.420600	0.633800
C2251	C225	0.714500	0.394800	0.711800
H2621	H262	0.662700	0.301800	0.731800
H2631	H263	0.653600	0.318500	0.620400
H2641	H264	0.602800	0.317700	0.693900
H2651	H265	0.585800	0.414500	0.634500
H2661	H266	0.640100	0.410600	0.569800
H2671	H267	0.633100	0.459300	0.646700
H2681	H268	0.729800	0.381700	0.650200
H2691	H269	0.731400	0.374900	0.765900
H2701	H270	0.721900	0.434000	0.718800
N311	N31	0.082800	0.701600	0.495000
N321	N32	0.110800	0.845600	0.766100
C2261	C226	0.061500	0.787100	0.842400
C2271	C227	0.143500	0.870000	0.687800
C2281	C228	0.105500	0.864200	0.858600
C2291	C229	0.074900	0.827300	0.909900
H2711	H271	0.039900	0.755700	0.856400
C2301	C230	0.133800	0.929800	0.676500
H2721	H272	0.134600	0.851400	0.625700
H2731	H273	0.182800	0.863700	0.701400
H2741	H274	0.120600	0.897200	0.883500
H2751	H275	0.065000	0.828900	0.976600
S311	S31	0.068780	0.947390	0.618310
H2761	H276	0.164000	0.945600	0.637600
H2771	H277	0.134900	0.947100	0.741600
C2311	C231	0.088800	0.932800	0.497000
C2321	C232	0.126600	0.965300	0.448000
C2331	C233	0.068100	0.887300	0.448600
S321	S32	0.161070	0.022500	0.497690
C2341	C234	0.145900	0.950100	0.355900
C2351	C235	0.087500	0.871800	0.357000
C2361	C236	0.129000	0.901900	0.310200
H2781	H278	0.171300	0.973300	0.323500
H2791	H279	0.072500	0.840400	0.325900
C2371	C237	0.152700	0.885000	0.212700
C2381	C238	0.142000	0.825500	0.187500
C2391	C239	0.125400	0.920600	0.133800
C2401	C240	0.214500	0.894800	0.211800
H2801	H280	0.162700	0.801800	0.231800
H2811	H281	0.153600	0.818500	0.120400
H2821	H282	0.102800	0.817700	0.193900
H2831	H283	0.085800	0.914500	0.134500
H2841	H284	0.140100	0.910600	0.069800
H2851	H285	0.133100	0.959300	0.146700
H2861	H286	0.229800	0.881700	0.150200
H2871	H287	0.231400	0.874900	0.265900
H2881	H288	0.221900	0.934000	0.218800
Ag11	Ag1	0.250000	0.078130	0.375000
Ag21	Ag2	0.750000	0.578130	0.875000
Ag31	Ag3	0.750000	0.921870	0.375000
Ag41	Ag4	0.250000	0.421870	0.875000
Ag51	Ag5	0.078130	0.750000	0.625000
Ag61	Ag6	0.921870	0.250000	0.625000
Ag71	Ag7	0.421870	0.750000	0.125000
Ag81	Ag8	0.578130	0.250000	0.125000
