data_FAGREM_freeONLY_PM
_symmetry_space_group_name_H-M	'P1'
_cell_length_a	10.918000
_cell_length_b	17.125300
_cell_length_c	17.209200
_cell_angle_alpha	90.000000
_cell_angle_beta	90.000000
_cell_angle_gamma	90.000000
_symmetry_Int_Tables_number 1

loop_
_symmetry_equiv_pos_as_xyz
'x,y,z'

loop_
_atom_site_label
_atom_site_type_symbol
_atom_site_fract_x
_atom_site_fract_y
_atom_site_fract_z
Zn11	Zn1	0.176380	0.216340	0.495980
Zn21	Zn2	0.555290	0.647850	0.933310
Zn31	Zn3	0.665220	0.598360	0.110310
Zn41	Zn4	0.286260	0.604150	0.009730
Zn51	Zn5	0.323620	0.783660	0.995980
Zn61	Zn6	0.944710	0.352150	0.433310
Zn71	Zn7	0.834780	0.401640	0.610310
Zn81	Zn8	0.213740	0.395850	0.509730
Zn91	Zn9	0.823620	0.716340	0.004020
Zn101	Zn10	0.444710	0.147850	0.566690
Zn111	Zn11	0.334780	0.098360	0.389690
Zn121	Zn12	0.713740	0.104150	0.490270
Zn131	Zn13	0.676380	0.283660	0.504020
Zn141	Zn14	0.055290	0.852150	0.066690
Zn151	Zn15	0.165220	0.901640	0.889690
Zn161	Zn16	0.786260	0.895850	0.990270
H11	H1	0.034000	0.319400	0.558300
H21	H2	0.259200	0.081100	0.523700
H31	H3	0.237200	0.416100	0.164300
H41	H4	0.212100	0.322100	0.259300
H51	H5	0.559100	0.477000	0.255900
H61	H6	0.215800	0.433600	0.832900
H71	H7	0.194700	0.342900	0.735100
H81	H8	0.567700	0.465800	0.771600
H91	H9	0.466000	0.680600	0.058300
H101	H10	0.240800	0.918900	0.023700
H111	H11	0.262800	0.583900	0.664300
H121	H12	0.287900	0.677900	0.759300
H131	H13	0.940900	0.523000	0.755900
H141	H14	0.284200	0.566400	0.332900
H151	H15	0.305300	0.657100	0.235100
H161	H16	0.932300	0.534200	0.271600
H171	H17	0.966000	0.819400	0.941700
H181	H18	0.740800	0.581100	0.976300
H191	H19	0.762800	0.916100	0.335700
H201	H20	0.787900	0.822100	0.240700
H211	H21	0.440900	0.977000	0.244100
H221	H22	0.784200	0.933600	0.667100
H231	H23	0.805300	0.842900	0.764900
H241	H24	0.432300	0.965800	0.728400
H251	H25	0.534000	0.180600	0.441700
H261	H26	0.759200	0.418900	0.476300
H271	H27	0.737200	0.083900	0.835700
H281	H28	0.712100	0.177900	0.740700
H291	H29	0.059100	0.023000	0.744100
H301	H30	0.715800	0.066400	0.167100
H311	H31	0.694700	0.157100	0.264900
H321	H32	0.067700	0.034200	0.228400
C11	C1	0.401200	0.455890	0.200380
C21	C2	0.297600	0.409200	0.201780
C31	C3	0.282800	0.352390	0.258370
C41	C4	0.374900	0.340620	0.314520
C51	C5	0.478500	0.387800	0.313790
C61	C6	0.489900	0.445260	0.256340
C71	C7	0.414100	0.519450	0.140820
C81	C8	0.348900	0.276180	0.371460
C91	C9	0.577100	0.379300	0.374200
C101	C10	0.395200	0.459820	0.811590
C111	C11	0.282000	0.421740	0.801000
C121	C12	0.270100	0.366920	0.742990
C131	C13	0.368500	0.346830	0.695980
C141	C14	0.481800	0.384480	0.706920
C151	C15	0.493100	0.440650	0.764570
C161	C16	0.408700	0.521090	0.873160
C171	C17	0.353600	0.282960	0.637410
C181	C18	0.590100	0.368080	0.655470
C191	C19	0.098800	0.544110	0.700380
C201	C20	0.202400	0.590800	0.701780
C211	C21	0.217200	0.647610	0.758370
C221	C22	0.125100	0.659380	0.814520
C231	C23	0.021500	0.612200	0.813790
C241	C24	0.010100	0.554740	0.756340
C251	C25	0.085900	0.480550	0.640820
C261	C26	0.151100	0.723820	0.871460
C271	C27	0.922900	0.620700	0.874200
C281	C28	0.104800	0.540180	0.311590
C291	C29	0.218000	0.578260	0.301000
C301	C30	0.229900	0.633080	0.242990
C311	C31	0.131500	0.653170	0.195980
C321	C32	0.018200	0.615520	0.206920
C331	C33	0.006900	0.559350	0.264570
C341	C34	0.091300	0.478910	0.373160
C351	C35	0.146400	0.717040	0.137410
C361	C36	0.909900	0.631920	0.155470
C371	C37	0.598800	0.955890	0.299620
C381	C38	0.702400	0.909200	0.298220
C391	C39	0.717200	0.852390	0.241630
C401	C40	0.625100	0.840620	0.185480
C411	C41	0.521500	0.887800	0.186210
C421	C42	0.510100	0.945260	0.243660
C431	C43	0.585900	0.019450	0.359180
C441	C44	0.651100	0.776180	0.128540
C451	C45	0.422900	0.879300	0.125800
C461	C46	0.604800	0.959820	0.688410
C471	C47	0.718000	0.921740	0.699000
C481	C48	0.729900	0.866920	0.757010
C491	C49	0.631500	0.846830	0.804020
C501	C50	0.518200	0.884480	0.793080
C511	C51	0.506900	0.940650	0.735430
C521	C52	0.591300	0.021090	0.626840
C531	C53	0.646400	0.782960	0.862590
C541	C54	0.409900	0.868080	0.844530
C551	C55	0.901200	0.044110	0.799620
C561	C56	0.797600	0.090800	0.798220
C571	C57	0.782800	0.147610	0.741630
C581	C58	0.874900	0.159380	0.685480
C591	C59	0.978500	0.112200	0.686210
C601	C60	0.989900	0.054740	0.743660
C611	C61	0.914100	0.980550	0.859180
C621	C62	0.848900	0.223820	0.628540
C631	C63	0.077100	0.120700	0.625800
C641	C64	0.895200	0.040180	0.188410
C651	C65	0.782000	0.078260	0.199000
C661	C66	0.770100	0.133080	0.257010
C671	C67	0.868500	0.153170	0.304020
C681	C68	0.981800	0.115520	0.293080
C691	C69	0.993100	0.059350	0.235430
C701	C70	0.908700	0.978910	0.126840
C711	C71	0.853600	0.217040	0.362590
C721	C72	0.090100	0.131920	0.344530
O11	O1	0.503100	0.566230	0.146880
O21	O2	0.109850	0.569910	0.010550
O31	O3	0.332500	0.523350	0.089610
O41	O4	0.718000	0.482180	0.096400
O51	O5	0.398000	0.211060	0.359660
O61	O6	0.271890	0.290890	0.423940
O71	O7	0.666600	0.424000	0.373100
O81	O8	0.561510	0.328240	0.424360
O91	O9	0.510110	0.555560	0.875380
O101	O10	0.319270	0.534720	0.916660
O111	O11	0.413630	0.220690	0.651120
O121	O12	0.280220	0.292230	0.582490
O131	O13	0.694180	0.386480	0.682000
O141	O14	0.572150	0.337400	0.590550
O151	O15	0.071180	0.319760	0.506480
O161	O16	0.301630	0.125900	0.500590
O171	O17	0.996900	0.433770	0.646880
O181	O18	0.390150	0.430090	0.510550
O191	O19	0.167500	0.476650	0.589610
O201	O20	0.782000	0.517820	0.596400
O211	O21	0.102000	0.788940	0.859660
O221	O22	0.228110	0.709110	0.923940
O231	O23	0.833400	0.576000	0.873100
O241	O24	0.938490	0.671760	0.924360
O251	O25	0.989890	0.444440	0.375380
O261	O26	0.180730	0.465280	0.416660
O271	O27	0.086370	0.779310	0.151120
O281	O28	0.219780	0.707770	0.082490
O291	O29	0.805820	0.613520	0.182000
O301	O30	0.927850	0.662600	0.090550
O311	O31	0.428820	0.680240	0.006480
O321	O32	0.198370	0.874100	0.000590
O331	O33	0.496900	0.066230	0.353120
O341	O34	0.890150	0.069910	0.489450
O351	O35	0.667500	0.023350	0.410390
O361	O36	0.282000	0.982180	0.403600
O371	O37	0.602000	0.711060	0.140340
O381	O38	0.728110	0.790890	0.076060
O391	O39	0.333400	0.924000	0.126900
O401	O40	0.438490	0.828240	0.075640
O411	O41	0.489890	0.055560	0.624620
O421	O42	0.680730	0.034720	0.583340
O431	O43	0.586370	0.720690	0.848880
O441	O44	0.719780	0.792230	0.917510
O451	O45	0.305820	0.886480	0.818000
O461	O46	0.427850	0.837400	0.909450
O471	O47	0.928820	0.819760	0.993520
O481	O48	0.698370	0.625900	0.999410
O491	O49	0.003100	0.933770	0.853120
O501	O50	0.609850	0.930090	0.989450
O511	O51	0.832500	0.976650	0.910390
O521	O52	0.218000	0.017820	0.903600
O531	O53	0.898000	0.288940	0.640340
O541	O54	0.771890	0.209110	0.576060
O551	O55	0.166600	0.076000	0.626900
O561	O56	0.061510	0.171760	0.575640
O571	O57	0.010110	0.944440	0.124620
O581	O58	0.819270	0.965280	0.083340
O591	O59	0.913630	0.279310	0.348880
O601	O60	0.780220	0.207770	0.417510
O611	O61	0.194180	0.113520	0.318000
O621	O62	0.072150	0.162600	0.409450
O631	O63	0.571180	0.180240	0.493520
O641	O64	0.801630	0.374100	0.499410
