data_FAGXOD_freeONLY_PM
_symmetry_space_group_name_H-M	'P1'
_cell_length_a	16.715300
_cell_length_b	8.455800
_cell_length_c	35.494300
_cell_angle_alpha	90.000000
_cell_angle_beta	90.000000
_cell_angle_gamma	90.000000
_symmetry_Int_Tables_number 1

loop_
_symmetry_equiv_pos_as_xyz
'x,y,z'

loop_
_atom_site_label
_atom_site_type_symbol
_atom_site_fract_x
_atom_site_fract_y
_atom_site_fract_z
Zn11	Zn1	0.478030	0.612680	0.949790
O11	O1	0.516910	0.397600	0.964730
O21	O2	0.595060	0.313300	0.011180
O31	O3	0.929880	0.231400	0.931300
O41	O4	0.578220	0.531300	0.594560
O51	O5	0.875010	0.183000	0.987030
O61	O6	0.626170	0.772500	0.602390
C11	C1	0.726260	0.288100	0.963520
C21	C2	0.791340	0.283900	0.939210
C31	C3	0.781000	0.326400	0.901570
C41	C4	0.706110	0.370700	0.887820
C51	C5	0.641590	0.373200	0.912430
C61	C6	0.651450	0.334500	0.950360
C71	C7	0.695550	0.414500	0.847450
C81	C8	0.754120	0.497100	0.827880
C91	C9	0.744450	0.535100	0.790030
C101	C10	0.675840	0.489000	0.770460
C111	C11	0.616510	0.408300	0.790390
C121	C12	0.625940	0.371600	0.828150
C131	C13	0.664760	0.525900	0.729890
C141	C14	0.689900	0.667700	0.714130
C151	C15	0.676100	0.701300	0.676340
C161	C16	0.636670	0.592700	0.653440
C171	C17	0.613230	0.449200	0.668520
C181	C18	0.627240	0.416400	0.706380
C191	C19	0.870490	0.230000	0.954310
C201	C20	0.583200	0.350600	0.977180
C211	C21	0.613720	0.639300	0.613830
H11	H1	0.733000	0.263000	0.988900
H21	H2	0.825800	0.311900	0.885600
H31	H3	0.591100	0.400700	0.904800
H41	H4	0.804200	0.538200	0.840400
H51	H5	0.788000	0.583400	0.776500
H61	H6	0.568400	0.375600	0.778900
H71	H7	0.584500	0.323300	0.843000
H81	H8	0.715000	0.748200	0.728800
H91	H9	0.690300	0.801700	0.666800
H101	H10	0.590500	0.375000	0.654800
H111	H11	0.611900	0.319900	0.716900
Zn21	Zn2	0.021970	0.887320	0.449790
O71	O7	0.983090	0.102400	0.464730
O81	O8	0.904940	0.186700	0.511180
O91	O9	0.570120	0.268600	0.431300
O101	O10	0.921780	0.968700	0.094560
O111	O11	0.624990	0.317000	0.487030
O121	O12	0.873830	0.727500	0.102390
C221	C22	0.773740	0.211900	0.463520
C231	C23	0.708660	0.216100	0.439210
C241	C24	0.719000	0.173600	0.401570
C251	C25	0.793890	0.129300	0.387820
C261	C26	0.858410	0.126800	0.412430
C271	C27	0.848550	0.165500	0.450360
C281	C28	0.804450	0.085500	0.347450
C291	C29	0.745880	0.002900	0.327880
C301	C30	0.755550	0.964900	0.290030
C311	C31	0.824160	0.011000	0.270460
C321	C32	0.883490	0.091700	0.290390
C331	C33	0.874060	0.128400	0.328150
C341	C34	0.835240	0.974100	0.229890
C351	C35	0.810100	0.832300	0.214130
C361	C36	0.823900	0.798700	0.176340
C371	C37	0.863330	0.907300	0.153440
C381	C38	0.886770	0.050800	0.168520
C391	C39	0.872760	0.083600	0.206380
C401	C40	0.629510	0.270000	0.454310
C411	C41	0.916800	0.149400	0.477180
C421	C42	0.886280	0.860700	0.113830
H121	H12	0.767000	0.237000	0.488900
H131	H13	0.674200	0.188100	0.385600
H141	H14	0.908900	0.099300	0.404800
H151	H15	0.695800	0.961800	0.340400
H161	H16	0.712000	0.916600	0.276500
H171	H17	0.931600	0.124400	0.278900
H181	H18	0.915500	0.176700	0.343000
H191	H19	0.785000	0.751800	0.228800
H201	H20	0.809700	0.698300	0.166800
H211	H21	0.909500	0.125000	0.154800
H221	H22	0.888100	0.180100	0.216900
Zn31	Zn3	0.521970	0.612680	0.550210
O131	O13	0.483090	0.397600	0.535270
O141	O14	0.404940	0.313300	0.488820
O151	O15	0.070120	0.231400	0.568700
O161	O16	0.421780	0.531300	0.905440
O171	O17	0.124990	0.183000	0.512970
O181	O18	0.373830	0.772500	0.897610
C431	C43	0.273740	0.288100	0.536480
C441	C44	0.208660	0.283900	0.560790
C451	C45	0.219000	0.326400	0.598430
C461	C46	0.293890	0.370700	0.612180
C471	C47	0.358410	0.373200	0.587570
C481	C48	0.348550	0.334500	0.549640
C491	C49	0.304450	0.414500	0.652550
C501	C50	0.245880	0.497100	0.672120
C511	C51	0.255550	0.535100	0.709970
C521	C52	0.324160	0.489000	0.729540
C531	C53	0.383490	0.408300	0.709610
C541	C54	0.374060	0.371600	0.671850
C551	C55	0.335240	0.525900	0.770110
C561	C56	0.310100	0.667700	0.785870
C571	C57	0.323900	0.701300	0.823660
C581	C58	0.363330	0.592700	0.846560
C591	C59	0.386770	0.449200	0.831480
C601	C60	0.372760	0.416400	0.793620
C611	C61	0.129510	0.230000	0.545690
C621	C62	0.416800	0.350600	0.522820
C631	C63	0.386280	0.639300	0.886170
H231	H23	0.267000	0.263000	0.511100
H241	H24	0.174200	0.311900	0.614400
H251	H25	0.408900	0.400700	0.595200
H261	H26	0.195800	0.538200	0.659600
H271	H27	0.212000	0.583400	0.723500
H281	H28	0.431600	0.375600	0.721100
H291	H29	0.415500	0.323300	0.657000
H301	H30	0.285000	0.748200	0.771200
H311	H31	0.309700	0.801700	0.833200
H321	H32	0.409500	0.375000	0.845200
H331	H33	0.388100	0.319900	0.783100
Zn41	Zn4	0.978030	0.887320	0.050220
O191	O19	0.016910	0.102400	0.035270
O201	O20	0.095060	0.186700	0.988820
O211	O21	0.429880	0.268600	0.068700
O221	O22	0.078220	0.968700	0.405440
O231	O23	0.375010	0.317000	0.012970
O241	O24	0.126170	0.727500	0.397610
C641	C64	0.226260	0.211900	0.036480
C651	C65	0.291340	0.216100	0.060790
C661	C66	0.281000	0.173600	0.098430
C671	C67	0.206110	0.129300	0.112180
C681	C68	0.141590	0.126800	0.087570
C691	C69	0.151450	0.165500	0.049640
C701	C70	0.195550	0.085500	0.152550
C711	C71	0.254120	0.002900	0.172120
C721	C72	0.244450	0.964900	0.209970
C731	C73	0.175840	0.011000	0.229540
C741	C74	0.116510	0.091700	0.209610
C751	C75	0.125940	0.128400	0.171850
C761	C76	0.164760	0.974100	0.270110
C771	C77	0.189900	0.832300	0.285870
C781	C78	0.176100	0.798700	0.323660
C791	C79	0.136670	0.907300	0.346560
C801	C80	0.113230	0.050800	0.331480
C811	C81	0.127240	0.083600	0.293620
C821	C82	0.370490	0.270000	0.045690
C831	C83	0.083200	0.149400	0.022820
C841	C84	0.113720	0.860700	0.386170
H341	H34	0.233000	0.237000	0.011100
H351	H35	0.325800	0.188100	0.114400
H361	H36	0.091100	0.099300	0.095200
H371	H37	0.304200	0.961800	0.159600
H381	H38	0.288000	0.916600	0.223500
H391	H39	0.068400	0.124400	0.221100
H401	H40	0.084500	0.176700	0.157000
H411	H41	0.215000	0.751800	0.271200
H421	H42	0.190300	0.698300	0.333200
H431	H43	0.090500	0.125000	0.345200
H441	H44	0.111900	0.180100	0.283100
Zn51	Zn5	0.521970	0.387320	0.050220
O251	O25	0.483090	0.602400	0.035270
O261	O26	0.404940	0.686700	0.988820
O271	O27	0.070120	0.768600	0.068700
O281	O28	0.421780	0.468700	0.405440
O291	O29	0.124990	0.817000	0.012970
O301	O30	0.373830	0.227500	0.397610
C851	C85	0.273740	0.711900	0.036480
C861	C86	0.208660	0.716100	0.060790
C871	C87	0.219000	0.673600	0.098430
C881	C88	0.293890	0.629300	0.112180
C891	C89	0.358410	0.626800	0.087570
C901	C90	0.348550	0.665500	0.049640
C911	C91	0.304450	0.585500	0.152550
C921	C92	0.245880	0.502900	0.172120
C931	C93	0.255550	0.464900	0.209970
C941	C94	0.324160	0.511000	0.229540
C951	C95	0.383490	0.591700	0.209610
C961	C96	0.374060	0.628400	0.171850
C971	C97	0.335240	0.474100	0.270110
C981	C98	0.310100	0.332300	0.285870
C991	C99	0.323900	0.298700	0.323660
C1001	C100	0.363330	0.407300	0.346560
C1011	C101	0.386770	0.550800	0.331480
C1021	C102	0.372760	0.583600	0.293620
C1031	C103	0.129510	0.770000	0.045690
C1041	C104	0.416800	0.649400	0.022820
C1051	C105	0.386280	0.360700	0.386170
H451	H45	0.267000	0.737000	0.011100
H461	H46	0.174200	0.688100	0.114400
H471	H47	0.408900	0.599300	0.095200
H481	H48	0.195800	0.461800	0.159600
H491	H49	0.212000	0.416600	0.223500
H501	H50	0.431600	0.624400	0.221100
H511	H51	0.415500	0.676700	0.157000
H521	H52	0.285000	0.251800	0.271200
H531	H53	0.309700	0.198300	0.333200
H541	H54	0.409500	0.625000	0.345200
H551	H55	0.388100	0.680100	0.283100
Zn61	Zn6	0.978030	0.112680	0.550210
O311	O31	0.016910	0.897600	0.535270
O321	O32	0.095060	0.813300	0.488820
O331	O33	0.429880	0.731400	0.568700
O341	O34	0.078220	0.031300	0.905440
O351	O35	0.375010	0.683000	0.512970
O361	O36	0.126170	0.272500	0.897610
C1061	C106	0.226260	0.788100	0.536480
C1071	C107	0.291340	0.783900	0.560790
C1081	C108	0.281000	0.826400	0.598430
C1091	C109	0.206110	0.870700	0.612180
C1101	C110	0.141590	0.873200	0.587570
C1111	C111	0.151450	0.834500	0.549640
C1121	C112	0.195550	0.914500	0.652550
C1131	C113	0.254120	0.997100	0.672120
C1141	C114	0.244450	0.035100	0.709970
C1151	C115	0.175840	0.989000	0.729540
C1161	C116	0.116510	0.908300	0.709610
C1171	C117	0.125940	0.871600	0.671850
C1181	C118	0.164760	0.025900	0.770110
C1191	C119	0.189900	0.167700	0.785870
C1201	C120	0.176100	0.201300	0.823660
C1211	C121	0.136670	0.092700	0.846560
C1221	C122	0.113230	0.949200	0.831480
C1231	C123	0.127240	0.916400	0.793620
C1241	C124	0.370490	0.730000	0.545690
C1251	C125	0.083200	0.850600	0.522820
C1261	C126	0.113720	0.139300	0.886170
H561	H56	0.233000	0.763000	0.511100
H571	H57	0.325800	0.811900	0.614400
H581	H58	0.091100	0.900700	0.595200
H591	H59	0.304200	0.038200	0.659600
H601	H60	0.288000	0.083400	0.723500
H611	H61	0.068400	0.875600	0.721100
H621	H62	0.084500	0.823300	0.657000
H631	H63	0.215000	0.248200	0.771200
H641	H64	0.190300	0.301700	0.833200
H651	H65	0.090500	0.875000	0.845200
H661	H66	0.111900	0.819900	0.783100
Zn71	Zn7	0.478030	0.387320	0.449790
O371	O37	0.516910	0.602400	0.464730
O381	O38	0.595060	0.686700	0.511180
O391	O39	0.929880	0.768600	0.431300
O401	O40	0.578220	0.468700	0.094560
O411	O41	0.875010	0.817000	0.487030
O421	O42	0.626170	0.227500	0.102390
C1271	C127	0.726260	0.711900	0.463520
C1281	C128	0.791340	0.716100	0.439210
C1291	C129	0.781000	0.673600	0.401570
C1301	C130	0.706110	0.629300	0.387820
C1311	C131	0.641590	0.626800	0.412430
C1321	C132	0.651450	0.665500	0.450360
C1331	C133	0.695550	0.585500	0.347450
C1341	C134	0.754120	0.502900	0.327880
C1351	C135	0.744450	0.464900	0.290030
C1361	C136	0.675840	0.511000	0.270460
C1371	C137	0.616510	0.591700	0.290390
C1381	C138	0.625940	0.628400	0.328150
C1391	C139	0.664760	0.474100	0.229890
C1401	C140	0.689900	0.332300	0.214130
C1411	C141	0.676100	0.298700	0.176340
C1421	C142	0.636670	0.407300	0.153440
C1431	C143	0.613230	0.550800	0.168520
C1441	C144	0.627240	0.583600	0.206380
C1451	C145	0.870490	0.770000	0.454310
C1461	C146	0.583200	0.649400	0.477180
C1471	C147	0.613720	0.360700	0.113830
H671	H67	0.733000	0.737000	0.488900
H681	H68	0.825800	0.688100	0.385600
H691	H69	0.591100	0.599300	0.404800
H701	H70	0.804200	0.461800	0.340400
H711	H71	0.788000	0.416600	0.276500
H721	H72	0.568400	0.624400	0.278900
H731	H73	0.584500	0.676700	0.343000
H741	H74	0.715000	0.251800	0.228800
H751	H75	0.690300	0.198300	0.166800
H761	H76	0.590500	0.625000	0.154800
H771	H77	0.611900	0.680100	0.216900
Zn81	Zn8	0.021970	0.112680	0.949790
O431	O43	0.983090	0.897600	0.964730
O441	O44	0.904940	0.813300	0.011180
O451	O45	0.570120	0.731400	0.931300
O461	O46	0.921780	0.031300	0.594560
O471	O47	0.624990	0.683000	0.987030
O481	O48	0.873830	0.272500	0.602390
C1481	C148	0.773740	0.788100	0.963520
C1491	C149	0.708660	0.783900	0.939210
C1501	C150	0.719000	0.826400	0.901570
C1511	C151	0.793890	0.870700	0.887820
C1521	C152	0.858410	0.873200	0.912430
C1531	C153	0.848550	0.834500	0.950360
C1541	C154	0.804450	0.914500	0.847450
C1551	C155	0.745880	0.997100	0.827880
C1561	C156	0.755550	0.035100	0.790030
C1571	C157	0.824160	0.989000	0.770460
C1581	C158	0.883490	0.908300	0.790390
C1591	C159	0.874060	0.871600	0.828150
C1601	C160	0.835240	0.025900	0.729890
C1611	C161	0.810100	0.167700	0.714130
C1621	C162	0.823900	0.201300	0.676340
C1631	C163	0.863330	0.092700	0.653440
C1641	C164	0.886770	0.949200	0.668520
C1651	C165	0.872760	0.916400	0.706380
C1661	C166	0.629510	0.730000	0.954310
C1671	C167	0.916800	0.850600	0.977180
C1681	C168	0.886280	0.139300	0.613830
H781	H78	0.767000	0.763000	0.988900
H791	H79	0.674200	0.811900	0.885600
H801	H80	0.908900	0.900700	0.904800
H811	H81	0.695800	0.038200	0.840400
H821	H82	0.712000	0.083400	0.776500
H831	H83	0.931600	0.875600	0.778900
H841	H84	0.915500	0.823300	0.843000
H851	H85	0.785000	0.248200	0.728800
H861	H86	0.809700	0.301700	0.666800
H871	H87	0.909500	0.875000	0.654800
H881	H88	0.888100	0.819900	0.716900
