data_FAHGAY_freeONLY_PM
_symmetry_space_group_name_H-M	'P1'
_cell_length_a	16.718600
_cell_length_b	16.718600
_cell_length_c	16.718600
_cell_angle_alpha	109.471000
_cell_angle_beta	109.471000
_cell_angle_gamma	109.471000
_symmetry_Int_Tables_number 1

loop_
_symmetry_equiv_pos_as_xyz
'x,y,z'

loop_
_atom_site_label
_atom_site_type_symbol
_atom_site_fract_x
_atom_site_fract_y
_atom_site_fract_z
Be11	Be1	0.625000	0.375000	0.250000
Be21	Be2	0.875000	0.125000	0.750000
Be31	Be3	0.250000	0.875000	0.625000
Be41	Be4	0.750000	0.625000	0.875000
Be51	Be5	0.375000	0.750000	0.125000
Be61	Be6	0.125000	0.250000	0.375000
H11	H1	0.662200	0.513500	0.017100
H21	H2	0.996400	0.645100	0.482900
H31	H3	0.503600	0.986500	0.648700
H41	H4	0.837800	0.854900	0.851300
H51	H5	0.148700	0.503600	0.486500
H61	H6	0.351300	0.837800	0.354900
H71	H7	0.517100	0.662200	0.013500
H81	H8	0.982900	0.996400	0.145100
H91	H9	0.645100	0.982900	0.496400
H101	H10	0.513500	0.517100	0.162200
H111	H11	0.854900	0.351300	0.337800
H121	H12	0.986500	0.148700	0.003600
H131	H13	0.145100	0.496400	0.982900
H141	H14	0.013500	0.162200	0.517100
H151	H15	0.354900	0.337800	0.351300
H161	H16	0.486500	0.003600	0.148700
H171	H17	0.162200	0.017100	0.513500
H181	H18	0.496400	0.482900	0.645100
H191	H19	0.003600	0.648700	0.986500
H201	H20	0.337800	0.851300	0.854900
H211	H21	0.648700	0.486500	0.503600
H221	H22	0.851300	0.354900	0.837800
H231	H23	0.017100	0.013500	0.662200
H241	H24	0.482900	0.145100	0.996400
C11	C1	0.623190	0.534180	0.036290
C21	C2	0.592990	0.505830	0.095420
C31	C3	0.627000	0.444900	0.131700
C41	C4	0.997890	0.586900	0.463710
C51	C5	0.910410	0.497570	0.404580
C61	C6	0.813200	0.495300	0.368300
C71	C7	0.502110	0.965820	0.589010
C81	C8	0.589590	0.994170	0.587160
C91	C9	0.686800	0.055100	0.682100
C101	C10	0.876810	0.913100	0.910990
C111	C11	0.907010	0.002430	0.912840
C121	C12	0.873000	0.004700	0.817900
C131	C13	0.089010	0.502110	0.465820
C141	C14	0.087160	0.589590	0.494170
C151	C15	0.182100	0.686800	0.555100
C161	C16	0.410990	0.876810	0.413100
C171	C17	0.412840	0.907010	0.502430
C181	C18	0.317900	0.873000	0.504700
C191	C19	0.536290	0.623190	0.034180
C201	C20	0.595420	0.592990	0.005830
C211	C21	0.631700	0.627000	0.944900
C221	C22	0.963710	0.997890	0.086900
C231	C23	0.904580	0.910410	0.997570
C241	C24	0.868300	0.813200	0.995300
C251	C25	0.586900	0.963710	0.497890
C261	C26	0.497570	0.904580	0.410410
C271	C27	0.495300	0.868300	0.313200
C281	C28	0.534180	0.536290	0.123190
C291	C29	0.505830	0.595420	0.092990
C301	C30	0.444900	0.631700	0.127000
C311	C31	0.913100	0.410990	0.376810
C321	C32	0.002430	0.412840	0.407010
C331	C33	0.004700	0.317900	0.373000
C341	C34	0.965820	0.089010	0.002110
C351	C35	0.994170	0.087160	0.089590
C361	C36	0.055100	0.182100	0.186800
C371	C37	0.086900	0.497890	0.963710
C381	C38	0.997570	0.410410	0.904580
C391	C39	0.995300	0.313200	0.868300
C401	C40	0.034180	0.123190	0.536290
C411	C41	0.005830	0.092990	0.595420
C421	C42	0.944900	0.127000	0.631700
C431	C43	0.413100	0.376810	0.410990
C441	C44	0.502430	0.407010	0.412840
C451	C45	0.504700	0.373000	0.317900
C461	C46	0.465820	0.002110	0.089010
C471	C47	0.494170	0.089590	0.087160
C481	C48	0.555100	0.186800	0.182100
C491	C49	0.123190	0.036290	0.534180
C501	C50	0.092990	0.095420	0.505830
C511	C51	0.127000	0.131700	0.444900
C521	C52	0.497890	0.463710	0.586900
C531	C53	0.410410	0.404580	0.497570
C541	C54	0.313200	0.368300	0.495300
C551	C55	0.002110	0.589010	0.965820
C561	C56	0.089590	0.587160	0.994170
C571	C57	0.186800	0.682100	0.055100
C581	C58	0.376810	0.910990	0.913100
C591	C59	0.407010	0.912840	0.002430
C601	C60	0.373000	0.817900	0.004700
C611	C61	0.589010	0.465820	0.502110
C621	C62	0.587160	0.494170	0.589590
C631	C63	0.682100	0.555100	0.686800
C641	C64	0.910990	0.413100	0.876810
C651	C65	0.912840	0.502430	0.907010
C661	C66	0.817900	0.504700	0.873000
C671	C67	0.036290	0.034180	0.623190
C681	C68	0.095420	0.005830	0.592990
C691	C69	0.131700	0.944900	0.627000
C701	C70	0.463710	0.086900	0.997890
C711	C71	0.404580	0.997570	0.910410
C721	C72	0.368300	0.995300	0.813200
O11	O1	0.601250	0.430720	0.190450
O21	O2	0.671200	0.410900	0.098100
O31	O3	0.740270	0.410800	0.309550
O41	O4	0.812800	0.573100	0.401900
O51	O5	0.759730	0.069280	0.670530
O61	O6	0.687200	0.089100	0.760300
O71	O7	0.898750	0.089200	0.829470
O81	O8	0.828800	0.926900	0.739700
O91	O9	0.170530	0.759730	0.569280
O101	O10	0.260300	0.687200	0.589100
O111	O11	0.329470	0.898750	0.589200
O121	O12	0.239700	0.828800	0.426900
O131	O13	0.690450	0.601250	0.930720
O141	O14	0.598100	0.671200	0.910900
O151	O15	0.809550	0.740270	0.910800
O161	O16	0.901900	0.812800	0.073100
O171	O17	0.410800	0.809550	0.240270
O181	O18	0.573100	0.901900	0.312800
O191	O19	0.430720	0.690450	0.101250
O201	O20	0.410900	0.598100	0.171200
O211	O21	0.089200	0.329470	0.398750
O221	O22	0.926900	0.239700	0.328800
O231	O23	0.069280	0.170530	0.259730
O241	O24	0.089100	0.260300	0.187200
O251	O25	0.910800	0.240270	0.809550
O261	O26	0.073100	0.312800	0.901900
O271	O27	0.930720	0.101250	0.690450
O281	O28	0.910900	0.171200	0.598100
O291	O29	0.589200	0.398750	0.329470
O301	O30	0.426900	0.328800	0.239700
O311	O31	0.569280	0.259730	0.170530
O321	O32	0.589100	0.187200	0.260300
O331	O33	0.101250	0.190450	0.430720
O341	O34	0.171200	0.098100	0.410900
O351	O35	0.240270	0.309550	0.410800
O361	O36	0.312800	0.401900	0.573100
O371	O37	0.259730	0.670530	0.069280
O381	O38	0.187200	0.760300	0.089100
O391	O39	0.398750	0.829470	0.089200
O401	O40	0.328800	0.739700	0.926900
O411	O41	0.670530	0.569280	0.759730
O421	O42	0.760300	0.589100	0.687200
O431	O43	0.829470	0.589200	0.898750
O441	O44	0.739700	0.426900	0.828800
O451	O45	0.190450	0.930720	0.601250
O461	O46	0.098100	0.910900	0.671200
O471	O47	0.309550	0.910800	0.740270
O481	O48	0.401900	0.073100	0.812800
