data_FALVOF_freeONLY_PM
_symmetry_space_group_name_H-M	'P1'
_cell_length_a	10.953000
_cell_length_b	19.811000
_cell_length_c	23.056000
_cell_angle_alpha	90.000000
_cell_angle_beta	90.000000
_cell_angle_gamma	99.880000
_symmetry_Int_Tables_number 1

loop_
_symmetry_equiv_pos_as_xyz
'x,y,z'

loop_
_atom_site_label
_atom_site_type_symbol
_atom_site_fract_x
_atom_site_fract_y
_atom_site_fract_z
Pr11	Pr1	0.960650	0.099810	0.646150
Pr21	Pr2	0.148920	0.852300	0.854880
Pr31	Pr3	0.539350	0.400190	0.146150
Pr41	Pr4	0.351080	0.647700	0.354880
Pr51	Pr5	0.039350	0.900190	0.353850
Pr61	Pr6	0.851080	0.147700	0.145120
Pr71	Pr7	0.460650	0.599810	0.853850
Pr81	Pr8	0.648920	0.352300	0.645120
Cu11	Cu1	0.910060	0.100050	0.822580
Cu21	Cu2	0.197390	0.847470	0.678300
Cu31	Cu3	0.589940	0.399950	0.322580
Cu41	Cu4	0.302610	0.652530	0.178300
Cu51	Cu5	0.089940	0.899950	0.177420
Cu61	Cu6	0.802610	0.152530	0.321700
Cu71	Cu7	0.410060	0.600050	0.677420
Cu81	Cu8	0.697390	0.347470	0.821700
H11	H1	0.728000	0.756000	0.794200
H21	H2	0.622500	0.941700	0.695600
H31	H3	0.582100	0.959000	0.417200
H41	H4	0.391100	0.191600	0.700500
H51	H5	0.482800	0.007200	0.804800
H61	H6	0.772000	0.744000	0.294200
H71	H7	0.877500	0.558300	0.195600
H81	H8	0.917900	0.541000	0.917200
H91	H9	0.108900	0.308400	0.200500
H101	H10	0.017200	0.492800	0.304800
H111	H11	0.272000	0.244000	0.205800
H121	H12	0.377500	0.058300	0.304400
H131	H13	0.417900	0.041000	0.582800
H141	H14	0.608900	0.808400	0.299500
H151	H15	0.517200	0.992800	0.195200
H161	H16	0.228000	0.256000	0.705800
H171	H17	0.122500	0.441700	0.804400
H181	H18	0.082100	0.459000	0.082800
H191	H19	0.891100	0.691600	0.799500
H201	H20	0.982800	0.507200	0.695200
C11	C1	0.748200	0.913500	0.750800
C21	C2	0.780800	0.856900	0.780200
C31	C3	0.707700	0.793100	0.773900
C41	C4	0.604400	0.783300	0.737700
C51	C5	0.572600	0.839700	0.708200
C61	C6	0.644200	0.904300	0.715000
C71	C7	0.816900	0.985100	0.760200
C81	C8	0.901100	0.862400	0.812200
C91	C9	0.535800	0.712200	0.728900
C101	C10	0.455100	0.834200	0.673400
C111	C11	0.626800	0.998500	0.496300
C121	C12	0.578000	0.023600	0.546500
C131	C13	0.549200	0.975400	0.450500
C141	C14	0.761100	0.991800	0.490200
C151	C15	0.658400	0.052900	0.595800
C161	C16	0.536800	0.108500	0.791100
C171	C17	0.508600	0.164100	0.759700
C181	C18	0.408300	0.154700	0.722000
C191	C19	0.333200	0.091100	0.715900
C201	C20	0.361100	0.034700	0.747100
C211	C21	0.463500	0.044400	0.784300
C221	C22	0.650500	0.111800	0.828800
C231	C23	0.577900	0.235800	0.769200
C241	C24	0.212700	0.085800	0.683000
C251	C25	0.291700	0.963600	0.739100
C261	C26	0.751800	0.586500	0.250800
C271	C27	0.719200	0.643100	0.280200
C281	C28	0.792300	0.706900	0.273900
C291	C29	0.895600	0.716700	0.237700
C301	C30	0.927400	0.660300	0.208200
C311	C31	0.855800	0.595700	0.215000
C321	C32	0.683100	0.514900	0.260200
C331	C33	0.598900	0.637600	0.312200
C341	C34	0.964200	0.787800	0.228900
C351	C35	0.044900	0.665800	0.173400
C361	C36	0.873200	0.501500	0.996300
C371	C37	0.922000	0.476400	0.046500
C381	C38	0.950800	0.524600	0.950500
C391	C39	0.738900	0.508200	0.990200
C401	C40	0.841600	0.447100	0.095800
C411	C41	0.963200	0.391500	0.291100
C421	C42	0.991400	0.335900	0.259700
C431	C43	0.091700	0.345300	0.222000
C441	C44	0.166800	0.408900	0.215900
C451	C45	0.138900	0.465300	0.247100
C461	C46	0.036500	0.455600	0.284300
C471	C47	0.849500	0.388200	0.328800
C481	C48	0.922100	0.264200	0.269200
C491	C49	0.287300	0.414200	0.183000
C501	C50	0.208300	0.536400	0.239100
C511	C51	0.251800	0.086500	0.249200
C521	C52	0.219200	0.143100	0.219800
C531	C53	0.292300	0.206900	0.226100
C541	C54	0.395600	0.216700	0.262300
C551	C55	0.427400	0.160300	0.291800
C561	C56	0.355800	0.095700	0.285000
C571	C57	0.183100	0.014900	0.239800
C581	C58	0.098900	0.137600	0.187800
C591	C59	0.464200	0.287800	0.271100
C601	C60	0.544900	0.165800	0.326600
C611	C61	0.373200	0.001500	0.503700
C621	C62	0.422000	0.976400	0.453500
C631	C63	0.450800	0.024600	0.549500
C641	C64	0.238900	0.008200	0.509800
C651	C65	0.341600	0.947100	0.404200
C661	C66	0.463200	0.891500	0.208900
C671	C67	0.491400	0.835900	0.240300
C681	C68	0.591700	0.845300	0.278000
C691	C69	0.666800	0.908900	0.284100
C701	C70	0.638900	0.965300	0.252900
C711	C71	0.536500	0.955600	0.215700
C721	C72	0.349500	0.888200	0.171200
C731	C73	0.422100	0.764200	0.230800
C741	C74	0.787300	0.914200	0.317000
C751	C75	0.708300	0.036400	0.260900
C761	C76	0.248200	0.413500	0.749200
C771	C77	0.280800	0.356900	0.719800
C781	C78	0.207700	0.293100	0.726100
C791	C79	0.104400	0.283300	0.762300
C801	C80	0.072600	0.339700	0.791800
C811	C81	0.144200	0.404300	0.785000
C821	C82	0.316900	0.485100	0.739800
C831	C83	0.401100	0.362400	0.687800
C841	C84	0.035800	0.212200	0.771100
C851	C85	0.955100	0.334200	0.826600
C861	C86	0.126800	0.498500	0.003700
C871	C87	0.078000	0.523600	0.953500
C881	C88	0.049200	0.475400	0.049500
C891	C89	0.261100	0.491800	0.009800
C901	C90	0.158400	0.552900	0.904200
C911	C91	0.036800	0.608500	0.708900
C921	C92	0.008600	0.664100	0.740300
C931	C93	0.908300	0.654700	0.778000
C941	C94	0.833200	0.591100	0.784100
C951	C95	0.861100	0.534700	0.752900
C961	C96	0.963500	0.544400	0.715700
C971	C97	0.150500	0.611800	0.671200
C981	C98	0.077900	0.735800	0.730800
C991	C99	0.712700	0.585800	0.817000
C1001	C100	0.791700	0.463600	0.760900
O11	O1	0.853800	0.020870	0.717380
O21	O2	0.827500	0.004960	0.812430
O31	O3	0.994500	0.901310	0.791280
O41	O4	0.909100	0.826100	0.855910
O51	O5	0.527100	0.671870	0.771010
O61	O6	0.494300	0.695920	0.678780
O71	O7	0.356100	0.819940	0.702420
O81	O8	0.462200	0.848200	0.621110
O91	O9	0.830000	0.037700	0.460510
O101	O10	0.798000	0.941100	0.511870
O111	O11	0.774100	0.059000	0.590200
O121	O12	0.605200	0.070400	0.639400
O131	O13	0.752700	0.131880	0.803970
O141	O14	0.638600	0.091600	0.879300
O151	O15	0.614400	0.251790	0.820040
O161	O16	0.590600	0.276670	0.727670
O171	O17	0.204900	0.121400	0.638680
O181	O18	0.118700	0.047570	0.704470
O191	O19	0.260200	0.928230	0.783460
O201	O20	0.275400	0.942800	0.687560
O211	O21	0.976500	0.981220	0.603040
O221	O22	0.015200	0.111200	0.539750
O231	O23	0.980200	0.221900	0.609500
O241	O24	0.780200	0.153200	0.687520
O251	O25	0.339500	0.803200	0.822200
O261	O26	0.128400	0.731500	0.891500
O271	O27	0.081100	0.838000	0.960000
O281	O28	0.330700	0.897900	0.917500
O291	O29	0.108500	0.963000	0.895200
O301	O30	0.072500	0.066360	0.819680
O311	O31	0.894300	0.090700	0.918600
O321	O32	0.231400	0.848400	0.582900
O331	O33	0.029400	0.878330	0.678210
O341	O34	0.646200	0.479130	0.217380
O351	O35	0.672500	0.495040	0.312430
O361	O36	0.505500	0.598690	0.291280
O371	O37	0.590900	0.673900	0.355910
O381	O38	0.972900	0.828130	0.271010
O391	O39	0.005700	0.804080	0.178780
O401	O40	0.143900	0.680060	0.202420
O411	O41	0.037800	0.651800	0.121110
O421	O42	0.670000	0.462300	0.960510
O431	O43	0.702000	0.558900	0.011870
O441	O44	0.725900	0.441000	0.090200
O451	O45	0.894800	0.429600	0.139400
O461	O46	0.747300	0.368120	0.303970
O471	O47	0.861400	0.408400	0.379300
O481	O48	0.885600	0.248210	0.320040
O491	O49	0.909400	0.223330	0.227670
O501	O50	0.295100	0.378600	0.138680
O511	O51	0.381300	0.452430	0.204470
O521	O52	0.239800	0.571770	0.283460
O531	O53	0.224600	0.557200	0.187560
O541	O54	0.523500	0.518780	0.103040
O551	O55	0.484800	0.388800	0.039750
O561	O56	0.519800	0.278100	0.109500
O571	O57	0.719800	0.346800	0.187520
O581	O58	0.160500	0.696800	0.322200
O591	O59	0.371600	0.768500	0.391500
O601	O60	0.418900	0.662000	0.460000
O611	O61	0.169300	0.602100	0.417500
O621	O62	0.391500	0.537000	0.395200
O631	O63	0.427500	0.433640	0.319680
O641	O64	0.605700	0.409300	0.418600
O651	O65	0.268600	0.651600	0.082900
O661	O66	0.470600	0.621670	0.178210
O671	O67	0.146200	0.979130	0.282620
O681	O68	0.172500	0.995040	0.187570
O691	O69	0.005500	0.098690	0.208720
O701	O70	0.090900	0.173900	0.144090
O711	O71	0.472900	0.328130	0.228990
O721	O72	0.505700	0.304080	0.321220
O731	O73	0.643900	0.180060	0.297580
O741	O74	0.537800	0.151800	0.378890
O751	O75	0.170000	0.962300	0.539490
O761	O76	0.202000	0.058900	0.488130
O771	O77	0.225900	0.941000	0.409800
O781	O78	0.394800	0.929600	0.360600
O791	O79	0.247300	0.868120	0.196030
O801	O80	0.361400	0.908400	0.120700
O811	O81	0.385600	0.748210	0.179960
O821	O82	0.409400	0.723330	0.272330
O831	O83	0.795100	0.878600	0.361320
O841	O84	0.881300	0.952430	0.295530
O851	O85	0.739800	0.071770	0.216540
O861	O86	0.724600	0.057200	0.312440
O871	O87	0.023500	0.018780	0.396960
O881	O88	0.984800	0.888800	0.460250
O891	O89	0.019800	0.778100	0.390500
O901	O90	0.219800	0.846800	0.312480
O911	O91	0.660500	0.196800	0.177800
O921	O92	0.871600	0.268500	0.108500
O931	O93	0.918900	0.162000	0.040000
O941	O94	0.669300	0.102100	0.082500
O951	O95	0.891500	0.037000	0.104800
O961	O96	0.927500	0.933640	0.180320
O971	O97	0.105700	0.909300	0.081400
O981	O98	0.768600	0.151600	0.417100
O991	O99	0.970600	0.121670	0.321790
O1001	O100	0.353800	0.520870	0.782620
O1011	O101	0.327500	0.504960	0.687570
O1021	O102	0.494500	0.401310	0.708720
O1031	O103	0.409100	0.326100	0.644090
O1041	O104	0.027100	0.171870	0.728990
O1051	O105	0.994300	0.195920	0.821220
O1061	O106	0.856100	0.319940	0.797580
O1071	O107	0.962200	0.348200	0.878890
O1081	O108	0.330000	0.537700	0.039490
O1091	O109	0.298000	0.441100	0.988130
O1101	O110	0.274100	0.559000	0.909800
O1111	O111	0.105200	0.570400	0.860600
O1121	O112	0.252700	0.631880	0.696030
O1131	O113	0.138600	0.591600	0.620700
O1141	O114	0.114400	0.751790	0.679960
O1151	O115	0.090600	0.776670	0.772330
O1161	O116	0.704900	0.621400	0.861320
O1171	O117	0.618700	0.547570	0.795530
O1181	O118	0.760200	0.428230	0.716540
O1191	O119	0.775400	0.442800	0.812440
O1201	O120	0.476500	0.481220	0.896960
O1211	O121	0.515200	0.611200	0.960250
O1221	O122	0.480200	0.721900	0.890500
O1231	O123	0.280200	0.653200	0.812480
O1241	O124	0.839500	0.303200	0.677800
O1251	O125	0.628400	0.231500	0.608500
O1261	O126	0.581100	0.338000	0.540000
O1271	O127	0.830700	0.397900	0.582500
O1281	O128	0.608500	0.463000	0.604800
O1291	O129	0.572500	0.566360	0.680320
O1301	O130	0.394300	0.590700	0.581400
O1311	O131	0.731400	0.348400	0.917100
O1321	O132	0.529400	0.378330	0.821790
