data_FALZEY_freeONLY_PM
_symmetry_space_group_name_H-M	'P1'
_cell_length_a	16.660700
_cell_length_b	16.660700
_cell_length_c	16.660700
_cell_angle_alpha	90.000000
_cell_angle_beta	90.000000
_cell_angle_gamma	90.000000
_symmetry_Int_Tables_number 1

loop_
_symmetry_equiv_pos_as_xyz
'x,y,z'

loop_
_atom_site_label
_atom_site_type_symbol
_atom_site_fract_x
_atom_site_fract_y
_atom_site_fract_z
O11	O1	0.090700	0.518670	0.805220
O21	O2	0.590700	0.018670	0.305220
O31	O3	0.909300	0.481330	0.805220
O41	O4	0.409300	0.981330	0.305220
O51	O5	0.909300	0.518670	0.194780
O61	O6	0.409300	0.018670	0.694780
O71	O7	0.090700	0.481330	0.194780
O81	O8	0.590700	0.981330	0.694780
O91	O9	0.805220	0.090700	0.518670
O101	O10	0.305220	0.590700	0.018670
O111	O11	0.805220	0.909300	0.481330
O121	O12	0.305220	0.409300	0.981330
O131	O13	0.194780	0.909300	0.518670
O141	O14	0.694780	0.409300	0.018670
O151	O15	0.194780	0.090700	0.481330
O161	O16	0.694780	0.590700	0.981330
O171	O17	0.518670	0.805220	0.090700
O181	O18	0.018670	0.305220	0.590700
O191	O19	0.481330	0.805220	0.909300
O201	O20	0.981330	0.305220	0.409300
O211	O21	0.518670	0.194780	0.909300
O221	O22	0.018670	0.694780	0.409300
O231	O23	0.481330	0.194780	0.090700
O241	O24	0.981330	0.694780	0.590700
O251	O25	0.518670	0.090700	0.805220
O261	O26	0.018670	0.590700	0.305220
O271	O27	0.481330	0.909300	0.805220
O281	O28	0.981330	0.409300	0.305220
O291	O29	0.518670	0.909300	0.194780
O301	O30	0.018670	0.409300	0.694780
O311	O31	0.481330	0.090700	0.194780
O321	O32	0.981330	0.590700	0.694780
O331	O33	0.090700	0.805220	0.518670
O341	O34	0.590700	0.305220	0.018670
O351	O35	0.909300	0.805220	0.481330
O361	O36	0.409300	0.305220	0.981330
O371	O37	0.909300	0.194780	0.518670
O381	O38	0.409300	0.694780	0.018670
O391	O39	0.090700	0.194780	0.481330
O401	O40	0.590700	0.694780	0.981330
O411	O41	0.805220	0.518670	0.090700
O421	O42	0.305220	0.018670	0.590700
O431	O43	0.805220	0.481330	0.909300
O441	O44	0.305220	0.981330	0.409300
O451	O45	0.194780	0.518670	0.909300
O461	O46	0.694780	0.018670	0.409300
O471	O47	0.194780	0.481330	0.090700
O481	O48	0.694780	0.981330	0.590700
Al11	Al1	0.000000	0.500000	0.000000
Al21	Al2	0.500000	0.000000	0.500000
Al31	Al3	0.000000	0.000000	0.500000
Al41	Al4	0.500000	0.500000	0.000000
Al51	Al5	0.500000	0.000000	0.000000
Al61	Al6	0.000000	0.500000	0.500000
Li11	Li1	0.000000	0.500000	0.750000
Li21	Li2	0.000000	0.500000	0.250000
Li31	Li3	0.750000	0.000000	0.500000
Li41	Li4	0.250000	0.000000	0.500000
Li51	Li5	0.500000	0.750000	0.000000
Li61	Li6	0.500000	0.250000	0.000000
Li71	Li7	0.500000	0.000000	0.750000
Li81	Li8	0.500000	0.000000	0.250000
Li91	Li9	0.000000	0.750000	0.500000
Li101	Li10	0.000000	0.250000	0.500000
Li111	Li11	0.750000	0.500000	0.000000
Li121	Li12	0.250000	0.500000	0.000000
P11	P1	0.122320	0.565840	0.877680
O491	O49	0.144160	0.651360	0.855840
O501	O50	0.056910	0.565950	0.943090
P21	P2	0.622320	0.065840	0.377680
O511	O51	0.644160	0.151360	0.355840
O521	O52	0.556910	0.065950	0.443090
P31	P3	0.877680	0.434160	0.877680
O531	O53	0.855840	0.348640	0.855840
O541	O54	0.943090	0.434050	0.943090
P41	P4	0.377680	0.934160	0.377680
O551	O55	0.355840	0.848640	0.355840
O561	O56	0.443090	0.934050	0.443090
P51	P5	0.877680	0.565840	0.122320
O571	O57	0.855840	0.651360	0.144160
O581	O58	0.943090	0.565950	0.056910
P61	P6	0.377680	0.065840	0.622320
O591	O59	0.355840	0.151360	0.644160
O601	O60	0.443090	0.065950	0.556910
P71	P7	0.122320	0.434160	0.122320
O611	O61	0.144160	0.348640	0.144160
O621	O62	0.056910	0.434050	0.056910
P81	P8	0.622320	0.934160	0.622320
O631	O63	0.644160	0.848640	0.644160
O641	O64	0.556910	0.934050	0.556910
P91	P9	0.877680	0.122320	0.565840
O651	O65	0.855840	0.144160	0.651360
O661	O66	0.943090	0.056910	0.565950
P101	P10	0.377680	0.622320	0.065840
O671	O67	0.355840	0.644160	0.151360
O681	O68	0.443090	0.556910	0.065950
P111	P11	0.877680	0.877680	0.434160
O691	O69	0.855840	0.855840	0.348640
O701	O70	0.943090	0.943090	0.434050
P121	P12	0.377680	0.377680	0.934160
O711	O71	0.355840	0.355840	0.848640
O721	O72	0.443090	0.443090	0.934050
P131	P13	0.122320	0.877680	0.565840
O731	O73	0.144160	0.855840	0.651360
O741	O74	0.056910	0.943090	0.565950
P141	P14	0.622320	0.377680	0.065840
O751	O75	0.644160	0.355840	0.151360
O761	O76	0.556910	0.443090	0.065950
P151	P15	0.122320	0.122320	0.434160
O771	O77	0.144160	0.144160	0.348640
O781	O78	0.056910	0.056910	0.434050
P161	P16	0.622320	0.622320	0.934160
O791	O79	0.644160	0.644160	0.848640
O801	O80	0.556910	0.556910	0.934050
P171	P17	0.565840	0.877680	0.122320
O811	O81	0.651360	0.855840	0.144160
O821	O82	0.565950	0.943090	0.056910
P181	P18	0.065840	0.377680	0.622320
O831	O83	0.151360	0.355840	0.644160
O841	O84	0.065950	0.443090	0.556910
P191	P19	0.434160	0.877680	0.877680
O851	O85	0.348640	0.855840	0.855840
O861	O86	0.434050	0.943090	0.943090
P201	P20	0.934160	0.377680	0.377680
O871	O87	0.848640	0.355840	0.355840
O881	O88	0.934050	0.443090	0.443090
P211	P21	0.565840	0.122320	0.877680
O891	O89	0.651360	0.144160	0.855840
O901	O90	0.565950	0.056910	0.943090
P221	P22	0.065840	0.622320	0.377680
O911	O91	0.151360	0.644160	0.355840
O921	O92	0.065950	0.556910	0.443090
P231	P23	0.434160	0.122320	0.122320
O931	O93	0.348640	0.144160	0.144160
O941	O94	0.434050	0.056910	0.056910
P241	P24	0.934160	0.622320	0.622320
O951	O95	0.848640	0.644160	0.644160
O961	O96	0.934050	0.556910	0.556910
