data_FANDEG_freeONLY_PM
_symmetry_space_group_name_H-M	'P1'
_cell_length_a	9.552200
_cell_length_b	12.933000
_cell_length_c	18.763700
_cell_angle_alpha	106.972000
_cell_angle_beta	98.249000
_cell_angle_gamma	97.794000
_symmetry_Int_Tables_number 1

loop_
_symmetry_equiv_pos_as_xyz
'x,y,z'

loop_
_atom_site_label
_atom_site_type_symbol
_atom_site_fract_x
_atom_site_fract_y
_atom_site_fract_z
Gd11	Gd1	0.234070	0.010440	0.502500
O11	O1	0.448000	0.038800	0.587990
O21	O2	0.682200	0.045200	0.614500
O31	O3	0.857200	0.051600	0.400780
O41	O4	0.792700	0.829600	0.398340
O51	O5	0.098000	0.095200	0.429500
O61	O6	0.029600	0.881000	0.429380
O71	O7	0.391600	0.173500	0.496700
H11	H1	0.447800	0.225700	0.537400
H21	H2	0.416500	0.189900	0.459500
O81	O8	0.294200	0.829100	0.491400
H31	H3	0.317800	0.771700	0.461400
H41	H4	0.344200	0.820100	0.529400
N11	N1	0.564400	0.176600	0.869570
N21	N2	0.990000	0.133800	0.175000
C11	C1	0.563300	0.056900	0.632300
N31	N3	0.957100	0.593400	0.180200
C21	C2	0.562800	0.097200	0.716900
C31	C3	0.930700	0.736000	0.315900
C41	C4	0.980200	0.101500	0.312100
C51	C5	0.908500	0.222600	0.077000
C61	C6	0.689000	0.118900	0.768900
H51	H5	0.774100	0.105400	0.752500
C71	C7	0.917800	0.822100	0.388300
C81	C8	0.977400	0.080700	0.387400
C91	C9	0.774300	0.183500	0.028400
C101	C10	0.688500	0.161100	0.845900
H61	H6	0.774100	0.178600	0.881100
C111	C11	0.900100	0.408900	0.079300
C121	C12	0.858400	0.114200	0.268900
H71	H7	0.771700	0.111200	0.285900
C131	C13	0.436200	0.113600	0.742800
H81	H8	0.349400	0.097200	0.708600
C141	C14	0.969300	0.334600	0.104300
C151	C15	0.704100	0.259400	0.004100
C161	C16	0.108200	0.107000	0.285700
H91	H9	0.192600	0.101700	0.314900
C171	C17	0.766100	0.371600	0.027500
C181	C18	0.811300	0.669300	0.264700
H101	H10	0.719600	0.671200	0.275700
C191	C19	0.065300	0.724700	0.298800
H111	H11	0.148000	0.765100	0.333600
C201	C20	0.830400	0.599800	0.197000
H121	H12	0.749800	0.556000	0.162000
C211	C21	0.440000	0.154300	0.819400
H131	H13	0.355500	0.166500	0.836900
C221	C22	0.865600	0.131300	0.200700
H141	H14	0.783800	0.141300	0.172000
C231	C23	0.108800	0.120200	0.215400
H151	H15	0.193000	0.119700	0.196000
C241	C24	0.992800	0.140600	0.096600
H161	H16	0.954000	0.068500	0.059900
H171	H17	0.092100	0.160800	0.092300
C251	C25	0.559000	0.218400	0.952400
H181	H18	0.507200	0.159500	0.966300
H191	H19	0.504900	0.277700	0.960600
C261	C26	0.975500	0.527300	0.103700
H201	H20	0.077500	0.529600	0.103900
H211	H21	0.938700	0.560900	0.066700
C271	C27	0.076300	0.653700	0.230400
H221	H22	0.166600	0.647200	0.218600
C281	C28	0.111300	0.374500	0.160000
H231	H23	0.099900	0.360600	0.206600
H241	H24	0.141400	0.452100	0.169900
H251	H25	0.182600	0.336100	0.138900
C291	C29	0.709400	0.063600	0.999900
H261	H26	0.770600	0.023700	0.970500
H271	H27	0.616300	0.052600	0.968700
H281	H28	0.699700	0.037600	0.042200
C301	C30	0.688900	0.450300	0.999300
H291	H29	0.738800	0.524400	0.025600
H301	H30	0.592300	0.442200	0.008400
H311	H31	0.686300	0.434300	0.945800
Gd21	Gd2	0.765930	0.989560	0.497500
O91	O9	0.552000	0.961200	0.412010
O101	O10	0.317800	0.954800	0.385500
O111	O11	0.142800	0.948400	0.599220
O121	O12	0.207300	0.170400	0.601660
O131	O13	0.902000	0.904800	0.570500
O141	O14	0.970400	0.119000	0.570620
O151	O15	0.608400	0.826500	0.503300
H321	H32	0.552200	0.774300	0.462600
H331	H33	0.583500	0.810100	0.540500
O161	O16	0.705800	0.170900	0.508600
H341	H34	0.682200	0.228300	0.538600
H351	H35	0.655800	0.179900	0.470600
N41	N4	0.435600	0.823400	0.130430
N51	N5	0.010000	0.866200	0.825000
C311	C31	0.436700	0.943100	0.367700
N61	N6	0.042900	0.406600	0.819800
C321	C32	0.437200	0.902800	0.283100
C331	C33	0.069300	0.264000	0.684100
C341	C34	0.019800	0.898500	0.687900
C351	C35	0.091500	0.777400	0.923000
C361	C36	0.311000	0.881100	0.231100
H361	H36	0.225900	0.894600	0.247500
C371	C37	0.082200	0.177900	0.611700
C381	C38	0.022600	0.919300	0.612600
C391	C39	0.225700	0.816500	0.971600
C401	C40	0.311500	0.838900	0.154100
H371	H37	0.225900	0.821400	0.118900
C411	C41	0.099900	0.591100	0.920700
C421	C42	0.141600	0.885800	0.731100
H381	H38	0.228300	0.888800	0.714100
C431	C43	0.563800	0.886400	0.257200
H391	H39	0.650600	0.902800	0.291400
C441	C44	0.030700	0.665400	0.895700
C451	C45	0.295900	0.740600	0.995900
C461	C46	0.891800	0.893000	0.714300
H401	H40	0.807400	0.898300	0.685100
C471	C47	0.233900	0.628400	0.972500
C481	C48	0.188700	0.330700	0.735300
H411	H41	0.280400	0.328800	0.724300
C491	C49	0.934700	0.275300	0.701200
H421	H42	0.852000	0.234900	0.666400
C501	C50	0.169600	0.400200	0.803000
H431	H43	0.250200	0.444000	0.838000
C511	C51	0.560000	0.845700	0.180600
H441	H44	0.644500	0.833500	0.163100
C521	C52	0.134400	0.868700	0.799300
H451	H45	0.216200	0.858700	0.828000
C531	C53	0.891200	0.879800	0.784600
H461	H46	0.807000	0.880300	0.804000
C541	C54	0.007200	0.859400	0.903400
H471	H47	0.046000	0.931500	0.940100
H481	H48	0.907900	0.839200	0.907700
C551	C55	0.441000	0.781600	0.047600
H491	H49	0.492800	0.840500	0.033700
H501	H50	0.495100	0.722300	0.039400
C561	C56	0.024500	0.472700	0.896300
H511	H51	0.922500	0.470400	0.896100
H521	H52	0.061300	0.439100	0.933300
C571	C57	0.923700	0.346300	0.769600
H531	H53	0.833400	0.352800	0.781400
C581	C58	0.888700	0.625500	0.840000
H541	H54	0.900100	0.639400	0.793400
H551	H55	0.858600	0.547900	0.830100
H561	H56	0.817400	0.663900	0.861100
C591	C59	0.290600	0.936400	0.000100
H571	H57	0.229400	0.976300	0.029500
H581	H58	0.383700	0.947400	0.031300
H591	H59	0.300300	0.962400	0.957800
C601	C60	0.311100	0.549700	0.000700
H601	H60	0.261200	0.475600	0.974400
H611	H61	0.407700	0.557800	0.991600
H621	H62	0.313700	0.565700	0.054200
