data_FARYEE_freeONLY_PM
_symmetry_space_group_name_H-M	'P1'
_cell_length_a	12.817100
_cell_length_b	17.213100
_cell_length_c	16.946600
_cell_angle_alpha	90.000000
_cell_angle_beta	108.736000
_cell_angle_gamma	90.000000
_symmetry_Int_Tables_number 1

loop_
_symmetry_equiv_pos_as_xyz
'x,y,z'

loop_
_atom_site_label
_atom_site_type_symbol
_atom_site_fract_x
_atom_site_fract_y
_atom_site_fract_z
Re11	Re1	0.694170	0.379190	0.062980
Re21	Re2	0.795560	0.381300	0.934040
Re31	Re3	0.856010	0.265210	0.062720
Re41	Re4	0.644550	0.260430	0.936860
Nd11	Nd1	0.317270	0.306650	0.148790
Te11	Te1	0.829410	0.234720	0.904490
Te21	Te2	0.674110	0.231650	0.095680
Te31	Te3	0.582970	0.406990	0.905510
Te41	Te4	0.903490	0.414270	0.090680
O11	O1	0.412900	0.410600	0.250300
O21	O2	0.359900	0.196100	0.073000
O31	O3	0.312500	0.183700	0.226700
O41	O4	0.237700	0.319500	0.989200
O51	O5	0.227000	0.329400	0.257900
N11	N1	0.458000	0.376000	0.093100
N21	N2	0.760900	0.400900	0.263600
N31	N3	0.673800	0.564200	0.091500
N41	N4	0.790500	0.566600	0.896500
N51	N5	0.722000	0.399200	0.732800
N61	N6	0.036700	0.400600	0.912500
N71	N7	0.117600	0.258300	0.088600
N81	N8	0.891400	0.079000	0.082100
N91	N9	0.968800	0.256800	0.263100
N101	N10	0.625700	0.072000	0.918200
N111	N11	0.517000	0.238700	0.739300
N121	N12	0.388400	0.229300	0.916500
C11	C1	0.539100	0.379900	0.078900
C21	C2	0.738700	0.390500	0.191700
C31	C3	0.678700	0.499700	0.078200
C41	C4	0.794200	0.502800	0.915100
C51	C5	0.746800	0.389400	0.803200
C61	C6	0.952500	0.392200	0.920300
C71	C7	0.024100	0.259900	0.075200
C81	C8	0.879400	0.145100	0.075300
C91	C9	0.926500	0.259700	0.192600
C101	C10	0.635900	0.136500	0.926700
C111	C11	0.570800	0.248700	0.808000
C121	C12	0.478100	0.243700	0.926300
Re51	Re5	0.305830	0.879190	0.437020
Re61	Re6	0.204440	0.881300	0.565960
Re71	Re7	0.143990	0.765210	0.437280
Re81	Re8	0.355450	0.760430	0.563140
Nd21	Nd2	0.682730	0.806650	0.351210
Te51	Te5	0.170590	0.734720	0.595510
Te61	Te6	0.325890	0.731650	0.404320
Te71	Te7	0.417030	0.906990	0.594490
Te81	Te8	0.096510	0.914270	0.409320
O61	O6	0.587100	0.910600	0.249700
O71	O7	0.640100	0.696100	0.427000
O81	O8	0.687500	0.683700	0.273300
O91	O9	0.762300	0.819500	0.510800
O101	O10	0.773000	0.829400	0.242100
N131	N13	0.542000	0.876000	0.406900
N141	N14	0.239100	0.900900	0.236400
N151	N15	0.326200	0.064200	0.408500
N161	N16	0.209500	0.066600	0.603500
N171	N17	0.278000	0.899200	0.767200
N181	N18	0.963300	0.900600	0.587500
N191	N19	0.882400	0.758300	0.411400
N201	N20	0.108600	0.579000	0.417900
N211	N21	0.031200	0.756800	0.236900
N221	N22	0.374300	0.572000	0.581800
N231	N23	0.483000	0.738700	0.760700
N241	N24	0.611600	0.729300	0.583500
C131	C13	0.460900	0.879900	0.421100
C141	C14	0.261300	0.890500	0.308300
C151	C15	0.321300	0.999700	0.421800
C161	C16	0.205800	0.002800	0.584900
C171	C17	0.253200	0.889400	0.696800
C181	C18	0.047500	0.892200	0.579700
C191	C19	0.975900	0.759900	0.424800
C201	C20	0.120600	0.645100	0.424700
C211	C21	0.073500	0.759700	0.307400
C221	C22	0.364100	0.636500	0.573300
C231	C23	0.429200	0.748700	0.692000
C241	C24	0.521900	0.743700	0.573700
Re91	Re9	0.305830	0.620810	0.937020
Re101	Re10	0.204440	0.618700	0.065960
Re111	Re11	0.143990	0.734790	0.937280
Re121	Re12	0.355450	0.739570	0.063140
Nd31	Nd3	0.682730	0.693350	0.851210
Te91	Te9	0.170590	0.765280	0.095510
Te101	Te10	0.325890	0.768350	0.904320
Te111	Te11	0.417030	0.593010	0.094490
Te121	Te12	0.096510	0.585730	0.909320
O111	O11	0.587100	0.589400	0.749700
O121	O12	0.640100	0.803900	0.927000
O131	O13	0.687500	0.816300	0.773300
O141	O14	0.762300	0.680500	0.010800
O151	O15	0.773000	0.670600	0.742100
N251	N25	0.542000	0.624000	0.906900
N261	N26	0.239100	0.599100	0.736400
N271	N27	0.326200	0.435800	0.908500
N281	N28	0.209500	0.433400	0.103500
N291	N29	0.278000	0.600800	0.267200
N301	N30	0.963300	0.599400	0.087500
N311	N31	0.882400	0.741700	0.911400
N321	N32	0.108600	0.921000	0.917900
N331	N33	0.031200	0.743200	0.736900
N341	N34	0.374300	0.928000	0.081800
N351	N35	0.483000	0.761300	0.260700
N361	N36	0.611600	0.770700	0.083500
C251	C25	0.460900	0.620100	0.921100
C261	C26	0.261300	0.609500	0.808300
C271	C27	0.321300	0.500300	0.921800
C281	C28	0.205800	0.497200	0.084900
C291	C29	0.253200	0.610600	0.196800
C301	C30	0.047500	0.607800	0.079700
C311	C31	0.975900	0.740100	0.924800
C321	C32	0.120600	0.854900	0.924700
C331	C33	0.073500	0.740300	0.807400
C341	C34	0.364100	0.863500	0.073300
C351	C35	0.429200	0.751300	0.192000
C361	C36	0.521900	0.756300	0.073700
Re131	Re13	0.694170	0.120810	0.562980
Re141	Re14	0.795560	0.118700	0.434040
Re151	Re15	0.856010	0.234790	0.562720
Re161	Re16	0.644550	0.239570	0.436860
Nd41	Nd4	0.317270	0.193350	0.648790
Te131	Te13	0.829410	0.265280	0.404490
Te141	Te14	0.674110	0.268350	0.595680
Te151	Te15	0.582970	0.093010	0.405510
Te161	Te16	0.903490	0.085730	0.590680
O161	O16	0.412900	0.089400	0.750300
O171	O17	0.359900	0.303900	0.573000
O181	O18	0.312500	0.316300	0.726700
O191	O19	0.237700	0.180500	0.489200
O201	O20	0.227000	0.170600	0.757900
N371	N37	0.458000	0.124000	0.593100
N381	N38	0.760900	0.099100	0.763600
N391	N39	0.673800	0.935800	0.591500
N401	N40	0.790500	0.933400	0.396500
N411	N41	0.722000	0.100800	0.232800
N421	N42	0.036700	0.099400	0.412500
N431	N43	0.117600	0.241700	0.588600
N441	N44	0.891400	0.421000	0.582100
N451	N45	0.968800	0.243200	0.763100
N461	N46	0.625700	0.428000	0.418200
N471	N47	0.517000	0.261300	0.239300
N481	N48	0.388400	0.270700	0.416500
C371	C37	0.539100	0.120100	0.578900
C381	C38	0.738700	0.109500	0.691700
C391	C39	0.678700	0.000300	0.578200
C401	C40	0.794200	0.997200	0.415100
C411	C41	0.746800	0.110600	0.303200
C421	C42	0.952500	0.107800	0.420300
C431	C43	0.024100	0.240100	0.575200
C441	C44	0.879400	0.354900	0.575300
C451	C45	0.926500	0.240300	0.692600
C461	C46	0.635900	0.363500	0.426700
C471	C47	0.570800	0.251300	0.308000
C481	C48	0.478100	0.256300	0.426300
