data_FASQUN_freeONLY_PM
_symmetry_space_group_name_H-M	'P1'
_cell_length_a	7.542000
_cell_length_b	17.899000
_cell_length_c	23.659400
_cell_angle_alpha	92.660700
_cell_angle_beta	90.000000
_cell_angle_gamma	90.000000
_symmetry_Int_Tables_number 1

loop_
_symmetry_equiv_pos_as_xyz
'x,y,z'

loop_
_atom_site_label
_atom_site_type_symbol
_atom_site_fract_x
_atom_site_fract_y
_atom_site_fract_z
Zn11	Zn1	0.473320	0.420810	0.969590
Zn21	Zn2	0.790090	0.490320	0.912680
Zn31	Zn3	0.473320	0.079190	0.530410
Zn41	Zn4	0.790090	0.009680	0.587320
Zn51	Zn5	0.526680	0.579190	0.030410
Zn61	Zn6	0.209910	0.509680	0.087320
Zn71	Zn7	0.526680	0.920810	0.469590
Zn81	Zn8	0.209910	0.990320	0.412680
H11	H1	0.049800	0.609100	0.785400
H21	H2	0.230500	0.677500	0.729500
H31	H3	0.562400	0.712200	0.860200
H41	H4	0.557500	0.996800	0.741400
H51	H5	0.426300	0.994100	0.828600
H61	H6	0.994900	0.091200	0.767500
H71	H7	0.124100	0.091900	0.679800
H81	H8	0.228400	0.176000	0.858100
H91	H9	0.121500	0.292800	0.882000
H101	H10	0.662800	0.201500	0.927900
H111	H11	0.774200	0.084800	0.906200
H121	H12	0.129400	0.350300	0.017200
H131	H13	0.324500	0.176000	0.075600
H141	H14	0.284000	0.150700	0.012600
H151	H15	0.426000	0.212900	0.026200
H161	H16	0.923100	0.270000	0.040600
H171	H17	0.968000	0.186000	0.024900
H181	H18	0.992900	0.217900	0.087200
H191	H19	0.376100	0.645500	0.915600
H201	H20	0.049800	0.890900	0.714600
H211	H21	0.230500	0.822500	0.770500
H221	H22	0.562400	0.787800	0.639800
H231	H23	0.557500	0.503200	0.758600
H241	H24	0.426300	0.505900	0.671400
H251	H25	0.994900	0.408800	0.732500
H261	H26	0.124100	0.408100	0.820200
H271	H27	0.228400	0.324000	0.641900
H281	H28	0.121500	0.207200	0.618000
H291	H29	0.662800	0.298500	0.572100
H301	H30	0.774200	0.415200	0.593800
H311	H31	0.129400	0.149700	0.482800
H321	H32	0.324500	0.324000	0.424400
H331	H33	0.284000	0.349300	0.487400
H341	H34	0.426000	0.287100	0.473800
H351	H35	0.923100	0.230000	0.459400
H361	H36	0.968000	0.314000	0.475100
H371	H37	0.992900	0.282100	0.412800
H381	H38	0.376100	0.854500	0.584400
H391	H39	0.950200	0.390900	0.214600
H401	H40	0.769500	0.322500	0.270500
H411	H41	0.437600	0.287800	0.139800
H421	H42	0.442500	0.003200	0.258600
H431	H43	0.573700	0.005900	0.171400
H441	H44	0.005100	0.908800	0.232500
H451	H45	0.875900	0.908100	0.320200
H461	H46	0.771600	0.824000	0.141900
H471	H47	0.878500	0.707200	0.118000
H481	H48	0.337200	0.798500	0.072100
H491	H49	0.225800	0.915200	0.093800
H501	H50	0.870600	0.649700	0.982800
H511	H51	0.675500	0.824000	0.924400
H521	H52	0.716000	0.849300	0.987400
H531	H53	0.574000	0.787100	0.973800
H541	H54	0.076900	0.730000	0.959400
H551	H55	0.032000	0.814000	0.975100
H561	H56	0.007100	0.782100	0.912800
H571	H57	0.623900	0.354500	0.084400
H581	H58	0.950200	0.109100	0.285400
H591	H59	0.769500	0.177500	0.229500
H601	H60	0.437600	0.212200	0.360200
H611	H61	0.442500	0.496800	0.241400
H621	H62	0.573700	0.494100	0.328600
H631	H63	0.005100	0.591200	0.267500
H641	H64	0.875900	0.591900	0.179800
H651	H65	0.771600	0.676000	0.358100
H661	H66	0.878500	0.792800	0.382000
H671	H67	0.337200	0.701500	0.427900
H681	H68	0.225800	0.584800	0.406200
H691	H69	0.870600	0.850300	0.517200
H701	H70	0.675500	0.676000	0.575600
H711	H71	0.716000	0.650700	0.512600
H721	H72	0.574000	0.712900	0.526200
H731	H73	0.076900	0.770000	0.540600
H741	H74	0.032000	0.686000	0.524900
H751	H75	0.007100	0.717900	0.587200
H761	H76	0.623900	0.145500	0.415600
C11	C1	0.802200	0.335200	0.920200
C21	C2	0.067100	0.580200	0.893500
C31	C3	0.190300	0.622000	0.857000
C41	C4	0.151600	0.631000	0.800900
C51	C5	0.260200	0.671700	0.767200
C61	C6	0.413400	0.704200	0.789000
C71	C7	0.457500	0.692700	0.845100
C81	C8	0.649900	0.806700	0.783000
C91	C9	0.441200	0.045000	0.644800
C101	C10	0.354500	0.045000	0.700900
C111	C11	0.443600	0.015800	0.746500
C121	C12	0.365500	0.014400	0.798800
C131	C13	0.197100	0.043200	0.807500
C141	C14	0.108600	0.071900	0.762300
C151	C15	0.186300	0.072600	0.709800
C161	C16	0.099200	0.041200	0.865000
C171	C17	0.960800	0.977600	0.859000
C181	C18	0.223400	0.023700	0.914200
C191	C19	0.014600	0.117500	0.879700
C201	C20	0.114200	0.181000	0.872600
C211	C21	0.050300	0.251000	0.886300
C221	C22	0.877600	0.259400	0.906700
C231	C23	0.777600	0.196600	0.913900
C241	C24	0.844200	0.126600	0.900800
C251	C25	0.220700	0.315900	0.020500
C261	C26	0.314700	0.192400	0.037600
C271	C27	0.001200	0.229300	0.048100
C281	C28	0.345800	0.652400	0.878100
C291	C29	0.802200	0.164800	0.579800
C301	C30	0.067100	0.919800	0.606500
C311	C31	0.190300	0.878000	0.643000
C321	C32	0.151600	0.869000	0.699100
C331	C33	0.260200	0.828300	0.732800
C341	C34	0.413400	0.795800	0.711000
C351	C35	0.457500	0.807300	0.654900
C361	C36	0.649900	0.693300	0.717000
C371	C37	0.441200	0.455000	0.855200
C381	C38	0.354500	0.455000	0.799100
C391	C39	0.443600	0.484200	0.753500
C401	C40	0.365500	0.485600	0.701200
C411	C41	0.197100	0.456800	0.692500
C421	C42	0.108600	0.428100	0.737700
C431	C43	0.186300	0.427400	0.790200
C441	C44	0.099200	0.458800	0.635000
C451	C45	0.960800	0.522400	0.641000
C461	C46	0.223400	0.476300	0.585800
C471	C47	0.014600	0.382500	0.620300
C481	C48	0.114200	0.319000	0.627400
C491	C49	0.050300	0.249000	0.613700
C501	C50	0.877600	0.240600	0.593300
C511	C51	0.777600	0.303400	0.586100
C521	C52	0.844200	0.373400	0.599200
C531	C53	0.220700	0.184100	0.479500
C541	C54	0.314700	0.307600	0.462400
C551	C55	0.001200	0.270700	0.451900
C561	C56	0.345800	0.847600	0.621900
C571	C57	0.197800	0.664800	0.079800
C581	C58	0.932900	0.419800	0.106500
C591	C59	0.809700	0.378000	0.143000
C601	C60	0.848400	0.369000	0.199100
C611	C61	0.739800	0.328300	0.232800
C621	C62	0.586600	0.295800	0.211000
C631	C63	0.542500	0.307300	0.154900
C641	C64	0.350100	0.193300	0.217000
C651	C65	0.558800	0.955000	0.355200
C661	C66	0.645500	0.955000	0.299100
C671	C67	0.556400	0.984200	0.253500
C681	C68	0.634500	0.985600	0.201200
C691	C69	0.802900	0.956800	0.192500
C701	C70	0.891400	0.928100	0.237700
C711	C71	0.813700	0.927400	0.290200
C721	C72	0.900800	0.958800	0.135000
C731	C73	0.039200	0.022400	0.141000
C741	C74	0.776600	0.976300	0.085800
C751	C75	0.985400	0.882500	0.120300
C761	C76	0.885800	0.819000	0.127400
C771	C77	0.949700	0.749000	0.113700
C781	C78	0.122400	0.740600	0.093300
C791	C79	0.222400	0.803400	0.086100
C801	C80	0.155800	0.873400	0.099200
C811	C81	0.779300	0.684100	0.979500
C821	C82	0.685300	0.807600	0.962400
C831	C83	0.998800	0.770700	0.951900
C841	C84	0.654200	0.347600	0.121900
C851	C85	0.197800	0.835200	0.420200
C861	C86	0.932900	0.080200	0.393500
C871	C87	0.809700	0.122000	0.357000
C881	C88	0.848400	0.131000	0.300900
C891	C89	0.739800	0.171700	0.267200
C901	C90	0.586600	0.204200	0.289000
C911	C91	0.542500	0.192700	0.345100
C921	C92	0.350100	0.306700	0.283000
C931	C93	0.558800	0.545000	0.144800
C941	C94	0.645500	0.545000	0.200900
C951	C95	0.556400	0.515800	0.246500
C961	C96	0.634500	0.514400	0.298800
C971	C97	0.802900	0.543200	0.307500
C981	C98	0.891400	0.571900	0.262300
C991	C99	0.813700	0.572600	0.209800
C1001	C100	0.900800	0.541200	0.365000
C1011	C101	0.039200	0.477600	0.359000
C1021	C102	0.776600	0.523700	0.414200
C1031	C103	0.985400	0.617500	0.379700
C1041	C104	0.885800	0.681000	0.372600
C1051	C105	0.949700	0.751000	0.386300
C1061	C106	0.122400	0.759400	0.406700
C1071	C107	0.222400	0.696600	0.413900
C1081	C108	0.155800	0.626600	0.400800
C1091	C109	0.779300	0.815900	0.520500
C1101	C110	0.685300	0.692400	0.537600
C1111	C111	0.998800	0.729300	0.548100
C1121	C112	0.654200	0.152400	0.378100
C1131	C113	0.529000	0.750000	0.750000
C1141	C114	0.471000	0.250000	0.250000
N11	N1	0.177300	0.249500	0.035400
N21	N2	0.177300	0.250500	0.464600
N31	N3	0.822700	0.750500	0.964600
N41	N4	0.822700	0.749500	0.535400
O11	O1	0.654900	0.338820	0.943420
O21	O2	0.894900	0.390460	0.907160
O31	O3	0.923600	0.558980	0.870780
O41	O4	0.105000	0.570180	0.943280
O51	O5	0.590500	0.015910	0.641010
O61	O6	0.359700	0.072520	0.604720
O71	O7	0.368200	0.336790	0.010490
O81	O8	0.673000	0.496350	0.987050
O91	O9	0.654900	0.161180	0.556580
O101	O10	0.894900	0.109540	0.592840
O111	O11	0.923600	0.941020	0.629220
O121	O12	0.105000	0.929820	0.556720
O131	O13	0.590500	0.484090	0.858990
O141	O14	0.359700	0.427480	0.895280
O151	O15	0.368200	0.163210	0.489510
O161	O16	0.673000	0.003650	0.512950
O171	O17	0.345100	0.661180	0.056580
O181	O18	0.105100	0.609540	0.092840
O191	O19	0.076400	0.441020	0.129220
O201	O20	0.895000	0.429820	0.056720
O211	O21	0.409500	0.984090	0.358990
O221	O22	0.640300	0.927480	0.395280
O231	O23	0.631800	0.663210	0.989510
O241	O24	0.327000	0.503650	0.012950
O251	O25	0.345100	0.838820	0.443420
O261	O26	0.105100	0.890460	0.407160
O271	O27	0.076400	0.058980	0.370780
O281	O28	0.895000	0.070180	0.443280
O291	O29	0.409500	0.515910	0.141010
O301	O30	0.640300	0.572520	0.104720
O311	O31	0.631800	0.836790	0.510490
O321	O32	0.327000	0.996350	0.487050
F11	F1	0.557700	0.846850	0.821150
F21	F2	0.781900	0.774630	0.810530
F31	F3	0.723700	0.854400	0.749300
F41	F4	0.830100	0.994670	0.824170
F51	F5	0.034500	0.914780	0.837880
F61	F6	0.887000	0.961190	0.907890
F71	F7	0.364400	0.068290	0.916690
F81	F8	0.284500	0.953530	0.911730
F91	F9	0.142900	0.033140	0.963840
F101	F10	0.557700	0.653150	0.678850
F111	F11	0.781900	0.725370	0.689470
F121	F12	0.723700	0.645600	0.750700
F131	F13	0.830100	0.505330	0.675830
F141	F14	0.034500	0.585220	0.662120
F151	F15	0.887000	0.538810	0.592110
F161	F16	0.364400	0.431710	0.583310
F171	F17	0.284500	0.546470	0.588270
F181	F18	0.142900	0.466860	0.536160
F191	F19	0.442300	0.153150	0.178850
F201	F20	0.218100	0.225370	0.189470
F211	F21	0.276300	0.145600	0.250700
F221	F22	0.169900	0.005330	0.175830
F231	F23	0.965500	0.085220	0.162120
F241	F24	0.113000	0.038810	0.092110
F251	F25	0.635600	0.931710	0.083310
F261	F26	0.715500	0.046470	0.088270
F271	F27	0.857100	0.966860	0.036160
F281	F28	0.442300	0.346850	0.321150
F291	F29	0.218100	0.274630	0.310530
F301	F30	0.276300	0.354400	0.249300
F311	F31	0.169900	0.494670	0.324170
F321	F32	0.965500	0.414780	0.337880
F331	F33	0.113000	0.461190	0.407890
F341	F34	0.635600	0.568290	0.416690
F351	F35	0.715500	0.453530	0.411730
F361	F36	0.857100	0.533140	0.463840
