data_FASYUU_charged_PM
_symmetry_space_group_name_H-M	'P1'
_cell_length_a	22.477900
_cell_length_b	22.477900
_cell_length_c	22.477900
_cell_angle_alpha	66.899800
_cell_angle_beta	77.565700
_cell_angle_gamma	113.100000
_symmetry_Int_Tables_number 1

loop_
_symmetry_equiv_pos_as_xyz
'x,y,z'

loop_
_atom_site_label
_atom_site_type_symbol
_atom_site_fract_x
_atom_site_fract_y
_atom_site_fract_z
Cu11	Cu1	0.691000	0.402950	0.549110
Cu21	Cu2	0.547940	0.097050	0.711950
Cu31	Cu3	0.288050	0.740110	0.309000
Cu41	Cu4	0.450890	0.759890	0.452060
Cu51	Cu5	0.309000	0.597050	0.450890
Cu61	Cu6	0.452060	0.902950	0.288050
Cu71	Cu7	0.711950	0.259890	0.691000
Cu81	Cu8	0.549110	0.240110	0.547940
H11	H1	0.691700	0.543700	0.485200
H21	H2	0.624300	0.592800	0.442300
H31	H3	0.452700	0.384000	0.597300
H41	H4	0.533800	0.347700	0.616700
H51	H5	0.471100	0.956300	0.852000
H61	H6	0.464900	0.907200	0.968500
H71	H7	0.518700	0.116000	0.931300
H81	H8	0.535600	0.152300	0.813900
H91	H9	0.148000	0.676900	0.308300
H101	H10	0.031500	0.566600	0.375700
H111	H11	0.068700	0.550000	0.547300
H121	H12	0.186100	0.650500	0.466200
H131	H13	0.514800	0.823100	0.528900
H141	H14	0.557700	0.933400	0.535100
H151	H15	0.402700	0.950000	0.481300
H161	H16	0.383300	0.849500	0.464400
H171	H17	0.308300	0.456300	0.514800
H181	H18	0.375700	0.407200	0.557700
H191	H19	0.547300	0.616000	0.402700
H201	H20	0.466200	0.652300	0.383300
H211	H21	0.528900	0.043700	0.148000
H221	H22	0.535100	0.092800	0.031500
H231	H23	0.481300	0.884000	0.068700
H241	H24	0.464400	0.847700	0.186100
H251	H25	0.852000	0.323100	0.691700
H261	H26	0.968500	0.433400	0.624300
H271	H27	0.931300	0.450000	0.452700
H281	H28	0.813900	0.349500	0.533800
H291	H29	0.485200	0.176900	0.471100
H301	H30	0.442300	0.066600	0.464900
H311	H31	0.597300	0.050000	0.518700
H321	H32	0.616700	0.150500	0.535600
W11	W1	0.625000	0.250000	0.625000
W21	W2	0.375000	0.750000	0.375000
C11	C1	0.643600	0.509600	0.499600
C21	C2	0.602200	0.541100	0.476300
C31	C3	0.523100	0.488300	0.508200
C41	C4	0.501300	0.417900	0.565800
C51	C5	0.551500	0.395900	0.578000
C61	C6	0.490800	0.990400	0.866000
C71	C7	0.482600	0.958900	0.938900
C81	C8	0.503500	0.011700	0.965200
C91	C9	0.516300	0.082100	0.916600
C101	C10	0.526100	0.104100	0.844400
C111	C11	0.134000	0.643200	0.356400
C121	C12	0.061100	0.578500	0.397800
C131	C13	0.034800	0.531300	0.476900
C141	C14	0.083400	0.567100	0.498700
C151	C15	0.155600	0.629500	0.448500
C161	C16	0.500400	0.856800	0.509200
C171	C17	0.523700	0.921500	0.517400
C181	C18	0.491800	0.968700	0.496500
C191	C19	0.434200	0.932900	0.483700
C201	C20	0.422000	0.870500	0.473900
C211	C21	0.356400	0.490400	0.500400
C221	C22	0.397800	0.458900	0.523700
C231	C23	0.476900	0.511700	0.491800
C241	C24	0.498700	0.582100	0.434200
C251	C25	0.448500	0.604100	0.422000
C261	C26	0.509200	0.009600	0.134000
C271	C27	0.517400	0.041100	0.061100
C281	C28	0.496500	0.988300	0.034800
C291	C29	0.483700	0.917900	0.083400
C301	C30	0.473900	0.895900	0.155600
C311	C31	0.866000	0.356800	0.643600
C321	C32	0.938900	0.421500	0.602200
C331	C33	0.965200	0.468700	0.523100
C341	C34	0.916600	0.432900	0.501300
C351	C35	0.844400	0.370500	0.551500
C361	C36	0.499600	0.143200	0.490800
C371	C37	0.476300	0.078500	0.482600
C381	C38	0.508200	0.031300	0.503500
C391	C39	0.565800	0.067100	0.516300
C401	C40	0.578000	0.129500	0.526100
S11	S1	0.670250	0.322920	0.505090
S21	S2	0.671990	0.177080	0.652670
S31	S3	0.347330	0.675340	0.329750
S41	S4	0.494910	0.824660	0.328010
S51	S5	0.329750	0.677080	0.494910
S61	S6	0.328010	0.822920	0.347330
S71	S7	0.652670	0.324660	0.670250
S81	S8	0.505090	0.175340	0.671990
I11	I1	0.812960	0.527710	0.480430
I21	I2	0.491860	0.972290	0.714750
I31	I3	0.285250	0.793390	0.187040
I41	I4	0.519570	0.706610	0.508140
I51	I5	0.187040	0.472290	0.519570
I61	I6	0.508140	0.027710	0.285250
I71	I7	0.714750	0.206610	0.812960
I81	I8	0.480430	0.293390	0.491860
N11	N1	0.619500	0.439400	0.538100
N21	N2	0.522500	0.060600	0.819900
N31	N3	0.180100	0.657600	0.380500
N41	N4	0.461900	0.842400	0.477500
N51	N5	0.380500	0.560600	0.461900
N61	N6	0.477500	0.939400	0.180100
N71	N7	0.819900	0.342400	0.619500
N81	N8	0.538100	0.157600	0.522500
Cu91	Cu9	0.952060	0.740110	0.950890
Cu101	Cu10	0.809000	0.759890	0.788050
Cu111	Cu11	0.049110	0.097050	0.191000
Cu121	Cu12	0.211950	0.402950	0.047940
Cu131	Cu13	0.047940	0.259890	0.049110
Cu141	Cu14	0.191000	0.240110	0.211950
Cu151	Cu15	0.950890	0.902950	0.809000
Cu161	Cu16	0.788050	0.597050	0.952060
H331	H33	0.028900	0.676900	0.014800
H341	H34	0.035100	0.566600	0.057700
H351	H35	0.981300	0.550000	0.902700
H361	H36	0.964400	0.650500	0.883300
H371	H37	0.808300	0.823100	0.648000
H381	H38	0.875700	0.933400	0.531500
H391	H39	0.047300	0.950000	0.568700
H401	H40	0.966200	0.849500	0.686100
H411	H41	0.985200	0.956300	0.191700
H421	H42	0.942300	0.907200	0.124300
H431	H43	0.097300	0.116000	0.952700
H441	H44	0.116700	0.152300	0.033800
H451	H45	0.352000	0.543700	0.971100
H461	H46	0.468500	0.592800	0.964900
H471	H47	0.431300	0.384000	0.018700
H481	H48	0.313900	0.347700	0.035600
H491	H49	0.971100	0.323100	0.985200
H501	H50	0.964900	0.433400	0.942300
H511	H51	0.018700	0.450000	0.097300
H521	H52	0.035600	0.349500	0.116700
H531	H53	0.191700	0.176900	0.352000
H541	H54	0.124300	0.066600	0.468500
H551	H55	0.952700	0.050000	0.431300
H561	H56	0.033800	0.150500	0.313900
H571	H57	0.014800	0.043700	0.808300
H581	H58	0.057700	0.092800	0.875700
H591	H59	0.902700	0.884000	0.047300
H601	H60	0.883300	0.847700	0.966200
H611	H61	0.648000	0.456300	0.028900
H621	H62	0.531500	0.407200	0.035100
H631	H63	0.568700	0.616000	0.981300
H641	H64	0.686100	0.652300	0.964400
W31	W3	0.875000	0.750000	0.875000
W41	W4	0.125000	0.250000	0.125000
C411	C41	0.009200	0.643200	0.000400
C421	C42	0.017400	0.578500	0.023700
C431	C43	0.996500	0.531300	0.991800
C441	C44	0.983700	0.567100	0.934200
C451	C45	0.973900	0.629500	0.922000
C461	C46	0.856400	0.856800	0.634000
C471	C47	0.897800	0.921500	0.561100
C481	C48	0.976900	0.968700	0.534800
C491	C49	0.998700	0.932900	0.583400
C501	C50	0.948500	0.870500	0.655600
C511	C51	0.999600	0.990400	0.143600
C521	C52	0.976300	0.958900	0.102200
C531	C53	0.008200	0.011700	0.023100
C541	C54	0.065800	0.082100	0.001300
C551	C55	0.078000	0.104100	0.051500
C561	C56	0.366000	0.509600	0.990800
C571	C57	0.438900	0.541100	0.982600
C581	C58	0.465200	0.488300	0.003500
C591	C59	0.416600	0.417900	0.016300
C601	C60	0.344400	0.395900	0.026100
C611	C61	0.990800	0.356800	0.999600
C621	C62	0.982600	0.421500	0.976300
C631	C63	0.003500	0.468700	0.008200
C641	C64	0.016300	0.432900	0.065800
C651	C65	0.026100	0.370500	0.078000
C661	C66	0.143600	0.143200	0.366000
C671	C67	0.102200	0.078500	0.438900
C681	C68	0.023100	0.031300	0.465200
C691	C69	0.001300	0.067100	0.416600
C701	C70	0.051500	0.129500	0.344400
C711	C71	0.000400	0.009600	0.856400
C721	C72	0.023700	0.041100	0.897800
C731	C73	0.991800	0.988300	0.976900
C741	C74	0.934200	0.917900	0.998700
C751	C75	0.922000	0.895900	0.948500
C761	C76	0.634000	0.490400	0.009200
C771	C77	0.561100	0.458900	0.017400
C781	C78	0.534800	0.511700	0.996500
C791	C79	0.583400	0.582100	0.983700
C801	C80	0.655600	0.604100	0.973900
S91	S9	0.828010	0.675340	0.994910
S101	S10	0.829750	0.824660	0.847330
S111	S11	0.005090	0.177080	0.170250
S121	S12	0.152670	0.322920	0.171990
S131	S13	0.171990	0.324660	0.005090
S141	S14	0.170250	0.175340	0.152670
S151	S15	0.994910	0.822920	0.829750
S161	S16	0.847330	0.677080	0.828010
I91	I9	0.008140	0.793390	0.019570
I101	I10	0.687040	0.706610	0.785250
I111	I11	0.980430	0.972290	0.312960
I121	I12	0.214750	0.527710	0.991860
I131	I13	0.991860	0.206610	0.980430
I141	I14	0.312960	0.293390	0.214750
I151	I15	0.019570	0.027710	0.687040
I161	I16	0.785250	0.472290	0.008140
N91	N9	0.977500	0.657600	0.961900
N101	N10	0.880500	0.842400	0.680100
N111	N11	0.038100	0.060600	0.119500
N121	N12	0.319900	0.439400	0.022500
N131	N13	0.022500	0.342400	0.038100
N141	N14	0.119500	0.157600	0.319900
N151	N15	0.961900	0.939400	0.880500
N161	N16	0.680100	0.560600	0.977500
Cu171	Cu17	0.701210	0.750000	0.201210
Cu181	Cu18	0.548790	0.750000	0.048790
Cu191	Cu19	0.951210	0.402420	0.298790
Cu201	Cu20	0.798790	0.097580	0.451210
Cu211	Cu21	0.700950	0.901900	0.049050
Cu221	Cu22	0.549050	0.598100	0.200950
Cu231	Cu23	0.799050	0.250000	0.299050
Cu241	Cu24	0.950950	0.250000	0.450950
H651	H65	0.814800	0.827400	0.238800
H661	H66	0.839000	0.898700	0.289900
H671	H67	0.642600	0.868000	0.332000
H681	H68	0.623500	0.793800	0.283100
H691	H69	0.619900	0.936800	0.137900
H701	H70	0.638900	0.009400	0.190700
H711	H71	0.843800	0.071300	0.118500
H721	H72	0.820900	0.998500	0.067600
H731	H73	0.433800	0.672600	0.012600
H741	H74	0.311400	0.601300	0.059700
H751	H75	0.300000	0.632000	0.225400
H761	H76	0.423100	0.706200	0.170300
H771	H77	0.425300	0.563200	0.316900
H781	H78	0.299900	0.490600	0.370500
H791	H79	0.310200	0.428700	0.227500
H801	H80	0.433900	0.501500	0.177600
H811	H81	0.987400	0.553600	0.185200
H821	H82	0.940300	0.628900	0.161000
H831	H83	0.774600	0.474600	0.357400
H841	H84	0.829700	0.406600	0.376500
H851	H85	0.683100	0.257800	0.380100
H861	H86	0.629500	0.329600	0.361100
H871	H87	0.772500	0.462300	0.156200
H881	H88	0.822400	0.388500	0.179100
H891	H89	0.761200	0.946400	0.566200
H901	H90	0.710100	0.871100	0.688600
H911	H91	0.668000	0.025400	0.700000
H921	H92	0.716900	0.093400	0.576900
H931	H93	0.862100	0.242200	0.574700
H941	H94	0.809300	0.170400	0.700100
H951	H95	0.881500	0.037700	0.689800
H961	H96	0.932400	0.111500	0.566100
H971	H97	0.066200	0.553600	0.261200
H981	H98	0.188600	0.628900	0.210100
H991	H99	0.200000	0.474600	0.168000
H1001	H100	0.076900	0.406600	0.216900
H1011	H101	0.074700	0.257800	0.362100
H1021	H102	0.200100	0.329600	0.309300
H1031	H103	0.189800	0.462300	0.381500
H1041	H104	0.066100	0.388500	0.432400
H1051	H105	0.685200	0.946400	0.487400
H1061	H106	0.661000	0.871100	0.440300
H1071	H107	0.857400	0.025400	0.274600
H1081	H108	0.876500	0.093400	0.329700
H1091	H109	0.880100	0.242200	0.183100
H1101	H110	0.861100	0.170400	0.129500
H1111	H111	0.656200	0.037700	0.272500
H1121	H112	0.679100	0.111500	0.322400
H1131	H113	0.738800	0.672600	0.314800
H1141	H114	0.789900	0.601300	0.339000
H1151	H115	0.832000	0.632000	0.142600
H1161	H116	0.783100	0.706200	0.123500
H1171	H117	0.637900	0.563200	0.119900
H1181	H118	0.690700	0.490600	0.138900
H1191	H119	0.618500	0.428700	0.343800
H1201	H120	0.567600	0.501500	0.320900
H1211	H121	0.512600	0.827400	0.933800
H1221	H122	0.559700	0.898700	0.811400
H1231	H123	0.725400	0.868000	0.800000
H1241	H124	0.670300	0.793800	0.923100
H1251	H125	0.816900	0.936800	0.925300
H1261	H126	0.870500	0.009400	0.799900
H1271	H127	0.727500	0.071300	0.810200
H1281	H128	0.677600	0.998500	0.933900
W51	W5	0.625000	0.750000	0.125000
W61	W6	0.875000	0.250000	0.375000
C811	C81	0.779800	0.835400	0.258000
C821	C82	0.794100	0.877500	0.290200
C831	C83	0.744600	0.888700	0.322100
C841	C84	0.677600	0.858800	0.315400
C851	C85	0.667800	0.816500	0.283700
C861	C86	0.666000	0.966000	0.132200
C871	C87	0.676900	0.008600	0.165500
C881	C88	0.747400	0.050500	0.160100
C891	C89	0.797600	0.045300	0.123100
C901	C90	0.784400	0.002400	0.091000
C911	C91	0.406600	0.664600	0.055600
C921	C92	0.332300	0.622500	0.083400
C931	C93	0.289200	0.611300	0.144100
C941	C94	0.325800	0.641200	0.181200
C951	C95	0.399800	0.683500	0.148700
C961	C96	0.401800	0.534000	0.300000
C971	C97	0.325900	0.491400	0.331700
C981	C98	0.289400	0.449500	0.303100
C991	C99	0.331600	0.454700	0.247700
C1001	C100	0.406600	0.497600	0.218000
C1011	C101	0.944400	0.537800	0.220200
C1021	C102	0.916600	0.584300	0.205900
C1031	C103	0.855900	0.566700	0.255400
C1041	C104	0.818800	0.493000	0.322400
C1051	C105	0.851300	0.451500	0.332200
C1061	C106	0.700000	0.298200	0.334000
C1071	C107	0.668300	0.342400	0.323100
C1081	C108	0.696900	0.407500	0.252600
C1091	C109	0.752300	0.420700	0.202400
C1101	C110	0.782000	0.375400	0.215600
C1111	C111	0.742000	0.962200	0.593400
C1121	C112	0.709800	0.915700	0.667700
C1131	C113	0.677900	0.933300	0.710800
C1141	C114	0.684600	0.007000	0.674200
C1151	C115	0.716300	0.048500	0.600200
C1161	C116	0.867800	0.201800	0.598200
C1171	C117	0.834500	0.157600	0.674100
C1181	C118	0.839900	0.092500	0.710600
C1191	C119	0.876900	0.079300	0.668400
C1201	C120	0.909000	0.124600	0.593400
C1211	C121	0.093400	0.537800	0.242000
C1221	C122	0.167700	0.584300	0.209800
C1231	C123	0.210800	0.566700	0.177900
C1241	C124	0.174200	0.493000	0.184600
C1251	C125	0.100200	0.451500	0.216300
C1261	C126	0.098200	0.298200	0.367800
C1271	C127	0.174100	0.342400	0.334500
C1281	C128	0.210600	0.407500	0.339900
C1291	C129	0.168400	0.420700	0.376900
C1301	C130	0.093400	0.375400	0.409000
C1311	C131	0.720200	0.962200	0.444400
C1321	C132	0.705900	0.915700	0.416600
C1331	C133	0.755400	0.933300	0.355900
C1341	C134	0.822400	0.007000	0.318800
C1351	C135	0.832200	0.048500	0.351300
C1361	C136	0.834000	0.201800	0.200000
C1371	C137	0.823100	0.157600	0.168300
C1381	C138	0.752600	0.092500	0.196900
C1391	C139	0.702400	0.079300	0.252300
C1401	C140	0.715600	0.124600	0.282000
C1411	C141	0.758000	0.664600	0.279800
C1421	C142	0.790200	0.622500	0.294100
C1431	C143	0.822100	0.611300	0.244600
C1441	C144	0.815400	0.641200	0.177600
C1451	C145	0.783700	0.683500	0.167800
C1461	C146	0.632200	0.534000	0.166000
C1471	C147	0.665500	0.491400	0.176900
C1481	C148	0.660100	0.449500	0.247400
C1491	C149	0.623100	0.454700	0.297600
C1501	C150	0.591000	0.497600	0.284400
C1511	C151	0.555600	0.835400	0.906600
C1521	C152	0.583400	0.877500	0.832300
C1531	C153	0.644100	0.888700	0.789200
C1541	C154	0.681200	0.858800	0.825800
C1551	C155	0.648700	0.816500	0.899800
C1561	C156	0.800000	0.966000	0.901800
C1571	C157	0.831700	0.008600	0.825900
C1581	C158	0.803100	0.050500	0.789400
C1591	C159	0.747700	0.045300	0.831600
C1601	C160	0.718000	0.002400	0.906600
S171	S17	0.744370	0.823790	0.080080
S181	S18	0.596130	0.676210	0.079420
S191	S19	0.920580	0.324450	0.255630
S201	S20	0.919920	0.175550	0.403870
S211	S21	0.903870	0.324450	0.419920
S221	S22	0.755630	0.175550	0.420580
S231	S23	0.580080	0.676210	0.244370
S241	S24	0.579420	0.823790	0.096130
N171	N17	0.718100	0.805800	0.253700
N181	N18	0.718700	0.966800	0.093900
N191	N19	0.440500	0.694200	0.087700
N201	N20	0.439300	0.533200	0.248100
N211	N21	0.912300	0.471800	0.281900
N221	N22	0.751900	0.312600	0.281300
N231	N23	0.746300	0.028200	0.559500
N241	N24	0.906100	0.187400	0.560700
N251	N25	0.059500	0.471800	0.246300
N261	N26	0.060700	0.312600	0.406100
N271	N27	0.781900	0.028200	0.412300
N281	N28	0.781300	0.187400	0.251900
N291	N29	0.753700	0.694200	0.218100
N301	N30	0.593900	0.533200	0.218700
N311	N31	0.587700	0.805800	0.940500
N321	N32	0.748100	0.966800	0.939300
Cu251	Cu25	0.298790	0.250000	0.798790
Cu261	Cu26	0.451210	0.250000	0.951210
Cu271	Cu27	0.048790	0.597580	0.701210
Cu281	Cu28	0.201210	0.902420	0.548790
Cu291	Cu29	0.299050	0.098100	0.950950
Cu301	Cu30	0.450950	0.401900	0.799050
Cu311	Cu31	0.200950	0.750000	0.700950
Cu321	Cu32	0.049050	0.750000	0.549050
H1291	H129	0.185200	0.172600	0.761200
H1301	H130	0.161000	0.101300	0.710100
H1311	H131	0.357400	0.132000	0.668000
H1321	H132	0.376500	0.206200	0.716900
H1331	H133	0.380100	0.063200	0.862100
H1341	H134	0.361100	0.990600	0.809300
H1351	H135	0.156200	0.928700	0.881500
H1361	H136	0.179100	0.001500	0.932400
H1371	H137	0.566200	0.327400	0.987400
H1381	H138	0.688600	0.398700	0.940300
H1391	H139	0.700000	0.368000	0.774600
H1401	H140	0.576900	0.293800	0.829700
H1411	H141	0.574700	0.436800	0.683100
H1421	H142	0.700100	0.509400	0.629500
H1431	H143	0.689800	0.571300	0.772500
H1441	H144	0.566100	0.498500	0.822400
H1451	H145	0.012600	0.446400	0.814800
H1461	H146	0.059700	0.371100	0.839000
H1471	H147	0.225400	0.525400	0.642600
H1481	H148	0.170300	0.593400	0.623500
H1491	H149	0.316900	0.742200	0.619900
H1501	H150	0.370500	0.670400	0.638900
H1511	H151	0.227500	0.537700	0.843800
H1521	H152	0.177600	0.611500	0.820900
H1531	H153	0.238800	0.053600	0.433800
H1541	H154	0.289900	0.128900	0.311400
H1551	H155	0.332000	0.974600	0.300000
H1561	H156	0.283100	0.906600	0.423100
H1571	H157	0.137900	0.757800	0.425300
H1581	H158	0.190700	0.829600	0.299900
H1591	H159	0.118500	0.962300	0.310200
H1601	H160	0.067600	0.888500	0.433900
H1611	H161	0.933800	0.446400	0.738800
H1621	H162	0.811400	0.371100	0.789900
H1631	H163	0.800000	0.525400	0.832000
H1641	H164	0.923100	0.593400	0.783100
H1651	H165	0.925300	0.742200	0.637900
H1661	H166	0.799900	0.670400	0.690700
H1671	H167	0.810200	0.537700	0.618500
H1681	H168	0.933900	0.611500	0.567600
H1691	H169	0.314800	0.053600	0.512600
H1701	H170	0.339000	0.128900	0.559700
H1711	H171	0.142600	0.974600	0.725400
H1721	H172	0.123500	0.906600	0.670300
H1731	H173	0.119900	0.757800	0.816900
H1741	H174	0.138900	0.829600	0.870500
H1751	H175	0.343800	0.962300	0.727500
H1761	H176	0.320900	0.888500	0.677600
H1771	H177	0.261200	0.327400	0.685200
H1781	H178	0.210100	0.398700	0.661000
H1791	H179	0.168000	0.368000	0.857400
H1801	H180	0.216900	0.293800	0.876500
H1811	H181	0.362100	0.436800	0.880100
H1821	H182	0.309300	0.509400	0.861100
H1831	H183	0.381500	0.571300	0.656200
H1841	H184	0.432400	0.498500	0.679100
H1851	H185	0.487400	0.172600	0.066200
H1861	H186	0.440300	0.101300	0.188600
H1871	H187	0.274600	0.132000	0.200000
H1881	H188	0.329700	0.206200	0.076900
H1891	H189	0.183100	0.063200	0.074700
H1901	H190	0.129500	0.990600	0.200100
H1911	H191	0.272500	0.928700	0.189800
H1921	H192	0.322400	0.001500	0.066100
W71	W7	0.375000	0.250000	0.875000
W81	W8	0.125000	0.750000	0.625000
C1611	C161	0.220200	0.164600	0.742000
C1621	C162	0.205900	0.122500	0.709800
C1631	C163	0.255400	0.111300	0.677900
C1641	C164	0.322400	0.141200	0.684600
C1651	C165	0.332200	0.183500	0.716300
C1661	C166	0.334000	0.034000	0.867800
C1671	C167	0.323100	0.991400	0.834500
C1681	C168	0.252600	0.949500	0.839900
C1691	C169	0.202400	0.954700	0.876900
C1701	C170	0.215600	0.997600	0.909000
C1711	C171	0.593400	0.335400	0.944400
C1721	C172	0.667700	0.377500	0.916600
C1731	C173	0.710800	0.388700	0.855900
C1741	C174	0.674200	0.358800	0.818800
C1751	C175	0.600200	0.316500	0.851300
C1761	C176	0.598200	0.466000	0.700000
C1771	C177	0.674100	0.508600	0.668300
C1781	C178	0.710600	0.550500	0.696900
C1791	C179	0.668400	0.545300	0.752300
C1801	C180	0.593400	0.502400	0.782000
C1811	C181	0.055600	0.462200	0.779800
C1821	C182	0.083400	0.415700	0.794100
C1831	C183	0.144100	0.433300	0.744600
C1841	C184	0.181200	0.507000	0.677600
C1851	C185	0.148700	0.548500	0.667800
C1861	C186	0.300000	0.701800	0.666000
C1871	C187	0.331700	0.657600	0.676900
C1881	C188	0.303100	0.592500	0.747400
C1891	C189	0.247700	0.579300	0.797600
C1901	C190	0.218000	0.624600	0.784400
C1911	C191	0.258000	0.037800	0.406600
C1921	C192	0.290200	0.084300	0.332300
C1931	C193	0.322100	0.066700	0.289200
C1941	C194	0.315400	0.993000	0.325800
C1951	C195	0.283700	0.951500	0.399800
C1961	C196	0.132200	0.798200	0.401800
C1971	C197	0.165500	0.842400	0.325900
C1981	C198	0.160100	0.907500	0.289400
C1991	C199	0.123100	0.920700	0.331600
C2001	C200	0.091000	0.875400	0.406600
C2011	C201	0.906600	0.462200	0.758000
C2021	C202	0.832300	0.415700	0.790200
C2031	C203	0.789200	0.433300	0.822100
C2041	C204	0.825800	0.507000	0.815400
C2051	C205	0.899800	0.548500	0.783700
C2061	C206	0.901800	0.701800	0.632200
C2071	C207	0.825900	0.657600	0.665500
C2081	C208	0.789400	0.592500	0.660100
C2091	C209	0.831600	0.579300	0.623100
C2101	C210	0.906600	0.624600	0.591000
C2111	C211	0.279800	0.037800	0.555600
C2121	C212	0.294100	0.084300	0.583400
C2131	C213	0.244600	0.066700	0.644100
C2141	C214	0.177600	0.993000	0.681200
C2151	C215	0.167800	0.951500	0.648700
C2161	C216	0.166000	0.798200	0.800000
C2171	C217	0.176900	0.842400	0.831700
C2181	C218	0.247400	0.907500	0.803100
C2191	C219	0.297600	0.920700	0.747700
C2201	C220	0.284400	0.875400	0.718000
C2211	C221	0.242000	0.335400	0.720200
C2221	C222	0.209800	0.377500	0.705900
C2231	C223	0.177900	0.388700	0.755400
C2241	C224	0.184600	0.358800	0.822400
C2251	C225	0.216300	0.316500	0.832200
C2261	C226	0.367800	0.466000	0.834000
C2271	C227	0.334500	0.508600	0.823100
C2281	C228	0.339900	0.550500	0.752600
C2291	C229	0.376900	0.545300	0.702400
C2301	C230	0.409000	0.502400	0.715600
C2311	C231	0.444400	0.164600	0.093400
C2321	C232	0.416600	0.122500	0.167700
C2331	C233	0.355900	0.111300	0.210800
C2341	C234	0.318800	0.141200	0.174200
C2351	C235	0.351300	0.183500	0.100200
C2361	C236	0.200000	0.034000	0.098200
C2371	C237	0.168300	0.991400	0.174100
C2381	C238	0.196900	0.949500	0.210600
C2391	C239	0.252300	0.954700	0.168400
C2401	C240	0.282000	0.997600	0.093400
S251	S25	0.255630	0.176210	0.919920
S261	S26	0.403870	0.323790	0.920580
S271	S27	0.079420	0.675550	0.744370
S281	S28	0.080080	0.824450	0.596130
S291	S29	0.096130	0.675550	0.580080
S301	S30	0.244370	0.824450	0.579420
S311	S31	0.419920	0.323790	0.755630
S321	S32	0.420580	0.176210	0.903870
N331	N33	0.281900	0.194200	0.746300
N341	N34	0.281300	0.033200	0.906100
N351	N35	0.559500	0.305800	0.912300
N361	N36	0.560700	0.466800	0.751900
N371	N37	0.087700	0.528200	0.718100
N381	N38	0.248100	0.687400	0.718700
N391	N39	0.253700	0.971800	0.440500
N401	N40	0.093900	0.812600	0.439300
N411	N41	0.940500	0.528200	0.753700
N421	N42	0.939300	0.687400	0.593900
N431	N43	0.218100	0.971800	0.587700
N441	N44	0.218700	0.812600	0.748100
N451	N45	0.246300	0.305800	0.781900
N461	N46	0.406100	0.466800	0.781300
N471	N47	0.412300	0.194200	0.059500
N481	N48	0.251900	0.033200	0.060700
