data_FATKIW_freeONLY_PM
_symmetry_space_group_name_H-M	'P1'
_cell_length_a	10.255000
_cell_length_b	11.268000
_cell_length_c	22.194000
_cell_angle_alpha	90.000000
_cell_angle_beta	97.061000
_cell_angle_gamma	90.000000
_symmetry_Int_Tables_number 1

loop_
_symmetry_equiv_pos_as_xyz
'x,y,z'

loop_
_atom_site_label
_atom_site_type_symbol
_atom_site_fract_x
_atom_site_fract_y
_atom_site_fract_z
Sm11	Sm1	0.389920	0.188340	0.774490
Sm21	Sm2	0.739770	0.914850	0.935830
Sm31	Sm3	0.110080	0.688340	0.725510
Sm41	Sm4	0.760230	0.414850	0.564170
Sm51	Sm5	0.610080	0.811660	0.225510
Sm61	Sm6	0.260230	0.085150	0.064170
Sm71	Sm7	0.889920	0.311660	0.274490
Sm81	Sm8	0.239770	0.585150	0.435830
H11	H1	0.662700	0.974100	0.665000
H21	H2	0.884600	0.120700	0.838000
H31	H3	0.890500	0.795300	0.592700
H41	H4	0.738600	0.815900	0.579100
H51	H5	0.835200	0.924000	0.580600
H61	H6	0.882700	0.147300	0.728900
H71	H7	0.012300	0.098100	0.707400
H81	H8	0.993700	0.235100	0.714900
H91	H9	0.837300	0.474100	0.835000
H101	H10	0.615400	0.620700	0.662000
H111	H11	0.609500	0.295300	0.907300
H121	H12	0.761400	0.315900	0.920900
H131	H13	0.664800	0.424000	0.919400
H141	H14	0.617300	0.647300	0.771100
H151	H15	0.487700	0.598100	0.792600
H161	H16	0.506300	0.735100	0.785100
H171	H17	0.337300	0.025900	0.335000
H181	H18	0.115400	0.879300	0.162000
H191	H19	0.109500	0.204700	0.407300
H201	H20	0.261400	0.184100	0.420900
H211	H21	0.164800	0.076000	0.419400
H221	H22	0.117300	0.852700	0.271100
H231	H23	0.987700	0.901900	0.292600
H241	H24	0.006300	0.764900	0.285100
H251	H25	0.162700	0.525900	0.165000
H261	H26	0.384600	0.379300	0.338000
H271	H27	0.390500	0.704700	0.092700
H281	H28	0.238600	0.684100	0.079100
H291	H29	0.335200	0.576000	0.080600
H301	H30	0.382700	0.352700	0.228900
H311	H31	0.512300	0.401900	0.207400
H321	H32	0.493700	0.264900	0.214900
C11	C1	0.265200	0.455200	0.785600
C21	C2	0.204200	0.408800	0.722500
C31	C3	0.660000	0.007300	0.783600
C41	C4	0.740500	0.929700	0.747700
C51	C5	0.811900	0.863600	0.664200
C61	C6	0.819800	0.848400	0.598300
C71	C7	0.850100	0.855900	0.761800
C81	C8	0.919400	0.815000	0.820300
C91	C9	0.992900	0.114700	0.951500
C101	C10	0.050900	0.130500	0.893600
C111	C11	0.035500	0.150500	0.793700
C121	C12	0.976000	0.158400	0.730900
C131	C13	0.173800	0.149900	0.877000
C141	C14	0.306200	0.152100	0.912700
C151	C15	0.234800	0.955200	0.714400
C161	C16	0.295800	0.908800	0.777500
C171	C17	0.840000	0.507300	0.716400
C181	C18	0.759500	0.429700	0.752300
C191	C19	0.688100	0.363600	0.835800
C201	C20	0.680200	0.348400	0.901700
C211	C21	0.649900	0.355900	0.738200
C221	C22	0.580600	0.315000	0.679700
C231	C23	0.507100	0.614700	0.548500
C241	C24	0.449100	0.630500	0.606400
C251	C25	0.464500	0.650500	0.706300
C261	C26	0.524000	0.658400	0.769100
C271	C27	0.326200	0.649900	0.623000
C281	C28	0.193800	0.652100	0.587300
C291	C29	0.734800	0.544800	0.214400
C301	C30	0.795800	0.591200	0.277500
C311	C31	0.340000	0.992700	0.216400
C321	C32	0.259500	0.070300	0.252300
C331	C33	0.188100	0.136400	0.335800
C341	C34	0.180200	0.151600	0.401700
C351	C35	0.149900	0.144100	0.238200
C361	C36	0.080600	0.185000	0.179700
C371	C37	0.007100	0.885300	0.048500
C381	C38	0.949100	0.869500	0.106400
C391	C39	0.964500	0.849500	0.206300
C401	C40	0.024000	0.841600	0.269100
C411	C41	0.826200	0.850100	0.123000
C421	C42	0.693800	0.847900	0.087300
C431	C43	0.765200	0.044800	0.285600
C441	C44	0.704200	0.091200	0.222500
C451	C45	0.160000	0.492700	0.283600
C461	C46	0.240500	0.570300	0.247700
C471	C47	0.311900	0.636400	0.164200
C481	C48	0.319800	0.651600	0.098300
C491	C49	0.350100	0.644100	0.261800
C501	C50	0.419400	0.685000	0.320300
C511	C51	0.492900	0.385300	0.451500
C521	C52	0.550900	0.369500	0.393600
C531	C53	0.535500	0.349500	0.293700
C541	C54	0.476000	0.341600	0.230900
C551	C55	0.673800	0.350100	0.377000
C561	C56	0.806200	0.347900	0.412700
N11	N1	0.892800	0.817100	0.709400
N21	N2	0.722300	0.933400	0.686500
N31	N3	0.163200	0.161500	0.815300
N41	N4	0.968200	0.131200	0.840800
N51	N5	0.607200	0.317100	0.790600
N61	N6	0.777700	0.433400	0.813500
N71	N7	0.336800	0.661500	0.684700
N81	N8	0.531800	0.631200	0.659200
N91	N9	0.107200	0.182900	0.290600
N101	N10	0.277700	0.066600	0.313500
N111	N11	0.836800	0.838500	0.184700
N121	N12	0.031800	0.868800	0.159200
N131	N13	0.392800	0.682900	0.209400
N141	N14	0.222300	0.566600	0.186500
N151	N15	0.663200	0.338500	0.315300
N161	N16	0.468200	0.368800	0.340800
O11	O1	0.341300	0.388200	0.815800
O21	O2	0.228300	0.557300	0.800700
O31	O3	0.230800	0.305900	0.709000
O41	O4	0.133000	0.479200	0.689600
O51	O5	0.572300	0.062100	0.751800
O61	O6	0.686300	0.015400	0.839800
O71	O7	0.875700	0.840300	0.868900
O81	O8	0.024500	0.758100	0.817600
O91	O9	0.061400	0.134100	0.001500
O101	O10	0.874600	0.088600	0.945600
O111	O11	0.320300	0.127900	0.967800
O121	O12	0.402300	0.177400	0.883800
O131	O13	0.605800	0.080900	0.966600
O141	O14	0.512700	0.858200	0.901900
O151	O15	0.727600	0.692000	0.939900
O161	O16	0.158700	0.888200	0.684200
O171	O17	0.271700	0.057300	0.699300
O181	O18	0.269200	0.805900	0.791000
O191	O19	0.367000	0.979200	0.810400
O201	O20	0.927700	0.562100	0.748200
O211	O21	0.813700	0.515400	0.660200
O221	O22	0.624300	0.340300	0.631100
O231	O23	0.475500	0.258100	0.682400
O241	O24	0.438600	0.634100	0.498500
O251	O25	0.625400	0.588600	0.554400
O261	O26	0.179700	0.627900	0.532200
O271	O27	0.097700	0.677400	0.616200
O281	O28	0.894200	0.580900	0.533400
O291	O29	0.987300	0.358200	0.598100
O301	O30	0.772400	0.192000	0.560100
O311	O31	0.658700	0.611800	0.184200
O321	O32	0.771700	0.442700	0.199300
O331	O33	0.769200	0.694100	0.291000
O341	O34	0.867000	0.520800	0.310400
O351	O35	0.427700	0.937900	0.248200
O361	O36	0.313700	0.984600	0.160200
O371	O37	0.124300	0.159700	0.131100
O381	O38	0.975500	0.241900	0.182400
O391	O39	0.938600	0.865900	0.998500
O401	O40	0.125400	0.911400	0.054400
O411	O41	0.679700	0.872100	0.032200
O421	O42	0.597700	0.822600	0.116200
O431	O43	0.394200	0.919100	0.033400
O441	O44	0.487300	0.141800	0.098100
O451	O45	0.272400	0.308000	0.060100
O461	O46	0.841300	0.111800	0.315800
O471	O47	0.728300	0.942700	0.300700
O481	O48	0.730800	0.194100	0.209000
O491	O49	0.633000	0.020800	0.189600
O501	O50	0.072300	0.437900	0.251800
O511	O51	0.186300	0.484600	0.339800
O521	O52	0.375700	0.659700	0.368900
O531	O53	0.524500	0.741900	0.317600
O541	O54	0.561400	0.365900	0.501500
O551	O55	0.374600	0.411400	0.445600
O561	O56	0.820300	0.372100	0.467800
O571	O57	0.902300	0.322600	0.383800
O581	O58	0.105800	0.419100	0.466600
O591	O59	0.012700	0.641800	0.401900
O601	O60	0.227600	0.808000	0.439900
