data_FAVGAN_freeONLY_PM
_symmetry_space_group_name_H-M	'P1'
_cell_length_a	12.841400
_cell_length_b	24.108600
_cell_length_c	12.348800
_cell_angle_alpha	90.000000
_cell_angle_beta	90.000000
_cell_angle_gamma	90.000000
_symmetry_Int_Tables_number 1

loop_
_symmetry_equiv_pos_as_xyz
'x,y,z'

loop_
_atom_site_label
_atom_site_type_symbol
_atom_site_fract_x
_atom_site_fract_y
_atom_site_fract_z
C11	C1	0.278900	0.668600	0.991700
C21	C2	0.299700	0.727700	0.985400
H11	H1	0.301600	0.745600	0.918700
C31	C3	0.316300	0.756100	0.077200
C41	C4	0.311700	0.730900	0.176900
H21	H2	0.322000	0.751600	0.239600
C51	C5	0.291300	0.673500	0.183500
C61	C6	0.273100	0.642600	0.088700
H31	H3	0.257300	0.605000	0.092700
C71	C7	0.236400	0.586600	0.889700
H41	H4	0.284400	0.563800	0.932400
C81	C8	0.126900	0.580400	0.933700
C91	C9	0.241200	0.569400	0.773900
H51	H5	0.190200	0.589700	0.733100
H61	H6	0.227000	0.530400	0.768400
H71	H7	0.309300	0.577000	0.745600
C101	C10	0.276400	0.595100	0.305300
H81	H8	0.211600	0.583500	0.270100
C111	C11	0.366500	0.562400	0.257700
C121	C12	0.267400	0.585700	0.423900
H91	H9	0.327900	0.600400	0.459600
H101	H10	0.262200	0.546700	0.438100
H111	H11	0.206300	0.604200	0.450700
C131	C13	0.339800	0.817900	0.069700
C141	C14	0.026300	0.951800	0.236100
C151	C15	0.027600	0.952800	0.349600
H121	H12	0.047100	0.921200	0.387900
C161	C16	0.050500	0.895800	0.076000
H131	H13	0.985000	0.911100	0.048400
C171	C17	0.141200	0.924900	0.017400
C181	C18	0.050800	0.833500	0.054900
H141	H14	0.115600	0.818000	0.079100
H151	H15	0.042700	0.826800	0.978800
H161	H16	0.994400	0.816600	0.093600
C191	C19	0.512800	0.050000	0.452800
H171	H17	0.521200	0.083500	0.416400
C201	C20	0.512500	0.047400	0.562400
C211	C21	0.510400	0.105100	0.725700
H181	H18	0.446900	0.086200	0.749800
C221	C22	0.605400	0.078300	0.779500
C231	C23	0.504000	0.166800	0.754700
H191	H19	0.569600	0.184300	0.739800
H201	H20	0.487900	0.170700	0.830300
H211	H21	0.450400	0.184200	0.712400
Nd11	Nd1	0.398220	0.931800	0.054600
Nd21	Nd2	0.624880	0.582310	0.274810
O11	O1	0.292000	0.653400	0.287000
O21	O2	0.446700	0.585700	0.231300
O31	O3	0.346400	0.510700	0.253500
O41	O4	0.269300	0.643500	0.893300
O51	O5	0.097900	0.532500	0.959500
O61	O6	0.068100	0.620700	0.935100
O71	O7	0.334200	0.841100	0.979600
O81	O8	0.362300	0.844100	0.154400
O91	O9	0.052000	0.902500	0.190600
O101	O10	0.215600	0.939700	0.072100
O111	O11	0.133100	0.926600	0.917900
O121	O12	0.041600	0.960600	0.572200
O131	O13	0.587900	0.058700	0.870800
O141	O14	0.689000	0.079100	0.734200
O151	O15	0.519600	0.100700	0.608900
O161	O16	0.453700	0.960700	0.227900
O171	O17	0.687600	0.671300	0.196600
H221	H22	0.719100	0.681700	0.138500
H231	H23	0.681500	0.701000	0.235500
O181	O18	0.725400	0.610300	0.443500
H241	H24	0.738300	0.617300	0.509600
H251	H25	0.782300	0.612500	0.408700
O191	O19	0.532800	0.662600	0.363800
H261	H26	0.481700	0.681700	0.341200
H271	H27	0.574900	0.684500	0.395300
C241	C24	0.721100	0.331400	0.991700
C251	C25	0.700300	0.272300	0.985400
H281	H28	0.698400	0.254400	0.918700
C261	C26	0.683700	0.243900	0.077200
C271	C27	0.688300	0.269100	0.176900
H291	H29	0.678000	0.248400	0.239600
C281	C28	0.708700	0.326500	0.183500
C291	C29	0.726900	0.357400	0.088700
H301	H30	0.742700	0.395000	0.092700
C301	C30	0.763600	0.413400	0.889700
H311	H31	0.715600	0.436200	0.932400
C311	C31	0.873100	0.419600	0.933700
C321	C32	0.758800	0.430600	0.773900
H321	H32	0.809800	0.410300	0.733100
H331	H33	0.773000	0.469600	0.768400
H341	H34	0.690700	0.423000	0.745600
C331	C33	0.723600	0.404900	0.305300
H351	H35	0.788400	0.416500	0.270100
C341	C34	0.633500	0.437600	0.257700
C351	C35	0.732600	0.414300	0.423900
H361	H36	0.672100	0.399600	0.459600
H371	H37	0.737800	0.453300	0.438100
H381	H38	0.793700	0.395800	0.450700
C361	C36	0.660200	0.182100	0.069700
C371	C37	0.973700	0.048200	0.236100
C381	C38	0.972400	0.047200	0.349600
H391	H39	0.952900	0.078800	0.387900
C391	C39	0.949500	0.104200	0.076000
H401	H40	0.015000	0.088900	0.048400
C401	C40	0.858800	0.075100	0.017400
C411	C41	0.949200	0.166500	0.054900
H411	H41	0.884400	0.182000	0.079100
H421	H42	0.957300	0.173200	0.978800
H431	H43	0.005600	0.183400	0.093600
C421	C42	0.487200	0.950000	0.452800
H441	H44	0.478800	0.916500	0.416400
C431	C43	0.487500	0.952600	0.562400
C441	C44	0.489600	0.894900	0.725700
H451	H45	0.553100	0.913800	0.749800
C451	C45	0.394600	0.921700	0.779500
C461	C46	0.496000	0.833200	0.754700
H461	H46	0.430400	0.815700	0.739800
H471	H47	0.512100	0.829300	0.830300
H481	H48	0.549600	0.815800	0.712400
Nd31	Nd3	0.601780	0.068200	0.054600
Nd41	Nd4	0.375120	0.417690	0.274810
O201	O20	0.708000	0.346600	0.287000
O211	O21	0.553300	0.414300	0.231300
O221	O22	0.653600	0.489300	0.253500
O231	O23	0.730700	0.356500	0.893300
O241	O24	0.902100	0.467500	0.959500
O251	O25	0.931900	0.379300	0.935100
O261	O26	0.665800	0.158900	0.979600
O271	O27	0.637700	0.155900	0.154400
O281	O28	0.948000	0.097500	0.190600
O291	O29	0.784400	0.060300	0.072100
O301	O30	0.866900	0.073400	0.917900
O311	O31	0.958400	0.039400	0.572200
O321	O32	0.412100	0.941300	0.870800
O331	O33	0.311000	0.920900	0.734200
O341	O34	0.480400	0.899300	0.608900
O351	O35	0.546300	0.039300	0.227900
O361	O36	0.312400	0.328700	0.196600
H491	H49	0.280900	0.318300	0.138500
H501	H50	0.318500	0.299000	0.235500
O371	O37	0.274600	0.389700	0.443500
H511	H51	0.261700	0.382700	0.509600
H521	H52	0.217700	0.387500	0.408700
O381	O38	0.467200	0.337400	0.363800
H531	H53	0.518300	0.318300	0.341200
H541	H54	0.425100	0.315500	0.395300
C471	C47	0.221100	0.168600	0.008300
C481	C48	0.200300	0.227700	0.014600
H551	H55	0.198400	0.245600	0.081300
C491	C49	0.183700	0.256100	0.922800
C501	C50	0.188300	0.230900	0.823100
H561	H56	0.178000	0.251600	0.760400
C511	C51	0.208700	0.173500	0.816500
C521	C52	0.226900	0.142600	0.911300
H571	H57	0.242700	0.105000	0.907300
C531	C53	0.263600	0.086600	0.110300
H581	H58	0.215600	0.063800	0.067600
C541	C54	0.373100	0.080400	0.066300
C551	C55	0.258800	0.069400	0.226100
H591	H59	0.309800	0.089700	0.266900
H601	H60	0.273000	0.030400	0.231600
H611	H61	0.190700	0.077000	0.254400
C561	C56	0.223600	0.095100	0.694700
H621	H62	0.288400	0.083500	0.729900
C571	C57	0.133500	0.062400	0.742300
C581	C58	0.232600	0.085700	0.576100
H631	H63	0.172100	0.100400	0.540400
H641	H64	0.237800	0.046700	0.561900
H651	H65	0.293700	0.104200	0.549300
C591	C59	0.160200	0.317900	0.930300
C601	C60	0.473700	0.451800	0.763900
C611	C61	0.472400	0.452800	0.650400
H661	H66	0.452900	0.421200	0.612100
C621	C62	0.449500	0.395800	0.924000
H671	H67	0.515000	0.411100	0.951600
C631	C63	0.358800	0.424900	0.982600
C641	C64	0.449200	0.333500	0.945100
H681	H68	0.384400	0.318000	0.920900
H691	H69	0.457300	0.326800	0.021200
H701	H70	0.505600	0.316600	0.906400
C651	C65	0.987200	0.550000	0.547200
H711	H71	0.978800	0.583500	0.583600
C661	C66	0.987500	0.547400	0.437600
C671	C67	0.989600	0.605100	0.274300
H721	H72	0.053100	0.586200	0.250200
C681	C68	0.894600	0.578300	0.220500
C691	C69	0.996000	0.666800	0.245300
H731	H73	0.930400	0.684300	0.260200
H741	H74	0.012100	0.670700	0.169700
H751	H75	0.049600	0.684200	0.287600
Nd51	Nd5	0.101780	0.431800	0.945400
Nd61	Nd6	0.875120	0.082310	0.725190
O391	O39	0.208000	0.153400	0.713000
O401	O40	0.053300	0.085700	0.768700
O411	O41	0.153600	0.010700	0.746500
O421	O42	0.230700	0.143500	0.106700
O431	O43	0.402100	0.032500	0.040500
O441	O44	0.431900	0.120700	0.064900
O451	O45	0.165800	0.341100	0.020400
O461	O46	0.137700	0.344100	0.845600
O471	O47	0.448000	0.402500	0.809400
O481	O48	0.284400	0.439700	0.927900
O491	O49	0.366900	0.426600	0.082100
O501	O50	0.458400	0.460600	0.427800
O511	O51	0.912100	0.558700	0.129200
O521	O52	0.811000	0.579100	0.265800
O531	O53	0.980400	0.600700	0.391100
O541	O54	0.046300	0.460700	0.772100
O551	O55	0.812400	0.171300	0.803400
H761	H76	0.780900	0.181700	0.861500
H771	H77	0.818500	0.201000	0.764500
O561	O56	0.774600	0.110300	0.556500
H781	H78	0.761700	0.117300	0.490400
H791	H79	0.717700	0.112500	0.591300
O571	O57	0.967200	0.162600	0.636200
H801	H80	0.018300	0.181700	0.658800
H811	H81	0.925100	0.184500	0.604700
C701	C70	0.778900	0.831400	0.008300
C711	C71	0.799700	0.772300	0.014600
H821	H82	0.801600	0.754400	0.081300
C721	C72	0.816300	0.743900	0.922800
C731	C73	0.811700	0.769100	0.823100
H831	H83	0.822000	0.748400	0.760400
C741	C74	0.791300	0.826500	0.816500
C751	C75	0.773100	0.857400	0.911300
H841	H84	0.757300	0.895000	0.907300
C761	C76	0.736400	0.913400	0.110300
H851	H85	0.784400	0.936200	0.067600
C771	C77	0.626900	0.919600	0.066300
C781	C78	0.741200	0.930600	0.226100
H861	H86	0.690200	0.910300	0.266900
H871	H87	0.727000	0.969600	0.231600
H881	H88	0.809300	0.923000	0.254400
C791	C79	0.776400	0.904900	0.694700
H891	H89	0.711600	0.916500	0.729900
C801	C80	0.866500	0.937600	0.742300
C811	C81	0.767400	0.914300	0.576100
H901	H90	0.827900	0.899600	0.540400
H911	H91	0.762200	0.953300	0.561900
H921	H92	0.706300	0.895800	0.549300
C821	C82	0.839800	0.682100	0.930300
C831	C83	0.526300	0.548200	0.763900
C841	C84	0.527600	0.547200	0.650400
H931	H93	0.547100	0.578800	0.612100
C851	C85	0.550500	0.604200	0.924000
H941	H94	0.485000	0.588900	0.951600
C861	C86	0.641200	0.575100	0.982600
C871	C87	0.550800	0.666500	0.945100
H951	H95	0.615600	0.682000	0.920900
H961	H96	0.542700	0.673200	0.021200
H971	H97	0.494400	0.683400	0.906400
C881	C88	0.012800	0.450000	0.547200
H981	H98	0.021200	0.416500	0.583600
C891	C89	0.012500	0.452600	0.437600
C901	C90	0.010400	0.394900	0.274300
H991	H99	0.946900	0.413800	0.250200
C911	C91	0.105400	0.421700	0.220500
C921	C92	0.004000	0.333200	0.245300
H1001	H100	0.069600	0.315700	0.260200
H1011	H101	0.987900	0.329300	0.169700
H1021	H102	0.950400	0.315800	0.287600
Nd71	Nd7	0.898220	0.568200	0.945400
Nd81	Nd8	0.124880	0.917690	0.725190
O581	O58	0.792000	0.846600	0.713000
O591	O59	0.946700	0.914300	0.768700
O601	O60	0.846400	0.989300	0.746500
O611	O61	0.769300	0.856500	0.106700
O621	O62	0.597900	0.967500	0.040500
O631	O63	0.568100	0.879300	0.064900
O641	O64	0.834200	0.658900	0.020400
O651	O65	0.862300	0.655900	0.845600
O661	O66	0.552000	0.597500	0.809400
O671	O67	0.715600	0.560300	0.927900
O681	O68	0.633100	0.573400	0.082100
O691	O69	0.541600	0.539400	0.427800
O701	O70	0.087900	0.441300	0.129200
O711	O71	0.189000	0.420900	0.265800
O721	O72	0.019600	0.399300	0.391100
O731	O73	0.953700	0.539300	0.772100
O741	O74	0.187600	0.828700	0.803400
H1031	H103	0.219100	0.818300	0.861500
H1041	H104	0.181500	0.799000	0.764500
O751	O75	0.225400	0.889700	0.556500
H1051	H105	0.238300	0.882700	0.490400
H1061	H106	0.282300	0.887500	0.591300
O761	O76	0.032800	0.837400	0.636200
H1071	H107	0.981700	0.818300	0.658800
H1081	H108	0.074900	0.815500	0.604700
C931	C93	0.000000	0.000000	0.177400
H1091	H109	0.000000	0.000000	0.102100
C941	C94	0.000000	0.000000	0.404400
C951	C95	0.000000	0.000000	0.525700
C961	C96	0.500000	0.500000	0.822600
H1101	H110	0.500000	0.500000	0.897900
C971	C97	0.500000	0.500000	0.595600
C981	C98	0.500000	0.500000	0.474300
C991	C99	0.500000	0.000000	0.396800
C1001	C100	0.500000	0.000000	0.620900
H1111	H111	0.500000	0.000000	0.696200
C1011	C101	0.500000	0.000000	0.273600
C1021	C102	0.000000	0.500000	0.603200
C1031	C103	0.000000	0.500000	0.379100
H1121	H112	0.000000	0.500000	0.303800
C1041	C104	0.000000	0.500000	0.726400
