data_FAVZEJ_freeONLY_PM
_symmetry_space_group_name_H-M	'P1'
_cell_length_a	6.564700
_cell_length_b	6.564700
_cell_length_c	11.347000
_cell_angle_alpha	99.816700
_cell_angle_beta	99.816700
_cell_angle_gamma	102.913000
_symmetry_Int_Tables_number 1

loop_
_symmetry_equiv_pos_as_xyz
'x,y,z'

loop_
_atom_site_label
_atom_site_type_symbol
_atom_site_fract_x
_atom_site_fract_y
_atom_site_fract_z
Ag11	Ag1	0.738010	0.012310	0.746050
Ag21	Ag2	0.012310	0.738010	0.246050
H11	H1	0.665200	0.681200	0.518700
H21	H2	0.726300	0.661100	0.397600
H31	H3	0.185900	0.999100	0.880700
H41	H4	0.414800	0.059000	0.872300
H51	H5	0.414700	0.986100	0.374100
H61	H6	0.584600	0.071400	0.488400
H71	H7	0.681200	0.665200	0.018700
H81	H8	0.661100	0.726300	0.897600
H91	H9	0.999100	0.185900	0.380700
H101	H10	0.059000	0.414800	0.372300
H111	H11	0.986100	0.414700	0.874100
H121	H12	0.071400	0.584600	0.988400
C11	C1	0.963100	0.807900	0.531300
C21	C2	0.217400	0.947200	0.704200
C31	C3	0.308100	0.947900	0.519500
C41	C4	0.807900	0.963100	0.031300
C51	C5	0.947200	0.217400	0.204200
C61	C6	0.947900	0.308100	0.019500
N11	N1	0.011700	0.872900	0.652300
N21	N2	0.376200	0.984000	0.642500
N31	N3	0.108100	0.852700	0.460700
N41	N4	0.760800	0.704400	0.476000
N51	N5	0.281500	0.010500	0.837200
N61	N6	0.453400	0.009200	0.452500
N71	N7	0.872900	0.011700	0.152300
N81	N8	0.984000	0.376200	0.142500
N91	N9	0.852700	0.108100	0.960700
N101	N10	0.704400	0.760800	0.976000
N111	N11	0.010500	0.281500	0.337200
N121	N12	0.009200	0.453400	0.952500
