data_FAWCEN01_SL_PM
_symmetry_space_group_name_H-M	'P1'
_cell_length_a	14.646400
_cell_length_b	14.646400
_cell_length_c	14.646400
_cell_angle_alpha	109.471200
_cell_angle_beta	109.471200
_cell_angle_gamma	109.471200
_symmetry_Int_Tables_number 1

loop_
_symmetry_equiv_pos_as_xyz
'x,y,z'

loop_
_atom_site_label
_atom_site_type_symbol
_atom_site_fract_x
_atom_site_fract_y
_atom_site_fract_z
H11	H1	0.898900	0.425600	0.765100
C21	C2	0.944200	0.419500	0.734300
N31	N3	0.907200	0.351000	0.622600
H41	H4	0.660500	0.133800	0.234900
C51	C5	0.685200	0.209900	0.265700
N61	N6	0.728400	0.284600	0.377400
H71	H7	0.339500	0.574400	0.473300
C81	C8	0.314800	0.580500	0.524700
N91	N9	0.271600	0.649000	0.556200
H101	H10	0.101100	0.866200	0.526700
C111	C11	0.055800	0.790100	0.475300
N121	N12	0.092800	0.715400	0.443800
H131	H13	0.765100	0.898900	0.425600
C141	C14	0.734300	0.944200	0.419500
N151	N15	0.622600	0.907200	0.351000
H161	H16	0.234900	0.660500	0.133800
C171	C17	0.265700	0.685200	0.209900
N181	N18	0.377400	0.728400	0.284600
H191	H19	0.473300	0.339500	0.574400
C201	C20	0.524700	0.314800	0.580500
N211	N21	0.556200	0.271600	0.649000
H221	H22	0.526700	0.101100	0.866200
C231	C23	0.475300	0.055800	0.790100
N241	N24	0.443800	0.092800	0.715400
H251	H25	0.425600	0.765100	0.898900
C261	C26	0.419500	0.734300	0.944200
N271	N27	0.351000	0.622600	0.907200
H281	H28	0.133800	0.234900	0.660500
C291	C29	0.209900	0.265700	0.685200
N301	N30	0.284600	0.377400	0.728400
H311	H31	0.574400	0.473300	0.339500
C321	C32	0.580500	0.524700	0.314800
N331	N33	0.649000	0.556200	0.271600
H341	H34	0.866200	0.526700	0.101100
C351	C35	0.790100	0.475300	0.055800
N361	N36	0.715400	0.443800	0.092800
H371	H37	0.425600	0.898900	0.765100
C381	C38	0.419500	0.944200	0.734300
N391	N39	0.351000	0.907200	0.622600
H401	H40	0.133800	0.660500	0.234900
C411	C41	0.209900	0.685200	0.265700
N421	N42	0.284600	0.728400	0.377400
H431	H43	0.574400	0.339500	0.473300
C441	C44	0.580500	0.314800	0.524700
N451	N45	0.649000	0.271600	0.556200
H461	H46	0.866200	0.101100	0.526700
C471	C47	0.790100	0.055800	0.475300
N481	N48	0.715400	0.092800	0.443800
H491	H49	0.898900	0.765100	0.425600
C501	C50	0.944200	0.734300	0.419500
N511	N51	0.907200	0.622600	0.351000
H521	H52	0.660500	0.234900	0.133800
C531	C53	0.685200	0.265700	0.209900
N541	N54	0.728400	0.377400	0.284600
H551	H55	0.339500	0.473300	0.574400
C561	C56	0.314800	0.524700	0.580500
N571	N57	0.271600	0.556200	0.649000
H581	H58	0.101100	0.526700	0.866200
C591	C59	0.055800	0.475300	0.790100
N601	N60	0.092800	0.443800	0.715400
H611	H61	0.765100	0.425600	0.898900
C621	C62	0.734300	0.419500	0.944200
N631	N63	0.622600	0.351000	0.907200
H641	H64	0.234900	0.133800	0.660500
C651	C65	0.265700	0.209900	0.685200
N661	N66	0.377400	0.284600	0.728400
H671	H67	0.473300	0.574400	0.339500
C681	C68	0.524700	0.580500	0.314800
N691	N69	0.556200	0.649000	0.271600
H701	H70	0.526700	0.866200	0.101100
C711	C71	0.475300	0.790100	0.055800
N721	N72	0.443800	0.715400	0.092800
Zn731	Zn73	0.750000	0.250000	0.500000
Zn741	Zn74	0.250000	0.750000	0.500000
Zn751	Zn75	0.500000	0.750000	0.250000
Zn761	Zn76	0.500000	0.250000	0.750000
Zn771	Zn77	0.250000	0.500000	0.750000
Zn781	Zn78	0.750000	0.500000	0.250000
C791	C79	0.000000	0.369400	0.616400
C801	C80	0.000000	0.316100	0.510300
C811	C81	0.753000	0.383600	0.383600
C821	C82	0.805800	0.489700	0.489700
C831	C83	0.247000	0.630600	0.630600
C841	C84	0.194200	0.683900	0.683900
C851	C85	0.000000	0.616400	0.369400
C861	C86	0.000000	0.510300	0.316100
C871	C87	0.616400	0.000000	0.369400
C881	C88	0.510300	0.000000	0.316100
C891	C89	0.383600	0.753000	0.383600
C901	C90	0.489700	0.805800	0.489700
C911	C91	0.630600	0.247000	0.630600
C921	C92	0.683900	0.194200	0.683900
C931	C93	0.369400	0.000000	0.616400
C941	C94	0.316100	0.000000	0.510300
C951	C95	0.369400	0.616400	0.000000
C961	C96	0.316100	0.510300	0.000000
C971	C97	0.383600	0.383600	0.753000
C981	C98	0.489700	0.489700	0.805800
C991	C99	0.630600	0.630600	0.247000
C1001	C100	0.683900	0.683900	0.194200
C1011	C101	0.616400	0.369400	0.000000
C1021	C102	0.510300	0.316100	0.000000
H1031	H103	0.044940	0.266370	0.517580
H1041	H104	0.044940	0.383550	0.493790
H1051	H105	0.864980	0.561680	0.487320
H1061	H106	0.854750	0.482330	0.563220
H1071	H107	0.738110	0.506350	0.499830
H1081	H108	0.145250	0.627580	0.708470
H1091	H109	0.135020	0.696700	0.622330
H1101	H110	0.261890	0.768240	0.761720
H1111	H111	0.044940	0.493790	0.383550
H1121	H112	0.044940	0.517580	0.266370
H1131	H113	0.518840	0.082290	0.370830
H1141	H114	0.563770	0.841680	0.477370
H1151	H115	0.492570	0.740320	0.514350
H1161	H116	0.494020	0.875840	0.558640
H1171	H117	0.708180	0.144990	0.627430
H1181	H118	0.622440	0.135260	0.696990
H1191	H119	0.761900	0.261910	0.768100
H1201	H120	0.382850	0.038340	0.489960
H1211	H121	0.272520	0.051230	0.520110
H1221	H122	0.377550	0.512820	0.074550
H1231	H123	0.238100	0.500010	0.006200
H1241	H124	0.508070	0.498200	0.738380
H1251	H125	0.561140	0.488700	0.867460
H1261	H126	0.481160	0.563460	0.852000
H1271	H127	0.617150	0.655490	0.107110
H1281	H128	0.747890	0.658320	0.187460
H1291	H129	0.727480	0.778710	0.247590
H1301	H130	0.507430	0.247740	0.021780
H1311	H131	0.505980	0.381820	0.064630
H1321	H132	0.910120	0.257560	0.438280
H1331	H133	0.910120	0.438280	0.257550
H1341	H134	0.438860	0.927570	0.306330
H1351	H135	0.491930	0.990140	0.230320
H1361	H136	0.252110	0.910430	0.439570
H1371	H137	0.291820	0.436810	0.919250
H1381	H138	0.436230	0.277910	0.913600
