data_FAWCEN03_SL_PM
_symmetry_space_group_name_H-M	'P1'
_cell_length_a	14.730700
_cell_length_b	14.730700
_cell_length_c	14.730700
_cell_angle_alpha	109.471000
_cell_angle_beta	109.471000
_cell_angle_gamma	109.471000
_symmetry_Int_Tables_number 1

loop_
_symmetry_equiv_pos_as_xyz
'x,y,z'

loop_
_atom_site_label
_atom_site_type_symbol
_atom_site_fract_x
_atom_site_fract_y
_atom_site_fract_z
Zn11	Zn1	0.250000	0.750000	0.500000
Zn21	Zn2	0.750000	0.250000	0.500000
Zn31	Zn3	0.500000	0.750000	0.250000
Zn41	Zn4	0.500000	0.250000	0.750000
Zn51	Zn5	0.750000	0.500000	0.250000
Zn61	Zn6	0.250000	0.500000	0.750000
H11	H1	0.102490	0.881030	0.526320
H21	H2	0.354710	0.576170	0.473680
H31	H3	0.645290	0.118970	0.221460
H41	H4	0.897510	0.423830	0.778540
H51	H5	0.221460	0.645290	0.118970
H61	H6	0.778540	0.897510	0.423830
H71	H7	0.526320	0.102490	0.881030
H81	H8	0.473680	0.354710	0.576170
H91	H9	0.576170	0.473680	0.354710
H101	H10	0.881030	0.526320	0.102490
H111	H11	0.423830	0.778540	0.897510
H121	H12	0.118970	0.221460	0.645290
H131	H13	0.576170	0.354710	0.473680
H141	H14	0.881030	0.102490	0.526320
H151	H15	0.423830	0.897510	0.778540
H161	H16	0.118970	0.645290	0.221460
H171	H17	0.102490	0.526320	0.881030
H181	H18	0.354710	0.473680	0.576170
H191	H19	0.645290	0.221460	0.118970
H201	H20	0.897510	0.778540	0.423830
H211	H21	0.221460	0.118970	0.645290
H221	H22	0.778540	0.423830	0.897510
H231	H23	0.526320	0.881030	0.102490
H241	H24	0.473680	0.576170	0.354710
C11	C1	0.055100	0.787300	0.467800
C21	C2	0.319500	0.587300	0.532200
C31	C3	0.680500	0.212700	0.267800
C41	C4	0.944900	0.412700	0.732200
C51	C5	0.267800	0.680500	0.212700
C61	C6	0.732200	0.944900	0.412700
C71	C7	0.467800	0.055100	0.787300
C81	C8	0.532200	0.319500	0.587300
C91	C9	0.587300	0.532200	0.319500
C101	C10	0.787300	0.467800	0.055100
C111	C11	0.412700	0.732200	0.944900
C121	C12	0.212700	0.267800	0.680500
C131	C13	0.587300	0.319500	0.532200
C141	C14	0.787300	0.055100	0.467800
C151	C15	0.412700	0.944900	0.732200
C161	C16	0.212700	0.680500	0.267800
C171	C17	0.055100	0.467800	0.787300
C181	C18	0.319500	0.532200	0.587300
C191	C19	0.680500	0.267800	0.212700
C201	C20	0.944900	0.732200	0.412700
C211	C21	0.267800	0.212700	0.680500
C221	C22	0.732200	0.412700	0.944900
C231	C23	0.467800	0.787300	0.055100
C241	C24	0.532200	0.587300	0.319500
C251	C25	0.000000	0.614700	0.368100
C261	C26	0.000000	0.507700	0.317900
C271	C27	0.246600	0.631900	0.631900
C281	C28	0.189800	0.682100	0.682100
C291	C29	0.753400	0.385300	0.385300
C301	C30	0.810200	0.492300	0.492300
C311	C31	0.000000	0.368100	0.614700
C321	C32	0.000000	0.317900	0.507700
C331	C33	0.385300	0.753400	0.385300
C341	C34	0.492300	0.810200	0.492300
C351	C35	0.614700	0.000000	0.368100
C361	C36	0.507700	0.000000	0.317900
C371	C37	0.368100	0.000000	0.614700
C381	C38	0.317900	0.000000	0.507700
C391	C39	0.631900	0.246600	0.631900
C401	C40	0.682100	0.189800	0.682100
C411	C41	0.631900	0.631900	0.246600
C421	C42	0.682100	0.682100	0.189800
C431	C43	0.614700	0.368100	0.000000
C441	C44	0.507700	0.317900	0.000000
C451	C45	0.368100	0.614700	0.000000
C461	C46	0.317900	0.507700	0.000000
C471	C47	0.385300	0.385300	0.753400
C481	C48	0.492300	0.492300	0.810200
N11	N1	0.092300	0.713600	0.440500
N21	N2	0.273100	0.651800	0.559500
N31	N3	0.726900	0.286400	0.378700
N41	N4	0.907700	0.348200	0.621300
N51	N5	0.378700	0.726900	0.286400
N61	N6	0.621300	0.907700	0.348200
N71	N7	0.440500	0.092300	0.713600
N81	N8	0.559500	0.273100	0.651800
N91	N9	0.651800	0.559500	0.273100
N101	N10	0.713600	0.440500	0.092300
N111	N11	0.348200	0.621300	0.907700
N121	N12	0.286400	0.378700	0.726900
N131	N13	0.651800	0.273100	0.559500
N141	N14	0.713600	0.092300	0.440500
N151	N15	0.348200	0.907700	0.621300
N161	N16	0.286400	0.726900	0.378700
N171	N17	0.092300	0.440500	0.713600
N181	N18	0.273100	0.559500	0.651800
N191	N19	0.726900	0.378700	0.286400
N201	N20	0.907700	0.621300	0.348200
N211	N21	0.378700	0.286400	0.726900
N221	N22	0.621300	0.348200	0.907700
N231	N23	0.440500	0.713600	0.092300
N241	N24	0.559500	0.651800	0.273100
H261	H26	0.023570	0.503050	0.250870
H271	H27	0.913570	0.434600	0.279380
H281	H28	0.062860	0.504210	0.385340
H301	H30	0.130390	0.619180	0.692860
H311	H31	0.141120	0.705580	0.624940
H321	H32	0.254760	0.759660	0.766610
H341	H34	0.858880	0.564450	0.483820
H351	H35	0.869610	0.488790	0.562460
H361	H36	0.745240	0.504900	0.511860
H381	H38	0.051370	0.386960	0.497270
H391	H39	0.910990	0.266770	0.435140
H401	H40	0.037640	0.261850	0.509450
H421	H42	0.561830	0.872020	0.490090
H431	H43	0.513550	0.745530	0.503290
H441	H44	0.482760	0.856180	0.564770
H481	H48	0.501650	0.020580	0.248790
H501	H50	0.298740	0.921520	0.436100
H511	H51	0.379060	0.076250	0.512990
H521	H52	0.237790	0.002220	0.492760
H541	H54	0.741200	0.177430	0.651860
H551	H55	0.613250	0.105530	0.655970
H561	H56	0.729970	0.243310	0.776590
H581	H58	0.620940	0.697200	0.133940
H591	H59	0.701260	0.622780	0.137360
H601	H60	0.762210	0.764430	0.254970
H621	H62	0.486450	0.231970	0.989730
H631	H63	0.438170	0.310190	0.928260
H641	H64	0.517240	0.373420	0.082010
H661	H66	0.386750	0.492290	0.042720
H671	H67	0.258810	0.436230	0.910670
H681	H68	0.270020	0.513340	0.046610
H701	H70	0.498350	0.518930	0.747140
H711	H71	0.565350	0.479750	0.847420
H721	H72	0.494440	0.559460	0.879170
H1	H	0.505560	0.065020	0.384720
H471	H47	0.434650	0.914400	0.282070
