data_FAYQED_freeONLY_PM
_symmetry_space_group_name_H-M	'P1'
_cell_length_a	24.789000
_cell_length_b	26.019200
_cell_length_c	26.019200
_cell_angle_alpha	96.042800
_cell_angle_beta	116.159000
_cell_angle_gamma	116.159000
_symmetry_Int_Tables_number 1

loop_
_symmetry_equiv_pos_as_xyz
'x,y,z'

loop_
_atom_site_label
_atom_site_type_symbol
_atom_site_fract_x
_atom_site_fract_y
_atom_site_fract_z
Zn11	Zn1	0.664000	0.568500	0.950700
Zn21	Zn2	0.555300	0.404500	0.897100
Zn31	Zn3	0.782000	0.627100	0.115100
Zn41	Zn4	0.764700	0.613800	0.881800
Zn51	Zn5	0.551300	0.626800	0.909200
H11	H1	0.236100	0.828000	0.768600
H21	H2	0.268500	0.852600	0.729800
H31	H3	0.123400	0.767700	0.602500
H41	H4	0.183200	0.835200	0.617200
H51	H5	0.212900	0.910000	0.761800
H61	H6	0.154100	0.904900	0.699300
H71	H7	0.550200	0.762100	0.098700
H81	H8	0.565800	0.747200	0.158600
H91	H9	0.622600	0.809200	0.161800
H101	H10	0.374000	0.638300	0.765500
H111	H11	0.324800	0.815300	0.803700
H121	H12	0.374200	0.520200	0.825800
H131	H13	0.379900	0.341600	0.823200
H141	H14	0.678700	0.779000	0.248400
H151	H15	0.695000	0.728000	0.259600
H161	H16	0.754700	0.792100	0.268900
H171	H17	0.258700	0.630400	0.679400
H181	H18	0.431200	0.821900	0.891500
H191	H19	0.511500	0.779000	0.925800
H201	H20	0.181000	0.663700	0.645700
H211	H21	0.253000	0.004800	0.788600
H221	H22	0.095900	0.799200	0.419200
H231	H23	0.449000	0.207500	0.792500
H241	H24	0.636100	0.313400	0.147200
H251	H25	0.561900	0.296100	0.091900
H261	H26	0.610900	0.281600	0.079400
H271	H27	0.988800	0.726700	0.688700
H281	H28	0.966600	0.753500	0.510900
H291	H29	0.149000	0.841400	0.524200
H301	H30	0.328500	0.999500	0.678700
H311	H31	0.084200	0.748600	0.680200
H321	H32	0.063100	0.797400	0.672800
H331	H33	0.292300	0.111900	0.851300
H341	H34	0.403200	0.104300	0.719100
H351	H35	0.377800	0.224700	0.899700
H361	H36	0.771900	0.459100	0.246900
H371	H37	0.695100	0.403000	0.223200
H381	H38	0.748600	0.392100	0.214900
H391	H39	0.198700	0.308900	0.733500
H401	H40	0.237000	0.277900	0.723900
H411	H41	0.235300	0.286200	0.783600
H421	H42	0.149600	0.832200	0.853600
H431	H43	0.202300	0.371000	0.741200
H441	H44	0.231000	0.434600	0.787000
H451	H45	0.230900	0.430700	0.726500
H461	H46	0.076000	0.797100	0.901100
H471	H47	0.670800	0.341600	0.690600
H481	H48	0.681100	0.400400	0.674800
H491	H49	0.745500	0.404400	0.730800
H501	H50	0.575100	0.259800	0.735400
H511	H51	0.576000	0.281100	0.681500
H521	H52	0.644800	0.287700	0.734300
H531	H53	0.678200	0.790000	0.720800
H541	H54	0.752100	0.799500	0.767100
H551	H55	0.695400	0.741500	0.705500
H561	H56	0.598300	0.793300	0.727300
H571	H57	0.530600	0.746600	0.726400
H581	H58	0.594500	0.806200	0.785400
H591	H59	0.124200	0.801600	0.106600
H601	H60	0.084200	0.752300	0.041100
H611	H61	0.072300	0.806400	0.047800
H621	H62	0.125200	0.798100	0.200900
H631	H63	0.075600	0.806800	0.217800
H641	H64	0.078400	0.747800	0.217400
H651	H65	0.582600	0.333500	0.810100
H661	H66	0.725600	0.495400	0.775800
H671	H67	0.564400	0.710900	0.819500
H681	H68	0.733200	0.700400	0.793600
H691	H69	0.959900	0.721200	0.167800
H701	H70	0.942400	0.695400	0.980600
H711	H71	0.564900	0.705100	0.030500
H721	H72	0.748800	0.709800	0.197000
H731	H73	0.792700	0.652300	0.300100
H741	H74	0.852100	0.691700	0.406700
H751	H75	0.982100	0.731600	0.314800
H761	H76	0.963800	0.725900	0.879700
H771	H77	0.860100	0.651600	0.668200
H781	H78	0.790700	0.612600	0.708800
H791	H79	0.770800	0.518500	0.183900
H801	H80	0.579000	0.343200	0.009200
C11	C1	0.164000	0.830000	0.690000
C21	C2	0.379000	0.123000	0.781000
C31	C3	0.226000	0.823000	0.727000
C41	C4	0.142000	0.811000	0.619000
C51	C5	0.192000	0.898000	0.718000
C61	C6	0.444000	0.702000	0.852000
C71	C7	0.436000	0.432000	0.848000
C81	C8	0.587000	0.767000	0.137000
C91	C9	0.384000	0.673000	0.791000
C101	C10	0.313000	0.778000	0.780000
C111	C11	0.373000	0.484000	0.824000
C121	C12	0.377000	0.376000	0.820000
C131	C13	0.434000	0.481000	0.851000
C141	C14	0.704000	0.761000	0.245000
C151	C15	0.271000	0.666000	0.706000
C161	C16	0.357000	0.753000	0.805000
C171	C17	0.419000	0.786000	0.866000
C181	C18	0.468000	0.758000	0.888000
C191	C19	0.255000	0.745000	0.725000
C201	C20	0.225000	0.685000	0.683000
C211	C21	0.291000	0.995000	0.733000
C221	C22	0.327000	0.095000	0.797000
C231	C23	0.283000	0.026000	0.776000
C241	C24	0.059000	0.799000	0.525000
C251	C25	0.068000	0.790000	0.436000
C261	C26	0.419000	0.188000	0.806000
C271	C27	0.420000	0.223000	0.847000
C281	C28	0.611000	0.310000	0.106000
C291	C29	0.006000	0.740000	0.730000
C301	C30	0.992000	0.762000	0.492000
C311	C31	0.073000	0.780000	0.768000
C321	C32	0.099000	0.814000	0.498000
C331	C33	0.333000	0.695000	0.763000
C341	C34	0.842000	0.658000	0.224000
C351	C35	0.331000	0.023000	0.711000
C361	C36	0.102000	0.792000	0.696000
C371	C37	0.820000	0.637000	0.825000
C381	C38	0.312000	0.427000	0.793000
C391	C39	0.325000	0.131000	0.841000
C401	C40	0.375000	0.086000	0.734000
C411	C41	0.376000	0.200000	0.870000
C421	C42	0.732000	0.419000	0.215000
C431	C43	0.238000	0.304000	0.754000
C441	C44	0.309000	0.367000	0.787000
C451	C45	0.101000	0.802000	0.828000
C461	C46	0.237000	0.415000	0.759000
C471	C47	0.057000	0.781000	0.859000
C481	C48	0.695000	0.386000	0.708000
C491	C49	0.604000	0.289000	0.725000
C501	C50	0.702000	0.770000	0.738000
C511	C51	0.582000	0.775000	0.751000
C521	C52	0.080000	0.778000	0.066000
C531	C53	0.080000	0.778000	0.198000
C541	C54	0.679000	0.474000	0.824000
C551	C55	0.636000	0.426000	0.834000
C561	C56	0.611000	0.366300	0.803700
C571	C57	0.629000	0.354000	0.762000
C581	C58	0.672000	0.403000	0.751000
C591	C59	0.697000	0.463000	0.783000
C601	C60	0.628000	0.677000	0.843000
C611	C61	0.598000	0.709000	0.815000
C621	C62	0.619000	0.737000	0.779000
C631	C63	0.670000	0.734000	0.770000
C641	C64	0.699000	0.703000	0.799000
C651	C65	0.679000	0.675000	0.835000
C661	C66	0.889000	0.681000	0.075000
C671	C67	0.956000	0.716000	0.130000
C681	C68	0.018000	0.743000	0.129000
C691	C69	0.013000	0.735000	0.073000
C701	C70	0.946000	0.700000	0.018000
C711	C71	0.884000	0.673000	0.019000
C721	C72	0.467000	0.294000	0.872000
C731	C73	0.691000	0.681000	0.103000
C741	C74	0.636000	0.680000	0.054000
C751	C75	0.602000	0.706000	0.064000
C761	C76	0.623000	0.734000	0.124000
C771	C77	0.678000	0.735000	0.173000
C781	C78	0.712000	0.708600	0.163400
C791	C79	0.881000	0.688000	0.296000
C801	C80	0.843000	0.676000	0.324000
C811	C81	0.878000	0.700000	0.388000
C821	C82	0.953000	0.735000	0.425000
C831	C83	0.992000	0.747000	0.397000
C841	C84	0.956000	0.723000	0.333000
C851	C85	0.870000	0.666000	0.798000
C861	C86	0.943000	0.711000	0.837000
C871	C87	0.985000	0.735000	0.813000
C881	C88	0.954000	0.712000	0.750000
C891	C89	0.881000	0.667000	0.711000
C901	C90	0.839000	0.643000	0.735000
C911	C91	0.480000	0.667000	0.875000
C921	C92	0.703000	0.488300	0.091700
C931	C93	0.732000	0.483000	0.149000
C941	C94	0.704000	0.426100	0.153900
C951	C95	0.647000	0.374000	0.102000
C961	C96	0.617000	0.378000	0.044000
C971	C97	0.646000	0.435200	0.038800
N11	N1	0.657000	0.623000	0.893000
N21	N2	0.666000	0.630000	0.016000
N31	N3	0.709000	0.650000	0.078000
N41	N4	0.823000	0.647000	0.067000
N51	N5	0.783000	0.625000	0.005000
N61	N6	0.668000	0.508000	0.006000
N71	N7	0.623000	0.446000	0.984000
N81	N8	0.621000	0.445000	0.867000
N91	N9	0.662000	0.508000	0.890000
N101	N10	0.506000	0.448000	0.878000
N111	N11	0.544000	0.509000	0.899000
N121	N12	0.621000	0.647000	0.999000
N131	N13	0.699000	0.525000	0.861000
N141	N14	0.696000	0.638000	0.866000
N151	N15	0.619000	0.649000	0.883000
N161	N16	0.506000	0.535000	0.883000
N171	N17	0.816000	0.640000	0.972000
N181	N18	0.716000	0.530000	0.060000
O11	O1	0.091000	0.823000	0.589000
O21	O2	0.245000	0.932000	0.706000
O31	O3	0.206000	0.764000	0.698000
O41	O4	0.458000	0.624000	0.840000
O51	O5	0.778000	0.628000	0.200000
O61	O6	0.876000	0.671000	0.201000
O71	O7	0.841000	0.657000	0.871000
O81	O8	0.750000	0.600000	0.774000
O91	O9	0.123000	0.809000	0.755000
O101	O10	0.536000	0.705000	0.923000
O111	O11	0.463000	0.324000	0.910000
O121	O12	0.514000	0.316000	0.858000
Zn61	Zn6	0.336000	0.049300	0.431500
Zn71	Zn7	0.444700	0.102900	0.595500
Zn81	Zn8	0.218000	0.884900	0.372900
Zn91	Zn9	0.235300	0.118200	0.386200
Zn101	Zn10	0.448700	0.090800	0.373200
H811	H81	0.763900	0.231400	0.172000
H821	H82	0.731500	0.270200	0.147400
H831	H83	0.876600	0.397500	0.232300
H841	H84	0.816800	0.382800	0.164800
H851	H85	0.787100	0.238200	0.090000
H861	H86	0.845900	0.300700	0.095100
H871	H87	0.449800	0.901300	0.237900
H881	H88	0.434200	0.841400	0.252800
H891	H89	0.377400	0.838200	0.190800
H901	H90	0.626000	0.234500	0.361700
H911	H91	0.675200	0.196300	0.184700
H921	H92	0.625800	0.174200	0.479800
H931	H93	0.620100	0.176800	0.658400
H941	H94	0.321300	0.751600	0.221000
H951	H95	0.305000	0.740400	0.272000
H961	H96	0.245300	0.731100	0.207900
H971	H97	0.741300	0.320600	0.369600
H981	H98	0.568800	0.108500	0.178100
H991	H99	0.488500	0.074200	0.221000
H1001	H100	0.819000	0.354300	0.336300
H1011	H101	0.747000	0.211400	0.995200
H1021	H102	0.904100	0.580800	0.200800
H1031	H103	0.551000	0.207500	0.792500
H1041	H104	0.363900	0.852800	0.686600
H1051	H105	0.438100	0.908100	0.703900
H1061	H106	0.389100	0.920600	0.718400
H1071	H107	0.011200	0.311300	0.273300
H1081	H108	0.033400	0.489100	0.246500
H1091	H109	0.851000	0.475800	0.158600
H1101	H110	0.671500	0.321300	0.000500
H1111	H111	0.915800	0.319800	0.251400
H1121	H112	0.936900	0.327200	0.202600
H1131	H113	0.707700	0.148700	0.888100
H1141	H114	0.596800	0.280900	0.895700
H1151	H115	0.622200	0.100300	0.775300
H1161	H116	0.228100	0.753100	0.540900
H1171	H117	0.304900	0.776800	0.597000
H1181	H118	0.251400	0.785100	0.607900
H1191	H119	0.801300	0.266500	0.691100
H1201	H120	0.763000	0.276100	0.722100
H1211	H121	0.764700	0.216400	0.713800
H1221	H122	0.850400	0.146400	0.167800
H1231	H123	0.797700	0.258800	0.629000
H1241	H124	0.769000	0.213000	0.565400
H1251	H125	0.769100	0.273500	0.569300
H1261	H126	0.924000	0.098900	0.202900
H1271	H127	0.329200	0.309400	0.658400
H1281	H128	0.318900	0.325200	0.599600
H1291	H129	0.254500	0.269200	0.595600
H1301	H130	0.424900	0.264600	0.740200
H1311	H131	0.424000	0.318500	0.718900
H1321	H132	0.355200	0.265700	0.712300
H1331	H133	0.321800	0.279200	0.210000
H1341	H134	0.247900	0.232900	0.200500
H1351	H135	0.304600	0.294500	0.258500
H1361	H136	0.401700	0.272700	0.206700
H1371	H137	0.469400	0.273600	0.253400
H1381	H138	0.405500	0.214600	0.193800
H1391	H139	0.875800	0.893400	0.198400
H1401	H140	0.915800	0.958900	0.247700
H1411	H141	0.927700	0.952200	0.193600
H1421	H142	0.874800	0.799100	0.201900
H1431	H143	0.924400	0.782200	0.193200
H1441	H144	0.921600	0.782600	0.252200
H1451	H145	0.417400	0.189900	0.666500
H1461	H146	0.274400	0.224200	0.504600
H1471	H147	0.435600	0.180500	0.289100
H1481	H148	0.266800	0.206400	0.299600
H1491	H149	0.040100	0.832200	0.278800
H1501	H150	0.057600	0.019400	0.304600
H1511	H151	0.435100	0.969500	0.294900
H1521	H152	0.251200	0.803000	0.290200
H1531	H153	0.207300	0.699900	0.347700
H1541	H154	0.147900	0.593300	0.308300
H1551	H155	0.017900	0.685200	0.268400
H1561	H156	0.036200	0.120300	0.274100
H1571	H157	0.139900	0.331800	0.348400
H1581	H158	0.209300	0.291200	0.387400
H1591	H159	0.229200	0.816100	0.481500
H1601	H160	0.421000	0.990800	0.656800
C981	C98	0.836000	0.310000	0.170000
C991	C99	0.621000	0.219000	0.877000
C1001	C100	0.774000	0.273000	0.177000
C1011	C101	0.858000	0.381000	0.189000
C1021	C102	0.808000	0.282000	0.102000
C1031	C103	0.556000	0.148000	0.298000
C1041	C104	0.564000	0.152000	0.568000
C1051	C105	0.413000	0.863000	0.233000
C1061	C106	0.616000	0.209000	0.327000
C1071	C107	0.687000	0.220000	0.222000
C1081	C108	0.627000	0.176000	0.516000
C1091	C109	0.623000	0.180000	0.624000
C1101	C110	0.566000	0.149000	0.519000
C1111	C111	0.296000	0.755000	0.239000
C1121	C112	0.729000	0.294000	0.334000
C1131	C113	0.643000	0.195000	0.247000
C1141	C114	0.581000	0.134000	0.214000
C1151	C115	0.532000	0.112000	0.242000
C1161	C116	0.745000	0.275000	0.255000
C1171	C117	0.775000	0.317000	0.315000
C1181	C118	0.709000	0.267000	0.005000
C1191	C119	0.673000	0.203000	0.905000
C1201	C120	0.717000	0.224000	0.974000
C1211	C121	0.941000	0.475000	0.201000
C1221	C122	0.932000	0.564000	0.210000
C1231	C123	0.581000	0.194000	0.812000
C1241	C124	0.580000	0.153000	0.777000
C1251	C125	0.389000	0.894000	0.690000
C1261	C126	0.994000	0.270000	0.260000
C1271	C127	0.008000	0.508000	0.238000
C1281	C128	0.927000	0.232000	0.220000
C1291	C129	0.901000	0.502000	0.186000
C1301	C130	0.667000	0.237000	0.305000
C1311	C131	0.158000	0.776000	0.342000
C1321	C132	0.669000	0.289000	0.977000
C1331	C133	0.898000	0.304000	0.208000
C1341	C134	0.180000	0.175000	0.363000
C1351	C135	0.688000	0.207000	0.573000
C1361	C136	0.675000	0.159000	0.869000
C1371	C137	0.625000	0.266000	0.914000
C1381	C138	0.624000	0.130000	0.800000
C1391	C139	0.268000	0.785000	0.581000
C1401	C140	0.762000	0.246000	0.696000
C1411	C141	0.691000	0.213000	0.633000
C1421	C142	0.899000	0.172000	0.198000
C1431	C143	0.763000	0.241000	0.585000
C1441	C144	0.943000	0.141000	0.219000
C1451	C145	0.305000	0.292000	0.614000
C1461	C146	0.396000	0.275000	0.711000
C1471	C147	0.298000	0.262000	0.230000
C1481	C148	0.418000	0.249000	0.225000
C1491	C149	0.920000	0.934000	0.222000
C1501	C150	0.920000	0.802000	0.222000
C1511	C151	0.321000	0.176000	0.526000
C1521	C152	0.364000	0.166000	0.574000
C1531	C153	0.389000	0.196300	0.633700
C1541	C154	0.371000	0.238000	0.646000
C1551	C155	0.328000	0.249000	0.597000
C1561	C156	0.303000	0.217000	0.537000
C1571	C157	0.372000	0.157000	0.323000
C1581	C158	0.402000	0.185000	0.291000
C1591	C159	0.381000	0.221000	0.263000
C1601	C160	0.330000	0.230000	0.266000
C1611	C161	0.301000	0.201000	0.297000
C1621	C162	0.321000	0.165000	0.325000
C1631	C163	0.111000	0.925000	0.319000
C1641	C164	0.044000	0.870000	0.284000
C1651	C165	0.982000	0.871000	0.257000
C1661	C166	0.987000	0.927000	0.265000
C1671	C167	0.054000	0.982000	0.300000
C1681	C168	0.116000	0.981000	0.327000
C1691	C169	0.533000	0.128000	0.706000
C1701	C170	0.309000	0.897000	0.319000
C1711	C171	0.364000	0.946000	0.320000
C1721	C172	0.398000	0.936000	0.294000
C1731	C173	0.377000	0.876000	0.266000
C1741	C174	0.322000	0.827000	0.265000
C1751	C175	0.288000	0.836600	0.291400
C1761	C176	0.119000	0.704000	0.312000
C1771	C177	0.157000	0.676000	0.324000
C1781	C178	0.122000	0.612000	0.300000
C1791	C179	0.047000	0.575000	0.265000
C1801	C180	0.008000	0.603000	0.253000
C1811	C181	0.044000	0.667000	0.277000
C1821	C182	0.130000	0.202000	0.334000
C1831	C183	0.057000	0.163000	0.289000
C1841	C184	0.015000	0.187000	0.265000
C1851	C185	0.046000	0.250000	0.288000
C1861	C186	0.119000	0.289000	0.333000
C1871	C187	0.161000	0.265000	0.357000
C1881	C188	0.520000	0.125000	0.333000
C1891	C189	0.297000	0.908300	0.511700
C1901	C190	0.268000	0.851000	0.517000
C1911	C191	0.296000	0.846100	0.573900
C1921	C192	0.353000	0.898000	0.626000
C1931	C193	0.383000	0.956000	0.622000
C1941	C194	0.354000	0.961200	0.564800
N191	N19	0.343000	0.107000	0.377000
N201	N20	0.334000	0.984000	0.370000
N211	N21	0.291000	0.922000	0.350000
N221	N22	0.177000	0.933000	0.353000
N231	N23	0.217000	0.995000	0.375000
N241	N24	0.332000	0.994000	0.492000
N251	N25	0.377000	0.016000	0.554000
N261	N26	0.379000	0.133000	0.555000
N271	N27	0.338000	0.110000	0.492000
N281	N28	0.494000	0.122000	0.552000
N291	N29	0.456000	0.101000	0.491000
N301	N30	0.379000	0.001000	0.353000
N311	N31	0.301000	0.139000	0.475000
N321	N32	0.304000	0.134000	0.362000
N331	N33	0.381000	0.117000	0.351000
N341	N34	0.494000	0.117000	0.465000
N351	N35	0.184000	0.028000	0.360000
N361	N36	0.284000	0.940000	0.470000
O131	O13	0.909000	0.411000	0.177000
O141	O14	0.755000	0.294000	0.068000
O151	O15	0.794000	0.302000	0.236000
O161	O16	0.542000	0.160000	0.376000
O171	O17	0.222000	0.800000	0.372000
O181	O18	0.124000	0.799000	0.329000
O191	O19	0.159000	0.129000	0.343000
O201	O20	0.250000	0.226000	0.400000
O211	O21	0.877000	0.245000	0.191000
O221	O22	0.464000	0.077000	0.295000
O231	O23	0.537000	0.090000	0.676000
O241	O24	0.486000	0.142000	0.684000
