data_FAYQUT_freeONLY_PM
_symmetry_space_group_name_H-M	'P1'
_cell_length_a	24.423800
_cell_length_b	27.124200
_cell_length_c	30.942300
_cell_angle_alpha	115.306000
_cell_angle_beta	113.245000
_cell_angle_gamma	90.000000
_symmetry_Int_Tables_number 1

loop_
_symmetry_equiv_pos_as_xyz
'x,y,z'

loop_
_atom_site_label
_atom_site_type_symbol
_atom_site_fract_x
_atom_site_fract_y
_atom_site_fract_z
Zn11	Zn1	0.852800	0.930900	0.551400
Zn21	Zn2	0.812100	0.998200	0.469400
Zn31	Zn3	0.011200	0.977100	0.637200
Zn41	Zn4	0.823100	0.783500	0.471600
Zn51	Zn5	0.763800	0.964000	0.627200
H11	H1	0.683700	0.853500	0.616200
H21	H2	0.658000	0.758300	0.588800
H31	H3	0.678500	0.688200	0.526800
H41	H4	0.743300	0.708500	0.496400
H51	H5	0.091500	0.066900	0.622000
H61	H6	0.102000	0.130300	0.589600
H71	H7	0.023800	0.133800	0.521600
H81	H8	0.923800	0.088500	0.485800
H91	H9	0.729900	0.098300	0.498200
H101	H10	0.670900	0.144700	0.537200
H111	H11	0.647500	0.130100	0.591200
H121	H12	0.682800	0.068200	0.619600
H131	H13	0.103700	0.881600	0.623600
H141	H14	0.946800	0.718500	0.485800
H151	H15	0.055300	0.720600	0.515000
H161	H16	0.126800	0.798900	0.585400
H171	H17	0.751100	0.736600	0.336800
H181	H18	0.721700	0.747200	0.261200
H191	H19	0.724800	0.824700	0.259000
H201	H20	0.744000	0.912200	0.336600
H211	H21	0.853700	0.030900	0.758600
H221	H22	0.936600	0.082900	0.840200
H231	H23	0.033900	0.090000	0.845400
H241	H24	0.048400	0.045100	0.769200
H251	H25	0.724200	0.101000	0.757400
H261	H26	0.677200	0.127000	0.816800
H271	H27	0.714900	0.990500	0.832600
H281	H28	0.718000	0.956100	0.748600
H291	H29	0.697500	0.174600	0.908800
H301	H30	0.671600	0.205500	0.979400
H311	H31	0.633400	0.047700	0.951400
H321	H32	0.659300	0.016800	0.881000
H331	H33	0.654400	0.219200	0.032200
H341	H34	0.687000	0.179900	0.054600
H351	H35	0.167400	0.984800	0.788400
H361	H36	0.264400	0.024300	0.862400
H371	H37	0.293800	0.125200	0.803800
H381	H38	0.195800	0.094300	0.744200
H391	H39	0.364300	0.025600	0.890400
H401	H40	0.461200	0.055000	0.959800
H411	H41	0.466700	0.208200	0.970800
H421	H42	0.369800	0.178800	0.901400
H431	H43	0.533600	0.186500	0.065000
H441	H44	0.537600	0.207400	0.026400
H451	H45	0.599900	0.136200	0.081200
H461	H46	0.668300	0.164800	0.115600
H471	H47	0.789300	0.629400	0.325600
H481	H48	0.713000	0.542800	0.256600
H491	H49	0.767800	0.495900	0.366600
H501	H50	0.797800	0.591800	0.429400
H511	H51	0.796300	0.445200	0.250600
H521	H52	0.765500	0.352600	0.186000
H531	H53	0.603700	0.347400	0.190800
H541	H54	0.634400	0.440000	0.255200
H551	H55	0.595900	0.284600	0.103000
H561	H56	0.602400	0.259100	0.141600
H571	H57	0.783200	0.145300	0.428200
H581	H58	0.746200	0.182200	0.368200
H591	H59	0.713300	0.027700	0.250000
H601	H60	0.736300	0.994700	0.316800
H611	H61	0.642300	0.163600	0.282200
H621	H62	0.599800	0.183900	0.211800
H631	H63	0.724900	0.120300	0.161800
H641	H64	0.767400	0.100000	0.232400
C11	C1	0.752000	0.793000	0.536000
C21	C2	0.737000	0.835000	0.570000
C31	C3	0.696000	0.826000	0.594000
C41	C4	0.680000	0.769000	0.574000
C51	C5	0.695000	0.725000	0.538000
C61	C6	0.732000	0.737000	0.520000
C71	C7	0.951000	0.047000	0.532000
C81	C8	0.996000	0.041000	0.572000
C91	C9	0.059000	0.071000	0.596000
C101	C10	0.065000	0.108000	0.576000
C111	C11	0.015000	0.111000	0.534000
C121	C12	0.956000	0.084000	0.512000
C131	C13	0.742000	0.051000	0.538000
C141	C14	0.721000	0.091000	0.522000
C151	C15	0.687000	0.117000	0.546000
C161	C16	0.673000	0.109000	0.578000
C171	C17	0.693000	0.073000	0.596000
C181	C18	0.733000	0.040000	0.574000
C191	C19	0.074000	0.851000	0.596000
C201	C20	0.007000	0.855000	0.572000
C211	C21	0.961000	0.804000	0.532000
C221	C22	0.976000	0.751000	0.510000
C231	C23	0.042000	0.753000	0.530000
C241	C24	0.086000	0.802000	0.572000
C251	C25	0.774000	0.871000	0.384000
C261	C26	0.777000	0.824000	0.384000
C271	C27	0.754000	0.771000	0.338000
C281	C28	0.736000	0.779000	0.294000
C291	C29	0.735000	0.826000	0.292000
C301	C30	0.750000	0.879000	0.338000
C311	C31	0.960000	0.011000	0.718000
C321	C32	0.901000	0.007000	0.714000
C331	C33	0.892000	0.034000	0.760000
C341	C34	0.943000	0.065000	0.810000
C351	C35	0.000000	0.069000	0.812000
C361	C36	0.010000	0.042000	0.768000
C371	C37	0.742000	0.995000	0.698000
C381	C38	0.728000	0.024000	0.746000
C391	C39	0.717000	0.076000	0.768000
C401	C40	0.694000	0.095000	0.810000
C411	C41	0.698000	0.068000	0.840000
C421	C42	0.711000	0.014000	0.816000
C431	C43	0.719000	0.994000	0.766000
C441	C44	0.685000	0.149000	0.918000
C451	C45	0.669000	0.168000	0.960000
C461	C46	0.650000	0.130000	0.972000
C471	C47	0.646000	0.073000	0.942000
C481	C48	0.661000	0.055000	0.900000
C491	C49	0.681000	0.093000	0.888000
C501	C50	0.647000	0.188000	0.038000
C511	C51	0.109000	0.003000	0.706000
C521	C52	0.176000	0.032000	0.754000
C531	C53	0.194000	0.013000	0.792000
C541	C54	0.252000	0.036000	0.836000
C551	C55	0.291000	0.080000	0.840000
C561	C56	0.269000	0.098000	0.802000
C571	C57	0.211000	0.076000	0.764000
C581	C58	0.357000	0.099000	0.888000
C591	C59	0.385000	0.062000	0.906000
C601	C60	0.443000	0.080000	0.948000
C611	C61	0.473000	0.135000	0.972000
C621	C62	0.446000	0.172000	0.954000
C631	C63	0.389000	0.154000	0.914000
C641	C64	0.553000	0.183000	0.042000
C651	C65	0.621000	0.206000	0.078000
C661	C66	0.627000	0.172000	0.106000
C671	C67	0.800000	0.682000	0.420000
C681	C68	0.779000	0.620000	0.380000
C691	C69	0.773000	0.610000	0.334000
C701	C70	0.738000	0.550000	0.292000
C711	C71	0.741000	0.509000	0.302000
C721	C72	0.764000	0.523000	0.356000
C731	C73	0.783000	0.582000	0.394000
C741	C74	0.719000	0.452000	0.260000
C751	C75	0.757000	0.426000	0.238000
C761	C76	0.739000	0.370000	0.200000
C771	C77	0.682000	0.341000	0.182000
C781	C78	0.642000	0.367000	0.202000
C791	C79	0.661000	0.422000	0.242000
C801	C80	0.620000	0.264000	0.120000
C811	C81	0.786000	0.047000	0.418000
C821	C82	0.766000	0.072000	0.380000
C831	C83	0.767000	0.121000	0.392000
C841	C84	0.746000	0.144000	0.356000
C851	C85	0.724000	0.108000	0.302000
C861	C86	0.724000	0.052000	0.286000
C871	C87	0.741000	0.033000	0.326000
C881	C88	0.709000	0.130000	0.264000
C891	C89	0.659000	0.155000	0.258000
C901	C90	0.633000	0.167000	0.216000
C911	C91	0.658000	0.154000	0.180000
C921	C92	0.708000	0.129000	0.186000
C931	C93	0.734000	0.117000	0.228000
N11	N1	0.975000	0.007000	0.584000
N21	N2	0.916000	0.991000	0.552000
N31	N3	0.899000	0.015000	0.520000
N41	N4	0.776000	0.015000	0.522000
N51	N5	0.789000	0.986000	0.550000
N61	N6	0.801000	0.832000	0.436000
N71	N7	0.812000	0.887000	0.464000
N81	N8	0.797000	0.917000	0.436000
N91	N9	0.787000	0.814000	0.524000
N101	N10	0.793000	0.867000	0.550000
N111	N11	0.950000	0.991000	0.666000
N121	N12	0.893000	0.976000	0.640000
N131	N13	0.858000	0.986000	0.662000
N141	N14	0.920000	0.877000	0.554000
N151	N15	0.981000	0.897000	0.586000
N161	N16	0.762000	0.883000	0.580000
N171	N17	0.910000	0.823000	0.522000
N181	N18	0.760000	0.001000	0.580000
O11	O1	0.095000	0.029000	0.684000
O21	O2	0.088000	0.964000	0.702000
O31	O3	0.792000	0.713000	0.412000
O41	O4	0.827000	0.693000	0.466000
O51	O5	0.806000	0.080000	0.462000
O61	O6	0.782000	0.005000	0.406000
O71	O7	0.747000	0.035000	0.686000
O81	O8	0.753000	0.949000	0.690000
O91	O9	0.533000	0.134000	0.004000
O101	O10	0.620000	0.189000	0.150000
O111	O11	0.628000	0.135000	0.008000
O121	O12	0.666000	0.285000	0.144000
Zn61	Zn6	0.301400	0.569100	0.448600
Zn71	Zn7	0.342700	0.501800	0.530600
Zn81	Zn8	0.374000	0.522900	0.362800
Zn91	Zn9	0.351500	0.716500	0.528400
Zn101	Zn10	0.136600	0.536000	0.372800
H651	H65	0.067500	0.646500	0.383800
H661	H66	0.069200	0.741700	0.411200
H671	H67	0.151700	0.811800	0.473200
H681	H68	0.246900	0.791500	0.503600
H691	H69	0.469500	0.433100	0.378000
H701	H70	0.512400	0.369700	0.410400
H711	H71	0.502200	0.366200	0.478400
H721	H72	0.438000	0.411500	0.514200
H731	H73	0.231700	0.401700	0.501800
H741	H74	0.133700	0.355300	0.462800
H751	H75	0.056300	0.369900	0.408800
H761	H76	0.063200	0.431800	0.380400
H771	H77	0.480100	0.618400	0.376400
H781	H78	0.461000	0.781500	0.514200
H791	H79	0.540300	0.779400	0.485000
H801	H80	0.541400	0.701100	0.414600
H811	H81	0.414300	0.763400	0.663200
H821	H82	0.460500	0.752800	0.738800
H831	H83	0.465800	0.675300	0.741000
H841	H84	0.407400	0.587800	0.663400
H851	H85	0.095100	0.469100	0.241400
H861	H86	0.096400	0.417100	0.159800
H871	H87	0.188500	0.410000	0.154600
H881	H88	0.279200	0.454900	0.230800
H891	H89	0.966800	0.399000	0.242600
H901	H90	0.860400	0.373000	0.183200
H911	H91	0.882300	0.509500	0.167400
H921	H92	0.969400	0.543900	0.251400
H931	H93	0.788700	0.325400	0.091200
H941	H94	0.692200	0.294500	0.020600
H951	H95	0.682000	0.452300	0.048600
H961	H96	0.778300	0.483200	0.119000
H971	H97	0.622200	0.280800	0.967800
H981	H98	0.632400	0.320100	0.945400
H991	H99	0.379000	0.515200	0.211600
H1001	H100	0.402000	0.475700	0.137600
H1011	H101	0.490000	0.374800	0.196200
H1021	H102	0.451600	0.405700	0.255800
H1031	H103	0.473900	0.474400	0.109600
H1041	H104	0.501400	0.445000	0.040200
H1051	H105	0.495900	0.291800	0.029200
H1061	H106	0.468400	0.321200	0.098600
H1071	H107	0.468600	0.313500	0.935000
H1081	H108	0.511200	0.292600	0.973600
H1091	H109	0.518700	0.363800	0.918800
H1101	H110	0.552700	0.335200	0.884400
H1111	H111	0.463700	0.870600	0.674400
H1121	H112	0.456400	0.957200	0.743400
H1131	H113	0.401200	0.004100	0.633400
H1141	H114	0.368400	0.908200	0.570600
H1151	H115	0.545700	0.054800	0.749400
H1161	H116	0.579500	0.147400	0.814000
H1171	H117	0.412900	0.152600	0.809200
H1181	H118	0.379200	0.060000	0.744800
H1191	H119	0.492900	0.215400	0.897000
H1201	H120	0.460800	0.240900	0.858400
H1211	H121	0.355000	0.354700	0.571800
H1221	H122	0.378000	0.317800	0.631800
H1231	H123	0.463300	0.472300	0.750000
H1241	H124	0.419500	0.505300	0.683200
H1251	H125	0.360100	0.336400	0.717800
H1261	H126	0.388000	0.316100	0.788200
H1271	H127	0.563100	0.379700	0.838200
H1281	H128	0.535000	0.400000	0.767600
C941	C94	0.216000	0.707000	0.464000
C951	C95	0.167000	0.665000	0.430000
C961	C96	0.102000	0.674000	0.406000
C971	C97	0.106000	0.731000	0.426000
C981	C98	0.157000	0.775000	0.462000
C991	C99	0.212000	0.763000	0.480000
C1001	C100	0.419000	0.453000	0.468000
C1011	C101	0.424000	0.459000	0.428000
C1021	C102	0.463000	0.429000	0.404000
C1031	C103	0.489000	0.392000	0.424000
C1041	C104	0.481000	0.389000	0.466000
C1051	C105	0.444000	0.416000	0.488000
C1061	C106	0.204000	0.449000	0.462000
C1071	C107	0.199000	0.409000	0.478000
C1081	C108	0.141000	0.383000	0.454000
C1091	C109	0.095000	0.391000	0.422000
C1101	C110	0.097000	0.427000	0.404000
C1111	C111	0.159000	0.460000	0.426000
C1121	C112	0.478000	0.649000	0.404000
C1131	C113	0.435000	0.645000	0.428000
C1141	C114	0.429000	0.696000	0.468000
C1151	C115	0.466000	0.749000	0.490000
C1161	C116	0.512000	0.747000	0.470000
C1171	C117	0.514000	0.698000	0.428000
C1181	C118	0.390000	0.629000	0.616000
C1191	C119	0.393000	0.676000	0.616000
C1201	C120	0.416000	0.729000	0.662000
C1211	C121	0.442000	0.721000	0.706000
C1221	C122	0.443000	0.674000	0.708000
C1231	C123	0.412000	0.621000	0.662000
C1241	C124	0.242000	0.489000	0.282000
C1251	C125	0.187000	0.493000	0.286000
C1261	C126	0.132000	0.466000	0.240000
C1271	C127	0.133000	0.435000	0.190000
C1281	C128	0.188000	0.431000	0.188000
C1291	C129	0.242000	0.458000	0.232000
C1301	C130	0.044000	0.505000	0.302000
C1311	C131	0.982000	0.476000	0.254000
C1321	C132	0.949000	0.424000	0.232000
C1331	C133	0.884000	0.405000	0.190000
C1341	C134	0.858000	0.432000	0.160000
C1351	C135	0.895000	0.486000	0.184000
C1361	C136	0.953000	0.506000	0.234000
C1371	C137	0.767000	0.351000	0.082000
C1381	C138	0.709000	0.332000	0.040000
C1391	C139	0.678000	0.370000	0.028000
C1401	C140	0.704000	0.427000	0.058000
C1411	C141	0.761000	0.445000	0.100000
C1421	C142	0.793000	0.407000	0.112000
C1431	C143	0.609000	0.312000	0.962000
C1441	C144	0.403000	0.497000	0.294000
C1451	C145	0.422000	0.468000	0.246000
C1461	C146	0.402000	0.487000	0.208000
C1471	C147	0.416000	0.464000	0.164000
C1481	C148	0.451000	0.420000	0.160000
C1491	C149	0.467000	0.402000	0.198000
C1501	C150	0.447000	0.424000	0.236000
C1511	C151	0.469000	0.401000	0.112000
C1521	C152	0.479000	0.438000	0.094000
C1531	C153	0.495000	0.420000	0.052000
C1541	C154	0.501000	0.365000	0.028000
C1551	C155	0.492000	0.328000	0.046000
C1561	C156	0.475000	0.346000	0.086000
C1571	C157	0.511000	0.317000	0.958000
C1581	C158	0.543000	0.294000	0.922000
C1591	C159	0.521000	0.328000	0.894000
C1601	C160	0.380000	0.818000	0.580000
C1611	C161	0.399000	0.880000	0.620000
C1621	C162	0.439000	0.890000	0.666000
C1631	C163	0.446000	0.950000	0.708000
C1641	C164	0.439000	0.991000	0.698000
C1651	C165	0.408000	0.977000	0.644000
C1661	C166	0.389000	0.918000	0.606000
C1671	C167	0.459000	0.048000	0.740000
C1681	C168	0.519000	0.074000	0.762000
C1691	C169	0.539000	0.130000	0.800000
C1701	C170	0.500000	0.159000	0.818000
C1711	C171	0.440000	0.133000	0.798000
C1721	C172	0.419000	0.078000	0.758000
C1731	C173	0.500000	0.236000	0.880000
C1741	C174	0.368000	0.453000	0.582000
C1751	C175	0.386000	0.428000	0.620000
C1761	C176	0.375000	0.379000	0.608000
C1771	C177	0.390000	0.356000	0.644000
C1781	C178	0.422000	0.392000	0.698000
C1791	C179	0.438000	0.448000	0.714000
C1801	C180	0.415000	0.467000	0.674000
C1811	C181	0.445000	0.370000	0.736000
C1821	C182	0.401000	0.345000	0.742000
C1831	C183	0.417000	0.333000	0.784000
C1841	C184	0.478000	0.346000	0.820000
C1851	C185	0.522000	0.371000	0.814000
C1861	C186	0.506000	0.383000	0.772000
N191	N19	0.391000	0.493000	0.416000
N201	N20	0.364000	0.509000	0.448000
N211	N21	0.379000	0.485000	0.480000
N221	N22	0.254000	0.485000	0.478000
N231	N23	0.239000	0.514000	0.450000
N241	N24	0.365000	0.668000	0.564000
N251	N25	0.348000	0.613000	0.536000
N261	N26	0.361000	0.583000	0.564000
N271	N27	0.263000	0.686000	0.476000
N281	N28	0.243000	0.633000	0.450000
N291	N29	0.284000	0.509000	0.334000
N301	N30	0.253000	0.524000	0.360000
N311	N31	0.196000	0.514000	0.338000
N321	N32	0.366000	0.623000	0.446000
N331	N33	0.395000	0.603000	0.414000
N341	N34	0.182000	0.617000	0.420000
N351	N35	0.388000	0.677000	0.478000
N361	N36	0.180000	0.499000	0.420000
O131	O13	0.411000	0.471000	0.316000
O141	O14	0.386000	0.536000	0.298000
O151	O15	0.380000	0.787000	0.588000
O161	O16	0.361000	0.807000	0.534000
O171	O17	0.344000	0.420000	0.538000
O181	O18	0.376000	0.495000	0.594000
O191	O19	0.061000	0.465000	0.314000
O201	O20	0.063000	0.551000	0.310000
O211	O21	0.529000	0.366000	0.996000
O221	O22	0.470000	0.311000	0.850000
O231	O23	0.620000	0.365000	0.992000
O241	O24	0.522000	0.215000	0.856000
Zn111	Zn11	0.147200	0.069100	0.448600
Zn121	Zn12	0.187900	0.001800	0.530600
Zn131	Zn13	0.988800	0.022900	0.362800
Zn141	Zn14	0.176900	0.216500	0.528400
Zn151	Zn15	0.236200	0.036000	0.372800
H1291	H129	0.316300	0.146500	0.383800
H1301	H130	0.342000	0.241700	0.411200
H1311	H131	0.321500	0.311800	0.473200
H1321	H132	0.256700	0.291500	0.503600
H1331	H133	0.908500	0.933100	0.378000
H1341	H134	0.898000	0.869700	0.410400
H1351	H135	0.976200	0.866200	0.478400
H1361	H136	0.076200	0.911500	0.514200
H1371	H137	0.270100	0.901700	0.501800
H1381	H138	0.329100	0.855300	0.462800
H1391	H139	0.352500	0.869900	0.408800
H1401	H140	0.317200	0.931800	0.380400
H1411	H141	0.896300	0.118400	0.376400
H1421	H142	0.053200	0.281500	0.514200
H1431	H143	0.944700	0.279400	0.485000
H1441	H144	0.873200	0.201100	0.414600
H1451	H145	0.248900	0.263400	0.663200
H1461	H146	0.278300	0.252800	0.738800
H1471	H147	0.275200	0.175300	0.741000
H1481	H148	0.256000	0.087800	0.663400
H1491	H149	0.146300	0.969100	0.241400
H1501	H150	0.063400	0.917100	0.159800
H1511	H151	0.966100	0.910000	0.154600
H1521	H152	0.951600	0.954900	0.230800
H1531	H153	0.275800	0.899000	0.242600
H1541	H154	0.322800	0.873000	0.183200
H1551	H155	0.285100	0.009500	0.167400
H1561	H156	0.282000	0.043900	0.251400
H1571	H157	0.302500	0.825400	0.091200
H1581	H158	0.328400	0.794500	0.020600
H1591	H159	0.366600	0.952300	0.048600
H1601	H160	0.340700	0.983200	0.119000
H1611	H161	0.345600	0.780800	0.967800
H1621	H162	0.313000	0.820100	0.945400
H1631	H163	0.832600	0.015200	0.211600
H1641	H164	0.735600	0.975700	0.137600
H1651	H165	0.706200	0.874800	0.196200
H1661	H166	0.804200	0.905700	0.255800
H1671	H167	0.635700	0.974400	0.109600
H1681	H168	0.538800	0.945000	0.040200
H1691	H169	0.533300	0.791800	0.029200
H1701	H170	0.630200	0.821200	0.098600
H1711	H171	0.466400	0.813500	0.935000
H1721	H172	0.462400	0.792600	0.973600
H1731	H173	0.400100	0.863800	0.918800
H1741	H174	0.331700	0.835200	0.884400
H1751	H175	0.210700	0.370600	0.674400
H1761	H176	0.287000	0.457200	0.743400
H1771	H177	0.232200	0.504100	0.633400
H1781	H178	0.202200	0.408200	0.570600
H1791	H179	0.203700	0.554800	0.749400
H1801	H180	0.234500	0.647400	0.814000
H1811	H181	0.396300	0.652600	0.809200
H1821	H182	0.365600	0.560000	0.744800
H1831	H183	0.404100	0.715400	0.897000
H1841	H184	0.397600	0.740900	0.858400
H1851	H185	0.216800	0.854700	0.571800
H1861	H186	0.253800	0.817800	0.631800
H1871	H187	0.286700	0.972300	0.750000
H1881	H188	0.263700	0.005300	0.683200
H1891	H189	0.357700	0.836400	0.717800
H1901	H190	0.400200	0.816100	0.788200
H1911	H191	0.275100	0.879700	0.838200
H1921	H192	0.232600	0.900000	0.767600
C1871	C187	0.248000	0.207000	0.464000
C1881	C188	0.263000	0.165000	0.430000
C1891	C189	0.304000	0.174000	0.406000
C1901	C190	0.320000	0.231000	0.426000
C1911	C191	0.305000	0.275000	0.462000
C1921	C192	0.268000	0.263000	0.480000
C1931	C193	0.049000	0.953000	0.468000
C1941	C194	0.004000	0.959000	0.428000
C1951	C195	0.941000	0.929000	0.404000
C1961	C196	0.935000	0.892000	0.424000
C1971	C197	0.985000	0.889000	0.466000
C1981	C198	0.044000	0.916000	0.488000
C1991	C199	0.258000	0.949000	0.462000
C2001	C200	0.279000	0.909000	0.478000
C2011	C201	0.313000	0.883000	0.454000
C2021	C202	0.327000	0.891000	0.422000
C2031	C203	0.307000	0.927000	0.404000
C2041	C204	0.267000	0.960000	0.426000
C2051	C205	0.926000	0.149000	0.404000
C2061	C206	0.993000	0.145000	0.428000
C2071	C207	0.039000	0.196000	0.468000
C2081	C208	0.024000	0.249000	0.490000
C2091	C209	0.958000	0.247000	0.470000
C2101	C210	0.914000	0.198000	0.428000
C2111	C211	0.226000	0.129000	0.616000
C2121	C212	0.223000	0.176000	0.616000
C2131	C213	0.246000	0.229000	0.662000
C2141	C214	0.264000	0.221000	0.706000
C2151	C215	0.265000	0.174000	0.708000
C2161	C216	0.250000	0.121000	0.662000
C2171	C217	0.040000	0.989000	0.282000
C2181	C218	0.099000	0.993000	0.286000
C2191	C219	0.108000	0.966000	0.240000
C2201	C220	0.057000	0.935000	0.190000
C2211	C221	0.000000	0.931000	0.188000
C2221	C222	0.990000	0.958000	0.232000
C2231	C223	0.258000	0.005000	0.302000
C2241	C224	0.272000	0.976000	0.254000
C2251	C225	0.283000	0.924000	0.232000
C2261	C226	0.306000	0.905000	0.190000
C2271	C227	0.302000	0.932000	0.160000
C2281	C228	0.289000	0.986000	0.184000
C2291	C229	0.281000	0.006000	0.234000
C2301	C230	0.315000	0.851000	0.082000
C2311	C231	0.331000	0.832000	0.040000
C2321	C232	0.350000	0.870000	0.028000
C2331	C233	0.354000	0.927000	0.058000
C2341	C234	0.339000	0.945000	0.100000
C2351	C235	0.319000	0.907000	0.112000
C2361	C236	0.353000	0.812000	0.962000
C2371	C237	0.891000	0.997000	0.294000
C2381	C238	0.824000	0.968000	0.246000
C2391	C239	0.806000	0.987000	0.208000
C2401	C240	0.748000	0.964000	0.164000
C2411	C241	0.709000	0.920000	0.160000
C2421	C242	0.731000	0.902000	0.198000
C2431	C243	0.789000	0.924000	0.236000
C2441	C244	0.643000	0.901000	0.112000
C2451	C245	0.615000	0.938000	0.094000
C2461	C246	0.557000	0.920000	0.052000
C2471	C247	0.527000	0.865000	0.028000
C2481	C248	0.554000	0.828000	0.046000
C2491	C249	0.611000	0.846000	0.086000
C2501	C250	0.447000	0.817000	0.958000
C2511	C251	0.379000	0.794000	0.922000
C2521	C252	0.373000	0.828000	0.894000
C2531	C253	0.200000	0.318000	0.580000
C2541	C254	0.221000	0.380000	0.620000
C2551	C255	0.227000	0.390000	0.666000
C2561	C256	0.262000	0.450000	0.708000
C2571	C257	0.259000	0.491000	0.698000
C2581	C258	0.236000	0.477000	0.644000
C2591	C259	0.217000	0.418000	0.606000
C2601	C260	0.281000	0.548000	0.740000
C2611	C261	0.243000	0.574000	0.762000
C2621	C262	0.261000	0.630000	0.800000
C2631	C263	0.318000	0.659000	0.818000
C2641	C264	0.358000	0.633000	0.798000
C2651	C265	0.339000	0.578000	0.758000
C2661	C266	0.380000	0.736000	0.880000
C2671	C267	0.214000	0.953000	0.582000
C2681	C268	0.234000	0.928000	0.620000
C2691	C269	0.233000	0.879000	0.608000
C2701	C270	0.254000	0.856000	0.644000
C2711	C271	0.276000	0.892000	0.698000
C2721	C272	0.276000	0.948000	0.714000
C2731	C273	0.259000	0.967000	0.674000
C2741	C274	0.291000	0.870000	0.736000
C2751	C275	0.341000	0.845000	0.742000
C2761	C276	0.367000	0.833000	0.784000
C2771	C277	0.342000	0.846000	0.820000
C2781	C278	0.292000	0.871000	0.814000
C2791	C279	0.266000	0.883000	0.772000
N371	N37	0.025000	0.993000	0.416000
N381	N38	0.084000	0.009000	0.448000
N391	N39	0.101000	0.985000	0.480000
N401	N40	0.224000	0.985000	0.478000
N411	N41	0.211000	0.014000	0.450000
N421	N42	0.199000	0.168000	0.564000
N431	N43	0.188000	0.113000	0.536000
N441	N44	0.203000	0.083000	0.564000
N451	N45	0.213000	0.186000	0.476000
N461	N46	0.207000	0.133000	0.450000
N471	N47	0.050000	0.009000	0.334000
N481	N48	0.107000	0.024000	0.360000
N491	N49	0.142000	0.014000	0.338000
N501	N50	0.080000	0.123000	0.446000
N511	N51	0.019000	0.103000	0.414000
N521	N52	0.238000	0.117000	0.420000
N531	N53	0.090000	0.177000	0.478000
N541	N54	0.240000	0.999000	0.420000
O251	O25	0.905000	0.971000	0.316000
O261	O26	0.912000	0.036000	0.298000
O271	O27	0.208000	0.287000	0.588000
O281	O28	0.173000	0.307000	0.534000
O291	O29	0.194000	0.920000	0.538000
O301	O30	0.218000	0.995000	0.594000
O311	O31	0.253000	0.965000	0.314000
O321	O32	0.247000	0.051000	0.310000
O331	O33	0.467000	0.866000	0.996000
O341	O34	0.380000	0.811000	0.850000
O351	O35	0.372000	0.865000	0.992000
O361	O36	0.334000	0.715000	0.856000
Zn161	Zn16	0.698600	0.430900	0.551400
Zn171	Zn17	0.657300	0.498200	0.469400
Zn181	Zn18	0.626000	0.477100	0.637200
Zn191	Zn19	0.648500	0.283500	0.471600
Zn201	Zn20	0.863400	0.464000	0.627200
H1931	H193	0.932500	0.353500	0.616200
H1941	H194	0.930800	0.258300	0.588800
H1951	H195	0.848300	0.188200	0.526800
H1961	H196	0.753100	0.208500	0.496400
H1971	H197	0.530500	0.566900	0.622000
H1981	H198	0.487600	0.630300	0.589600
H1991	H199	0.497800	0.633800	0.521600
H2001	H200	0.562000	0.588500	0.485800
H2011	H201	0.768300	0.598300	0.498200
H2021	H202	0.866300	0.644700	0.537200
H2031	H203	0.943700	0.630100	0.591200
H2041	H204	0.936800	0.568200	0.619600
H2051	H205	0.519900	0.381600	0.623600
H2061	H206	0.539000	0.218500	0.485800
H2071	H207	0.459700	0.220600	0.515000
H2081	H208	0.458600	0.298900	0.585400
H2091	H209	0.585700	0.236600	0.336800
H2101	H210	0.539500	0.247200	0.261200
H2111	H211	0.534200	0.324700	0.259000
H2121	H212	0.592600	0.412200	0.336600
H2131	H213	0.904900	0.530900	0.758600
H2141	H214	0.903600	0.582900	0.840200
H2151	H215	0.811500	0.590000	0.845400
H2161	H216	0.720800	0.545100	0.769200
H2171	H217	0.033200	0.601000	0.757400
H2181	H218	0.139600	0.627000	0.816800
H2191	H219	0.117700	0.490500	0.832600
H2201	H220	0.030600	0.456100	0.748600
H2211	H221	0.211300	0.674600	0.908800
H2221	H222	0.307800	0.705500	0.979400
H2231	H223	0.318000	0.547700	0.951400
H2241	H224	0.221700	0.516800	0.881000
H2251	H225	0.377800	0.719200	0.032200
H2261	H226	0.367600	0.679900	0.054600
H2271	H227	0.621000	0.484800	0.788400
H2281	H228	0.598000	0.524300	0.862400
H2291	H229	0.510000	0.625200	0.803800
H2301	H230	0.548400	0.594300	0.744200
H2311	H231	0.526100	0.525600	0.890400
H2321	H232	0.498600	0.555000	0.959800
H2331	H233	0.504100	0.708200	0.970800
H2341	H234	0.531600	0.678800	0.901400
H2351	H235	0.531400	0.686500	0.065000
H2361	H236	0.488800	0.707400	0.026400
H2371	H237	0.481300	0.636200	0.081200
H2381	H238	0.447300	0.664800	0.115600
H2391	H239	0.536300	0.129400	0.325600
H2401	H240	0.543600	0.042800	0.256600
H2411	H241	0.598800	0.995900	0.366600
H2421	H242	0.631600	0.091800	0.429400
H2431	H243	0.454300	0.945200	0.250600
H2441	H244	0.420500	0.852600	0.186000
H2451	H245	0.587100	0.847400	0.190800
H2461	H246	0.620800	0.940000	0.255200
H2471	H247	0.507100	0.784600	0.103000
H2481	H248	0.539200	0.759100	0.141600
H2491	H249	0.645000	0.645300	0.428200
H2501	H250	0.622000	0.682200	0.368200
H2511	H251	0.536700	0.527700	0.250000
H2521	H252	0.580500	0.494700	0.316800
H2531	H253	0.639900	0.663600	0.282200
H2541	H254	0.612000	0.683900	0.211800
H2551	H255	0.436900	0.620300	0.161800
H2561	H256	0.465000	0.600000	0.232400
C2801	C280	0.784000	0.293000	0.536000
C2811	C281	0.833000	0.335000	0.570000
C2821	C282	0.898000	0.326000	0.594000
C2831	C283	0.894000	0.269000	0.574000
C2841	C284	0.843000	0.225000	0.538000
C2851	C285	0.788000	0.237000	0.520000
C2861	C286	0.581000	0.547000	0.532000
C2871	C287	0.576000	0.541000	0.572000
C2881	C288	0.537000	0.571000	0.596000
C2891	C289	0.511000	0.608000	0.576000
C2901	C290	0.519000	0.611000	0.534000
C2911	C291	0.556000	0.584000	0.512000
C2921	C292	0.796000	0.551000	0.538000
C2931	C293	0.801000	0.591000	0.522000
C2941	C294	0.859000	0.617000	0.546000
C2951	C295	0.905000	0.609000	0.578000
C2961	C296	0.903000	0.573000	0.596000
C2971	C297	0.841000	0.540000	0.574000
C2981	C298	0.522000	0.351000	0.596000
C2991	C299	0.565000	0.355000	0.572000
C3001	C300	0.571000	0.304000	0.532000
C3011	C301	0.534000	0.251000	0.510000
C3021	C302	0.488000	0.253000	0.530000
C3031	C303	0.486000	0.302000	0.572000
C3041	C304	0.610000	0.371000	0.384000
C3051	C305	0.607000	0.324000	0.384000
C3061	C306	0.584000	0.271000	0.338000
C3071	C307	0.558000	0.279000	0.294000
C3081	C308	0.557000	0.326000	0.292000
C3091	C309	0.588000	0.379000	0.338000
C3101	C310	0.758000	0.511000	0.718000
C3111	C311	0.813000	0.507000	0.714000
C3121	C312	0.868000	0.534000	0.760000
C3131	C313	0.867000	0.565000	0.810000
C3141	C314	0.812000	0.569000	0.812000
C3151	C315	0.758000	0.542000	0.768000
C3161	C316	0.956000	0.495000	0.698000
C3171	C317	0.018000	0.524000	0.746000
C3181	C318	0.051000	0.576000	0.768000
C3191	C319	0.116000	0.595000	0.810000
C3201	C320	0.142000	0.568000	0.840000
C3211	C321	0.105000	0.514000	0.816000
C3221	C322	0.047000	0.494000	0.766000
C3231	C323	0.233000	0.649000	0.918000
C3241	C324	0.291000	0.668000	0.960000
C3251	C325	0.322000	0.630000	0.972000
C3261	C326	0.296000	0.573000	0.942000
C3271	C327	0.239000	0.555000	0.900000
C3281	C328	0.207000	0.593000	0.888000
C3291	C329	0.391000	0.688000	0.038000
C3301	C330	0.597000	0.503000	0.706000
C3311	C331	0.578000	0.532000	0.754000
C3321	C332	0.598000	0.513000	0.792000
C3331	C333	0.584000	0.536000	0.836000
C3341	C334	0.549000	0.580000	0.840000
C3351	C335	0.533000	0.598000	0.802000
C3361	C336	0.553000	0.576000	0.764000
C3371	C337	0.531000	0.599000	0.888000
C3381	C338	0.521000	0.562000	0.906000
C3391	C339	0.505000	0.580000	0.948000
C3401	C340	0.499000	0.635000	0.972000
C3411	C341	0.508000	0.672000	0.954000
C3421	C342	0.525000	0.654000	0.914000
C3431	C343	0.489000	0.683000	0.042000
C3441	C344	0.457000	0.706000	0.078000
C3451	C345	0.479000	0.672000	0.106000
C3461	C346	0.620000	0.182000	0.420000
C3471	C347	0.601000	0.120000	0.380000
C3481	C348	0.561000	0.110000	0.334000
C3491	C349	0.554000	0.050000	0.292000
C3501	C350	0.561000	0.009000	0.302000
C3511	C351	0.592000	0.023000	0.356000
C3521	C352	0.611000	0.082000	0.394000
C3531	C353	0.541000	0.952000	0.260000
C3541	C354	0.481000	0.926000	0.238000
C3551	C355	0.461000	0.870000	0.200000
C3561	C356	0.500000	0.841000	0.182000
C3571	C357	0.560000	0.867000	0.202000
C3581	C358	0.581000	0.922000	0.242000
C3591	C359	0.500000	0.764000	0.120000
C3601	C360	0.632000	0.547000	0.418000
C3611	C361	0.614000	0.572000	0.380000
C3621	C362	0.625000	0.621000	0.392000
C3631	C363	0.610000	0.644000	0.356000
C3641	C364	0.578000	0.608000	0.302000
C3651	C365	0.562000	0.552000	0.286000
C3661	C366	0.585000	0.533000	0.326000
C3671	C367	0.555000	0.630000	0.264000
C3681	C368	0.599000	0.655000	0.258000
C3691	C369	0.583000	0.667000	0.216000
C3701	C370	0.522000	0.654000	0.180000
C3711	C371	0.478000	0.629000	0.186000
C3721	C372	0.494000	0.617000	0.228000
N551	N55	0.609000	0.507000	0.584000
N561	N56	0.636000	0.491000	0.552000
N571	N57	0.621000	0.515000	0.520000
N581	N58	0.746000	0.515000	0.522000
N591	N59	0.761000	0.486000	0.550000
N601	N60	0.635000	0.332000	0.436000
N611	N61	0.652000	0.387000	0.464000
N621	N62	0.639000	0.417000	0.436000
N631	N63	0.737000	0.314000	0.524000
N641	N64	0.757000	0.367000	0.550000
N651	N65	0.716000	0.491000	0.666000
N661	N66	0.747000	0.476000	0.640000
N671	N67	0.804000	0.486000	0.662000
N681	N68	0.634000	0.377000	0.554000
N691	N69	0.605000	0.397000	0.586000
N701	N70	0.818000	0.383000	0.580000
N711	N71	0.612000	0.323000	0.522000
N721	N72	0.820000	0.501000	0.580000
O371	O37	0.589000	0.529000	0.684000
O381	O38	0.614000	0.464000	0.702000
O391	O39	0.620000	0.213000	0.412000
O401	O40	0.639000	0.193000	0.466000
O411	O41	0.656000	0.580000	0.462000
O421	O42	0.624000	0.505000	0.406000
O431	O43	0.939000	0.535000	0.686000
O441	O44	0.937000	0.449000	0.690000
O451	O45	0.471000	0.634000	0.004000
O461	O46	0.530000	0.689000	0.150000
O471	O47	0.380000	0.635000	0.008000
O481	O48	0.478000	0.785000	0.144000
