data_FAZFET_freeONLY_PM
_symmetry_space_group_name_H-M	'P1'
_cell_length_a	27.960800
_cell_length_b	27.960800
_cell_length_c	27.960800
_cell_angle_alpha	66.345300
_cell_angle_beta	78.606100
_cell_angle_gamma	113.655000
_symmetry_Int_Tables_number 1

loop_
_symmetry_equiv_pos_as_xyz
'x,y,z'

loop_
_atom_site_label
_atom_site_type_symbol
_atom_site_fract_x
_atom_site_fract_y
_atom_site_fract_z
V11	V1	0.352300	0.605190	0.345070
V21	V2	0.349350	0.698540	0.243050
V31	V3	0.426710	0.829130	0.158520
V41	V4	0.525480	0.929950	0.152930
V51	V5	0.600390	0.938300	0.206790
V61	V6	0.599880	0.847280	0.312680
V71	V7	0.529490	0.706470	0.394460
V81	V8	0.425570	0.608780	0.413830
V91	V9	0.454990	0.702720	0.189670
V101	V10	0.574800	0.749230	0.177990
V111	V11	0.575850	0.866920	0.116850
V121	V12	0.502660	0.640940	0.302600
V131	V13	0.374550	0.830770	0.262000
V141	V14	0.376960	0.788520	0.380680
V151	V15	0.450990	0.744570	0.426680
V161	V16	0.493340	0.895390	0.302650
V171	V17	0.049740	0.394810	0.252890
V181	V18	0.058410	0.301460	0.349190
V191	V19	0.012350	0.170870	0.402420
V201	V20	0.917120	0.070050	0.404470
V211	V21	0.854910	0.061700	0.337910
V221	V22	0.840040	0.152720	0.247400
V231	V23	0.899070	0.293530	0.176980
V241	V24	0.977390	0.391220	0.183210
V251	V25	0.107610	0.297280	0.247730
V261	V26	0.072780	0.250770	0.174430
V271	V27	0.016230	0.133080	0.291070
V281	V28	0.056460	0.359060	0.138280
V291	V29	0.907230	0.169230	0.456220
V301	V30	0.830800	0.211480	0.411560
V311	V31	0.828750	0.255430	0.293580
V321	V32	0.801960	0.104610	0.402050
V331	V33	0.997110	0.197370	0.897700
V341	V34	0.900810	0.092400	0.900650
V351	V35	0.847580	0.085230	0.823290
V361	V36	0.845530	0.178410	0.724520
V371	V37	0.912090	0.307180	0.649610
V381	V38	0.002600	0.412560	0.650120
V391	V39	0.073020	0.423950	0.720510
V401	V40	0.066790	0.339400	0.824430
V411	V41	0.002270	0.144660	0.795010
V421	V42	0.075570	0.252790	0.675200
V431	V43	0.958930	0.192700	0.674150
V441	V44	0.111720	0.305260	0.747340
V451	V45	0.793780	0.136550	0.875450
V461	V46	0.838440	0.257640	0.873040
V471	V47	0.956420	0.377670	0.799010
V481	V48	0.847950	0.295990	0.756660
V491	V49	0.904930	0.802630	0.200260
V501	V50	0.006950	0.907600	0.191590
V511	V51	0.091480	0.914770	0.237650
V521	V52	0.097070	0.821590	0.332880
V531	V53	0.043210	0.692820	0.395090
V541	V54	0.937320	0.587440	0.409960
V551	V55	0.855540	0.576050	0.350930
V561	V56	0.836170	0.660600	0.272610
V571	V57	0.060330	0.855340	0.142390
V581	V58	0.072010	0.747210	0.177220
V591	V59	0.133150	0.807300	0.233770
V601	V60	0.947400	0.694740	0.193540
V611	V61	0.988000	0.863450	0.342770
V621	V62	0.869320	0.742360	0.419200
V631	V63	0.823320	0.622330	0.421250
V641	V64	0.947350	0.704010	0.448040
V651	V65	0.549740	0.302630	0.845070
V661	V66	0.558410	0.407600	0.743050
V671	V67	0.512350	0.414770	0.658520
V681	V68	0.417120	0.321590	0.652930
V691	V69	0.354910	0.192820	0.706790
V701	V70	0.340040	0.087440	0.812680
V711	V71	0.399070	0.076050	0.894460
V721	V72	0.477390	0.160600	0.913830
V731	V73	0.607610	0.355340	0.689670
V741	V74	0.572780	0.247210	0.677990
V751	V75	0.516230	0.307300	0.616850
V761	V76	0.556460	0.194740	0.802600
V771	V77	0.407230	0.363450	0.762000
V781	V78	0.330800	0.242360	0.880680
V791	V79	0.328750	0.122330	0.926680
V801	V80	0.301960	0.204010	0.802650
V811	V81	0.852300	0.697370	0.752890
V821	V82	0.849350	0.592400	0.849190
V831	V83	0.926710	0.585230	0.902420
V841	V84	0.025480	0.678410	0.904470
V851	V85	0.100390	0.807180	0.837910
V861	V86	0.099880	0.912560	0.747400
V871	V87	0.029490	0.923950	0.676980
V881	V88	0.925570	0.839400	0.683210
V891	V89	0.954990	0.644660	0.747730
V901	V90	0.074800	0.752790	0.674430
V911	V91	0.075850	0.692700	0.791070
V921	V92	0.002660	0.805260	0.638280
V931	V93	0.874550	0.636550	0.956220
V941	V94	0.876960	0.757640	0.911560
V951	V95	0.950990	0.877670	0.793580
V961	V96	0.993340	0.795990	0.902050
V971	V97	0.404930	0.105190	0.397700
V981	V98	0.506950	0.198540	0.400650
V991	V99	0.591480	0.329130	0.323290
V1001	V100	0.597070	0.429950	0.224520
V1011	V101	0.543210	0.438300	0.149610
V1021	V102	0.437320	0.347280	0.150120
V1031	V103	0.355540	0.206470	0.220510
V1041	V104	0.336170	0.108780	0.324430
V1051	V105	0.560330	0.202720	0.295010
V1061	V106	0.572010	0.249230	0.175200
V1071	V107	0.633150	0.366920	0.174150
V1081	V108	0.447400	0.140940	0.247340
V1091	V109	0.488000	0.330770	0.375450
V1101	V110	0.369320	0.288520	0.373040
V1111	V111	0.323320	0.244570	0.299010
V1121	V112	0.447350	0.395390	0.256660
V1131	V113	0.497110	0.894810	0.700260
V1141	V114	0.400810	0.801460	0.691590
V1151	V115	0.347580	0.670870	0.737650
V1161	V116	0.345530	0.570050	0.832880
V1171	V117	0.412090	0.561700	0.895090
V1181	V118	0.502600	0.652720	0.909960
V1191	V119	0.573020	0.793530	0.850930
V1201	V120	0.566790	0.891220	0.772610
V1211	V121	0.502270	0.797280	0.642390
V1221	V122	0.575570	0.750770	0.677220
V1231	V123	0.458930	0.633080	0.733770
V1241	V124	0.611720	0.859060	0.693540
V1251	V125	0.293780	0.669230	0.842770
V1261	V126	0.338440	0.711480	0.919200
V1271	V127	0.456420	0.755430	0.921250
V1281	V128	0.347950	0.604610	0.948040
Co11	Co1	0.205810	0.662390	0.279640
Co21	Co2	0.733790	0.043860	0.096610
Co31	Co3	0.447680	0.708990	0.064310
Co41	Co4	0.449910	0.938000	0.021870
Co51	Co5	0.057970	0.337610	0.456580
Co61	Co6	0.859530	0.956140	0.310070
Co71	Co7	0.226700	0.291010	0.261310
Co81	Co8	0.040130	0.062000	0.488090
Co91	Co9	0.793420	0.985450	0.044190
Co101	Co10	0.939930	0.330400	0.516210
Co111	Co11	0.988690	0.011990	0.802320
Co121	Co12	0.761910	0.971780	0.800090
Co131	Co13	0.970360	0.014550	0.192030
Co141	Co14	0.153390	0.669600	0.390470
Co151	Co15	0.185690	0.988010	0.023300
Co161	Co16	0.228130	0.028220	0.209870
Co171	Co17	0.557970	0.514550	0.779640
Co181	Co18	0.359530	0.169600	0.596610
Co191	Co19	0.726700	0.488010	0.564310
Co201	Co20	0.540130	0.528220	0.521870
Co211	Co21	0.705810	0.485450	0.956580
Co221	Co22	0.233790	0.830400	0.810070
Co231	Co23	0.947680	0.511990	0.761310
Co241	Co24	0.949910	0.471780	0.988090
Co251	Co25	0.470360	0.162390	0.544190
Co261	Co26	0.653390	0.543860	0.016210
Co271	Co27	0.685690	0.208990	0.302320
Co281	Co28	0.728130	0.438000	0.300090
Co291	Co29	0.293420	0.837610	0.692030
Co301	Co30	0.439930	0.456140	0.890470
Co311	Co31	0.488690	0.791010	0.523300
Co321	Co32	0.261910	0.562000	0.709870
Ge11	Ge1	0.281380	0.679550	0.362710
Ge21	Ge2	0.321840	0.633220	0.453280
Ge31	Ge3	0.669770	0.881260	0.172670
Ge41	Ge4	0.633200	0.757650	0.271990
Ge51	Ge5	0.957740	0.320450	0.398170
Ge61	Ge6	0.913500	0.366780	0.311380
Ge71	Ge7	0.946070	0.118740	0.211490
Ge81	Ge8	0.970360	0.242350	0.124450
Ge91	Ge9	0.851830	0.144090	0.968620
Ge101	Ge10	0.938620	0.275120	0.928160
Ge111	Ge11	0.038510	0.342440	0.580230
Ge121	Ge12	0.125550	0.405190	0.616800
Ge131	Ge13	0.887290	0.855910	0.292260
Ge141	Ge14	0.796720	0.724880	0.336500
Ge151	Ge15	0.077330	0.657560	0.303930
Ge161	Ge16	0.978010	0.594810	0.279640
Ge171	Ge17	0.457740	0.355910	0.862710
Ge181	Ge18	0.413500	0.224880	0.953280
Ge191	Ge19	0.446070	0.157560	0.672670
Ge201	Ge20	0.470360	0.094810	0.771990
Ge211	Ge21	0.781380	0.644090	0.898170
Ge221	Ge22	0.821840	0.775120	0.811380
Ge231	Ge23	0.169770	0.842440	0.711490
Ge241	Ge24	0.133200	0.905190	0.624450
Ge251	Ge25	0.387290	0.179550	0.468620
Ge261	Ge26	0.296720	0.133220	0.428160
Ge271	Ge27	0.577330	0.381260	0.080230
Ge281	Ge28	0.478010	0.257650	0.116800
Ge291	Ge29	0.351830	0.820450	0.792260
Ge301	Ge30	0.438620	0.866780	0.836500
Ge311	Ge31	0.538510	0.618740	0.803930
Ge321	Ge32	0.625550	0.742350	0.779640
H11	H1	0.233300	0.774600	0.225500
H21	H2	0.287200	0.776200	0.216200
H31	H3	0.210300	0.646700	0.193800
H41	H4	0.151500	0.630000	0.222100
H51	H5	0.195200	0.565400	0.350400
H61	H6	0.140700	0.548600	0.347100
H71	H7	0.697900	0.041300	0.019400
H81	H8	0.647400	0.014700	0.070900
H91	H9	0.741500	0.138900	0.102000
H101	H10	0.777400	0.164300	0.041900
H111	H11	0.816200	0.075100	0.128100
H121	H12	0.769700	0.072500	0.165000
H131	H13	0.386700	0.734300	0.117200
H141	H14	0.404100	0.774100	0.055800
H151	H15	0.369800	0.631500	0.052900
H161	H16	0.371700	0.595500	0.106600
H171	H17	0.530000	0.824700	0.009300
H181	H18	0.528900	0.795300	0.066400
H191	H19	0.489300	0.642800	0.063100
H201	H20	0.509900	0.690000	0.002900
H211	H21	0.477200	0.010000	0.911600
H221	H22	0.498500	0.051300	0.932200
H231	H23	0.541100	0.949600	0.033700
H241	H24	0.534900	0.925600	0.996100
H251	H25	0.358600	0.934800	0.018400
H261	H26	0.341500	0.884800	0.075700
H271	H27	0.486000	0.993800	0.073400
H281	H28	0.480500	0.035700	0.026200
H291	H29	0.391100	0.857900	0.999000
H301	H30	0.443200	0.892100	0.951700
H311	H31	0.293100	0.768700	0.144600
H321	H32	0.266500	0.809700	0.137600
H331	H33	0.171100	0.722800	0.175300
H341	H34	0.210500	0.720500	0.128600
H351	H35	0.226300	0.555000	0.282100
H361	H36	0.167200	0.537000	0.278200
H371	H37	0.649000	0.096000	0.019400
H381	H38	0.716100	0.133100	0.983000
H391	H39	0.659400	0.106500	0.092500
H401	H40	0.702100	0.172400	0.036500
H411	H41	0.769100	0.969600	0.184700
H421	H42	0.726400	0.972900	0.226900
H431	H43	0.332800	0.706500	0.052900
H441	H44	0.303800	0.693700	0.114500
H451	H45	0.317300	0.612500	0.157800
H461	H46	0.287400	0.600700	0.118300
H471	H47	0.607100	0.807900	0.019400
H481	H48	0.587700	0.805700	0.971000
H491	H49	0.589500	0.718700	0.015000
H501	H50	0.556600	0.702900	0.076900
H511	H51	0.579400	0.072900	0.878100
H521	H52	0.552300	0.005000	0.892300
H531	H53	0.611400	0.017400	0.937000
H541	H54	0.584700	0.045400	0.964100
H551	H55	0.325600	0.939900	0.103100
H561	H56	0.370100	0.000400	0.042300
H571	H57	0.412900	0.012100	0.101000
H581	H58	0.395800	0.942900	0.133300
H591	H59	0.999900	0.225400	0.541300
H601	H60	0.007600	0.223800	0.489000
H611	H61	0.159500	0.353300	0.436400
H621	H62	0.147900	0.370000	0.478500
H631	H63	0.084200	0.434600	0.370200
H641	H64	0.104300	0.451400	0.407900
H651	H65	0.939300	0.958700	0.343400
H661	H66	0.914400	0.985300	0.367300
H671	H67	0.759100	0.861100	0.397400
H681	H68	0.793800	0.835700	0.386900
H691	H69	0.796800	0.924900	0.258900
H701	H70	0.762500	0.927500	0.302800
H711	H71	0.148500	0.265700	0.347600
H721	H72	0.170100	0.225900	0.370000
H731	H73	0.315600	0.368500	0.261700
H741	H74	0.297900	0.404500	0.223800
H751	H75	0.166000	0.175300	0.294700
H761	H76	0.138300	0.204700	0.266400
H771	H77	0.294100	0.357200	0.153500
H781	H78	0.307100	0.310000	0.180100
H791	H79	0.078400	0.990000	0.532800
H801	H80	0.016500	0.948700	0.552800
H811	H81	0.016700	0.050400	0.408500
H821	H82	0.078300	0.074400	0.390700
H831	H83	0.046800	0.065200	0.576200
H841	H84	0.039500	0.115200	0.543300
H851	H85	0.932800	0.006200	0.507800
H861	H86	0.938100	0.964300	0.555200
H871	H87	0.143100	0.142100	0.466800
H881	H88	0.156200	0.107900	0.448900
H891	H89	0.086700	0.231300	0.475600
H901	H90	0.052700	0.190300	0.543200
H911	H91	0.101900	0.277200	0.551700
H921	H92	0.150900	0.279500	0.510000
H931	H93	0.162900	0.445000	0.328700
H941	H94	0.184800	0.463000	0.369800
H951	H95	0.884600	0.904000	0.447000
H961	H96	0.883900	0.866900	0.417000
H971	H97	0.801000	0.893500	0.447100
H981	H98	0.791100	0.827600	0.470300
H991	H99	0.845700	0.030400	0.200500
H1001	H100	0.800200	0.027100	0.246500
H1011	H101	0.240600	0.293500	0.373700
H1021	H102	0.191800	0.306300	0.389900
H1031	H103	0.229700	0.387500	0.295200
H1041	H104	0.281000	0.399300	0.313300
H1051	H105	0.172700	0.192100	0.200800
H1061	H106	0.223300	0.194300	0.218000
H1071	H107	0.266300	0.281300	0.129200
H1081	H108	0.220200	0.297100	0.146300
H1091	H109	0.049000	0.927100	0.493500
H1101	H110	0.102700	0.995000	0.452700
H1111	H111	0.045600	0.982600	0.406000
H1121	H112	0.990500	0.954600	0.460700
H1131	H113	0.957000	0.060100	0.614300
H1141	H114	0.957300	0.999600	0.630300
H1151	H115	0.886900	0.987900	0.599200
H1161	H116	0.923800	0.057100	0.547100
H1171	H117	0.708700	0.958800	0.016700
H1181	H118	0.761000	0.003400	0.962800
H1191	H119	0.813600	0.904100	0.039700
H1201	H120	0.771500	0.873600	0.098500
H1211	H121	0.879800	0.045600	0.054800
H1221	H122	0.842100	0.987800	0.109300
H1231	H123	0.906600	0.217300	0.552100
H1241	H124	0.882700	0.218300	0.602600
H1251	H125	0.852600	0.343500	0.508500
H1261	H126	0.863100	0.319300	0.472600
H1271	H127	0.991100	0.444300	0.433800
H1281	H128	0.947200	0.434700	0.480300
H1291	H129	0.902400	0.003900	0.863300
H1301	H130	0.880000	0.959900	0.845900
H1311	H131	0.988300	0.922700	0.880200
H1321	H132	0.026200	0.978300	0.878300
H1331	H133	0.955300	0.039300	0.720000
H1341	H134	0.983600	0.095300	0.721100
H1351	H135	0.096500	0.052400	0.760700
H1361	H136	0.069900	0.012800	0.740100
H1371	H137	0.717200	0.888800	0.772800
H1381	H138	0.697200	0.930700	0.751500
H1391	H139	0.841500	0.074800	0.708900
H1401	H140	0.859300	0.031000	0.715100
H1411	H141	0.673800	0.877000	0.891400
H1421	H142	0.706700	0.917200	0.908500
H1431	H143	0.742200	0.059400	0.764000
H1441	H144	0.694800	0.006700	0.769500
H1451	H145	0.783200	0.890100	0.858900
H1461	H146	0.801100	0.894900	0.806800
H1471	H147	0.774400	0.937700	0.956900
H1481	H148	0.706800	0.904100	0.983500
H1491	H149	0.698300	0.846400	0.078900
H1501	H150	0.740000	0.839100	0.039500
H1511	H151	0.921300	0.008400	0.023700
H1521	H152	0.880200	0.945400	0.082800
H1531	H153	0.803000	0.168400	0.601000
H1541	H154	0.833000	0.199100	0.533900
H1551	H155	0.802900	0.251900	0.590600
H1561	H156	0.779700	0.238600	0.547900
H1571	H157	0.049500	0.453800	0.480900
H1581	H158	0.003500	0.453300	0.523600
H1591	H159	0.876300	0.885700	0.917200
H1601	H160	0.860100	0.918300	0.946200
H1611	H161	0.954800	0.975100	0.932700
H1621	H162	0.936700	0.905700	0.962600
H1631	H163	0.049200	0.126500	0.642900
H1641	H164	0.032000	0.058700	0.662300
H1651	H165	0.120800	0.104500	0.660500
H1661	H166	0.103700	0.133500	0.693400
H1671	H167	0.756500	0.957500	0.670600
H1681	H168	0.797300	0.944600	0.697700
H1691	H169	0.844000	0.048400	0.638600
H1701	H170	0.789300	0.048800	0.665300
H1711	H171	0.635700	0.928700	0.924400
H1721	H172	0.619700	0.912400	0.879900
H1731	H173	0.650800	0.013900	0.837100
H1741	H174	0.702900	0.029100	0.854200
H1751	H175	0.024500	0.041200	0.250100
H1761	H176	0.033800	0.996600	0.242400
H1771	H177	0.056200	0.095900	0.090500
H1781	H178	0.027900	0.126400	0.102100
H1791	H179	0.899600	0.954400	0.165800
H1801	H180	0.902900	0.012200	0.145700
H1811	H181	0.230600	0.782700	0.310700
H1821	H182	0.179100	0.781700	0.335600
H1831	H183	0.148000	0.656500	0.490900
H1841	H184	0.208100	0.680700	0.456200
H1851	H185	0.121900	0.555700	0.453200
H1861	H186	0.085000	0.565300	0.487500
H1871	H187	0.132800	0.996100	0.101500
H1881	H188	0.194200	0.040100	0.079900
H1891	H189	0.197100	0.077300	0.934400
H1901	H190	0.143400	0.021700	0.952100
H1911	H191	0.240700	0.960700	0.084000
H1921	H192	0.183600	0.904700	0.111700
H1931	H193	0.186900	0.947600	0.955900
H1941	H194	0.247100	0.987200	0.942900
H1951	H195	0.338400	0.111200	0.171600
H1961	H196	0.317800	0.069300	0.233500
H1971	H197	0.216300	0.925200	0.233300
H1981	H198	0.253900	0.969000	0.171700
H1991	H199	0.231600	0.123000	0.203200
H2001	H200	0.174300	0.082800	0.210500
H2011	H201	0.176600	0.940600	0.317200
H2021	H202	0.223800	0.993300	0.311900
H2031	H203	0.251000	0.109900	0.106900
H2041	H204	0.298300	0.105100	0.093800
H2051	H205	0.105400	0.062300	0.163300
H2061	H206	0.112400	0.095900	0.197300
H2071	H207	0.074700	0.153600	0.148100
H2081	H208	0.121400	0.160900	0.099100
H2091	H209	0.967900	0.991600	0.087100
H2101	H210	0.971800	0.054600	0.065200
H2111	H211	0.230600	0.831600	0.365400
H2121	H212	0.267000	0.800900	0.366100
H2131	H213	0.157500	0.748100	0.449000
H2141	H214	0.213500	0.761400	0.458900
H2151	H215	0.065300	0.546200	0.404300
H2161	H216	0.023100	0.546700	0.449800
H2171	H217	0.197100	0.114300	0.009400
H2181	H218	0.135500	0.081700	0.058200
H2191	H219	0.092200	0.024900	0.020300
H2201	H220	0.131700	0.094300	0.969000
H2211	H221	0.230600	0.873500	0.077300
H2221	H222	0.279000	0.941300	0.026700
H2231	H223	0.235000	0.895500	0.983700
H2241	H224	0.173100	0.866500	0.029800
H2251	H225	0.371900	0.042500	0.201000
H2261	H226	0.357700	0.055400	0.147300
H2271	H227	0.313000	0.951600	0.204400
H2281	H228	0.285900	0.951200	0.259500
H2291	H229	0.146900	0.071300	0.293000
H2301	H230	0.207700	0.087600	0.292700
H2311	H231	0.149000	0.986100	0.363100
H2321	H232	0.116700	0.970900	0.326200
H2331	H233	0.499900	0.541200	0.725500
H2341	H234	0.507600	0.496600	0.716200
H2351	H235	0.659500	0.595900	0.693800
H2361	H236	0.647900	0.626400	0.722100
H2371	H237	0.584200	0.454400	0.850400
H2381	H238	0.604300	0.512200	0.847100
H2391	H239	0.439300	0.282700	0.519400
H2401	H240	0.414400	0.281700	0.570900
H2411	H241	0.259100	0.156500	0.602000
H2421	H242	0.293800	0.180700	0.541900
H2431	H243	0.296800	0.055700	0.628100
H2441	H244	0.262500	0.065300	0.665000
H2451	H245	0.648500	0.496100	0.617200
H2461	H246	0.670100	0.540100	0.555800
H2471	H247	0.815600	0.577300	0.552900
H2481	H248	0.797900	0.521700	0.606600
H2491	H249	0.666000	0.460700	0.509300
H2501	H250	0.638300	0.404700	0.566400
H2511	H251	0.794100	0.447600	0.563100
H2521	H252	0.807100	0.487200	0.502900
H2531	H253	0.578400	0.611200	0.411600
H2541	H254	0.516500	0.569300	0.432200
H2551	H255	0.516700	0.425200	0.533700
H2561	H256	0.578300	0.469000	0.496100
H2571	H257	0.546800	0.623000	0.518400
H2581	H258	0.539500	0.582800	0.575700
H2591	H259	0.432800	0.440600	0.573400
H2601	H260	0.438100	0.493300	0.526200
H2611	H261	0.643100	0.609900	0.499000
H2621	H262	0.656200	0.605100	0.451700
H2631	H263	0.586700	0.562300	0.644600
H2641	H264	0.552700	0.595900	0.637600
H2651	H265	0.601900	0.653600	0.675300
H2661	H266	0.650900	0.660900	0.628600
H2671	H267	0.662900	0.491600	0.782100
H2681	H268	0.684800	0.554600	0.778200
H2691	H269	0.384600	0.331600	0.519400
H2701	H270	0.383900	0.300900	0.483000
H2711	H271	0.301000	0.248100	0.592500
H2721	H272	0.291100	0.261400	0.536500
H2731	H273	0.345700	0.046200	0.684700
H2741	H274	0.300200	0.046700	0.726900
H2751	H275	0.740600	0.614300	0.552900
H2761	H276	0.691800	0.581700	0.614500
H2771	H277	0.729700	0.524900	0.657800
H2781	H278	0.781000	0.594300	0.618300
H2791	H279	0.672700	0.373500	0.519400
H2801	H280	0.723300	0.441300	0.471000
H2811	H281	0.766300	0.395500	0.515000
H2821	H282	0.720200	0.366500	0.576900
H2831	H283	0.549000	0.542500	0.378100
H2841	H284	0.602700	0.555400	0.392300
H2851	H285	0.545600	0.451600	0.437000
H2861	H286	0.490500	0.451200	0.464100
H2871	H287	0.457000	0.571300	0.603100
H2881	H288	0.457300	0.587600	0.542300
H2891	H289	0.386900	0.486100	0.601000
H2901	H290	0.423800	0.470900	0.633300
H2911	H291	0.733300	0.458800	0.041300
H2921	H292	0.787200	0.503400	0.989000
H2931	H293	0.710300	0.404100	0.936400
H2941	H294	0.651500	0.373600	0.978500
H2951	H295	0.695200	0.545600	0.870200
H2961	H296	0.640700	0.487800	0.907900
H2971	H297	0.197900	0.717300	0.843400
H2981	H298	0.147400	0.718300	0.867300
H2991	H299	0.241500	0.843500	0.897400
H3001	H300	0.277400	0.819300	0.886900
H3011	H301	0.316200	0.944300	0.758900
H3021	H302	0.269700	0.934700	0.802800
H3031	H303	0.886700	0.503900	0.847600
H3041	H304	0.904100	0.459900	0.870000
H3051	H305	0.869800	0.422700	0.761700
H3061	H306	0.871700	0.478300	0.723800
H3071	H307	0.030000	0.539300	0.794700
H3081	H308	0.028900	0.595300	0.766400
H3091	H309	0.989300	0.552400	0.653500
H3101	H310	0.009900	0.512800	0.680100
H3111	H311	0.977200	0.388800	0.032800
H3121	H312	0.998500	0.430700	0.052800
H3131	H313	0.041100	0.574800	0.908500
H3141	H314	0.034900	0.531000	0.890700
H3151	H315	0.858600	0.377000	0.076200
H3161	H316	0.841500	0.417200	0.043300
H3171	H317	0.986000	0.559400	0.007800
H3181	H318	0.980500	0.506700	0.055200
H3191	H319	0.891100	0.390100	0.966800
H3201	H320	0.943200	0.394900	0.948900
H3211	H321	0.793100	0.437700	0.975600
H3221	H322	0.766500	0.404100	0.043200
H3231	H323	0.671100	0.346400	0.051700
H3241	H324	0.710500	0.339100	0.010000
H3251	H325	0.726300	0.508400	0.828700
H3261	H326	0.667200	0.445400	0.869800
H3271	H327	0.149000	0.668400	0.947000
H3281	H328	0.216100	0.699100	0.917000
H3291	H329	0.159400	0.751900	0.947100
H3301	H330	0.202100	0.738600	0.970300
H3311	H331	0.269100	0.953800	0.700500
H3321	H332	0.226400	0.953300	0.746500
H3331	H333	0.832800	0.385700	0.873700
H3341	H334	0.803800	0.418300	0.889900
H3351	H335	0.817300	0.475100	0.795200
H3361	H336	0.787400	0.405700	0.813300
H3371	H337	0.107100	0.626500	0.700800
H3381	H338	0.087700	0.558700	0.718000
H3391	H339	0.089500	0.604500	0.629200
H3401	H340	0.056600	0.633500	0.646300
H3411	H341	0.079400	0.457500	0.993500
H3421	H342	0.052300	0.444600	0.952700
H3431	H343	0.111400	0.548400	0.906000
H3441	H344	0.084700	0.548800	0.960700
H3451	H345	0.825600	0.428700	0.114300
H3461	H346	0.870100	0.412400	0.130300
H3471	H347	0.912900	0.513900	0.099200
H3481	H348	0.895800	0.529100	0.047100
H3491	H349	0.524500	0.274600	0.516700
H3501	H350	0.533800	0.276200	0.462800
H3511	H351	0.556200	0.146700	0.539700
H3521	H352	0.527900	0.130000	0.598500
H3531	H353	0.399600	0.065400	0.554800
H3541	H354	0.402900	0.048600	0.609300
H3551	H355	0.730600	0.541300	0.052100
H3561	H356	0.679100	0.514700	0.102600
H3571	H357	0.648000	0.638900	0.008500
H3581	H358	0.708100	0.664300	0.972600
H3591	H359	0.621900	0.575100	0.933800
H3601	H360	0.585000	0.572500	0.980300
H3611	H361	0.632800	0.234300	0.363300
H3621	H362	0.694200	0.274100	0.345900
H3631	H363	0.697100	0.131500	0.380200
H3641	H364	0.643400	0.095500	0.378300
H3651	H365	0.740700	0.324700	0.220000
H3661	H366	0.683600	0.295300	0.221100
H3671	H367	0.686900	0.142800	0.260700
H3681	H368	0.747100	0.190000	0.240100
H3691	H369	0.838400	0.510000	0.272800
H3701	H370	0.817800	0.551300	0.251500
H3711	H371	0.716300	0.449600	0.208900
H3721	H372	0.753900	0.425600	0.215100
H3731	H373	0.731600	0.434800	0.391400
H3741	H374	0.674300	0.384800	0.408500
H3751	H375	0.676600	0.493800	0.264000
H3761	H376	0.723800	0.535700	0.269500
H3771	H377	0.751000	0.357900	0.358900
H3781	H378	0.798300	0.392100	0.306800
H3791	H379	0.605400	0.268700	0.456900
H3801	H380	0.612400	0.309700	0.483500
H3811	H381	0.574700	0.222800	0.578900
H3821	H382	0.621400	0.220500	0.539500
H3831	H383	0.467900	0.055000	0.523700
H3841	H384	0.471800	0.037000	0.582800
H3851	H385	0.730600	0.596000	0.101000
H3861	H386	0.767000	0.633100	0.033900
H3871	H387	0.657500	0.606500	0.090600
H3881	H388	0.713500	0.672400	0.047900
H3891	H389	0.565300	0.469600	0.980900
H3901	H390	0.523100	0.472900	0.023600
H3911	H391	0.697100	0.206500	0.417200
H3921	H392	0.635500	0.193700	0.446200
H3931	H393	0.592200	0.112500	0.432700
H3941	H394	0.631700	0.100700	0.462600
H3951	H395	0.730600	0.307900	0.142900
H3961	H396	0.779000	0.305700	0.162300
H3971	H397	0.735000	0.218700	0.160500
H3981	H398	0.673100	0.202900	0.193400
H3991	H399	0.871900	0.572900	0.170600
H4001	H400	0.857700	0.505000	0.197700
H4011	H401	0.813000	0.517400	0.138600
H4021	H402	0.785900	0.545400	0.165300
H4031	H403	0.646900	0.439900	0.424400
H4041	H404	0.707700	0.500400	0.379900
H4051	H405	0.649000	0.512100	0.337100
H4061	H406	0.616700	0.442900	0.354200
H4071	H407	0.208700	0.725400	0.750100
H4081	H408	0.261000	0.723800	0.742400
H4091	H409	0.313600	0.853300	0.590500
H4101	H410	0.271500	0.870000	0.602100
H4111	H411	0.379800	0.934600	0.665800
H4121	H412	0.342100	0.951400	0.645700
H4131	H413	0.406600	0.458700	0.810700
H4141	H414	0.382700	0.485300	0.835600
H4151	H415	0.352600	0.361100	0.990900
H4161	H416	0.363100	0.335700	0.956200
H4171	H417	0.491100	0.424900	0.953200
H4181	H418	0.447200	0.427500	0.987500
H4191	H419	0.402400	0.765700	0.601500
H4201	H420	0.380000	0.725900	0.579900
H4211	H421	0.488300	0.868500	0.434400
H4221	H422	0.526200	0.904500	0.452100
H4231	H423	0.455300	0.675300	0.584000
H4241	H424	0.483600	0.704700	0.611700
H4251	H425	0.596500	0.857200	0.455900
H4261	H426	0.569900	0.810000	0.442900
H4271	H427	0.217200	0.490000	0.671600
H4281	H428	0.197200	0.448700	0.733500
H4291	H429	0.341500	0.550400	0.733300
H4301	H430	0.359300	0.574400	0.671700
H4311	H431	0.173800	0.565200	0.703200
H4321	H432	0.206700	0.615200	0.710500
H4331	H433	0.242200	0.506200	0.817200
H4341	H434	0.194800	0.464300	0.811900
H4351	H435	0.283200	0.642100	0.606900
H4361	H436	0.301100	0.607900	0.593800
H4371	H437	0.274400	0.731300	0.663300
H4381	H438	0.206800	0.690300	0.697300
H4391	H439	0.198300	0.777200	0.648100
H4401	H440	0.240000	0.779500	0.599100
H4411	H441	0.421300	0.945000	0.587100
H4421	H442	0.380200	0.963000	0.565200
H4431	H443	0.303000	0.404000	0.865400
H4441	H444	0.333000	0.366900	0.866100
H4451	H445	0.302900	0.393500	0.949000
H4461	H446	0.279700	0.327600	0.958900
H4471	H447	0.549500	0.530400	0.904300
H4481	H448	0.503500	0.527100	0.949800
H4491	H449	0.376300	0.793500	0.509400
H4501	H450	0.360100	0.806300	0.558200
H4511	H451	0.454800	0.887500	0.520300
H4521	H452	0.436700	0.899300	0.469000
H4531	H453	0.549200	0.692100	0.577300
H4541	H454	0.532000	0.694300	0.526700
H4551	H455	0.620800	0.781300	0.483700
H4561	H456	0.603700	0.797100	0.529800
H4571	H457	0.256500	0.427100	0.701000
H4581	H458	0.297300	0.495000	0.647300
H4591	H459	0.344000	0.482600	0.704400
H4601	H460	0.289300	0.454600	0.759500
H4611	H461	0.135700	0.560100	0.793000
H4621	H462	0.119700	0.499600	0.792700
H4631	H463	0.150800	0.487900	0.863100
H4641	H464	0.202900	0.557100	0.826200
C11	C1	0.259600	0.769100	0.161900
C21	C2	0.202900	0.717200	0.165500
C31	C3	0.185300	0.535300	0.304600
C41	C4	0.685200	0.104100	0.021900
C51	C5	0.694400	0.130900	0.057300
C61	C6	0.766000	0.995300	0.198700
C71	C7	0.333500	0.693200	0.090500
C81	C8	0.322400	0.628100	0.118100
C91	C9	0.575000	0.785900	0.012500
C101	C10	0.559600	0.719900	0.037900
C111	C11	0.553400	0.029800	0.908800
C121	C12	0.576100	0.015400	0.952900
C131	C13	0.364000	0.962600	0.072400
C141	C14	0.408400	0.978400	0.096000
C151	C15	0.069000	0.230900	0.509500
C161	C16	0.117300	0.282800	0.514300
C171	C17	0.160100	0.464700	0.350000
C181	C18	0.874000	0.895900	0.418900
C191	C19	0.811800	0.869100	0.436500
C201	C20	0.806000	0.004700	0.229300
C211	C21	0.216300	0.306800	0.359700
C221	C22	0.253800	0.371900	0.305700
C231	C23	0.201600	0.214100	0.210900
C241	C24	0.242200	0.280100	0.160300
C251	C25	0.061400	0.970200	0.476400
C261	C26	0.031700	0.984600	0.439300
C271	C27	0.965000	0.037400	0.598600
C281	C28	0.925600	0.021600	0.570000
C291	C29	0.740500	0.921500	0.990400
C301	C30	0.735700	0.868400	0.047100
C311	C31	0.900000	0.989900	0.064700
C321	C32	0.831100	0.207100	0.564800
C331	C33	0.813500	0.251700	0.555600
C341	C34	0.020700	0.464700	0.484000
C351	C35	0.890300	0.924000	0.916500
C361	C36	0.944300	0.940500	0.927600
C371	C37	0.039100	0.087500	0.675000
C381	C38	0.089700	0.097500	0.690400
C391	C39	0.773600	0.962200	0.696600
C401	C40	0.810700	0.029000	0.673900
C411	C41	0.651400	0.936400	0.886000
C421	C42	0.680000	0.004400	0.841600
C431	C43	0.088100	0.078500	0.181000
C441	C44	0.084500	0.131600	0.132700
C451	C45	0.945400	0.010100	0.089900
C461	C46	0.228100	0.792900	0.376000
C471	C47	0.192700	0.748300	0.438200
C481	C48	0.051300	0.535300	0.444000
C491	C49	0.159500	0.076000	0.033700
C501	C50	0.131900	0.059500	0.996200
C511	C51	0.237500	0.912500	0.048400
C521	C52	0.212100	0.902500	0.007800
C531	C53	0.341200	0.037800	0.188600
C541	C54	0.297100	0.971000	0.218300
C551	C55	0.177600	0.063600	0.285000
C561	C56	0.154000	0.995600	0.324400
C571	C57	0.569000	0.578500	0.661900
C581	C58	0.617300	0.631600	0.665500
C591	C59	0.660100	0.510100	0.804600
C601	C60	0.374000	0.292900	0.521900
C611	C61	0.311800	0.248300	0.557300
C621	C62	0.306000	0.035300	0.698700
C631	C63	0.716300	0.576000	0.590500
C641	C64	0.753800	0.559500	0.618100
C651	C65	0.701600	0.412500	0.512500
C661	C66	0.742200	0.402500	0.537900
C671	C67	0.561400	0.537800	0.408800
C681	C68	0.531700	0.471000	0.452900
C691	C69	0.465000	0.563600	0.572400
C701	C70	0.425600	0.495600	0.596000
C711	C71	0.759600	0.421500	0.009500
C721	C72	0.702900	0.368400	0.014300
C731	C73	0.685300	0.489900	0.850000
C741	C74	0.185200	0.707100	0.918900
C751	C75	0.194400	0.751700	0.936500
C761	C76	0.266000	0.964700	0.729300
C771	C77	0.833500	0.424000	0.859700
C781	C78	0.822400	0.440500	0.805700
C791	C79	0.075000	0.587500	0.710900
C801	C80	0.059600	0.597500	0.660300
C811	C81	0.053400	0.462200	0.976400
C821	C82	0.076100	0.529000	0.939300
C831	C83	0.864000	0.436400	0.098600
C841	C84	0.908400	0.504400	0.070000
C851	C85	0.588100	0.269100	0.490400
C861	C86	0.584500	0.217200	0.547100
C871	C87	0.445400	0.035300	0.564700
C881	C88	0.728100	0.604100	0.064800
C891	C89	0.692700	0.630900	0.055600
C901	C90	0.551300	0.495300	0.984000
C911	C91	0.659500	0.193200	0.416500
C921	C92	0.631900	0.128100	0.427600
C931	C93	0.737500	0.285900	0.175000
C941	C94	0.712100	0.219900	0.190400
C951	C95	0.841200	0.529800	0.196600
C961	C96	0.797100	0.515400	0.173900
C971	C97	0.677600	0.462600	0.386000
C981	C98	0.654000	0.478400	0.341600
C991	C99	0.240500	0.730900	0.681000
C1001	C100	0.235700	0.782800	0.632700
C1011	C101	0.400000	0.964700	0.589900
C1021	C102	0.331100	0.395900	0.876000
C1031	C103	0.313500	0.369100	0.938200
C1041	C104	0.520700	0.504700	0.944000
C1051	C105	0.390300	0.806800	0.533700
C1061	C106	0.444300	0.871900	0.496200
C1071	C107	0.539100	0.714100	0.548400
C1081	C108	0.589700	0.780100	0.507800
C1091	C109	0.273600	0.470200	0.688600
C1101	C110	0.310700	0.484600	0.718300
C1111	C111	0.151400	0.537400	0.785000
C1121	C112	0.180000	0.521600	0.824400
N11	N1	0.252300	0.757800	0.216300
N21	N2	0.189000	0.658400	0.209000
N31	N3	0.178900	0.569100	0.325400
N41	N4	0.684200	0.046500	0.047700
N51	N5	0.743400	0.133300	0.072300
N61	N6	0.778000	0.051700	0.150700
N71	N7	0.390300	0.735200	0.084100
N81	N8	0.371800	0.629700	0.085300
N91	N9	0.527400	0.791200	0.036400
N101	N10	0.504500	0.683300	0.038400
N111	N11	0.496100	0.018000	0.932700
N121	N12	0.533200	0.953800	0.003000
N131	N13	0.367700	0.925000	0.048700
N141	N14	0.462900	0.996300	0.055400
N151	N15	0.025900	0.242200	0.505500
N161	N16	0.132600	0.341600	0.469400
N171	N17	0.105500	0.430900	0.390200
N181	N18	0.905800	0.953500	0.362300
N191	N19	0.794400	0.866700	0.389900
N201	N20	0.797600	0.948300	0.273700
N211	N21	0.180700	0.264800	0.344900
N221	N22	0.285000	0.370300	0.257900
N231	N23	0.172400	0.208800	0.263800
N241	N24	0.278300	0.316700	0.178800
N251	N25	0.049300	0.982000	0.521900
N261	N26	0.043200	0.046200	0.420600
N271	N27	0.026300	0.075000	0.557300
N281	N28	0.948300	0.003700	0.533400
N291	N29	0.744500	0.968600	0.997700
N301	N30	0.780600	0.898000	0.061000
N311	N31	0.859800	0.004300	0.071100
N321	N32	0.887700	0.231900	0.565800
N331	N33	0.860100	0.315700	0.506600
N341	N34	0.976300	0.428700	0.472000
N351	N35	0.905100	0.974400	0.859700
N361	N36	0.992100	0.957100	0.878200
N371	N37	0.986200	0.063800	0.722600
N381	N38	0.071200	0.042900	0.745500
N391	N39	0.728100	0.928800	0.753900
N401	N40	0.829400	0.036200	0.716800
N411	N41	0.692700	0.916400	0.882300
N421	N42	0.716600	0.018300	0.787100
N431	N43	0.033700	0.031400	0.224100
N441	N44	0.041000	0.102000	0.117400
N451	N45	0.924600	0.995700	0.144500
N461	N46	0.202300	0.768100	0.344200
N471	N47	0.177700	0.684300	0.455600
N481	N48	0.099300	0.571300	0.452400
N491	N49	0.165900	0.025600	0.069300
N501	N50	0.164700	0.042900	0.965000
N511	N51	0.213600	0.936200	0.077600
N521	N52	0.211600	0.957100	0.971700
N531	N53	0.317300	0.071200	0.200700
N541	N54	0.247000	0.963800	0.206800
N551	N55	0.201300	0.083600	0.223700
N561	N56	0.194600	0.981700	0.301700
N571	N57	0.525900	0.531400	0.716300
N581	N58	0.632600	0.602000	0.709000
N591	N59	0.605500	0.495700	0.825400
N601	N60	0.405800	0.268100	0.547700
N611	N61	0.294400	0.184300	0.572300
N621	N62	0.297600	0.071300	0.650700
N631	N63	0.680700	0.525600	0.584100
N641	N64	0.785000	0.542900	0.585300
N651	N65	0.672400	0.436200	0.536400
N661	N66	0.778300	0.457100	0.538400
N671	N67	0.549300	0.571200	0.432700
N681	N68	0.543200	0.463800	0.503000
N691	N69	0.526300	0.583600	0.548700
N701	N70	0.448300	0.481700	0.555400
N711	N71	0.752300	0.468600	0.005500
N721	N72	0.689000	0.398000	0.969400
N731	N73	0.678900	0.504300	0.890200
N741	N74	0.184200	0.731900	0.862300
N751	N75	0.243400	0.815700	0.889900
N761	N76	0.278000	0.928700	0.773700
N771	N77	0.890300	0.474400	0.844900
N781	N78	0.871800	0.457100	0.757900
N791	N79	0.027400	0.563800	0.763800
N801	N80	0.004500	0.542900	0.678800
N811	N81	0.996100	0.428800	0.021900
N821	N82	0.033200	0.536200	0.920600
N831	N83	0.867700	0.416400	0.057300
N841	N84	0.962900	0.518300	0.033400
N851	N85	0.533700	0.257800	0.497700
N861	N86	0.541000	0.158400	0.561000
N871	N87	0.424600	0.069100	0.571100
N881	N88	0.702300	0.546500	0.065800
N891	N89	0.677700	0.633300	0.006600
N901	N90	0.599300	0.551700	0.972000
N911	N91	0.665900	0.235200	0.359700
N921	N92	0.664700	0.129700	0.378200
N931	N93	0.713600	0.291200	0.222600
N941	N94	0.711600	0.183300	0.245500
N951	N95	0.817300	0.518000	0.253900
N961	N96	0.747000	0.453800	0.216800
N971	N97	0.701300	0.425000	0.382300
N981	N98	0.694600	0.496300	0.287100
N991	N99	0.244500	0.742200	0.724100
N1001	N100	0.280600	0.841600	0.617400
N1011	N101	0.359800	0.930900	0.644500
N1021	N102	0.387700	0.453500	0.844200
N1031	N103	0.360100	0.366700	0.955600
N1041	N104	0.476300	0.448300	0.952400
N1051	N105	0.405100	0.764800	0.569300
N1061	N106	0.492100	0.870300	0.465000
N1071	N107	0.486200	0.708800	0.577600
N1081	N108	0.571200	0.816700	0.471700
N1091	N109	0.228100	0.482000	0.700700
N1101	N110	0.329400	0.546200	0.706800
N1111	N111	0.192700	0.575000	0.723700
N1121	N112	0.216600	0.503700	0.801700
O11	O1	0.320800	0.659000	0.327800
O21	O2	0.385600	0.651300	0.262100
O31	O3	0.353600	0.608500	0.416100
O41	O4	0.422100	0.607700	0.345000
O51	O5	0.301400	0.536100	0.370100
O61	O6	0.360100	0.774600	0.234500
O71	O7	0.420900	0.752900	0.174800
O81	O8	0.294100	0.668200	0.229700
O91	O9	0.442300	0.883100	0.188600
O101	O10	0.508400	0.872400	0.126200
O111	O11	0.410000	0.854200	0.105800
O121	O12	0.529000	0.935600	0.219200
O131	O13	0.589700	0.917600	0.151100
O141	O14	0.547900	0.997800	0.099900
O151	O15	0.565200	0.895800	0.290200
O161	O16	0.630400	0.883700	0.228700
O171	O17	0.656200	0.009000	0.173600
O181	O18	0.530600	0.779700	0.382500
O191	O19	0.601100	0.772300	0.320000
O201	O20	0.648800	0.881200	0.329400
O211	O21	0.447100	0.670700	0.433000
O221	O22	0.507000	0.651300	0.366300
O231	O23	0.554000	0.683900	0.441500
O241	O24	0.406300	0.542400	0.466700
O251	O25	0.498400	0.676900	0.230900
O261	O26	0.531000	0.779100	0.145300
O271	O27	0.445000	0.671900	0.151300
O281	O28	0.582300	0.718700	0.251800
O291	O29	0.621100	0.837500	0.154200
O301	O30	0.609700	0.735800	0.137700
O311	O31	0.614000	0.906800	0.048600
O321	O32	0.507200	0.582000	0.311400
O331	O33	0.329200	0.754700	0.344500
O341	O34	0.418400	0.856600	0.301600
O351	O35	0.334900	0.859500	0.254000
O361	O36	0.370000	0.708800	0.431200
O371	O37	0.453900	0.817500	0.377000
O381	O38	0.341000	0.802800	0.420000
O391	O39	0.447500	0.742300	0.485800
O401	O40	0.262800	0.631300	0.437900
O411	O41	0.222000	0.668000	0.350200
O421	O42	0.295000	0.585400	0.528800
O431	O43	0.690000	0.829100	0.209500
O441	O44	0.724600	0.953700	0.118300
O451	O45	0.662500	0.715300	0.301800
O461	O46	0.427400	0.878300	0.987500
O471	O47	0.501900	0.946200	0.321300
O481	O48	0.013200	0.341000	0.338200
O491	O49	0.086600	0.348700	0.265700
O501	O50	0.975400	0.391500	0.254900
O511	O51	0.047300	0.392300	0.185600
O521	O52	0.093800	0.463900	0.234700
O531	O53	0.990900	0.225400	0.414500
O541	O54	0.072300	0.247100	0.332000
O551	O55	0.102100	0.331800	0.374100
O561	O56	0.928300	0.116900	0.440800
O571	O57	0.001400	0.127600	0.364000
O581	O58	0.040000	0.145800	0.444200
O591	O59	0.845200	0.064400	0.406600
O601	O60	0.931300	0.082400	0.327900
O611	O61	0.902300	0.002200	0.449900
O621	O62	0.814000	0.104200	0.330600
O631	O63	0.887600	0.116300	0.253300
O641	O64	0.817400	0.991000	0.352800
O651	O65	0.837800	0.220300	0.249100
O661	O66	0.907700	0.227700	0.171200
O671	O67	0.789400	0.118800	0.232400
O681	O68	0.896300	0.329300	0.223600
O691	O69	0.982400	0.348700	0.144300
O701	O70	0.874600	0.316100	0.129900
O711	O71	0.990900	0.457600	0.136100
O721	O72	0.092200	0.323100	0.178500
O731	O73	0.075600	0.220900	0.248100
O741	O74	0.176800	0.328100	0.226900
O751	O75	0.029500	0.281300	0.136400
O761	O76	0.008300	0.162500	0.216400
O771	O77	0.126500	0.264200	0.126100
O781	O78	0.044600	0.093200	0.292800
O791	O79	0.106600	0.418000	0.074800
O801	O80	0.900800	0.245300	0.425500
O811	O81	0.841800	0.143400	0.438200
O821	O82	0.886500	0.140500	0.524600
O831	O83	0.860000	0.291200	0.338800
O841	O84	0.805500	0.182500	0.363600
O851	O85	0.777200	0.197200	0.461800
O861	O86	0.771900	0.257700	0.294800
O871	O87	0.930800	0.368700	0.368500
O881	O88	0.981800	0.332000	0.446000
O891	O89	0.885800	0.414600	0.290400
O901	O90	0.961400	0.170900	0.139100
O911	O91	0.928000	0.046300	0.229100
O921	O92	0.982900	0.284700	0.052800
O931	O93	0.134200	0.121700	0.450900
O941	O94	0.732500	0.053800	0.444300
O951	O95	0.911800	0.148600	0.929200
O961	O96	0.984300	0.147700	0.864400
O971	O97	0.995100	0.269700	0.896400
O981	O98	0.064400	0.267100	0.827900
O991	O99	0.015300	0.171500	0.948600
O1001	O100	0.835500	0.094600	0.889900
O1011	O101	0.918000	0.095700	0.829100
O1021	O102	0.875900	0.023800	0.955900
O1031	O103	0.809200	0.130900	0.807700
O1041	O104	0.886000	0.134600	0.741600
O1051	O105	0.805800	0.015800	0.840000
O1061	O106	0.843400	0.248200	0.721000
O1071	O107	0.922100	0.240800	0.660300
O1081	O108	0.800100	0.147800	0.702100
O1091	O109	0.919400	0.355400	0.684800
O1101	O110	0.996700	0.359100	0.619600
O1111	O111	0.897200	0.329800	0.593800
O1121	O112	0.000900	0.413100	0.719400
O1131	O113	0.078800	0.421100	0.648900
O1141	O114	0.017600	0.478200	0.601200
O1151	O115	0.026400	0.380100	0.802900
O1161	O116	0.105700	0.373300	0.743000
O1171	O117	0.120100	0.495500	0.696000
O1181	O118	0.113900	0.373000	0.843700
O1191	O119	0.071500	0.229300	0.751600
O1201	O120	0.001900	0.176300	0.719000
O1211	O121	0.023100	0.096300	0.805000
O1221	O122	0.113600	0.334100	0.667700
O1231	O123	0.033600	0.275300	0.628900
O1241	O124	0.123900	0.247400	0.640300
O1251	O125	0.957200	0.162600	0.636000
O1261	O126	0.175200	0.318600	0.742800
O1271	O127	0.824500	0.173700	0.920800
O1281	O128	0.811800	0.220000	0.831600
O1291	O129	0.725400	0.088900	0.915100
O1301	O130	0.911200	0.301200	0.880000
O1311	O131	0.886400	0.330900	0.796100
O1321	O132	0.788200	0.261000	0.909000
O1331	O133	0.955200	0.433300	0.802500
O1341	O134	0.881500	0.200700	0.987200
O1351	O135	0.804000	0.072200	0.028000
O1361	O136	0.959600	0.323800	0.955000
O1371	O137	0.110900	0.399500	0.560000
O1381	O138	0.020900	0.342900	0.525400
O1391	O139	0.197200	0.464300	0.587500
O1401	O140	0.799100	0.914900	0.822600
O1411	O141	0.805700	0.323200	0.748100
O1421	O142	0.922200	0.851400	0.236800
O1431	O143	0.987900	0.852300	0.163400
O1441	O144	0.833900	0.730300	0.274600
O1451	O145	0.905000	0.732900	0.202700
O1461	O146	0.879900	0.828500	0.156200
O1471	O147	0.015500	0.905400	0.259100
O1481	O148	0.075200	0.904300	0.177700
O1491	O149	0.020300	0.976200	0.147900
O1501	O150	0.061400	0.869100	0.321700
O1511	O151	0.123800	0.865400	0.248600
O1521	O152	0.144200	0.984200	0.210000
O1531	O153	0.030800	0.751800	0.404800
O1541	O154	0.098900	0.759200	0.318700
O1551	O155	0.150100	0.852200	0.347700
O1561	O156	0.959800	0.644600	0.436000
O1571	O157	0.021300	0.640900	0.362400
O1581	O158	0.076400	0.670200	0.432600
O1591	O159	0.867500	0.586900	0.412200
O1601	O160	0.930000	0.578900	0.342300
O1611	O161	0.920600	0.521800	0.460600
O1621	O162	0.817000	0.619900	0.353700
O1631	O163	0.883700	0.626700	0.267600
O1641	O164	0.808500	0.504500	0.375400
O1651	O165	0.783300	0.627000	0.259100
O1661	O166	0.019100	0.770700	0.157800
O1671	O167	0.104700	0.823700	0.174400
O1681	O168	0.098700	0.903700	0.073200
O1691	O169	0.998200	0.665900	0.220500
O1701	O170	0.095800	0.724700	0.241700
O1711	O171	0.112300	0.752600	0.123500
O1721	O172	0.201400	0.837400	0.205400
O1731	O173	0.938600	0.681400	0.143400
O1741	O174	0.905500	0.826300	0.349200
O1751	O175	0.948400	0.780000	0.408200
O1761	O176	0.996000	0.911100	0.363500
O1771	O177	0.818800	0.698800	0.390000
O1781	O178	0.873000	0.669100	0.444500
O1791	O179	0.830000	0.739000	0.472800
O1801	O180	0.764200	0.566700	0.478100
O1811	O181	0.812100	0.799300	0.319200
O1821	O182	0.899800	0.927800	0.268200
O1831	O183	0.721200	0.676200	0.364200
O1841	O184	0.040500	0.600500	0.288600
O1851	O185	0.131700	0.657100	0.322000
O1861	O186	0.948200	0.535700	0.267100
O1871	O187	0.262500	0.085100	0.115800
O1881	O188	0.928700	0.676800	0.517500
O1891	O189	0.513200	0.351400	0.827800
O1901	O190	0.586600	0.352300	0.762100
O1911	O191	0.475400	0.230300	0.916100
O1921	O192	0.547300	0.232900	0.845000
O1931	O193	0.593800	0.328500	0.870100
O1941	O194	0.490900	0.405400	0.734500
O1951	O195	0.572300	0.404300	0.674800
O1961	O196	0.602100	0.476200	0.729700
O1971	O197	0.428300	0.369100	0.688600
O1981	O198	0.501400	0.365400	0.626200
O1991	O199	0.540000	0.484200	0.605800
O2001	O200	0.345200	0.251800	0.719200
O2011	O201	0.431300	0.259200	0.651100
O2021	O202	0.402300	0.352200	0.599900
O2031	O203	0.314000	0.144600	0.790200
O2041	O204	0.387600	0.140900	0.728700
O2051	O205	0.317400	0.170200	0.673600
O2061	O206	0.337800	0.086900	0.882500
O2071	O207	0.407700	0.078900	0.820000
O2081	O208	0.289400	0.021800	0.829400
O2091	O209	0.396300	0.119900	0.933000
O2101	O210	0.482400	0.126700	0.866300
O2111	O211	0.374600	0.004500	0.941500
O2121	O212	0.490900	0.127000	0.966700
O2131	O213	0.592200	0.270700	0.730900
O2141	O214	0.575600	0.323700	0.645300
O2151	O215	0.676800	0.403700	0.651300
O2161	O216	0.529500	0.165900	0.751800
O2171	O217	0.508300	0.224700	0.654200
O2181	O218	0.626500	0.252600	0.637700
O2191	O219	0.544600	0.337400	0.548600
O2201	O220	0.606600	0.181400	0.811400
O2211	O221	0.400800	0.326300	0.844500
O2221	O222	0.341800	0.280000	0.801600
O2231	O223	0.386500	0.411100	0.754000
O2241	O224	0.360000	0.198800	0.931200
O2251	O225	0.305500	0.169100	0.877000
O2261	O226	0.277200	0.239000	0.920000
O2271	O227	0.271900	0.066700	0.985800
O2281	O228	0.430800	0.299300	0.937900
O2291	O229	0.481800	0.427800	0.850200
O2301	O230	0.385800	0.176200	0.028800
O2311	O231	0.461400	0.100500	0.709500
O2321	O232	0.428000	0.157100	0.618300
O2331	O233	0.482900	0.035700	0.801800
O2341	O234	0.634200	0.585100	0.487500
O2351	O235	0.232500	0.176800	0.821300
O2361	O236	0.820800	0.648600	0.838200
O2371	O237	0.885600	0.647700	0.765700
O2381	O238	0.853600	0.769700	0.754900
O2391	O239	0.922100	0.767100	0.685600
O2401	O240	0.801400	0.671500	0.734700
O2411	O241	0.860100	0.594600	0.914500
O2421	O242	0.920900	0.595700	0.832000
O2431	O243	0.794100	0.523800	0.874100
O2441	O244	0.942300	0.630900	0.940800
O2451	O245	0.008400	0.634600	0.864000
O2461	O246	0.910000	0.515800	0.944200
O2471	O247	0.029000	0.748200	0.906600
O2481	O248	0.089700	0.740800	0.827900
O2491	O249	0.047900	0.647800	0.949900
O2501	O250	0.065200	0.855400	0.830600
O2511	O251	0.130400	0.859100	0.753300
O2521	O252	0.156200	0.829800	0.852800
O2531	O253	0.030600	0.913100	0.749100
O2541	O254	0.101100	0.921100	0.671200
O2551	O255	0.148800	0.978200	0.732400
O2561	O256	0.947100	0.880100	0.723600
O2571	O257	0.007000	0.873300	0.644300
O2581	O258	0.054000	0.995500	0.629900
O2591	O259	0.906300	0.873000	0.636100
O2601	O260	0.998400	0.729300	0.678500
O2611	O261	0.031000	0.676300	0.748100
O2621	O262	0.945000	0.596300	0.726900
O2631	O263	0.082300	0.834100	0.636400
O2641	O264	0.121100	0.775300	0.716400
O2651	O265	0.109700	0.747400	0.626100
O2661	O266	0.114000	0.662600	0.792800
O2671	O267	0.007200	0.818600	0.574800
O2681	O268	0.829200	0.673700	0.925500
O2691	O269	0.918400	0.720000	0.938200
O2701	O270	0.834900	0.588900	0.024600
O2711	O271	0.870000	0.801200	0.838800
O2721	O272	0.953900	0.830900	0.863600
O2731	O273	0.841000	0.761000	0.961800
O2741	O274	0.947500	0.933300	0.794800
O2751	O275	0.762800	0.700700	0.868500
O2761	O276	0.722000	0.572200	0.946000
O2771	O277	0.795000	0.823800	0.790400
O2781	O278	0.190000	0.899500	0.639100
O2791	O279	0.224600	0.842900	0.729100
O2801	O280	0.162500	0.964300	0.552800
O2811	O281	0.927400	0.414900	0.950900
O2821	O282	0.001900	0.823200	0.944300
O2831	O283	0.422200	0.159000	0.429200
O2841	O284	0.487900	0.151300	0.364400
O2851	O285	0.333900	0.108500	0.396400
O2861	O286	0.405000	0.107700	0.327900
O2871	O287	0.379900	0.036100	0.448600
O2881	O288	0.515500	0.274600	0.389900
O2891	O289	0.575200	0.252900	0.329100
O2901	O290	0.520300	0.168200	0.455900
O2911	O291	0.561400	0.383100	0.307700
O2921	O292	0.623800	0.372400	0.241600
O2931	O293	0.644200	0.354200	0.340000
O2941	O294	0.530800	0.435600	0.221000
O2951	O295	0.598900	0.417600	0.160300
O2961	O296	0.650100	0.497800	0.202100
O2971	O297	0.459800	0.395800	0.184800
O2981	O298	0.521300	0.383700	0.119600
O2991	O299	0.576400	0.509000	0.093800
O3001	O300	0.367500	0.279700	0.219400
O3011	O301	0.430000	0.272300	0.148900
O3021	O302	0.420600	0.381200	0.101200
O3031	O303	0.317000	0.170700	0.302900
O3041	O304	0.383700	0.151300	0.243000
O3051	O305	0.308500	0.183900	0.196000
O3061	O306	0.283300	0.042400	0.343700
O3071	O307	0.519100	0.176900	0.251600
O3081	O308	0.604700	0.279100	0.219000
O3091	O309	0.598700	0.171900	0.305000
O3101	O310	0.498200	0.218700	0.167700
O3111	O311	0.595800	0.337500	0.128900
O3121	O312	0.612300	0.235800	0.140300
O3131	O313	0.701400	0.406800	0.136000
O3141	O314	0.438600	0.082000	0.242800
O3151	O315	0.405500	0.254700	0.420800
O3161	O316	0.448400	0.356600	0.331600
O3171	O317	0.496000	0.359500	0.415100
O3181	O318	0.318800	0.208800	0.380000
O3191	O319	0.373000	0.317500	0.296100
O3201	O320	0.330000	0.302800	0.409000
O3211	O321	0.264200	0.242300	0.302500
O3221	O322	0.312100	0.131300	0.487200
O3231	O323	0.399800	0.168000	0.528000
O3241	O324	0.221200	0.085400	0.455000
O3251	O325	0.540500	0.329100	0.060000
O3261	O326	0.631700	0.453700	0.025400
O3271	O327	0.448200	0.215300	0.087500
O3281	O328	0.762500	0.378300	0.322600
O3291	O329	0.428700	0.446200	0.248100
O3301	O330	0.411800	0.841000	0.736800
O3311	O331	0.484300	0.848700	0.663400
O3321	O332	0.495100	0.891500	0.774600
O3331	O333	0.564400	0.892300	0.702700
O3341	O334	0.515300	0.963900	0.656200
O3351	O335	0.335500	0.725400	0.759100
O3361	O336	0.418000	0.747100	0.677700
O3371	O337	0.375900	0.831800	0.647900
O3381	O338	0.309200	0.616900	0.821700
O3391	O339	0.386000	0.627600	0.748600
O3401	O340	0.305800	0.645800	0.710000
O3411	O341	0.343400	0.564400	0.904800
O3421	O342	0.422100	0.582400	0.818700
O3431	O343	0.300100	0.502200	0.847700
O3441	O344	0.419400	0.604200	0.936000
O3451	O345	0.496700	0.616300	0.862400
O3461	O346	0.397200	0.491000	0.932600
O3471	O347	0.500900	0.720300	0.912200
O3481	O348	0.578800	0.727700	0.842300
O3491	O349	0.517600	0.618800	0.960600
O3501	O350	0.526400	0.829300	0.853700
O3511	O351	0.605700	0.848700	0.767600
O3521	O352	0.620100	0.816100	0.875400
O3531	O353	0.613900	0.957600	0.759100
O3541	O354	0.571500	0.823100	0.657800
O3551	O355	0.501900	0.720900	0.674400
O3561	O356	0.523100	0.828100	0.573200
O3571	O357	0.613600	0.781300	0.720500
O3581	O358	0.533600	0.662500	0.741700
O3591	O359	0.623900	0.764200	0.623500
O3601	O360	0.457200	0.593200	0.705400
O3611	O361	0.675200	0.918000	0.643400
O3621	O362	0.324500	0.745300	0.849200
O3631	O363	0.311800	0.643400	0.908200
O3641	O364	0.225400	0.640500	0.863500
O3651	O365	0.411200	0.791200	0.890000
O3661	O366	0.386400	0.682500	0.944500
O3671	O367	0.288200	0.697200	0.972800
O3681	O368	0.455200	0.757700	0.978100
O3691	O369	0.381500	0.868700	0.819200
O3701	O370	0.304000	0.832000	0.768200
O3711	O371	0.459600	0.914600	0.864200
O3721	O372	0.610900	0.670900	0.788600
O3731	O373	0.520900	0.546300	0.822000
O3741	O374	0.697200	0.784700	0.767100
O3751	O375	0.299100	0.621700	0.615800
O3761	O376	0.305700	0.553800	0.017500
