data_FECXES_freeONLY_PM
_symmetry_space_group_name_H-M	'P1'
_cell_length_a	12.100000
_cell_length_b	26.162000
_cell_length_c	26.162000
_cell_angle_alpha	90.000000
_cell_angle_beta	90.000000
_cell_angle_gamma	90.000000
_symmetry_Int_Tables_number 1

loop_
_symmetry_equiv_pos_as_xyz
'x,y,z'

loop_
_atom_site_label
_atom_site_type_symbol
_atom_site_fract_x
_atom_site_fract_y
_atom_site_fract_z
Cu11	Cu1	0.076210	0.993930	0.035570
Cu21	Cu2	0.923790	0.006070	0.535570
Cu31	Cu3	0.923790	0.493930	0.464430
Cu41	Cu4	0.076210	0.506070	0.964430
Cu51	Cu5	0.923790	0.006070	0.964430
Cu61	Cu6	0.076210	0.993930	0.464430
Cu71	Cu7	0.076210	0.506070	0.535570
Cu81	Cu8	0.923790	0.493930	0.035570
Cu91	Cu9	0.010280	0.704930	0.750000
Cu101	Cu10	0.855940	0.776100	0.750000
Cu111	Cu11	0.989720	0.295070	0.250000
Cu121	Cu12	0.144060	0.223900	0.250000
Cu131	Cu13	0.989720	0.204930	0.750000
Cu141	Cu14	0.144060	0.276100	0.750000
Cu151	Cu15	0.010280	0.795070	0.250000
Cu161	Cu16	0.855940	0.723900	0.250000
H11	H1	0.902100	0.611500	0.868800
H21	H2	0.699400	0.612800	0.989100
H31	H3	0.668300	0.720100	0.880700
H41	H4	0.584100	0.760300	0.947800
H51	H5	0.488100	0.726200	0.926000
H61	H6	0.430900	0.675500	0.023900
H71	H7	0.335800	0.695800	0.988100
H81	H8	0.245700	0.633000	0.028400
H91	H9	0.000400	0.625200	0.131000
H101	H10	0.211400	0.742700	0.132800
H111	H11	0.264100	0.965500	0.078200
H121	H12	0.215800	0.010200	0.111200
H131	H13	0.097900	0.388500	0.368800
H141	H14	0.300600	0.387200	0.489100
H151	H15	0.331700	0.279900	0.380700
H161	H16	0.415900	0.239700	0.447800
H171	H17	0.511900	0.273800	0.426000
H181	H18	0.569100	0.324500	0.523900
H191	H19	0.664200	0.304200	0.488100
H201	H20	0.754300	0.367000	0.528400
H211	H21	0.999600	0.374800	0.631000
H221	H22	0.788600	0.257300	0.632800
H231	H23	0.735900	0.034500	0.578200
H241	H24	0.784200	0.989800	0.611200
H251	H25	0.097900	0.111500	0.631200
H261	H26	0.300600	0.112800	0.510900
H271	H27	0.331700	0.220100	0.619300
H281	H28	0.415900	0.260300	0.552200
H291	H29	0.511900	0.226200	0.574000
H301	H30	0.569100	0.175500	0.476100
H311	H31	0.664200	0.195800	0.511900
H321	H32	0.754300	0.133000	0.471600
H331	H33	0.999600	0.125200	0.369000
H341	H34	0.788600	0.242700	0.367200
H351	H35	0.735900	0.465500	0.421800
H361	H36	0.784200	0.510200	0.388800
H371	H37	0.902100	0.888500	0.131200
H381	H38	0.699400	0.887200	0.010900
H391	H39	0.668300	0.779900	0.119300
H401	H40	0.584100	0.739700	0.052200
H411	H41	0.488100	0.773800	0.074000
H421	H42	0.430900	0.824500	0.976100
H431	H43	0.335800	0.804200	0.011900
H441	H44	0.245700	0.867000	0.971600
H451	H45	0.000400	0.874800	0.869000
H461	H46	0.211400	0.757300	0.867200
H471	H47	0.264100	0.534500	0.921800
H481	H48	0.215800	0.489800	0.888800
H491	H49	0.097900	0.388500	0.131200
H501	H50	0.300600	0.387200	0.010900
H511	H51	0.331700	0.279900	0.119300
H521	H52	0.415900	0.239700	0.052200
H531	H53	0.511900	0.273800	0.074000
H541	H54	0.569100	0.324500	0.976100
H551	H55	0.664200	0.304200	0.011900
H561	H56	0.754300	0.367000	0.971600
H571	H57	0.999600	0.374800	0.869000
H581	H58	0.788600	0.257300	0.867200
H591	H59	0.735900	0.034500	0.921800
H601	H60	0.784200	0.989800	0.888800
H611	H61	0.902100	0.611500	0.631200
H621	H62	0.699400	0.612800	0.510900
H631	H63	0.668300	0.720100	0.619300
H641	H64	0.584100	0.760300	0.552200
H651	H65	0.488100	0.726200	0.574000
H661	H66	0.430900	0.675500	0.476100
H671	H67	0.335800	0.695800	0.511900
H681	H68	0.245700	0.633000	0.471600
H691	H69	0.000400	0.625200	0.369000
H701	H70	0.211400	0.742700	0.367200
H711	H71	0.264100	0.965500	0.421800
H721	H72	0.215800	0.010200	0.388800
H731	H73	0.902100	0.888500	0.368800
H741	H74	0.699400	0.887200	0.489100
H751	H75	0.668300	0.779900	0.380700
H761	H76	0.584100	0.739700	0.447800
H771	H77	0.488100	0.773800	0.426000
H781	H78	0.430900	0.824500	0.523900
H791	H79	0.335800	0.804200	0.488100
H801	H80	0.245700	0.867000	0.528400
H811	H81	0.000400	0.874800	0.631000
H821	H82	0.211400	0.757300	0.632800
H831	H83	0.264100	0.534500	0.578200
H841	H84	0.215800	0.489800	0.611200
H851	H85	0.097900	0.111500	0.868800
H861	H86	0.300600	0.112800	0.989100
H871	H87	0.331700	0.220100	0.880700
H881	H88	0.415900	0.260300	0.947800
H891	H89	0.511900	0.226200	0.926000
H901	H90	0.569100	0.175500	0.023900
H911	H91	0.664200	0.195800	0.988100
H921	H92	0.754300	0.133000	0.028400
H931	H93	0.999600	0.125200	0.131000
H941	H94	0.788600	0.242700	0.132800
H951	H95	0.735900	0.465500	0.078200
H961	H96	0.784200	0.510200	0.111200
C11	C1	0.793300	0.669560	0.868710
C21	C2	0.845100	0.626610	0.887250
C31	C3	0.811700	0.605910	0.933740
C41	C4	0.723800	0.627560	0.958770
C51	C5	0.670400	0.670380	0.940560
C61	C6	0.704200	0.691780	0.894230
C71	C7	0.835000	0.693520	0.821030
C81	C8	0.877200	0.562800	0.956400
C91	C9	0.532400	0.733240	0.956090
C101	C10	0.385700	0.705000	0.015620
C111	C11	0.241600	0.693020	0.076680
C121	C12	0.207500	0.646840	0.056000
C131	C13	0.117100	0.620970	0.075910
C141	C14	0.061500	0.641910	0.117400
C151	C15	0.096600	0.687550	0.138610
C161	C16	0.187100	0.712360	0.118150
C171	C17	0.078300	0.574340	0.050090
C181	C18	0.036400	0.711150	0.181160
C191	C19	0.206700	0.330440	0.368710
C201	C20	0.154900	0.373390	0.387250
C211	C21	0.188300	0.394090	0.433740
C221	C22	0.276200	0.372440	0.458770
C231	C23	0.329600	0.329620	0.440560
C241	C24	0.295800	0.308220	0.394230
C251	C25	0.165000	0.306480	0.321030
C261	C26	0.122800	0.437200	0.456400
C271	C27	0.467600	0.266760	0.456090
C281	C28	0.614300	0.295000	0.515620
C291	C29	0.758400	0.306980	0.576680
C301	C30	0.792500	0.353160	0.556000
C311	C31	0.882900	0.379030	0.575910
C321	C32	0.938500	0.358090	0.617400
C331	C33	0.903400	0.312450	0.638610
C341	C34	0.812900	0.287640	0.618150
C351	C35	0.921700	0.425660	0.550090
C361	C36	0.963600	0.288850	0.681160
C371	C37	0.206700	0.169560	0.631290
C381	C38	0.154900	0.126610	0.612750
C391	C39	0.188300	0.105910	0.566260
C401	C40	0.276200	0.127560	0.541230
C411	C41	0.329600	0.170380	0.559440
C421	C42	0.295800	0.191780	0.605770
C431	C43	0.165000	0.193520	0.678970
C441	C44	0.122800	0.062800	0.543600
C451	C45	0.467600	0.233240	0.543910
C461	C46	0.614300	0.205000	0.484380
C471	C47	0.758400	0.193020	0.423320
C481	C48	0.792500	0.146840	0.444000
C491	C49	0.882900	0.120970	0.424090
C501	C50	0.938500	0.141910	0.382600
C511	C51	0.903400	0.187550	0.361390
C521	C52	0.812900	0.212360	0.381850
C531	C53	0.921700	0.074340	0.449910
C541	C54	0.963600	0.211150	0.318840
C551	C55	0.793300	0.830440	0.131290
C561	C56	0.845100	0.873390	0.112750
C571	C57	0.811700	0.894090	0.066260
C581	C58	0.723800	0.872440	0.041230
C591	C59	0.670400	0.829620	0.059440
C601	C60	0.704200	0.808220	0.105770
C611	C61	0.835000	0.806480	0.178970
C621	C62	0.877200	0.937200	0.043600
C631	C63	0.532400	0.766760	0.043910
C641	C64	0.385700	0.795000	0.984380
C651	C65	0.241600	0.806980	0.923320
C661	C66	0.207500	0.853160	0.944000
C671	C67	0.117100	0.879030	0.924090
C681	C68	0.061500	0.858090	0.882600
C691	C69	0.096600	0.812450	0.861390
C701	C70	0.187100	0.787640	0.881850
C711	C71	0.078300	0.925660	0.949910
C721	C72	0.036400	0.788850	0.818840
C731	C73	0.206700	0.330440	0.131290
C741	C74	0.154900	0.373390	0.112750
C751	C75	0.188300	0.394090	0.066260
C761	C76	0.276200	0.372440	0.041230
C771	C77	0.329600	0.329620	0.059440
C781	C78	0.295800	0.308220	0.105770
C791	C79	0.165000	0.306480	0.178970
C801	C80	0.122800	0.437200	0.043600
C811	C81	0.467600	0.266760	0.043910
C821	C82	0.614300	0.295000	0.984380
C831	C83	0.758400	0.306980	0.923320
C841	C84	0.792500	0.353160	0.944000
C851	C85	0.882900	0.379030	0.924090
C861	C86	0.938500	0.358090	0.882600
C871	C87	0.903400	0.312450	0.861390
C881	C88	0.812900	0.287640	0.881850
C891	C89	0.921700	0.425660	0.949910
C901	C90	0.963600	0.288850	0.818840
C911	C91	0.793300	0.669560	0.631290
C921	C92	0.845100	0.626610	0.612750
C931	C93	0.811700	0.605910	0.566260
C941	C94	0.723800	0.627560	0.541230
C951	C95	0.670400	0.670380	0.559440
C961	C96	0.704200	0.691780	0.605770
C971	C97	0.835000	0.693520	0.678970
C981	C98	0.877200	0.562800	0.543600
C991	C99	0.532400	0.733240	0.543910
C1001	C100	0.385700	0.705000	0.484380
C1011	C101	0.241600	0.693020	0.423320
C1021	C102	0.207500	0.646840	0.444000
C1031	C103	0.117100	0.620970	0.424090
C1041	C104	0.061500	0.641910	0.382600
C1051	C105	0.096600	0.687550	0.361390
C1061	C106	0.187100	0.712360	0.381850
C1071	C107	0.078300	0.574340	0.449910
C1081	C108	0.036400	0.711150	0.318840
C1091	C109	0.793300	0.830440	0.368710
C1101	C110	0.845100	0.873390	0.387250
C1111	C111	0.811700	0.894090	0.433740
C1121	C112	0.723800	0.872440	0.458770
C1131	C113	0.670400	0.829620	0.440560
C1141	C114	0.704200	0.808220	0.394230
C1151	C115	0.835000	0.806480	0.321030
C1161	C116	0.877200	0.937200	0.456400
C1171	C117	0.532400	0.766760	0.456090
C1181	C118	0.385700	0.795000	0.515620
C1191	C119	0.241600	0.806980	0.576680
C1201	C120	0.207500	0.853160	0.556000
C1211	C121	0.117100	0.879030	0.575910
C1221	C122	0.061500	0.858090	0.617400
C1231	C123	0.096600	0.812450	0.638610
C1241	C124	0.187100	0.787640	0.618150
C1251	C125	0.078300	0.925660	0.550090
C1261	C126	0.036400	0.788850	0.681160
C1271	C127	0.206700	0.169560	0.868710
C1281	C128	0.154900	0.126610	0.887250
C1291	C129	0.188300	0.105910	0.933740
C1301	C130	0.276200	0.127560	0.958770
C1311	C131	0.329600	0.170380	0.940560
C1321	C132	0.295800	0.191780	0.894230
C1331	C133	0.165000	0.193520	0.821030
C1341	C134	0.122800	0.062800	0.956400
C1351	C135	0.467600	0.233240	0.956090
C1361	C136	0.614300	0.205000	0.015620
C1371	C137	0.758400	0.193020	0.076680
C1381	C138	0.792500	0.146840	0.056000
C1391	C139	0.882900	0.120970	0.075910
C1401	C140	0.938500	0.141910	0.117400
C1411	C141	0.903400	0.187550	0.138610
C1421	C142	0.812900	0.212360	0.118150
C1431	C143	0.921700	0.074340	0.050090
C1441	C144	0.963600	0.211150	0.181160
C1451	C145	0.458100	0.750000	0.000000
C1461	C146	0.541900	0.250000	0.500000
C1471	C147	0.541900	0.250000	0.000000
C1481	C148	0.458100	0.750000	0.500000
O11	O1	0.921800	0.673830	0.802080
O21	O2	0.789960	0.733630	0.804100
O31	O3	0.966600	0.552680	0.935670
O41	O4	0.837520	0.542840	0.996220
O51	O5	0.589980	0.689480	0.970370
O61	O6	0.325350	0.721280	0.059250
O71	O7	0.125110	0.561100	0.009940
O81	O8	0.994690	0.551890	0.069480
O91	O9	0.948320	0.691300	0.197330
O101	O10	0.076700	0.752520	0.198210
O111	O11	0.198510	0.978840	0.093920
O121	O12	0.078200	0.326170	0.302080
O131	O13	0.210040	0.266370	0.304100
O141	O14	0.033400	0.447320	0.435670
O151	O15	0.162480	0.457160	0.496220
O161	O16	0.410020	0.310520	0.470370
O171	O17	0.674650	0.278720	0.559250
O181	O18	0.874890	0.438900	0.509940
O191	O19	0.005310	0.448110	0.569480
O201	O20	0.051680	0.308700	0.697330
O211	O21	0.923300	0.247480	0.698210
O221	O22	0.801490	0.021160	0.593920
O231	O23	0.078200	0.173830	0.697920
O241	O24	0.210040	0.233630	0.695900
O251	O25	0.033400	0.052680	0.564330
O261	O26	0.162480	0.042840	0.503780
O271	O27	0.410020	0.189480	0.529630
O281	O28	0.674650	0.221280	0.440750
O291	O29	0.874890	0.061100	0.490060
O301	O30	0.005310	0.051890	0.430520
O311	O31	0.051680	0.191300	0.302670
O321	O32	0.923300	0.252520	0.301790
O331	O33	0.801490	0.478840	0.406080
O341	O34	0.921800	0.826170	0.197920
O351	O35	0.789960	0.766370	0.195900
O361	O36	0.966600	0.947320	0.064330
O371	O37	0.837520	0.957160	0.003780
O381	O38	0.589980	0.810520	0.029630
O391	O39	0.325350	0.778720	0.940750
O401	O40	0.125110	0.938900	0.990060
O411	O41	0.994690	0.948110	0.930520
O421	O42	0.948320	0.808700	0.802670
O431	O43	0.076700	0.747480	0.801790
O441	O44	0.198510	0.521160	0.906080
O451	O45	0.078200	0.326170	0.197920
O461	O46	0.210040	0.266370	0.195900
O471	O47	0.033400	0.447320	0.064330
O481	O48	0.162480	0.457160	0.003780
O491	O49	0.410020	0.310520	0.029630
O501	O50	0.674650	0.278720	0.940750
O511	O51	0.874890	0.438900	0.990060
O521	O52	0.005310	0.448110	0.930520
O531	O53	0.051680	0.308700	0.802670
O541	O54	0.923300	0.247480	0.801790
O551	O55	0.801490	0.021160	0.906080
O561	O56	0.921800	0.673830	0.697920
O571	O57	0.789960	0.733630	0.695900
O581	O58	0.966600	0.552680	0.564330
O591	O59	0.837520	0.542840	0.503780
O601	O60	0.589980	0.689480	0.529630
O611	O61	0.325350	0.721280	0.440750
O621	O62	0.125110	0.561100	0.490060
O631	O63	0.994690	0.551890	0.430520
O641	O64	0.948320	0.691300	0.302670
O651	O65	0.076700	0.752520	0.301790
O661	O66	0.198510	0.978840	0.406080
O671	O67	0.921800	0.826170	0.302080
O681	O68	0.789960	0.766370	0.304100
O691	O69	0.966600	0.947320	0.435670
O701	O70	0.837520	0.957160	0.496220
O711	O71	0.589980	0.810520	0.470370
O721	O72	0.325350	0.778720	0.559250
O731	O73	0.125110	0.938900	0.509940
O741	O74	0.994690	0.948110	0.569480
O751	O75	0.948320	0.808700	0.697330
O761	O76	0.076700	0.747480	0.698210
O771	O77	0.198510	0.521160	0.593920
O781	O78	0.078200	0.173830	0.802080
O791	O79	0.210040	0.233630	0.804100
O801	O80	0.033400	0.052680	0.935670
O811	O81	0.162480	0.042840	0.996220
O821	O82	0.410020	0.189480	0.970370
O831	O83	0.674650	0.221280	0.059250
O841	O84	0.874890	0.061100	0.009940
O851	O85	0.005310	0.051890	0.069480
O861	O86	0.051680	0.191300	0.197330
O871	O87	0.923300	0.252520	0.198210
O881	O88	0.801490	0.478840	0.093920
O891	O89	0.138000	0.648100	0.750000
O901	O90	0.724400	0.831270	0.750000
O911	O91	0.862000	0.351900	0.250000
O921	O92	0.275600	0.168730	0.250000
O931	O93	0.862000	0.148100	0.750000
O941	O94	0.275600	0.331270	0.750000
O951	O95	0.138000	0.851900	0.250000
O961	O96	0.724400	0.668730	0.250000
