data_FECYUJ_freeONLY_PM
_symmetry_space_group_name_H-M	'P1'
_cell_length_a	18.608600
_cell_length_b	20.242200
_cell_length_c	20.813500
_cell_angle_alpha	70.421000
_cell_angle_beta	68.955000
_cell_angle_gamma	68.031000
_symmetry_Int_Tables_number 1

loop_
_symmetry_equiv_pos_as_xyz
'x,y,z'

loop_
_atom_site_label
_atom_site_type_symbol
_atom_site_fract_x
_atom_site_fract_y
_atom_site_fract_z
Zn11	Zn1	0.364470	0.212250	0.523090
Zn21	Zn2	0.384680	0.358480	0.526690
Zn31	Zn3	0.219320	0.352330	0.525290
Zn41	Zn4	0.364290	0.341060	0.382700
Zn51	Zn5	0.800980	0.791750	0.093950
Zn61	Zn6	0.804130	0.921560	0.959830
Zn71	Zn7	0.948870	0.777540	0.959730
Zn81	Zn8	0.774540	0.776680	0.955460
H11	H1	0.374000	0.416900	0.252000
H21	H2	0.443500	0.348000	0.249000
H31	H3	0.233300	0.068900	0.668700
H41	H4	0.484100	0.539900	0.424600
H51	H5	0.941400	0.055900	0.815900
H61	H6	0.636500	0.674700	0.240900
H71	H7	0.539400	0.454100	0.259200
H81	H8	0.549100	0.625900	0.355400
H91	H9	0.887400	0.615900	0.832200
H101	H10	0.938400	0.678500	0.241800
H111	H11	0.079900	0.471600	0.684300
H121	H12	0.603100	0.947500	0.362000
H131	H13	0.524200	0.030100	0.430500
H141	H14	0.038800	0.531400	0.433400
H151	H15	0.133600	0.883700	0.833200
H161	H16	0.959000	0.617800	0.363300
H171	H17	0.678300	0.090400	0.070600
H181	H18	0.608000	0.171800	0.139000
H191	H19	0.677100	0.923000	0.241800
H201	H20	0.217000	0.949800	0.751200
H211	H21	0.529200	0.197000	0.260500
H221	H22	0.124100	0.639400	0.072300
H231	H23	0.095500	0.642200	0.817300
H241	H24	0.205600	0.565800	0.140800
H251	H25	0.226100	0.502700	0.263100
H261	H26	0.222600	0.575900	0.743400
H271	H27	0.952600	0.532900	0.762700
H281	H28	0.288500	0.498100	0.669000
H291	H29	0.959500	0.172600	0.733300
H301	H30	0.699500	0.582700	0.076700
H311	H31	0.559600	0.958300	0.737600
H321	H32	0.039300	0.242500	0.654900
H331	H33	0.508700	0.076500	0.657700
H341	H34	0.623500	0.504900	0.143300
H351	H35	0.568600	0.253400	0.639600
H361	H36	0.710000	0.066600	0.786300
H371	H37	0.650900	0.889000	0.806200
H381	H38	0.657200	0.183100	0.707500
H391	H39	0.753800	0.649800	0.937800
H401	H40	0.632500	0.568500	0.925100
H411	H41	0.684500	0.588100	0.847100
H421	H42	0.724900	0.556100	0.909700
H431	H43	0.598300	0.752400	0.852100
H441	H44	0.558400	0.688900	0.878300
H451	H45	0.555100	0.729000	0.932500
C11	C1	0.460400	0.432600	0.394700
C21	C2	0.940100	0.689300	0.880700
C31	C3	0.975100	0.919100	0.885600
C41	C4	0.200300	0.207600	0.602600
C51	C5	0.178100	0.090300	0.682900
C61	C6	0.509200	0.540100	0.377000
C71	C7	0.506000	0.487700	0.347800
C81	C8	0.996800	0.035100	0.802800
C91	C9	0.634500	0.640300	0.221600
C101	C10	0.542900	0.487800	0.278300
C111	C11	0.984900	0.636900	0.832000
C121	C12	0.129500	0.046800	0.733800
C131	C13	0.589300	0.590300	0.264200
C141	C14	0.146900	0.163000	0.653700
C151	C15	0.548700	0.590800	0.336100
C161	C16	0.045600	0.078900	0.752400
C171	C17	0.943100	0.604300	0.814600
C181	C18	0.028900	0.963200	0.832700
C191	C19	0.041500	0.609100	0.267700
C201	C20	0.992100	0.655500	0.222300
C211	C21	0.108300	0.492700	0.696400
C221	C22	0.588900	0.997200	0.340900
C231	C23	0.541400	0.046900	0.381700
C241	C24	0.518200	0.122000	0.352000
C251	C25	0.616100	0.021400	0.267100
C261	C26	0.140100	0.508800	0.354700
C271	C27	0.066800	0.539300	0.743200
C281	C28	0.060000	0.542900	0.384600
C291	C29	0.464100	0.174900	0.397500
C301	C30	0.111600	0.932500	0.812800
C311	C31	0.011600	0.593600	0.342500
C321	C32	0.663500	0.073800	0.119500
C331	C33	0.675300	0.638600	0.152300
C341	C34	0.620500	0.122000	0.160000
C351	C35	0.232600	0.428300	0.617700
C361	C36	0.022000	0.667200	0.150300
C371	C37	0.723700	0.690600	0.107900
C381	C38	0.193000	0.453500	0.400200
C391	C39	0.662400	0.973100	0.222300
C401	C40	0.686400	0.998500	0.150100
C411	C41	0.161900	0.972000	0.764200
C421	C42	0.190100	0.477600	0.668000
C431	C43	0.593300	0.097800	0.236000
C441	C44	0.734500	0.944700	0.103600
C451	C45	0.544100	0.147000	0.280400
C461	C46	0.967500	0.713400	0.103200
C471	C47	0.103800	0.631600	0.121200
C481	C48	0.067500	0.620500	0.805300
C491	C49	0.152200	0.587800	0.161800
C501	C50	0.109700	0.572400	0.760900
C511	C51	0.123500	0.573500	0.237900
C521	C52	0.586200	0.538000	0.235000
C531	C53	0.172100	0.524500	0.282500
C541	C54	0.193300	0.555200	0.731800
C551	C55	0.981600	0.555500	0.772400
C561	C56	0.232900	0.508900	0.687000
C571	C57	0.014900	0.151500	0.721400
C581	C58	0.671400	0.585100	0.123400
C591	C59	0.591700	0.979600	0.744800
C601	C60	0.589300	0.053300	0.712700
C611	C61	0.469700	0.215200	0.599200
C621	C62	0.062500	0.193500	0.674000
C631	C63	0.527800	0.171500	0.643000
C641	C64	0.738200	0.929100	0.856900
C651	C65	0.537400	0.098000	0.669100
C661	C66	0.687400	0.973100	0.804800
C671	C67	0.626900	0.537800	0.163500
C681	C68	0.573700	0.203700	0.657700
C691	C69	0.681400	0.044500	0.775300
C701	C70	0.633400	0.086900	0.728400
C711	C71	0.644300	0.939000	0.788200
C721	C72	0.626200	0.161500	0.699100
C731	C73	0.709100	0.684000	0.923700
C741	C74	0.677100	0.587100	0.895400
C751	C75	0.587200	0.711800	0.890200
N11	N1	0.661200	0.659800	0.902000
O11	O1	0.334360	0.317320	0.489800
O21	O2	0.834280	0.816130	0.991370
O31	O3	0.006200	0.851400	0.903560
O41	O4	0.156400	0.424700	0.462800
O51	O5	0.430300	0.147890	0.459140
O61	O6	0.191400	0.404400	0.599900
O71	O7	0.274200	0.174120	0.584360
O81	O8	0.902700	0.952700	0.907100
O91	O9	0.307800	0.414100	0.597300
O101	O10	0.439100	0.428400	0.459770
O111	O11	0.985800	0.711200	0.898000
O121	O12	0.732100	0.729000	0.140300
O131	O13	0.462900	0.283240	0.576650
O141	O14	0.753000	0.971300	0.037570
O151	O15	0.000100	0.721900	0.037320
O161	O16	0.744000	0.968100	0.891200
O171	O17	0.446600	0.395900	0.365670
O181	O18	0.895600	0.741000	0.131660
O191	O19	0.749900	0.877700	0.133960
O201	O20	0.432200	0.182600	0.588600
O211	O21	0.167500	0.274300	0.579220
O221	O22	0.867000	0.706800	0.898880
O231	O23	0.266400	0.439700	0.375870
O241	O24	0.455500	0.241800	0.370500
O251	O25	0.388000	0.364700	0.272400
O261	O26	0.756600	0.690300	0.045200
O271	O27	0.762410	0.863300	0.866180
O281	O28	0.694600	0.748100	0.924900
Zn91	Zn9	0.635530	0.787750	0.476910
Zn101	Zn10	0.615320	0.641520	0.473310
Zn111	Zn11	0.780680	0.647670	0.474710
Zn121	Zn12	0.635710	0.658940	0.617300
Zn131	Zn13	0.199020	0.208250	0.906050
Zn141	Zn14	0.195870	0.078440	0.040170
Zn151	Zn15	0.051130	0.222460	0.040270
Zn161	Zn16	0.225460	0.223320	0.044540
H461	H46	0.626000	0.583100	0.748000
H471	H47	0.556500	0.652000	0.751000
H481	H48	0.766700	0.931100	0.331300
H491	H49	0.515900	0.460100	0.575400
H501	H50	0.058600	0.944100	0.184100
H511	H51	0.363500	0.325300	0.759100
H521	H52	0.460600	0.545900	0.740800
H531	H53	0.450900	0.374100	0.644600
H541	H54	0.112600	0.384100	0.167800
H551	H55	0.061600	0.321500	0.758200
H561	H56	0.920100	0.528400	0.315700
H571	H57	0.396900	0.052500	0.638000
H581	H58	0.475800	0.969900	0.569500
H591	H59	0.961200	0.468600	0.566600
H601	H60	0.866400	0.116300	0.166800
H611	H61	0.041000	0.382200	0.636700
H621	H62	0.321700	0.909600	0.929400
H631	H63	0.392000	0.828200	0.861000
H641	H64	0.322900	0.077000	0.758200
H651	H65	0.783000	0.050200	0.248800
H661	H66	0.470800	0.803000	0.739500
H671	H67	0.875900	0.360600	0.927700
H681	H68	0.904500	0.357800	0.182700
H691	H69	0.794400	0.434200	0.859200
H701	H70	0.773900	0.497300	0.736900
H711	H71	0.777400	0.424100	0.256600
H721	H72	0.047400	0.467100	0.237300
H731	H73	0.711500	0.501900	0.331000
H741	H74	0.040500	0.827400	0.266700
H751	H75	0.300500	0.417300	0.923300
H761	H76	0.440400	0.041700	0.262400
H771	H77	0.960700	0.757500	0.345100
H781	H78	0.491300	0.923500	0.342300
H791	H79	0.376500	0.495100	0.856700
H801	H80	0.431400	0.746600	0.360400
H811	H81	0.290000	0.933400	0.213700
H821	H82	0.349100	0.111000	0.193800
H831	H83	0.342800	0.816900	0.292500
H841	H84	0.246200	0.350200	0.062200
H851	H85	0.367500	0.431500	0.074900
H861	H86	0.315500	0.411900	0.152900
H871	H87	0.275100	0.443900	0.090300
H881	H88	0.401700	0.247600	0.147900
H891	H89	0.441600	0.311100	0.121700
H901	H90	0.444900	0.271000	0.067500
C761	C76	0.539600	0.567400	0.605300
C771	C77	0.059900	0.310700	0.119300
C781	C78	0.024900	0.080900	0.114400
C791	C79	0.799700	0.792400	0.397400
C801	C80	0.821900	0.909700	0.317100
C811	C81	0.490800	0.459900	0.623000
C821	C82	0.494000	0.512300	0.652200
C831	C83	0.003200	0.964900	0.197200
C841	C84	0.365500	0.359700	0.778400
C851	C85	0.457100	0.512200	0.721700
C861	C86	0.015100	0.363100	0.168000
C871	C87	0.870500	0.953200	0.266200
C881	C88	0.410700	0.409700	0.735800
C891	C89	0.853100	0.837000	0.346300
C901	C90	0.451300	0.409200	0.663900
C911	C91	0.954400	0.921100	0.247600
C921	C92	0.056900	0.395700	0.185400
C931	C93	0.971100	0.036800	0.167300
C941	C94	0.958500	0.390900	0.732300
C951	C95	0.007900	0.344500	0.777700
C961	C96	0.891700	0.507300	0.303600
C971	C97	0.411100	0.002800	0.659100
C981	C98	0.458600	0.953100	0.618300
C991	C99	0.481800	0.878000	0.648000
C1001	C100	0.383900	0.978600	0.732900
C1011	C101	0.859900	0.491200	0.645300
C1021	C102	0.933200	0.460700	0.256800
C1031	C103	0.940000	0.457100	0.615400
C1041	C104	0.535900	0.825100	0.602500
C1051	C105	0.888400	0.067500	0.187200
C1061	C106	0.988400	0.406400	0.657500
C1071	C107	0.336500	0.926200	0.880500
C1081	C108	0.324700	0.361400	0.847700
C1091	C109	0.379500	0.878000	0.840000
C1101	C110	0.767400	0.571700	0.382300
C1111	C111	0.978000	0.332800	0.849700
C1121	C112	0.276300	0.309400	0.892100
C1131	C113	0.807000	0.546500	0.599800
C1141	C114	0.337600	0.026900	0.777700
C1151	C115	0.313600	0.001500	0.849900
C1161	C116	0.838100	0.028000	0.235800
C1171	C117	0.809900	0.522400	0.332000
C1181	C118	0.406700	0.902200	0.764000
C1191	C119	0.265500	0.055300	0.896400
C1201	C120	0.455900	0.853000	0.719600
C1211	C121	0.032500	0.286600	0.896800
C1221	C122	0.896200	0.368400	0.878800
C1231	C123	0.932500	0.379500	0.194700
C1241	C124	0.847800	0.412200	0.838200
C1251	C125	0.890300	0.427600	0.239100
C1261	C126	0.876500	0.426500	0.762100
C1271	C127	0.413800	0.462000	0.765000
C1281	C128	0.827900	0.475500	0.717500
C1291	C129	0.806700	0.444800	0.268200
C1301	C130	0.018400	0.444500	0.227600
C1311	C131	0.767100	0.491100	0.313000
C1321	C132	0.985100	0.848500	0.278600
C1331	C133	0.328600	0.414900	0.876600
C1341	C134	0.408300	0.020400	0.255200
C1351	C135	0.410700	0.946700	0.287300
C1361	C136	0.530300	0.784800	0.400800
C1371	C137	0.937500	0.806500	0.326000
C1381	C138	0.472200	0.828500	0.357000
C1391	C139	0.261800	0.070900	0.143100
C1401	C140	0.462600	0.902000	0.330900
C1411	C141	0.312600	0.026900	0.195200
C1421	C142	0.373100	0.462200	0.836500
C1431	C143	0.426300	0.796300	0.342300
C1441	C144	0.318600	0.955500	0.224700
C1451	C145	0.366600	0.913100	0.271600
C1461	C146	0.355700	0.061000	0.211800
C1471	C147	0.373800	0.838500	0.300900
C1481	C148	0.290900	0.316000	0.076300
C1491	C149	0.322900	0.412900	0.104600
C1501	C150	0.412800	0.288200	0.109800
N21	N2	0.338800	0.340200	0.098000
O291	O29	0.665640	0.682680	0.510200
O301	O30	0.165720	0.183870	0.008630
O311	O31	0.993800	0.148600	0.096440
O321	O32	0.843600	0.575300	0.537200
O331	O33	0.569700	0.852110	0.540860
O341	O34	0.808600	0.595600	0.400100
O351	O35	0.725800	0.825880	0.415640
O361	O36	0.097300	0.047300	0.092900
O371	O37	0.692200	0.585900	0.402700
O381	O38	0.560900	0.571600	0.540230
O391	O39	0.014200	0.288800	0.102000
O401	O40	0.267900	0.271000	0.859700
O411	O41	0.537100	0.716760	0.423350
O421	O42	0.247000	0.028700	0.962430
O431	O43	0.999900	0.278100	0.962680
O441	O44	0.256000	0.031900	0.108800
O451	O45	0.553400	0.604100	0.634330
O461	O46	0.104400	0.259000	0.868340
O471	O47	0.250100	0.122300	0.866040
O481	O48	0.567800	0.817400	0.411400
O491	O49	0.832500	0.725700	0.420780
O501	O50	0.133000	0.293200	0.101120
O511	O51	0.733600	0.560300	0.624130
O521	O52	0.544500	0.758200	0.629500
O531	O53	0.612000	0.635300	0.727600
O541	O54	0.243400	0.309700	0.954800
O551	O55	0.237590	0.136700	0.133820
O561	O56	0.305400	0.251900	0.075100
