data_FECZAQ_manual_PM
_symmetry_space_group_name_H-M	'P1'
_cell_length_a	17.304300
_cell_length_b	18.377000
_cell_length_c	17.956500
_cell_angle_alpha	90.000000
_cell_angle_beta	90.000000
_cell_angle_gamma	90.000000
_symmetry_Int_Tables_number 1

loop_
_symmetry_equiv_pos_as_xyz
'x,y,z'

loop_
_atom_site_label
_atom_site_type_symbol
_atom_site_fract_x
_atom_site_fract_y
_atom_site_fract_z
Zn11	Zn1	0.823430	0.681870	0.055430
Zn21	Zn2	0.703470	0.182170	0.387230
Zn31	Zn3	0.823350	0.681800	0.887250
Zn41	Zn4	0.703270	0.181650	0.555390
Zn51	Zn5	0.698090	0.600070	0.972160
Zn61	Zn6	0.698560	0.764110	0.970820
Zn71	Zn7	0.828640	0.100120	0.471860
Zn81	Zn8	0.828350	0.264130	0.471150
H11	H1	0.316840	0.579750	0.028630
H21	H2	0.870220	0.522050	0.217300
H31	H3	0.652530	0.441430	0.134760
H41	H4	0.655510	0.343440	0.226930
H51	H5	0.872070	0.425470	0.311230
H61	H6	0.063330	0.720500	0.858200
H71	H7	0.204870	0.722760	0.859300
H81	H8	0.204550	0.642650	0.084950
H91	H9	0.067690	0.083100	0.535900
H101	H10	0.674130	0.036870	0.209770
H111	H11	0.856750	0.924450	0.326060
H121	H12	0.854500	0.828270	0.231990
H131	H13	0.672100	0.940760	0.115550
H141	H14	0.463490	0.153530	0.587920
H151	H15	0.068280	0.281460	0.407850
H161	H16	0.210230	0.280420	0.406870
H171	H17	0.458510	0.578570	0.026800
H181	H18	0.854120	0.535230	0.711520
H191	H19	0.671390	0.422830	0.827700
H201	H20	0.673580	0.326710	0.733490
H211	H21	0.856070	0.439260	0.617220
H221	H22	0.062890	0.642320	0.084590
H231	H23	0.458600	0.786790	0.916270
H241	H24	0.316750	0.786650	0.916000
H251	H25	0.209640	0.083530	0.536800
H261	H26	0.657690	0.022840	0.718440
H271	H27	0.872000	0.938600	0.631560
H281	H28	0.869030	0.840540	0.723680
H291	H29	0.655910	0.926170	0.812200
H301	H30	0.463020	0.207030	0.354060
H311	H31	0.321320	0.207710	0.354570
H321	H32	0.321810	0.153260	0.588040
C11	C1	0.765020	0.316930	0.334950
C21	C2	0.346930	0.625440	0.004270
C31	C3	0.764020	0.376070	0.276980
C41	C4	0.761630	0.489450	0.167410
C51	C5	0.760970	0.548090	0.108930
C61	C6	0.822720	0.483710	0.218950
C71	C7	0.701400	0.438020	0.172140
C81	C8	0.702840	0.381960	0.225570
C91	C9	0.823810	0.428070	0.272920
C101	C10	0.093270	0.703410	0.908180
C111	C11	0.174810	0.704970	0.908910
C121	C12	0.174620	0.659640	0.034920
C131	C13	0.761840	0.816930	0.107440
C141	C14	0.097950	0.126750	0.507840
C151	C15	0.762960	0.876040	0.165710
C161	C16	0.765430	0.988910	0.276250
C171	C17	0.766190	0.047820	0.334670
C181	C18	0.713890	0.991710	0.215480
C191	C19	0.815880	0.928750	0.280620
C201	C20	0.814620	0.873330	0.226390
C211	C21	0.712690	0.936310	0.161210
C221	C22	0.433390	0.165440	0.536440
C231	C23	0.098330	0.237850	0.436280
C241	C24	0.179910	0.237070	0.435420
C251	C25	0.765540	0.316060	0.608350
C261	C26	0.428460	0.624540	0.002690
C271	C27	0.764900	0.374720	0.667090
C281	C28	0.762510	0.487450	0.777730
C291	C29	0.761350	0.546730	0.835750
C301	C30	0.814240	0.490140	0.717120
C311	C31	0.712150	0.427220	0.782180
C321	C32	0.713390	0.371840	0.727890
C331	C33	0.815400	0.434820	0.662810
C341	C34	0.093060	0.659800	0.034840
C351	C35	0.428460	0.741100	0.940930
C361	C36	0.346870	0.740890	0.940530
C371	C37	0.761430	0.816020	0.834050
C381	C38	0.179520	0.127150	0.508730
C391	C39	0.762180	0.874900	0.775780
C401	C40	0.764610	0.988520	0.666420
C411	C41	0.765380	0.047430	0.608180
C421	C42	0.704440	0.983660	0.719050
C431	C43	0.823860	0.935990	0.669890
C441	C44	0.822340	0.879770	0.723170
C451	C45	0.703350	0.927940	0.772910
C461	C46	0.433150	0.195330	0.405670
C471	C47	0.351560	0.196100	0.406010
C481	C48	0.351830	0.164930	0.536450
C491	C49	0.470700	0.682660	0.971550
C501	C50	0.963620	0.681470	0.971250
C511	C51	0.557940	0.682410	0.971330
C521	C52	0.304560	0.683200	0.972530
C531	C53	0.050890	0.681400	0.971360
C541	C54	0.217050	0.682720	0.972160
C551	C55	0.055960	0.182340	0.471930
C561	C56	0.563010	0.181170	0.471080
C571	C57	0.968810	0.182300	0.471620
C581	C58	0.221990	0.181810	0.471890
C591	C59	0.475630	0.180590	0.471040
C601	C60	0.309420	0.180960	0.471440
O11	O1	0.714830	0.543040	0.053800
O21	O2	0.811120	0.321840	0.390150
O31	O3	0.806900	0.602180	0.114430
O41	O4	0.719550	0.262520	0.328900
O51	O5	0.926790	0.680910	0.032850
O61	O6	0.812010	0.042740	0.390160
O71	O7	0.715840	0.821960	0.052050
O81	O8	0.720630	0.102210	0.328630
O91	O9	0.807130	0.762340	0.113590
O101	O10	0.599920	0.181870	0.409520
O111	O11	0.715260	0.541960	0.891080
O121	O12	0.811400	0.321370	0.552880
O131	O13	0.806700	0.601240	0.829410
O141	O14	0.719960	0.261660	0.614110
O151	O15	0.926840	0.682260	0.909620
O161	O16	0.811560	0.042560	0.553050
O171	O17	0.715600	0.821270	0.889420
O181	O18	0.719600	0.101600	0.613940
O191	O19	0.806890	0.761590	0.828170
O201	O20	0.599820	0.181000	0.532730
O211	O21	0.760880	0.681960	0.971400
O221	O22	0.594550	0.622100	0.972710
O231	O23	0.594910	0.742530	0.970000
O241	O24	0.765910	0.182020	0.471400
O251	O25	0.932140	0.122040	0.473020
O261	O26	0.931990	0.242480	0.470090
Zn91	Zn9	0.176560	0.317890	0.112170
Zn101	Zn10	0.296760	0.818270	0.443860
Zn111	Zn11	0.176490	0.318100	0.943980
Zn121	Zn12	0.296380	0.817850	0.612020
Zn131	Zn13	0.301690	0.399970	0.027360
Zn141	Zn14	0.301470	0.235910	0.028400
Zn151	Zn15	0.171470	0.900040	0.527240
Zn161	Zn16	0.171460	0.736030	0.528220
H331	H33	0.683550	0.419930	0.971710
H341	H34	0.146940	0.463600	0.289350
H351	H35	0.326700	0.577810	0.170750
H361	H36	0.324530	0.674060	0.264790
H371	H37	0.145140	0.559690	0.383570
H381	H38	0.936760	0.354460	0.914360
H391	H39	0.932310	0.916610	0.461990
H401	H40	0.343510	0.977900	0.281760
H411	H41	0.127730	0.060640	0.366800
H421	H42	0.130710	0.158620	0.274650
H431	H43	0.345450	0.074670	0.188050
H441	H44	0.536850	0.787230	0.643930
H451	H45	0.931700	0.719630	0.592320
H461	H46	0.789950	0.720590	0.593380
H471	H47	0.541840	0.421760	0.973680
H481	H48	0.128370	0.479330	0.783550
H491	H49	0.347730	0.558010	0.863930
H501	H50	0.345010	0.655700	0.771380
H511	H51	0.126550	0.575830	0.689510
H521	H52	0.936580	0.279730	0.141990
H531	H53	0.795000	0.277450	0.141020
H541	H54	0.795100	0.354670	0.914340
H551	H55	0.540820	0.212850	0.082910
H561	H56	0.682710	0.212590	0.083510
H571	H57	0.790510	0.916380	0.461290
H581	H58	0.324620	0.962390	0.790280
H591	H59	0.146570	0.078020	0.670710
H601	H60	0.149140	0.174310	0.764650
H611	H61	0.326830	0.058500	0.884420
H621	H62	0.536290	0.851850	0.413000
H631	H63	0.677740	0.852680	0.412820
H641	H64	0.678450	0.787420	0.643650
C611	C61	0.234240	0.683880	0.391060
C621	C62	0.653200	0.374260	0.995890
C631	C63	0.234780	0.625160	0.332420
C641	C64	0.237040	0.512280	0.221920
C651	C65	0.238200	0.453000	0.163870
C661	C66	0.186150	0.509130	0.283170
C671	C67	0.286610	0.573030	0.216800
C681	C68	0.285390	0.628510	0.270980
C691	C69	0.185070	0.564540	0.337420
C701	C70	0.906680	0.337950	0.964480
C711	C71	0.238900	0.183790	0.165160
C721	C72	0.902030	0.873310	0.490640
C731	C73	0.238250	0.124950	0.223400
C741	C74	0.235840	0.011460	0.332800
C751	C75	0.234930	0.952520	0.390970
C761	C76	0.296470	0.016750	0.280700
C771	C77	0.176210	0.063580	0.328890
C781	C78	0.177700	0.119720	0.275570
C791	C79	0.297590	0.072460	0.226840
C801	C80	0.566740	0.801590	0.593000
C811	C81	0.901670	0.762960	0.563450
C821	C82	0.820110	0.763730	0.564370
C831	C83	0.234550	0.683240	0.664510
C841	C84	0.571680	0.375510	0.997500
C851	C85	0.235510	0.624150	0.722540
C861	C86	0.237840	0.510910	0.832320
C871	C87	0.238600	0.452210	0.890770
C881	C88	0.176270	0.517180	0.781360
C891	C89	0.298540	0.561800	0.826960
C901	C90	0.297190	0.617750	0.773370
C911	C91	0.175190	0.572760	0.727320
C921	C92	0.906600	0.296170	0.091800
C931	C93	0.825050	0.294660	0.091170
C941	C94	0.825120	0.338300	0.964540
C951	C95	0.571160	0.258610	0.058620
C961	C96	0.652760	0.258530	0.059160
C971	C97	0.238780	0.183500	0.891400
C981	C98	0.820490	0.872970	0.489900
C991	C99	0.238090	0.124710	0.832800
C1001	C100	0.235360	0.011790	0.722310
C1011	C101	0.234230	0.952610	0.664150
C1021	C102	0.285870	0.008230	0.783840
C1031	C103	0.186400	0.072960	0.716920
C1041	C104	0.187830	0.128430	0.771100
C1051	C105	0.287180	0.063650	0.838080
C1061	C106	0.566400	0.837600	0.463840
C1071	C107	0.647920	0.838400	0.463850
C1081	C108	0.648340	0.801250	0.592680
C1091	C109	0.529170	0.317380	0.028280
C1101	C110	0.036260	0.317600	0.028300
C1111	C111	0.441930	0.317780	0.028270
C1121	C112	0.695310	0.316190	0.027400
C1131	C113	0.948950	0.317350	0.028250
C1141	C114	0.782770	0.316260	0.027730
C1151	C115	0.944010	0.818140	0.527210
C1161	C116	0.436890	0.818590	0.528260
C1171	C117	0.031160	0.818100	0.527540
C1181	C118	0.777970	0.818690	0.527410
C1191	C119	0.524250	0.819230	0.528390
C1201	C120	0.690450	0.819560	0.528070
O271	O27	0.284260	0.457880	0.108520
O281	O28	0.188380	0.678670	0.446550
O291	O29	0.192940	0.398420	0.170170
O301	O30	0.279920	0.738220	0.385210
O311	O31	0.073050	0.317020	0.089910
O321	O32	0.188650	0.957410	0.446010
O331	O33	0.284630	0.178580	0.109710
O341	O34	0.280700	0.898330	0.385270
O351	O35	0.193350	0.238130	0.171100
O361	O36	0.400180	0.818810	0.466560
O371	O37	0.284940	0.457120	0.945760
O381	O38	0.188430	0.678340	0.609320
O391	O39	0.192660	0.398120	0.885290
O401	O40	0.280070	0.737610	0.670500
O411	O41	0.073070	0.318390	0.966680
O421	O42	0.188390	0.957660	0.608660
O431	O43	0.284470	0.178230	0.946990
O441	O44	0.279480	0.898020	0.670410
O451	O45	0.193380	0.238020	0.885380
O461	O46	0.399920	0.817850	0.589770
O471	O47	0.239030	0.317980	0.027970
O481	O48	0.405330	0.378100	0.026980
O491	O49	0.405000	0.257670	0.029330
O501	O50	0.234050	0.818060	0.527840
O511	O51	0.067920	0.878310	0.526100
O521	O52	0.067880	0.757870	0.529150
