data_FEFDEB_manual_PM
_symmetry_space_group_name_H-M	'P1'
_cell_length_a	19.256400
_cell_length_b	15.210000
_cell_length_c	15.210000
_cell_angle_alpha	90.000000
_cell_angle_beta	90.000000
_cell_angle_gamma	90.000000
_symmetry_Int_Tables_number 1

loop_
_symmetry_equiv_pos_as_xyz
'x,y,z'

loop_
_atom_site_label
_atom_site_type_symbol
_atom_site_fract_x
_atom_site_fract_y
_atom_site_fract_z
Zn11	Zn1	0.333100	0.006300	0.993120
Zn21	Zn2	0.167160	0.006280	0.993150
H11	H1	0.359320	0.975070	0.719770
H21	H2	0.359300	0.972800	0.559460
H31	H3	0.358930	0.038940	0.266610
H41	H4	0.358870	0.041070	0.426900
H51	H5	0.359300	0.279600	0.024300
H61	H6	0.359250	0.439880	0.026680
H71	H7	0.359230	0.732860	0.961900
H81	H8	0.359190	0.572590	0.959530
H91	H9	0.141020	0.036610	0.719590
H101	H10	0.141150	0.038870	0.559350
H111	H11	0.141470	0.972860	0.266660
H121	H12	0.141590	0.970550	0.426920
H131	H13	0.141140	0.732730	0.024600
H141	H14	0.141270	0.572520	0.027020
H151	H15	0.141090	0.279680	0.962260
H161	H16	0.141210	0.439930	0.959810
C11	C1	0.250120	0.005890	0.833790
C21	C2	0.250150	0.005810	0.734020
C31	C3	0.250220	0.005810	0.543540
C41	C4	0.250160	0.005960	0.152530
C51	C5	0.250200	0.005870	0.252300
C61	C6	0.250230	0.005810	0.442780
C71	C7	0.250170	0.165600	0.993290
C81	C8	0.250190	0.265350	0.993310
C91	C9	0.250230	0.455830	0.993260
C101	C10	0.250140	0.846870	0.993240
C111	C11	0.250180	0.747110	0.993250
C121	C12	0.250230	0.556620	0.993260
C131	C13	0.459840	0.916140	0.981260
C141	C14	0.459820	0.042030	0.077200
C151	C15	0.459790	0.062190	0.920310
C161	C16	0.040410	0.063660	0.921490
C171	C17	0.040370	0.916410	0.979480
C181	C18	0.040370	0.040330	0.077940
C191	C19	0.311210	0.988960	0.685620
C201	C20	0.311180	0.988390	0.592610
C211	C21	0.311020	0.023950	0.300720
C221	C22	0.310970	0.024480	0.393730
C231	C23	0.311210	0.313750	0.010300
C241	C24	0.311160	0.406760	0.010890
C251	C25	0.311170	0.698720	0.976070
C261	C26	0.311130	0.605700	0.975460
C271	C27	0.189140	0.022670	0.685540
C281	C28	0.189240	0.023240	0.592540
C291	C29	0.189400	0.987770	0.300750
C301	C30	0.189480	0.987160	0.393750
C311	C31	0.189220	0.698650	0.010450
C321	C32	0.189320	0.605660	0.011070
C331	C33	0.189190	0.313790	0.976270
C341	C34	0.189290	0.406790	0.975630
N11	N1	0.433180	0.006710	0.992950
N21	N2	0.067030	0.006730	0.992990
O11	O1	0.307540	0.888920	0.992930
O21	O2	0.192720	0.888880	0.993510
O31	O3	0.192740	0.005700	0.110520
O41	O4	0.192650	0.006240	0.875790
O51	O5	0.192670	0.123610	0.993020
O61	O6	0.307570	0.006350	0.110490
O71	O7	0.307560	0.005690	0.875810
O81	O8	0.307660	0.123610	0.993510
H181	H18	0.440260	0.873170	0.035010
H191	H19	0.440190	0.888200	0.918400
H201	H20	0.439780	0.109810	0.087810
H211	H21	0.440710	0.001250	0.132850
H221	H22	0.440260	0.037270	0.856190
H231	H23	0.440150	0.130590	0.927490
H241	H24	0.060240	0.131830	0.929820
H251	H25	0.059720	0.039810	0.856870
H261	H26	0.060300	0.889560	0.916290
H271	H27	0.059650	0.872510	0.032630
H281	H28	0.059680	0.998640	0.132780
H291	H29	0.060190	0.108010	0.089750
Zn31	Zn3	0.833090	0.006310	0.993110
Zn41	Zn4	0.667160	0.006290	0.993110
H301	H30	0.859380	0.975060	0.719730
H311	H31	0.859340	0.972760	0.559410
H321	H32	0.858930	0.038880	0.266550
H331	H33	0.858910	0.041010	0.426840
H341	H34	0.859260	0.279600	0.024240
H351	H35	0.859210	0.439890	0.026590
H361	H36	0.859200	0.732860	0.961790
H371	H37	0.859140	0.572590	0.959430
H381	H38	0.641090	0.036680	0.719570
H391	H39	0.641200	0.038910	0.559330
H401	H40	0.641460	0.972890	0.266660
H411	H41	0.641600	0.970580	0.426910
H421	H42	0.641130	0.732760	0.024570
H431	H43	0.641250	0.572540	0.026990
H441	H44	0.641040	0.279690	0.962260
H451	H45	0.641170	0.439940	0.959800
C351	C35	0.750190	0.005910	0.833760
C361	C36	0.750220	0.005830	0.733980
C371	C37	0.750270	0.005810	0.543510
C381	C38	0.750140	0.005960	0.152500
C391	C39	0.750190	0.005870	0.252270
C401	C40	0.750260	0.005800	0.442740
C411	C41	0.750120	0.165610	0.993260
C421	C42	0.750140	0.265360	0.993270
C431	C43	0.750190	0.455840	0.993210
C441	C44	0.750130	0.846880	0.993190
C451	C45	0.750160	0.747120	0.993200
C461	C46	0.750200	0.556630	0.993210
C471	C47	0.959840	0.916440	0.979230
C481	C48	0.959810	0.040120	0.078000
C491	C49	0.959790	0.063830	0.921600
C501	C50	0.540410	0.062000	0.920170
C511	C51	0.540370	0.916120	0.981530
C521	C52	0.540390	0.042270	0.077110
C531	C53	0.811270	0.988960	0.685580
C541	C54	0.811230	0.988380	0.592570
C551	C55	0.811030	0.023920	0.300670
C561	C56	0.810990	0.024440	0.393680
C571	C57	0.811170	0.313760	0.010240
C581	C58	0.811120	0.406770	0.010830
C591	C59	0.811140	0.698720	0.975980
C601	C60	0.811090	0.605710	0.975380
C611	C61	0.689210	0.022710	0.685510
C621	C62	0.689290	0.023270	0.592520
C631	C63	0.689390	0.987780	0.300730
C641	C64	0.689500	0.987170	0.393730
C651	C65	0.689200	0.698670	0.010400
C661	C66	0.689290	0.605670	0.011030
C671	C67	0.689140	0.313800	0.976250
C681	C68	0.689240	0.406800	0.975610
N31	N3	0.933180	0.006720	0.992960
N41	N4	0.567040	0.006720	0.992950
O91	O9	0.807530	0.888930	0.992900
O101	O10	0.692710	0.888890	0.993460
O111	O11	0.692720	0.005690	0.110490
O121	O12	0.692730	0.006260	0.875760
O131	O13	0.692620	0.123630	0.992980
O141	O14	0.807550	0.006360	0.110450
O151	O15	0.807640	0.005710	0.875770
O161	O16	0.807610	0.123620	0.993500
H491	H49	0.940290	0.872270	0.032010
H501	H50	0.940160	0.889910	0.915770
H511	H51	0.939790	0.107660	0.090120
H521	H52	0.940670	0.998100	0.132700
H531	H53	0.940260	0.040370	0.856930
H541	H54	0.940170	0.132060	0.930320
H551	H55	0.560270	0.130330	0.926900
H561	H56	0.559670	0.036630	0.856110
H571	H57	0.560290	0.887820	0.918970
H581	H58	0.559680	0.873450	0.035660
H591	H59	0.559720	0.001890	0.132900
H601	H60	0.560180	0.110220	0.087340
