data_FEFVES_freeONLY_PM
_symmetry_space_group_name_H-M	'P1'
_cell_length_a	14.785700
_cell_length_b	16.528400
_cell_length_c	10.230200
_cell_angle_alpha	90.000000
_cell_angle_beta	119.104000
_cell_angle_gamma	90.000000
_symmetry_Int_Tables_number 1

loop_
_symmetry_equiv_pos_as_xyz
'x,y,z'

loop_
_atom_site_label
_atom_site_type_symbol
_atom_site_fract_x
_atom_site_fract_y
_atom_site_fract_z
Zn11	Zn1	0.046930	0.045660	0.683150
C11	C1	0.123500	0.887600	0.837700
C21	C2	0.168200	0.811700	0.880600
C31	C3	0.198000	0.811000	0.684900
C41	C4	0.153700	0.886300	0.640600
C51	C5	0.081200	0.933900	0.923500
N11	N1	0.206000	0.772700	0.803500
N21	N2	0.115400	0.924800	0.716600
O11	O1	0.096300	0.905100	0.045000
O21	O2	0.034700	0.998300	0.865600
N31	N3	0.894200	0.022500	0.518700
N41	N4	0.513400	0.660800	0.739400
C61	C6	0.846900	0.076300	0.408900
C71	C7	0.750200	0.065200	0.288100
C81	C8	0.696000	0.994200	0.279300
C91	C9	0.743800	0.939500	0.396900
C101	C10	0.841500	0.955000	0.512000
C111	C11	0.553100	0.729000	0.718300
C121	C12	0.542800	0.802200	0.772500
C131	C13	0.490700	0.808800	0.851800
C141	C14	0.447200	0.738900	0.868900
C151	C15	0.459100	0.666900	0.809800
C161	C16	0.590500	0.978500	0.149200
C171	C17	0.592200	0.904500	0.060400
C181	C18	0.486800	0.886900	0.925500
H11	H1	0.160000	0.781000	0.970000
H21	H2	0.213000	0.781000	0.625000
H31	H3	0.149000	0.909000	0.559000
H41	H4	0.612000	0.853000	0.133000
H51	H5	0.432000	0.886000	0.953000
H61	H6	0.640000	0.912000	0.046000
H71	H7	0.530000	0.975000	0.167000
H81	H8	0.554000	0.032000	0.073000
H91	H9	0.430000	0.618000	0.820000
H101	H10	0.403000	0.734000	0.925000
H111	H11	0.458000	0.925000	0.860000
H121	H12	0.562000	0.848000	0.760000
H131	H13	0.605000	0.727000	0.678000
H141	H14	0.866000	0.921000	0.585000
H151	H15	0.710000	0.889000	0.412000
H161	H16	0.721000	0.099000	0.224000
H171	H17	0.884000	0.123000	0.408000
Zn21	Zn2	0.546930	0.545660	0.683150
C191	C19	0.623500	0.387600	0.837700
C201	C20	0.668200	0.311700	0.880600
C211	C21	0.698000	0.311000	0.684900
C221	C22	0.653700	0.386300	0.640600
C231	C23	0.581200	0.433900	0.923500
N51	N5	0.706000	0.272700	0.803500
N61	N6	0.615400	0.424800	0.716600
O31	O3	0.596300	0.405100	0.045000
O41	O4	0.534700	0.498300	0.865600
N71	N7	0.394200	0.522500	0.518700
N81	N8	0.013400	0.160800	0.739400
C241	C24	0.346900	0.576300	0.408900
C251	C25	0.250200	0.565200	0.288100
C261	C26	0.196000	0.494200	0.279300
C271	C27	0.243800	0.439500	0.396900
C281	C28	0.341500	0.455000	0.512000
C291	C29	0.053100	0.229000	0.718300
C301	C30	0.042800	0.302200	0.772500
C311	C31	0.990700	0.308800	0.851800
C321	C32	0.947200	0.238900	0.868900
C331	C33	0.959100	0.166900	0.809800
C341	C34	0.090500	0.478500	0.149200
C351	C35	0.092200	0.404500	0.060400
C361	C36	0.986800	0.386900	0.925500
H181	H18	0.660000	0.281000	0.970000
H191	H19	0.713000	0.281000	0.625000
H201	H20	0.649000	0.409000	0.559000
H211	H21	0.112000	0.353000	0.133000
H221	H22	0.932000	0.386000	0.953000
H231	H23	0.140000	0.412000	0.046000
H241	H24	0.030000	0.475000	0.167000
H251	H25	0.054000	0.532000	0.073000
H261	H26	0.930000	0.118000	0.820000
H271	H27	0.903000	0.234000	0.925000
H281	H28	0.958000	0.425000	0.860000
H291	H29	0.062000	0.348000	0.760000
H301	H30	0.105000	0.227000	0.678000
H311	H31	0.366000	0.421000	0.585000
H321	H32	0.210000	0.389000	0.412000
H331	H33	0.221000	0.599000	0.224000
H341	H34	0.384000	0.623000	0.408000
Zn31	Zn3	0.046930	0.954340	0.183150
C371	C37	0.123500	0.112400	0.337700
C381	C38	0.168200	0.188300	0.380600
C391	C39	0.198000	0.189000	0.184900
C401	C40	0.153700	0.113700	0.140600
C411	C41	0.081200	0.066100	0.423500
N91	N9	0.206000	0.227300	0.303500
N101	N10	0.115400	0.075200	0.216600
O51	O5	0.096300	0.094900	0.545000
O61	O6	0.034700	0.001700	0.365600
N111	N11	0.894200	0.977500	0.018700
N121	N12	0.513400	0.339200	0.239400
C421	C42	0.846900	0.923700	0.908900
C431	C43	0.750200	0.934800	0.788100
C441	C44	0.696000	0.005800	0.779300
C451	C45	0.743800	0.060500	0.896900
C461	C46	0.841500	0.045000	0.012000
C471	C47	0.553100	0.271000	0.218300
C481	C48	0.542800	0.197800	0.272500
C491	C49	0.490700	0.191200	0.351800
C501	C50	0.447200	0.261100	0.368900
C511	C51	0.459100	0.333100	0.309800
C521	C52	0.590500	0.021500	0.649200
C531	C53	0.592200	0.095500	0.560400
C541	C54	0.486800	0.113100	0.425500
H351	H35	0.160000	0.219000	0.470000
H361	H36	0.213000	0.219000	0.125000
H371	H37	0.149000	0.091000	0.059000
H381	H38	0.612000	0.147000	0.633000
H391	H39	0.432000	0.114000	0.453000
H401	H40	0.640000	0.088000	0.546000
H411	H41	0.530000	0.025000	0.667000
H421	H42	0.554000	0.968000	0.573000
H431	H43	0.430000	0.382000	0.320000
H441	H44	0.403000	0.266000	0.425000
H451	H45	0.458000	0.075000	0.360000
H461	H46	0.562000	0.152000	0.260000
H471	H47	0.605000	0.273000	0.178000
H481	H48	0.866000	0.079000	0.085000
H491	H49	0.710000	0.111000	0.912000
H501	H50	0.721000	0.901000	0.724000
H511	H51	0.884000	0.877000	0.908000
Zn41	Zn4	0.546930	0.454340	0.183150
C551	C55	0.623500	0.612400	0.337700
C561	C56	0.668200	0.688300	0.380600
C571	C57	0.698000	0.689000	0.184900
C581	C58	0.653700	0.613700	0.140600
C591	C59	0.581200	0.566100	0.423500
N131	N13	0.706000	0.727300	0.303500
N141	N14	0.615400	0.575200	0.216600
O71	O7	0.596300	0.594900	0.545000
O81	O8	0.534700	0.501700	0.365600
N151	N15	0.394200	0.477500	0.018700
N161	N16	0.013400	0.839200	0.239400
C601	C60	0.346900	0.423700	0.908900
C611	C61	0.250200	0.434800	0.788100
C621	C62	0.196000	0.505800	0.779300
C631	C63	0.243800	0.560500	0.896900
C641	C64	0.341500	0.545000	0.012000
C651	C65	0.053100	0.771000	0.218300
C661	C66	0.042800	0.697800	0.272500
C671	C67	0.990700	0.691200	0.351800
C681	C68	0.947200	0.761100	0.368900
C691	C69	0.959100	0.833100	0.309800
C701	C70	0.090500	0.521500	0.649200
C711	C71	0.092200	0.595500	0.560400
C721	C72	0.986800	0.613100	0.425500
H521	H52	0.660000	0.719000	0.470000
H531	H53	0.713000	0.719000	0.125000
H541	H54	0.649000	0.591000	0.059000
H551	H55	0.112000	0.647000	0.633000
H561	H56	0.932000	0.614000	0.453000
H571	H57	0.140000	0.588000	0.546000
H581	H58	0.030000	0.525000	0.667000
H591	H59	0.054000	0.468000	0.573000
H601	H60	0.930000	0.882000	0.320000
H611	H61	0.903000	0.766000	0.425000
H621	H62	0.958000	0.575000	0.360000
H631	H63	0.062000	0.652000	0.260000
H641	H64	0.105000	0.773000	0.178000
H651	H65	0.366000	0.579000	0.085000
H661	H66	0.210000	0.611000	0.912000
H671	H67	0.221000	0.401000	0.724000
H681	H68	0.384000	0.377000	0.908000
