data_FELWIE_freeONLY_PM
_symmetry_space_group_name_H-M	'P1'
_cell_length_a	18.675900
_cell_length_b	18.675900
_cell_length_c	18.675900
_cell_angle_alpha	60.000000
_cell_angle_beta	60.000000
_cell_angle_gamma	60.000000
_symmetry_Int_Tables_number 1

loop_
_symmetry_equiv_pos_as_xyz
'x,y,z'

loop_
_atom_site_label
_atom_site_type_symbol
_atom_site_fract_x
_atom_site_fract_y
_atom_site_fract_z
Ca11	Ca1	0.500000	0.500000	0.500000
Ca21	Ca2	0.000000	0.000000	0.500000
Ca31	Ca3	0.000000	0.500000	0.000000
Ca41	Ca4	0.000000	0.500000	0.500000
Ca51	Ca5	0.500000	0.500000	0.000000
Ca61	Ca6	0.000000	0.000000	0.000000
Ca71	Ca7	0.500000	0.000000	0.500000
Ca81	Ca8	0.500000	0.000000	0.000000
Tm11	Tm1	0.750000	0.250000	0.250000
Tm21	Tm2	0.750000	0.250000	0.750000
Tm31	Tm3	0.750000	0.750000	0.250000
Tm41	Tm4	0.250000	0.250000	0.250000
Tm51	Tm5	0.250000	0.750000	0.750000
Tm61	Tm6	0.250000	0.750000	0.250000
Tm71	Tm7	0.250000	0.250000	0.750000
Tm81	Tm8	0.750000	0.750000	0.750000
H11	H1	0.516500	0.416300	0.344100
H21	H2	0.577500	0.473500	0.294300
H31	H3	0.916300	0.016500	0.723100
H41	H4	0.973500	0.077500	0.654700
H51	H5	0.844100	0.723100	0.016500
H61	H6	0.794300	0.654700	0.077500
H71	H7	0.223100	0.344100	0.416300
H81	H8	0.154700	0.294300	0.473500
H91	H9	0.516500	0.344100	0.723100
H101	H10	0.577500	0.294300	0.654700
H111	H11	0.916300	0.723100	0.344100
H121	H12	0.973500	0.654700	0.294300
H131	H13	0.844100	0.016500	0.416300
H141	H14	0.794300	0.077500	0.473500
H151	H15	0.223100	0.416300	0.016500
H161	H16	0.154700	0.473500	0.077500
H171	H17	0.516500	0.723100	0.416300
H181	H18	0.577500	0.654700	0.473500
H191	H19	0.916300	0.344100	0.016500
H201	H20	0.973500	0.294300	0.077500
H211	H21	0.844100	0.416300	0.723100
H221	H22	0.794300	0.473500	0.654700
H231	H23	0.223100	0.016500	0.344100
H241	H24	0.154700	0.077500	0.294300
H251	H25	0.583700	0.483500	0.155900
H261	H26	0.526500	0.422500	0.205700
H271	H27	0.983500	0.083700	0.776900
H281	H28	0.922500	0.026500	0.845300
H291	H29	0.276900	0.155900	0.483500
H301	H30	0.345300	0.205700	0.422500
H311	H31	0.655900	0.776900	0.083700
H321	H32	0.705700	0.845300	0.026500
H331	H33	0.655900	0.483500	0.776900
H341	H34	0.705700	0.422500	0.845300
H351	H35	0.276900	0.083700	0.155900
H361	H36	0.345300	0.026500	0.205700
H371	H37	0.983500	0.155900	0.083700
H381	H38	0.922500	0.205700	0.026500
H391	H39	0.583700	0.776900	0.483500
H401	H40	0.526500	0.845300	0.422500
H411	H41	0.276900	0.483500	0.083700
H421	H42	0.345300	0.422500	0.026500
H431	H43	0.655900	0.083700	0.483500
H441	H44	0.705700	0.026500	0.422500
H451	H45	0.583700	0.155900	0.776900
H461	H46	0.526500	0.205700	0.845300
H471	H47	0.983500	0.776900	0.155900
H481	H48	0.922500	0.845300	0.205700
H491	H49	0.483500	0.583700	0.655900
H501	H50	0.422500	0.526500	0.705700
H511	H51	0.083700	0.983500	0.276900
H521	H52	0.026500	0.922500	0.345300
H531	H53	0.155900	0.276900	0.983500
H541	H54	0.205700	0.345300	0.922500
H551	H55	0.776900	0.655900	0.583700
H561	H56	0.845300	0.705700	0.526500
H571	H57	0.483500	0.655900	0.276900
H581	H58	0.422500	0.705700	0.345300
H591	H59	0.083700	0.276900	0.655900
H601	H60	0.026500	0.345300	0.705700
H611	H61	0.155900	0.983500	0.583700
H621	H62	0.205700	0.922500	0.526500
H631	H63	0.776900	0.583700	0.983500
H641	H64	0.845300	0.526500	0.922500
H651	H65	0.483500	0.276900	0.583700
H661	H66	0.422500	0.345300	0.526500
H671	H67	0.083700	0.655900	0.983500
H681	H68	0.026500	0.705700	0.922500
H691	H69	0.155900	0.583700	0.276900
H701	H70	0.205700	0.526500	0.345300
H711	H71	0.776900	0.983500	0.655900
H721	H72	0.845300	0.922500	0.705700
H731	H73	0.416300	0.516500	0.844100
H741	H74	0.473500	0.577500	0.794300
H751	H75	0.016500	0.916300	0.223100
H761	H76	0.077500	0.973500	0.154700
H771	H77	0.723100	0.844100	0.516500
H781	H78	0.654700	0.794300	0.577500
H791	H79	0.344100	0.223100	0.916300
H801	H80	0.294300	0.154700	0.973500
H811	H81	0.344100	0.516500	0.223100
H821	H82	0.294300	0.577500	0.154700
H831	H83	0.723100	0.916300	0.844100
H841	H84	0.654700	0.973500	0.794300
H851	H85	0.016500	0.844100	0.916300
H861	H86	0.077500	0.794300	0.973500
H871	H87	0.416300	0.223100	0.516500
H881	H88	0.473500	0.154700	0.577500
H891	H89	0.723100	0.516500	0.916300
H901	H90	0.654700	0.577500	0.973500
H911	H91	0.344100	0.916300	0.516500
H921	H92	0.294300	0.973500	0.577500
H931	H93	0.416300	0.844100	0.223100
H941	H94	0.473500	0.794300	0.154700
H951	H95	0.016500	0.223100	0.844100
H961	H96	0.077500	0.154700	0.794300
C11	C1	0.577220	0.414180	0.317480
C21	C2	0.621400	0.358600	0.385600
C31	C3	0.914180	0.077220	0.691120
C41	C4	0.858600	0.121400	0.634400
C51	C5	0.817480	0.691120	0.077220
C61	C6	0.885600	0.634400	0.121400
C71	C7	0.191120	0.317480	0.414180
C81	C8	0.134400	0.385600	0.358600
C91	C9	0.577220	0.317480	0.691120
C101	C10	0.621400	0.385600	0.634400
C111	C11	0.914180	0.691120	0.317480
C121	C12	0.858600	0.634400	0.385600
C131	C13	0.817480	0.077220	0.414180
C141	C14	0.885600	0.121400	0.358600
C151	C15	0.191120	0.414180	0.077220
C161	C16	0.134400	0.358600	0.121400
C171	C17	0.577220	0.691120	0.414180
C181	C18	0.621400	0.634400	0.358600
C191	C19	0.914180	0.317480	0.077220
C201	C20	0.858600	0.385600	0.121400
C211	C21	0.817480	0.414180	0.691120
C221	C22	0.885600	0.358600	0.634400
C231	C23	0.191120	0.077220	0.317480
C241	C24	0.134400	0.121400	0.385600
C251	C25	0.585820	0.422780	0.182520
C261	C26	0.641400	0.378600	0.114400
C271	C27	0.922780	0.085820	0.808880
C281	C28	0.878600	0.141400	0.865600
C291	C29	0.308880	0.182520	0.422780
C301	C30	0.365600	0.114400	0.378600
C311	C31	0.682520	0.808880	0.085820
C321	C32	0.614400	0.865600	0.141400
C331	C33	0.682520	0.422780	0.808880
C341	C34	0.614400	0.378600	0.865600
C351	C35	0.308880	0.085820	0.182520
C361	C36	0.365600	0.141400	0.114400
C371	C37	0.922780	0.182520	0.085820
C381	C38	0.878600	0.114400	0.141400
C391	C39	0.585820	0.808880	0.422780
C401	C40	0.641400	0.865600	0.378600
C411	C41	0.308880	0.422780	0.085820
C421	C42	0.365600	0.378600	0.141400
C431	C43	0.682520	0.085820	0.422780
C441	C44	0.614400	0.141400	0.378600
C451	C45	0.585820	0.182520	0.808880
C461	C46	0.641400	0.114400	0.865600
C471	C47	0.922780	0.808880	0.182520
C481	C48	0.878600	0.865600	0.114400
C491	C49	0.422780	0.585820	0.682520
C501	C50	0.378600	0.641400	0.614400
C511	C51	0.085820	0.922780	0.308880
C521	C52	0.141400	0.878600	0.365600
C531	C53	0.182520	0.308880	0.922780
C541	C54	0.114400	0.365600	0.878600
C551	C55	0.808880	0.682520	0.585820
C561	C56	0.865600	0.614400	0.641400
C571	C57	0.422780	0.682520	0.308880
C581	C58	0.378600	0.614400	0.365600
C591	C59	0.085820	0.308880	0.682520
C601	C60	0.141400	0.365600	0.614400
C611	C61	0.182520	0.922780	0.585820
C621	C62	0.114400	0.878600	0.641400
C631	C63	0.808880	0.585820	0.922780
C641	C64	0.865600	0.641400	0.878600
C651	C65	0.422780	0.308880	0.585820
C661	C66	0.378600	0.365600	0.641400
C671	C67	0.085820	0.682520	0.922780
C681	C68	0.141400	0.614400	0.878600
C691	C69	0.182520	0.585820	0.308880
C701	C70	0.114400	0.641400	0.365600
C711	C71	0.808880	0.922780	0.682520
C721	C72	0.865600	0.878600	0.614400
C731	C73	0.414180	0.577220	0.817480
C741	C74	0.358600	0.621400	0.885600
C751	C75	0.077220	0.914180	0.191120
C761	C76	0.121400	0.858600	0.134400
C771	C77	0.691120	0.817480	0.577220
C781	C78	0.634400	0.885600	0.621400
C791	C79	0.317480	0.191120	0.914180
C801	C80	0.385600	0.134400	0.858600
C811	C81	0.317480	0.577220	0.191120
C821	C82	0.385600	0.621400	0.134400
C831	C83	0.691120	0.914180	0.817480
C841	C84	0.634400	0.858600	0.885600
C851	C85	0.077220	0.817480	0.914180
C861	C86	0.121400	0.885600	0.858600
C871	C87	0.414180	0.191120	0.577220
C881	C88	0.358600	0.134400	0.621400
C891	C89	0.691120	0.577220	0.914180
C901	C90	0.634400	0.621400	0.858600
C911	C91	0.317480	0.914180	0.577220
C921	C92	0.385600	0.858600	0.621400
C931	C93	0.414180	0.817480	0.191120
C941	C94	0.358600	0.885600	0.134400
C951	C95	0.077220	0.191120	0.817480
C961	C96	0.121400	0.134400	0.885600
O11	O1	0.688120	0.294060	0.371780
O21	O2	0.590200	0.380440	0.451340
O31	O3	0.794060	0.188120	0.646040
O41	O4	0.880440	0.090200	0.578020
O51	O5	0.871780	0.646040	0.188120
O61	O6	0.951340	0.578020	0.090200
O71	O7	0.146040	0.371780	0.294060
O81	O8	0.078020	0.451340	0.380440
O91	O9	0.688120	0.371780	0.646040
O101	O10	0.590200	0.451340	0.578020
O111	O11	0.794060	0.646040	0.371780
O121	O12	0.880440	0.578020	0.451340
O131	O13	0.871780	0.188120	0.294060
O141	O14	0.951340	0.090200	0.380440
O151	O15	0.146040	0.294060	0.188120
O161	O16	0.078020	0.380440	0.090200
O171	O17	0.688120	0.646040	0.294060
O181	O18	0.590200	0.578020	0.380440
O191	O19	0.794060	0.371780	0.188120
O201	O20	0.880440	0.451340	0.090200
O211	O21	0.871780	0.294060	0.646040
O221	O22	0.951340	0.380440	0.578020
O231	O23	0.146040	0.188120	0.371780
O241	O24	0.078020	0.090200	0.451340
O251	O25	0.705940	0.311880	0.128220
O261	O26	0.619560	0.409800	0.048660
O271	O27	0.811880	0.205940	0.853960
O281	O28	0.909800	0.119560	0.921980
O291	O29	0.353960	0.128220	0.311880
O301	O30	0.421980	0.048660	0.409800
O311	O31	0.628220	0.853960	0.205940
O321	O32	0.548660	0.921980	0.119560
O331	O33	0.628220	0.311880	0.853960
O341	O34	0.548660	0.409800	0.921980
O351	O35	0.353960	0.205940	0.128220
O361	O36	0.421980	0.119560	0.048660
O371	O37	0.811880	0.128220	0.205940
O381	O38	0.909800	0.048660	0.119560
O391	O39	0.705940	0.853960	0.311880
O401	O40	0.619560	0.921980	0.409800
O411	O41	0.353960	0.311880	0.205940
O421	O42	0.421980	0.409800	0.119560
O431	O43	0.628220	0.205940	0.311880
O441	O44	0.548660	0.119560	0.409800
O451	O45	0.705940	0.128220	0.853960
O461	O46	0.619560	0.048660	0.921980
O471	O47	0.811880	0.853960	0.128220
O481	O48	0.909800	0.921980	0.048660
O491	O49	0.311880	0.705940	0.628220
O501	O50	0.409800	0.619560	0.548660
O511	O51	0.205940	0.811880	0.353960
O521	O52	0.119560	0.909800	0.421980
O531	O53	0.128220	0.353960	0.811880
O541	O54	0.048660	0.421980	0.909800
O551	O55	0.853960	0.628220	0.705940
O561	O56	0.921980	0.548660	0.619560
O571	O57	0.311880	0.628220	0.353960
O581	O58	0.409800	0.548660	0.421980
O591	O59	0.205940	0.353960	0.628220
O601	O60	0.119560	0.421980	0.548660
O611	O61	0.128220	0.811880	0.705940
O621	O62	0.048660	0.909800	0.619560
O631	O63	0.853960	0.705940	0.811880
O641	O64	0.921980	0.619560	0.909800
O651	O65	0.311880	0.353960	0.705940
O661	O66	0.409800	0.421980	0.619560
O671	O67	0.205940	0.628220	0.811880
O681	O68	0.119560	0.548660	0.909800
O691	O69	0.128220	0.705940	0.353960
O701	O70	0.048660	0.619560	0.421980
O711	O71	0.853960	0.811880	0.628220
O721	O72	0.921980	0.909800	0.548660
O731	O73	0.294060	0.688120	0.871780
O741	O74	0.380440	0.590200	0.951340
O751	O75	0.188120	0.794060	0.146040
O761	O76	0.090200	0.880440	0.078020
O771	O77	0.646040	0.871780	0.688120
O781	O78	0.578020	0.951340	0.590200
O791	O79	0.371780	0.146040	0.794060
O801	O80	0.451340	0.078020	0.880440
O811	O81	0.371780	0.688120	0.146040
O821	O82	0.451340	0.590200	0.078020
O831	O83	0.646040	0.794060	0.871780
O841	O84	0.578020	0.880440	0.951340
O851	O85	0.188120	0.871780	0.794060
O861	O86	0.090200	0.951340	0.880440
O871	O87	0.294060	0.146040	0.688120
O881	O88	0.380440	0.078020	0.590200
O891	O89	0.646040	0.688120	0.794060
O901	O90	0.578020	0.590200	0.880440
O911	O91	0.371780	0.794060	0.688120
O921	O92	0.451340	0.880440	0.590200
O931	O93	0.294060	0.871780	0.146040
O941	O94	0.380440	0.951340	0.078020
O951	O95	0.188120	0.146040	0.871780
O961	O96	0.090200	0.078020	0.951340
O971	O97	0.620180	0.379820	0.250000
O981	O98	0.879820	0.120180	0.750000
O991	O99	0.750000	0.750000	0.120180
O1001	O100	0.250000	0.250000	0.379820
O1011	O101	0.620180	0.250000	0.750000
O1021	O102	0.879820	0.750000	0.250000
O1031	O103	0.750000	0.120180	0.379820
O1041	O104	0.250000	0.379820	0.120180
O1051	O105	0.620180	0.750000	0.379820
O1061	O106	0.879820	0.250000	0.120180
O1071	O107	0.750000	0.379820	0.750000
O1081	O108	0.250000	0.120180	0.250000
O1091	O109	0.379820	0.620180	0.750000
O1101	O110	0.120180	0.879820	0.250000
O1111	O111	0.250000	0.250000	0.879820
O1121	O112	0.750000	0.750000	0.620180
O1131	O113	0.379820	0.750000	0.250000
O1141	O114	0.120180	0.250000	0.750000
O1151	O115	0.250000	0.879820	0.620180
O1161	O116	0.750000	0.620180	0.879820
O1171	O117	0.379820	0.250000	0.620180
O1181	O118	0.120180	0.750000	0.879820
O1191	O119	0.250000	0.620180	0.250000
O1201	O120	0.750000	0.879820	0.750000
