data_FELWAW_freeONLY_PM
_symmetry_space_group_name_H-M	'P1'
_cell_length_a	18.625000
_cell_length_b	18.625000
_cell_length_c	18.625000
_cell_angle_alpha	60.000000
_cell_angle_beta	60.000000
_cell_angle_gamma	60.000000
_symmetry_Int_Tables_number 1

loop_
_symmetry_equiv_pos_as_xyz
'x,y,z'

loop_
_atom_site_label
_atom_site_type_symbol
_atom_site_fract_x
_atom_site_fract_y
_atom_site_fract_z
Ca11	Ca1	0.500000	0.500000	0.500000
Ca21	Ca2	0.000000	0.000000	0.500000
Ca31	Ca3	0.000000	0.500000	0.000000
Ca41	Ca4	0.000000	0.500000	0.500000
Ca51	Ca5	0.500000	0.500000	0.000000
Ca61	Ca6	0.000000	0.000000	0.000000
Ca71	Ca7	0.500000	0.000000	0.500000
Ca81	Ca8	0.500000	0.000000	0.000000
Lu11	Lu1	0.750000	0.250000	0.250000
Lu21	Lu2	0.750000	0.250000	0.750000
Lu31	Lu3	0.750000	0.750000	0.250000
Lu41	Lu4	0.250000	0.250000	0.250000
Lu51	Lu5	0.250000	0.750000	0.750000
Lu61	Lu6	0.250000	0.750000	0.250000
Lu71	Lu7	0.250000	0.250000	0.750000
Lu81	Lu8	0.750000	0.750000	0.750000
H11	H1	0.516300	0.416100	0.344700
H21	H2	0.577400	0.473600	0.294600
H31	H3	0.916100	0.016300	0.722900
H41	H4	0.973600	0.077400	0.654400
H51	H5	0.844700	0.722900	0.016300
H61	H6	0.794600	0.654400	0.077400
H71	H7	0.222900	0.344700	0.416100
H81	H8	0.154400	0.294600	0.473600
H91	H9	0.516300	0.344700	0.722900
H101	H10	0.577400	0.294600	0.654400
H111	H11	0.916100	0.722900	0.344700
H121	H12	0.973600	0.654400	0.294600
H131	H13	0.844700	0.016300	0.416100
H141	H14	0.794600	0.077400	0.473600
H151	H15	0.222900	0.416100	0.016300
H161	H16	0.154400	0.473600	0.077400
H171	H17	0.516300	0.722900	0.416100
H181	H18	0.577400	0.654400	0.473600
H191	H19	0.916100	0.344700	0.016300
H201	H20	0.973600	0.294600	0.077400
H211	H21	0.844700	0.416100	0.722900
H221	H22	0.794600	0.473600	0.654400
H231	H23	0.222900	0.016300	0.344700
H241	H24	0.154400	0.077400	0.294600
H251	H25	0.583900	0.483700	0.155300
H261	H26	0.526400	0.422600	0.205400
H271	H27	0.983700	0.083900	0.777100
H281	H28	0.922600	0.026400	0.845600
H291	H29	0.277100	0.155300	0.483700
H301	H30	0.345600	0.205400	0.422600
H311	H31	0.655300	0.777100	0.083900
H321	H32	0.705400	0.845600	0.026400
H331	H33	0.655300	0.483700	0.777100
H341	H34	0.705400	0.422600	0.845600
H351	H35	0.277100	0.083900	0.155300
H361	H36	0.345600	0.026400	0.205400
H371	H37	0.983700	0.155300	0.083900
H381	H38	0.922600	0.205400	0.026400
H391	H39	0.583900	0.777100	0.483700
H401	H40	0.526400	0.845600	0.422600
H411	H41	0.277100	0.483700	0.083900
H421	H42	0.345600	0.422600	0.026400
H431	H43	0.655300	0.083900	0.483700
H441	H44	0.705400	0.026400	0.422600
H451	H45	0.583900	0.155300	0.777100
H461	H46	0.526400	0.205400	0.845600
H471	H47	0.983700	0.777100	0.155300
H481	H48	0.922600	0.845600	0.205400
H491	H49	0.483700	0.583900	0.655300
H501	H50	0.422600	0.526400	0.705400
H511	H51	0.083900	0.983700	0.277100
H521	H52	0.026400	0.922600	0.345600
H531	H53	0.155300	0.277100	0.983700
H541	H54	0.205400	0.345600	0.922600
H551	H55	0.777100	0.655300	0.583900
H561	H56	0.845600	0.705400	0.526400
H571	H57	0.483700	0.655300	0.277100
H581	H58	0.422600	0.705400	0.345600
H591	H59	0.083900	0.277100	0.655300
H601	H60	0.026400	0.345600	0.705400
H611	H61	0.155300	0.983700	0.583900
H621	H62	0.205400	0.922600	0.526400
H631	H63	0.777100	0.583900	0.983700
H641	H64	0.845600	0.526400	0.922600
H651	H65	0.483700	0.277100	0.583900
H661	H66	0.422600	0.345600	0.526400
H671	H67	0.083900	0.655300	0.983700
H681	H68	0.026400	0.705400	0.922600
H691	H69	0.155300	0.583900	0.277100
H701	H70	0.205400	0.526400	0.345600
H711	H71	0.777100	0.983700	0.655300
H721	H72	0.845600	0.922600	0.705400
H731	H73	0.416100	0.516300	0.844700
H741	H74	0.473600	0.577400	0.794600
H751	H75	0.016300	0.916100	0.222900
H761	H76	0.077400	0.973600	0.154400
H771	H77	0.722900	0.844700	0.516300
H781	H78	0.654400	0.794600	0.577400
H791	H79	0.344700	0.222900	0.916100
H801	H80	0.294600	0.154400	0.973600
H811	H81	0.344700	0.516300	0.222900
H821	H82	0.294600	0.577400	0.154400
H831	H83	0.722900	0.916100	0.844700
H841	H84	0.654400	0.973600	0.794600
H851	H85	0.016300	0.844700	0.916100
H861	H86	0.077400	0.794600	0.973600
H871	H87	0.416100	0.222900	0.516300
H881	H88	0.473600	0.154400	0.577400
H891	H89	0.722900	0.516300	0.916100
H901	H90	0.654400	0.577400	0.973600
H911	H91	0.344700	0.916100	0.516300
H921	H92	0.294600	0.973600	0.577400
H931	H93	0.416100	0.844700	0.222900
H941	H94	0.473600	0.794600	0.154400
H951	H95	0.016300	0.222900	0.844700
H961	H96	0.077400	0.154400	0.794600
C11	C1	0.577040	0.414160	0.317920
C21	C2	0.621920	0.358280	0.385520
C31	C3	0.914160	0.077040	0.690880
C41	C4	0.858280	0.121920	0.634280
C51	C5	0.817920	0.690880	0.077040
C61	C6	0.885520	0.634280	0.121920
C71	C7	0.190880	0.317920	0.414160
C81	C8	0.134280	0.385520	0.358280
C91	C9	0.577040	0.317920	0.690880
C101	C10	0.621920	0.385520	0.634280
C111	C11	0.914160	0.690880	0.317920
C121	C12	0.858280	0.634280	0.385520
C131	C13	0.817920	0.077040	0.414160
C141	C14	0.885520	0.121920	0.358280
C151	C15	0.190880	0.414160	0.077040
C161	C16	0.134280	0.358280	0.121920
C171	C17	0.577040	0.690880	0.414160
C181	C18	0.621920	0.634280	0.358280
C191	C19	0.914160	0.317920	0.077040
C201	C20	0.858280	0.385520	0.121920
C211	C21	0.817920	0.414160	0.690880
C221	C22	0.885520	0.358280	0.634280
C231	C23	0.190880	0.077040	0.317920
C241	C24	0.134280	0.121920	0.385520
C251	C25	0.585840	0.422960	0.182080
C261	C26	0.641720	0.378080	0.114480
C271	C27	0.922960	0.085840	0.809120
C281	C28	0.878080	0.141720	0.865720
C291	C29	0.309120	0.182080	0.422960
C301	C30	0.365720	0.114480	0.378080
C311	C31	0.682080	0.809120	0.085840
C321	C32	0.614480	0.865720	0.141720
C331	C33	0.682080	0.422960	0.809120
C341	C34	0.614480	0.378080	0.865720
C351	C35	0.309120	0.085840	0.182080
C361	C36	0.365720	0.141720	0.114480
C371	C37	0.922960	0.182080	0.085840
C381	C38	0.878080	0.114480	0.141720
C391	C39	0.585840	0.809120	0.422960
C401	C40	0.641720	0.865720	0.378080
C411	C41	0.309120	0.422960	0.085840
C421	C42	0.365720	0.378080	0.141720
C431	C43	0.682080	0.085840	0.422960
C441	C44	0.614480	0.141720	0.378080
C451	C45	0.585840	0.182080	0.809120
C461	C46	0.641720	0.114480	0.865720
C471	C47	0.922960	0.809120	0.182080
C481	C48	0.878080	0.865720	0.114480
C491	C49	0.422960	0.585840	0.682080
C501	C50	0.378080	0.641720	0.614480
C511	C51	0.085840	0.922960	0.309120
C521	C52	0.141720	0.878080	0.365720
C531	C53	0.182080	0.309120	0.922960
C541	C54	0.114480	0.365720	0.878080
C551	C55	0.809120	0.682080	0.585840
C561	C56	0.865720	0.614480	0.641720
C571	C57	0.422960	0.682080	0.309120
C581	C58	0.378080	0.614480	0.365720
C591	C59	0.085840	0.309120	0.682080
C601	C60	0.141720	0.365720	0.614480
C611	C61	0.182080	0.922960	0.585840
C621	C62	0.114480	0.878080	0.641720
C631	C63	0.809120	0.585840	0.922960
C641	C64	0.865720	0.641720	0.878080
C651	C65	0.422960	0.309120	0.585840
C661	C66	0.378080	0.365720	0.641720
C671	C67	0.085840	0.682080	0.922960
C681	C68	0.141720	0.614480	0.878080
C691	C69	0.182080	0.585840	0.309120
C701	C70	0.114480	0.641720	0.365720
C711	C71	0.809120	0.922960	0.682080
C721	C72	0.865720	0.878080	0.614480
C731	C73	0.414160	0.577040	0.817920
C741	C74	0.358280	0.621920	0.885520
C751	C75	0.077040	0.914160	0.190880
C761	C76	0.121920	0.858280	0.134280
C771	C77	0.690880	0.817920	0.577040
C781	C78	0.634280	0.885520	0.621920
C791	C79	0.317920	0.190880	0.914160
C801	C80	0.385520	0.134280	0.858280
C811	C81	0.317920	0.577040	0.190880
C821	C82	0.385520	0.621920	0.134280
C831	C83	0.690880	0.914160	0.817920
C841	C84	0.634280	0.858280	0.885520
C851	C85	0.077040	0.817920	0.914160
C861	C86	0.121920	0.885520	0.858280
C871	C87	0.414160	0.190880	0.577040
C881	C88	0.358280	0.134280	0.621920
C891	C89	0.690880	0.577040	0.914160
C901	C90	0.634280	0.621920	0.858280
C911	C91	0.317920	0.914160	0.577040
C921	C92	0.385520	0.858280	0.621920
C931	C93	0.414160	0.817920	0.190880
C941	C94	0.358280	0.885520	0.134280
C951	C95	0.077040	0.190880	0.817920
C961	C96	0.121920	0.134280	0.885520
O11	O1	0.688720	0.293620	0.371140
O21	O2	0.590870	0.379230	0.451710
O31	O3	0.793620	0.188720	0.646520
O41	O4	0.879230	0.090870	0.578190
O51	O5	0.871140	0.646520	0.188720
O61	O6	0.951710	0.578190	0.090870
O71	O7	0.146520	0.371140	0.293620
O81	O8	0.078190	0.451710	0.379230
O91	O9	0.688720	0.371140	0.646520
O101	O10	0.590870	0.451710	0.578190
O111	O11	0.793620	0.646520	0.371140
O121	O12	0.879230	0.578190	0.451710
O131	O13	0.871140	0.188720	0.293620
O141	O14	0.951710	0.090870	0.379230
O151	O15	0.146520	0.293620	0.188720
O161	O16	0.078190	0.379230	0.090870
O171	O17	0.688720	0.646520	0.293620
O181	O18	0.590870	0.578190	0.379230
O191	O19	0.793620	0.371140	0.188720
O201	O20	0.879230	0.451710	0.090870
O211	O21	0.871140	0.293620	0.646520
O221	O22	0.951710	0.379230	0.578190
O231	O23	0.146520	0.188720	0.371140
O241	O24	0.078190	0.090870	0.451710
O251	O25	0.706380	0.311280	0.128860
O261	O26	0.620770	0.409130	0.048290
O271	O27	0.811280	0.206380	0.853480
O281	O28	0.909130	0.120770	0.921810
O291	O29	0.353480	0.128860	0.311280
O301	O30	0.421810	0.048290	0.409130
O311	O31	0.628860	0.853480	0.206380
O321	O32	0.548290	0.921810	0.120770
O331	O33	0.628860	0.311280	0.853480
O341	O34	0.548290	0.409130	0.921810
O351	O35	0.353480	0.206380	0.128860
O361	O36	0.421810	0.120770	0.048290
O371	O37	0.811280	0.128860	0.206380
O381	O38	0.909130	0.048290	0.120770
O391	O39	0.706380	0.853480	0.311280
O401	O40	0.620770	0.921810	0.409130
O411	O41	0.353480	0.311280	0.206380
O421	O42	0.421810	0.409130	0.120770
O431	O43	0.628860	0.206380	0.311280
O441	O44	0.548290	0.120770	0.409130
O451	O45	0.706380	0.128860	0.853480
O461	O46	0.620770	0.048290	0.921810
O471	O47	0.811280	0.853480	0.128860
O481	O48	0.909130	0.921810	0.048290
O491	O49	0.311280	0.706380	0.628860
O501	O50	0.409130	0.620770	0.548290
O511	O51	0.206380	0.811280	0.353480
O521	O52	0.120770	0.909130	0.421810
O531	O53	0.128860	0.353480	0.811280
O541	O54	0.048290	0.421810	0.909130
O551	O55	0.853480	0.628860	0.706380
O561	O56	0.921810	0.548290	0.620770
O571	O57	0.311280	0.628860	0.353480
O581	O58	0.409130	0.548290	0.421810
O591	O59	0.206380	0.353480	0.628860
O601	O60	0.120770	0.421810	0.548290
O611	O61	0.128860	0.811280	0.706380
O621	O62	0.048290	0.909130	0.620770
O631	O63	0.853480	0.706380	0.811280
O641	O64	0.921810	0.620770	0.909130
O651	O65	0.311280	0.353480	0.706380
O661	O66	0.409130	0.421810	0.620770
O671	O67	0.206380	0.628860	0.811280
O681	O68	0.120770	0.548290	0.909130
O691	O69	0.128860	0.706380	0.353480
O701	O70	0.048290	0.620770	0.421810
O711	O71	0.853480	0.811280	0.628860
O721	O72	0.921810	0.909130	0.548290
O731	O73	0.293620	0.688720	0.871140
O741	O74	0.379230	0.590870	0.951710
O751	O75	0.188720	0.793620	0.146520
O761	O76	0.090870	0.879230	0.078190
O771	O77	0.646520	0.871140	0.688720
O781	O78	0.578190	0.951710	0.590870
O791	O79	0.371140	0.146520	0.793620
O801	O80	0.451710	0.078190	0.879230
O811	O81	0.371140	0.688720	0.146520
O821	O82	0.451710	0.590870	0.078190
O831	O83	0.646520	0.793620	0.871140
O841	O84	0.578190	0.879230	0.951710
O851	O85	0.188720	0.871140	0.793620
O861	O86	0.090870	0.951710	0.879230
O871	O87	0.293620	0.146520	0.688720
O881	O88	0.379230	0.078190	0.590870
O891	O89	0.646520	0.688720	0.793620
O901	O90	0.578190	0.590870	0.879230
O911	O91	0.371140	0.793620	0.688720
O921	O92	0.451710	0.879230	0.590870
O931	O93	0.293620	0.871140	0.146520
O941	O94	0.379230	0.951710	0.078190
O951	O95	0.188720	0.146520	0.871140
O961	O96	0.090870	0.078190	0.951710
O971	O97	0.620740	0.379260	0.250000
O981	O98	0.879260	0.120740	0.750000
O991	O99	0.750000	0.750000	0.120740
O1001	O100	0.250000	0.250000	0.379260
O1011	O101	0.620740	0.250000	0.750000
O1021	O102	0.879260	0.750000	0.250000
O1031	O103	0.750000	0.120740	0.379260
O1041	O104	0.250000	0.379260	0.120740
O1051	O105	0.620740	0.750000	0.379260
O1061	O106	0.879260	0.250000	0.120740
O1071	O107	0.750000	0.379260	0.750000
O1081	O108	0.250000	0.120740	0.250000
O1091	O109	0.379260	0.620740	0.750000
O1101	O110	0.120740	0.879260	0.250000
O1111	O111	0.250000	0.250000	0.879260
O1121	O112	0.750000	0.750000	0.620740
O1131	O113	0.379260	0.750000	0.250000
O1141	O114	0.120740	0.250000	0.750000
O1151	O115	0.250000	0.879260	0.620740
O1161	O116	0.750000	0.620740	0.879260
O1171	O117	0.379260	0.250000	0.620740
O1181	O118	0.120740	0.750000	0.879260
O1191	O119	0.250000	0.620740	0.250000
O1201	O120	0.750000	0.879260	0.750000
