data_FENROG_freeONLY_PM
_symmetry_space_group_name_H-M	'P1'
_cell_length_a	13.047000
_cell_length_b	11.689300
_cell_length_c	7.824400
_cell_angle_alpha	90.000000
_cell_angle_beta	109.954000
_cell_angle_gamma	90.000000
_symmetry_Int_Tables_number 1

loop_
_symmetry_equiv_pos_as_xyz
'x,y,z'

loop_
_atom_site_label
_atom_site_type_symbol
_atom_site_fract_x
_atom_site_fract_y
_atom_site_fract_z
C11	C1	0.135700	0.866200	0.950400
O11	O1	0.131100	0.901500	0.796700
O21	O2	0.072900	0.911000	0.027000
C21	C2	0.216400	0.775800	0.052500
H11	H1	0.176800	0.714900	0.086900
H21	H2	0.265600	0.809500	0.163600
O31	O3	0.840300	0.130300	0.531300
H31	H3	0.047000	0.298000	0.815000
H41	H4	0.831000	0.126000	0.423000
H51	H5	0.780000	0.116000	0.532000
C31	C3	0.635700	0.366200	0.950400
O41	O4	0.631100	0.401500	0.796700
O51	O5	0.572900	0.411000	0.027000
C41	C4	0.716400	0.275800	0.052500
H61	H6	0.676800	0.214900	0.086900
H71	H7	0.765600	0.309500	0.163600
O61	O6	0.340300	0.630300	0.531300
H81	H8	0.547000	0.798000	0.815000
H91	H9	0.331000	0.626000	0.423000
H101	H10	0.280000	0.616000	0.532000
C51	C5	0.864300	0.866200	0.549600
O71	O7	0.868900	0.901500	0.703300
O81	O8	0.927100	0.911000	0.473000
C61	C6	0.783600	0.775800	0.447500
H111	H11	0.823200	0.714900	0.413100
H121	H12	0.734400	0.809500	0.336400
O91	O9	0.159700	0.130300	0.968700
H131	H13	0.953000	0.298000	0.685000
H141	H14	0.169000	0.126000	0.077000
H151	H15	0.220000	0.116000	0.968000
C71	C7	0.364300	0.366200	0.549600
O101	O10	0.368900	0.401500	0.703300
O111	O11	0.427100	0.411000	0.473000
C81	C8	0.283600	0.275800	0.447500
H161	H16	0.323200	0.214900	0.413100
H171	H17	0.234400	0.309500	0.336400
O121	O12	0.659700	0.630300	0.968700
H181	H18	0.453000	0.798000	0.685000
H191	H19	0.669000	0.626000	0.077000
H201	H20	0.720000	0.616000	0.968000
C91	C9	0.864300	0.133800	0.049600
O131	O13	0.868900	0.098500	0.203300
O141	O14	0.927100	0.089000	0.973000
C101	C10	0.783600	0.224200	0.947500
H211	H21	0.823200	0.285100	0.913100
H221	H22	0.734400	0.190500	0.836400
O151	O15	0.159700	0.869700	0.468700
H231	H23	0.953000	0.702000	0.185000
H241	H24	0.169000	0.874000	0.577000
H251	H25	0.220000	0.884000	0.468000
C111	C11	0.364300	0.633800	0.049600
O161	O16	0.368900	0.598500	0.203300
O171	O17	0.427100	0.589000	0.973000
C121	C12	0.283600	0.724200	0.947500
H261	H26	0.323200	0.785100	0.913100
H271	H27	0.234400	0.690500	0.836400
O181	O18	0.659700	0.369700	0.468700
H281	H28	0.453000	0.202000	0.185000
H291	H29	0.669000	0.374000	0.577000
H301	H30	0.720000	0.384000	0.468000
C131	C13	0.135700	0.133800	0.450400
O191	O19	0.131100	0.098500	0.296700
O201	O20	0.072900	0.089000	0.527000
C141	C14	0.216400	0.224200	0.552500
H311	H31	0.176800	0.285100	0.586900
H321	H32	0.265600	0.190500	0.663600
O211	O21	0.840300	0.869700	0.031300
H331	H33	0.047000	0.702000	0.315000
H341	H34	0.831000	0.874000	0.923000
H351	H35	0.780000	0.884000	0.032000
C151	C15	0.635700	0.633800	0.450400
O221	O22	0.631100	0.598500	0.296700
O231	O23	0.572900	0.589000	0.527000
C161	C16	0.716400	0.724200	0.552500
H361	H36	0.676800	0.785100	0.586900
H371	H37	0.765600	0.690500	0.663600
O241	O24	0.340300	0.369700	0.031300
H381	H38	0.547000	0.202000	0.315000
H391	H39	0.331000	0.374000	0.923000
H401	H40	0.280000	0.384000	0.032000
Er11	Er1	0.000000	0.055400	0.750000
O251	O25	0.000000	0.255900	0.750000
Er21	Er2	0.500000	0.555400	0.750000
O261	O26	0.500000	0.755900	0.750000
Er31	Er3	0.000000	0.944600	0.250000
O271	O27	0.000000	0.744100	0.250000
Er41	Er4	0.500000	0.444600	0.250000
O281	O28	0.500000	0.244100	0.250000
