data_FERHAN_freeONLY_PM
_symmetry_space_group_name_H-M	'P1'
_cell_length_a	17.103100
_cell_length_b	17.103100
_cell_length_c	17.103100
_cell_angle_alpha	87.666700
_cell_angle_beta	87.666700
_cell_angle_gamma	87.666700
_symmetry_Int_Tables_number 1

loop_
_symmetry_equiv_pos_as_xyz
'x,y,z'

loop_
_atom_site_label
_atom_site_type_symbol
_atom_site_fract_x
_atom_site_fract_y
_atom_site_fract_z
Zn11	Zn1	0.884250	0.884280	0.753740
Zn21	Zn2	0.753740	0.884250	0.884280
Zn31	Zn3	0.884280	0.753740	0.884250
Zn41	Zn4	0.753470	0.753470	0.753470
H11	H1	0.908600	0.914000	0.503300
H21	H2	0.762100	0.731700	0.386300
H31	H3	0.770200	0.729000	0.521600
H41	H4	0.990100	0.014300	0.342800
H51	H5	0.949100	0.000700	0.427700
H61	H6	0.016100	0.940100	0.397000
H71	H7	0.717800	0.884100	0.134200
H81	H8	0.923800	0.751600	0.258100
H91	H9	0.916200	0.749500	0.122600
H101	H10	0.608700	0.963000	0.281400
H111	H11	0.660300	0.972200	0.201700
H121	H12	0.613000	0.894300	0.220400
H131	H13	0.503300	0.908600	0.914000
H141	H14	0.386300	0.762100	0.731700
H151	H15	0.521600	0.770200	0.729000
H161	H16	0.342800	0.990100	0.014300
H171	H17	0.427700	0.949100	0.000700
H181	H18	0.397000	0.016100	0.940100
H191	H19	0.134200	0.717800	0.884100
H201	H20	0.258100	0.923800	0.751600
H211	H21	0.122600	0.916200	0.749500
H221	H22	0.281400	0.608700	0.963000
H231	H23	0.201700	0.660300	0.972200
H241	H24	0.220400	0.613000	0.894300
H251	H25	0.914000	0.503300	0.908600
H261	H26	0.731700	0.386300	0.762100
H271	H27	0.729000	0.521600	0.770200
H281	H28	0.014300	0.342800	0.990100
H291	H29	0.000700	0.427700	0.949100
H301	H30	0.940100	0.397000	0.016100
H311	H31	0.884100	0.134200	0.717800
H321	H32	0.751600	0.258100	0.923800
H331	H33	0.749500	0.122600	0.916200
H341	H34	0.963000	0.281400	0.608700
H351	H35	0.972200	0.201700	0.660300
H361	H36	0.894300	0.220400	0.613000
C11	C1	0.842900	0.820500	0.612400
C21	C2	0.839200	0.821400	0.524900
C31	C3	0.878900	0.876600	0.479200
C41	C4	0.875600	0.877200	0.398800
C51	C5	0.832200	0.822200	0.363700
C61	C6	0.792800	0.768600	0.409900
C71	C7	0.796900	0.767500	0.490300
C81	C8	0.972000	0.974000	0.382000
C91	C9	0.810800	0.819500	0.028400
C101	C10	0.816900	0.819000	0.115200
C111	C11	0.760600	0.857800	0.159100
C121	C12	0.765400	0.859500	0.239900
C131	C13	0.827400	0.821800	0.276500
C141	C14	0.882400	0.779900	0.232800
C151	C15	0.877800	0.778400	0.152500
C161	C16	0.642500	0.935200	0.243300
C171	C17	0.612400	0.842900	0.820500
C181	C18	0.524900	0.839200	0.821400
C191	C19	0.479200	0.878900	0.876600
C201	C20	0.398800	0.875600	0.877200
C211	C21	0.363700	0.832200	0.822200
C221	C22	0.409900	0.792800	0.768600
C231	C23	0.490300	0.796900	0.767500
C241	C24	0.382000	0.972000	0.974000
C251	C25	0.028400	0.810800	0.819500
C261	C26	0.115200	0.816900	0.819000
C271	C27	0.159100	0.760600	0.857800
C281	C28	0.239900	0.765400	0.859500
C291	C29	0.276500	0.827400	0.821800
C301	C30	0.232800	0.882400	0.779900
C311	C31	0.152500	0.877800	0.778400
C321	C32	0.243300	0.642500	0.935200
C331	C33	0.820500	0.612400	0.842900
C341	C34	0.821400	0.524900	0.839200
C351	C35	0.876600	0.479200	0.878900
C361	C36	0.877200	0.398800	0.875600
C371	C37	0.822200	0.363700	0.832200
C381	C38	0.768600	0.409900	0.792800
C391	C39	0.767500	0.490300	0.796900
C401	C40	0.974000	0.382000	0.972000
C411	C41	0.819500	0.028400	0.810800
C421	C42	0.819000	0.115200	0.816900
C431	C43	0.857800	0.159100	0.760600
C441	C44	0.859500	0.239900	0.765400
C451	C45	0.821800	0.276500	0.827400
C461	C46	0.779900	0.232800	0.882400
C471	C47	0.778400	0.152500	0.877800
C481	C48	0.935200	0.243300	0.642500
O11	O1	0.810600	0.769300	0.652100
O21	O2	0.881000	0.871900	0.641100
O31	O3	0.913000	0.929000	0.348000
O41	O4	0.765100	0.868600	0.994700
O51	O5	0.851100	0.766800	0.996400
O61	O6	0.710300	0.899300	0.282200
O71	O7	0.652100	0.810600	0.769300
O81	O8	0.641100	0.881000	0.871900
O91	O9	0.348000	0.913000	0.929000
O101	O10	0.994700	0.765100	0.868600
O111	O11	0.996400	0.851100	0.766800
O121	O12	0.282200	0.710300	0.899300
O131	O13	0.769300	0.652100	0.810600
O141	O14	0.871900	0.641100	0.881000
O151	O15	0.929000	0.348000	0.913000
O161	O16	0.868600	0.994700	0.765100
O171	O17	0.766800	0.996400	0.851100
O181	O18	0.899300	0.282200	0.710300
O191	O19	0.818100	0.818100	0.818100
O201	O20	0.682900	0.682900	0.682900
Zn51	Zn5	0.115750	0.115720	0.246260
Zn61	Zn6	0.246260	0.115750	0.115720
Zn71	Zn7	0.115720	0.246260	0.115750
Zn81	Zn8	0.246530	0.246530	0.246530
H371	H37	0.091400	0.086000	0.496700
H381	H38	0.237900	0.268300	0.613700
H391	H39	0.229800	0.271000	0.478400
H401	H40	0.009900	0.985700	0.657200
H411	H41	0.050900	0.999300	0.572300
H421	H42	0.983900	0.059900	0.603000
H431	H43	0.282200	0.115900	0.865800
H441	H44	0.076200	0.248400	0.741900
H451	H45	0.083800	0.250500	0.877400
H461	H46	0.391300	0.037000	0.718600
H471	H47	0.339700	0.027800	0.798300
H481	H48	0.387000	0.105700	0.779600
H491	H49	0.496700	0.091400	0.086000
H501	H50	0.613700	0.237900	0.268300
H511	H51	0.478400	0.229800	0.271000
H521	H52	0.657200	0.009900	0.985700
H531	H53	0.572300	0.050900	0.999300
H541	H54	0.603000	0.983900	0.059900
H551	H55	0.865800	0.282200	0.115900
H561	H56	0.741900	0.076200	0.248400
H571	H57	0.877400	0.083800	0.250500
H581	H58	0.718600	0.391300	0.037000
H591	H59	0.798300	0.339700	0.027800
H601	H60	0.779600	0.387000	0.105700
H611	H61	0.086000	0.496700	0.091400
H621	H62	0.268300	0.613700	0.237900
H631	H63	0.271000	0.478400	0.229800
H641	H64	0.985700	0.657200	0.009900
H651	H65	0.999300	0.572300	0.050900
H661	H66	0.059900	0.603000	0.983900
H671	H67	0.115900	0.865800	0.282200
H681	H68	0.248400	0.741900	0.076200
H691	H69	0.250500	0.877400	0.083800
H701	H70	0.037000	0.718600	0.391300
H711	H71	0.027800	0.798300	0.339700
H721	H72	0.105700	0.779600	0.387000
C491	C49	0.157100	0.179500	0.387600
C501	C50	0.160800	0.178600	0.475100
C511	C51	0.121100	0.123400	0.520800
C521	C52	0.124400	0.122800	0.601200
C531	C53	0.167800	0.177800	0.636300
C541	C54	0.207200	0.231400	0.590100
C551	C55	0.203100	0.232500	0.509700
C561	C56	0.028000	0.026000	0.618000
C571	C57	0.189200	0.180500	0.971600
C581	C58	0.183100	0.181000	0.884800
C591	C59	0.239400	0.142200	0.840900
C601	C60	0.234600	0.140500	0.760100
C611	C61	0.172600	0.178200	0.723500
C621	C62	0.117600	0.220100	0.767200
C631	C63	0.122200	0.221600	0.847500
C641	C64	0.357500	0.064800	0.756700
C651	C65	0.387600	0.157100	0.179500
C661	C66	0.475100	0.160800	0.178600
C671	C67	0.520800	0.121100	0.123400
C681	C68	0.601200	0.124400	0.122800
C691	C69	0.636300	0.167800	0.177800
C701	C70	0.590100	0.207200	0.231400
C711	C71	0.509700	0.203100	0.232500
C721	C72	0.618000	0.028000	0.026000
C731	C73	0.971600	0.189200	0.180500
C741	C74	0.884800	0.183100	0.181000
C751	C75	0.840900	0.239400	0.142200
C761	C76	0.760100	0.234600	0.140500
C771	C77	0.723500	0.172600	0.178200
C781	C78	0.767200	0.117600	0.220100
C791	C79	0.847500	0.122200	0.221600
C801	C80	0.756700	0.357500	0.064800
C811	C81	0.179500	0.387600	0.157100
C821	C82	0.178600	0.475100	0.160800
C831	C83	0.123400	0.520800	0.121100
C841	C84	0.122800	0.601200	0.124400
C851	C85	0.177800	0.636300	0.167800
C861	C86	0.231400	0.590100	0.207200
C871	C87	0.232500	0.509700	0.203100
C881	C88	0.026000	0.618000	0.028000
C891	C89	0.180500	0.971600	0.189200
C901	C90	0.181000	0.884800	0.183100
C911	C91	0.142200	0.840900	0.239400
C921	C92	0.140500	0.760100	0.234600
C931	C93	0.178200	0.723500	0.172600
C941	C94	0.220100	0.767200	0.117600
C951	C95	0.221600	0.847500	0.122200
C961	C96	0.064800	0.756700	0.357500
O211	O21	0.189400	0.230700	0.347900
O221	O22	0.119000	0.128100	0.358900
O231	O23	0.087000	0.071000	0.652000
O241	O24	0.234900	0.131400	0.005300
O251	O25	0.148900	0.233200	0.003600
O261	O26	0.289700	0.100700	0.717800
O271	O27	0.347900	0.189400	0.230700
O281	O28	0.358900	0.119000	0.128100
O291	O29	0.652000	0.087000	0.071000
O301	O30	0.005300	0.234900	0.131400
O311	O31	0.003600	0.148900	0.233200
O321	O32	0.717800	0.289700	0.100700
O331	O33	0.230700	0.347900	0.189400
O341	O34	0.128100	0.358900	0.119000
O351	O35	0.071000	0.652000	0.087000
O361	O36	0.131400	0.005300	0.234900
O371	O37	0.233200	0.003600	0.148900
O381	O38	0.100700	0.717800	0.289700
O391	O39	0.181900	0.181900	0.181900
O401	O40	0.317100	0.317100	0.317100
