data_FESTUT_freeONLY_PM
_symmetry_space_group_name_H-M	'P1'
_cell_length_a	12.109000
_cell_length_b	9.209000
_cell_length_c	16.081000
_cell_angle_alpha	90.000000
_cell_angle_beta	92.940000
_cell_angle_gamma	90.000000
_symmetry_Int_Tables_number 1

loop_
_symmetry_equiv_pos_as_xyz
'x,y,z'

loop_
_atom_site_label
_atom_site_type_symbol
_atom_site_fract_x
_atom_site_fract_y
_atom_site_fract_z
Zn11	Zn1	0.007840	0.756950	0.798290
Zn21	Zn2	0.221180	0.751960	0.586780
Zn31	Zn3	0.230400	0.673820	0.999010
P11	P1	0.962370	0.835200	0.605300
H11	H1	0.964000	0.960000	0.567000
P21	P2	0.856360	0.625800	0.936530
H21	H2	0.942000	0.663000	0.983000
P31	P3	0.137420	0.969200	0.932870
H31	H3	0.074000	0.074000	0.959000
P41	P4	0.204400	0.526300	0.815170
H41	H4	0.271000	0.550000	0.755000
O11	O1	0.063500	0.754800	0.584300
O21	O2	0.943900	0.839300	0.696100
O31	O3	0.089000	0.576100	0.786900
O41	O4	0.081000	0.909600	0.855500
O51	O5	0.876200	0.687500	0.850400
O61	O6	0.755100	0.698100	0.970900
O71	O7	0.199900	0.364700	0.829900
O81	O8	0.242900	0.045500	0.914800
O91	O9	0.153100	0.858100	0.002200
O101	O10	0.866100	0.762600	0.556400
O111	O11	0.847300	0.462100	0.935500
O121	O12	0.255700	0.610900	0.887200
Zn41	Zn4	0.492160	0.256950	0.701710
Zn51	Zn5	0.278820	0.251960	0.913220
Zn61	Zn6	0.269600	0.173820	0.500990
P51	P5	0.537630	0.335200	0.894700
H51	H5	0.536000	0.460000	0.933000
P61	P6	0.643640	0.125800	0.563470
H61	H6	0.558000	0.163000	0.517000
P71	P7	0.362580	0.469200	0.567130
H71	H7	0.426000	0.574000	0.541000
P81	P8	0.295600	0.026300	0.684830
H81	H8	0.229000	0.050000	0.745000
O131	O13	0.436500	0.254800	0.915700
O141	O14	0.556100	0.339300	0.803900
O151	O15	0.411000	0.076100	0.713100
O161	O16	0.419000	0.409600	0.644500
O171	O17	0.623800	0.187500	0.649600
O181	O18	0.744900	0.198100	0.529100
O191	O19	0.300100	0.864700	0.670100
O201	O20	0.257100	0.545500	0.585200
O211	O21	0.346900	0.358100	0.497800
O221	O22	0.633900	0.262600	0.943600
O231	O23	0.652700	0.962100	0.564500
O241	O24	0.244300	0.110900	0.612800
Zn71	Zn7	0.992160	0.243050	0.201710
Zn81	Zn8	0.778820	0.248040	0.413220
Zn91	Zn9	0.769600	0.326180	0.000990
P91	P9	0.037630	0.164800	0.394700
H91	H9	0.036000	0.040000	0.433000
P101	P10	0.143640	0.374200	0.063470
H101	H10	0.058000	0.337000	0.017000
P111	P11	0.862580	0.030800	0.067130
H111	H11	0.926000	0.926000	0.041000
P121	P12	0.795600	0.473700	0.184830
H121	H12	0.729000	0.450000	0.245000
O251	O25	0.936500	0.245200	0.415700
O261	O26	0.056100	0.160700	0.303900
O271	O27	0.911000	0.423900	0.213100
O281	O28	0.919000	0.090400	0.144500
O291	O29	0.123800	0.312500	0.149600
O301	O30	0.244900	0.301900	0.029100
O311	O31	0.800100	0.635300	0.170100
O321	O32	0.757100	0.954500	0.085200
O331	O33	0.846900	0.141900	0.997800
O341	O34	0.133900	0.237400	0.443600
O351	O35	0.152700	0.537900	0.064500
O361	O36	0.744300	0.389100	0.112800
Zn101	Zn10	0.507840	0.743050	0.298290
Zn111	Zn11	0.721180	0.748040	0.086780
Zn121	Zn12	0.730400	0.826180	0.499010
P131	P13	0.462370	0.664800	0.105300
H131	H13	0.464000	0.540000	0.067000
P141	P14	0.356360	0.874200	0.436530
H141	H14	0.442000	0.837000	0.483000
P151	P15	0.637420	0.530800	0.432870
H151	H15	0.574000	0.426000	0.459000
P161	P16	0.704400	0.973700	0.315170
H161	H16	0.771000	0.950000	0.255000
O371	O37	0.563500	0.745200	0.084300
O381	O38	0.443900	0.660700	0.196100
O391	O39	0.589000	0.923900	0.286900
O401	O40	0.581000	0.590400	0.355500
O411	O41	0.376200	0.812500	0.350400
O421	O42	0.255100	0.801900	0.470900
O431	O43	0.699900	0.135300	0.329900
O441	O44	0.742900	0.454500	0.414800
O451	O45	0.653100	0.641900	0.502200
O461	O46	0.366100	0.737400	0.056400
O471	O47	0.347300	0.037900	0.435500
O481	O48	0.755700	0.889100	0.387200
