data_FEVDIV_freeONLY_PM
_symmetry_space_group_name_H-M	'P1'
_cell_length_a	8.372200
_cell_length_b	11.488800
_cell_length_c	34.923000
_cell_angle_alpha	90.000000
_cell_angle_beta	90.000000
_cell_angle_gamma	105.590000
_symmetry_Int_Tables_number 1

loop_
_symmetry_equiv_pos_as_xyz
'x,y,z'

loop_
_atom_site_label
_atom_site_type_symbol
_atom_site_fract_x
_atom_site_fract_y
_atom_site_fract_z
Ni11	Ni1	0.476940	0.509100	0.851400
Ni21	Ni2	0.523060	0.990900	0.351400
Ni31	Ni3	0.523060	0.490900	0.148600
Ni41	Ni4	0.476940	0.009100	0.648600
H11	H1	0.867600	0.784400	0.780900
H21	H2	0.170900	0.876600	0.773600
H31	H3	0.379100	0.896500	0.729700
H41	H4	0.188100	0.098600	0.664700
H51	H5	0.978200	0.089500	0.707500
H61	H6	0.893300	0.136000	0.771600
H71	H7	0.532600	0.918700	0.834300
H81	H8	0.867800	0.275300	0.817700
H91	H9	0.773500	0.434700	0.836500
H101	H10	0.317200	0.234500	0.837000
H111	H11	0.398900	0.068300	0.819300
H121	H12	0.852700	0.249100	0.906600
H131	H13	0.852100	0.263300	0.021000
H141	H14	0.261400	0.431800	0.962400
H151	H15	0.325800	0.542800	0.015300
H161	H16	0.471300	0.590500	0.070600
H171	H17	0.191300	0.311600	0.121800
H181	H18	0.036500	0.255200	0.068200
H191	H19	0.637800	0.094200	0.913300
H201	H20	0.357300	0.002500	0.913000
H211	H21	0.304600	0.134800	0.011500
H221	H22	0.581500	0.232700	0.015000
H231	H23	0.132400	0.715600	0.280900
H241	H24	0.829100	0.623400	0.273600
H251	H25	0.620900	0.603500	0.229700
H261	H26	0.811900	0.401400	0.164700
H271	H27	0.021800	0.410500	0.207500
H281	H28	0.106700	0.364000	0.271600
H291	H29	0.467400	0.581300	0.334300
H301	H30	0.132200	0.224700	0.317700
H311	H31	0.226500	0.065300	0.336500
H321	H32	0.682800	0.265500	0.337000
H331	H33	0.601100	0.431700	0.319300
H341	H34	0.147300	0.250900	0.406600
H351	H35	0.147900	0.236700	0.521000
H361	H36	0.738600	0.068200	0.462400
H371	H37	0.674200	0.957200	0.515300
H381	H38	0.528700	0.909500	0.570600
H391	H39	0.808700	0.188400	0.621800
H401	H40	0.963500	0.244800	0.568200
H411	H41	0.362200	0.405800	0.413300
H421	H42	0.642700	0.497500	0.413000
H431	H43	0.695400	0.365200	0.511500
H441	H44	0.418500	0.267300	0.515000
H451	H45	0.132400	0.215600	0.219100
H461	H46	0.829100	0.123400	0.226400
H471	H47	0.620900	0.103500	0.270300
H481	H48	0.811900	0.901400	0.335300
H491	H49	0.021800	0.910500	0.292500
H501	H50	0.106700	0.864000	0.228400
H511	H51	0.467400	0.081300	0.165700
H521	H52	0.132200	0.724700	0.182300
H531	H53	0.226500	0.565300	0.163500
H541	H54	0.682800	0.765500	0.163000
H551	H55	0.601100	0.931700	0.180700
H561	H56	0.147300	0.750900	0.093400
H571	H57	0.147900	0.736700	0.979000
H581	H58	0.738600	0.568200	0.037600
H591	H59	0.674200	0.457200	0.984700
H601	H60	0.528700	0.409500	0.929400
H611	H61	0.808700	0.688400	0.878200
H621	H62	0.963500	0.744800	0.931800
H631	H63	0.362200	0.905800	0.086700
H641	H64	0.642700	0.997500	0.087000
H651	H65	0.695400	0.865200	0.988500
H661	H66	0.418500	0.767300	0.985000
H671	H67	0.867600	0.284400	0.719100
H681	H68	0.170900	0.376600	0.726400
H691	H69	0.379100	0.396500	0.770300
H701	H70	0.188100	0.598600	0.835300
H711	H71	0.978200	0.589500	0.792500
H721	H72	0.893300	0.636000	0.728400
H731	H73	0.532600	0.418700	0.665700
H741	H74	0.867800	0.775300	0.682300
H751	H75	0.773500	0.934700	0.663500
H761	H76	0.317200	0.734500	0.663000
H771	H77	0.398900	0.568300	0.680700
H781	H78	0.852700	0.749100	0.593400
H791	H79	0.852100	0.763300	0.479000
H801	H80	0.261400	0.931800	0.537600
H811	H81	0.325800	0.042800	0.484700
H821	H82	0.471300	0.090500	0.429400
H831	H83	0.191300	0.811600	0.378200
H841	H84	0.036500	0.755200	0.431800
H851	H85	0.637800	0.594200	0.586700
H861	H86	0.357300	0.502500	0.587000
H871	H87	0.304600	0.634800	0.488500
H881	H88	0.581500	0.732700	0.485000
C11	C1	0.608000	0.711300	0.826070
C21	C2	0.687800	0.833400	0.809850
C31	C3	0.826100	0.849700	0.786650
C41	C4	0.903900	0.963900	0.771740
C51	C5	0.046100	0.978400	0.745510
C61	C6	0.171100	0.922200	0.751620
C71	C7	0.295800	0.934300	0.724880
C81	C8	0.184400	0.053300	0.686940
C91	C9	0.056700	0.047500	0.712390
C101	C10	0.841900	0.059800	0.781350
C111	C11	0.704800	0.045900	0.805080
C121	C12	0.626300	0.930300	0.818970
C131	C13	0.644500	0.151100	0.816200
C141	C14	0.754900	0.264500	0.821620
C151	C15	0.697000	0.360300	0.832710
C161	C16	0.429600	0.242700	0.833160
C171	C17	0.477700	0.142100	0.822420
C181	C18	0.163500	0.366800	0.891050
C191	C19	0.072500	0.342600	0.928680
C201	C20	0.907400	0.275300	0.929520
C211	C21	0.822400	0.246300	0.964030
C221	C22	0.906800	0.284100	0.997800
C231	C23	0.072300	0.352500	0.997920
C241	C24	0.152700	0.383400	0.962830
C251	C25	0.164400	0.390000	0.034080
C261	C26	0.296100	0.492700	0.036530
C271	C27	0.383300	0.521000	0.070110
C281	C28	0.220200	0.358600	0.099930
C291	C29	0.126100	0.323600	0.067580
C301	C30	0.643600	0.179200	0.963900
C311	C31	0.572600	0.106200	0.933720
C321	C32	0.402500	0.050300	0.933880
C331	C33	0.372100	0.127400	0.990950
C341	C34	0.540000	0.187300	0.993380
C351	C35	0.392000	0.788700	0.326070
C361	C36	0.312200	0.666600	0.309850
C371	C37	0.173900	0.650300	0.286650
C381	C38	0.096100	0.536100	0.271740
C391	C39	0.953900	0.521600	0.245510
C401	C40	0.828900	0.577800	0.251620
C411	C41	0.704200	0.565700	0.224880
C421	C42	0.815600	0.446700	0.186940
C431	C43	0.943300	0.452500	0.212390
C441	C44	0.158100	0.440200	0.281350
C451	C45	0.295200	0.454100	0.305080
C461	C46	0.373700	0.569700	0.318970
C471	C47	0.355500	0.348900	0.316200
C481	C48	0.245100	0.235500	0.321620
C491	C49	0.303000	0.139700	0.332710
C501	C50	0.570400	0.257300	0.333160
C511	C51	0.522300	0.357900	0.322420
C521	C52	0.836500	0.133200	0.391050
C531	C53	0.927500	0.157400	0.428680
C541	C54	0.092600	0.224700	0.429520
C551	C55	0.177600	0.253700	0.464030
C561	C56	0.093200	0.215900	0.497800
C571	C57	0.927700	0.147500	0.497920
C581	C58	0.847300	0.116600	0.462830
C591	C59	0.835600	0.110000	0.534080
C601	C60	0.703900	0.007300	0.536530
C611	C61	0.616700	0.979000	0.570110
C621	C62	0.779800	0.141400	0.599930
C631	C63	0.873900	0.176400	0.567580
C641	C64	0.356400	0.320800	0.463900
C651	C65	0.427400	0.393800	0.433720
C661	C66	0.597500	0.449700	0.433880
C671	C67	0.627900	0.372600	0.490950
C681	C68	0.460000	0.312700	0.493380
C691	C69	0.392000	0.288700	0.173930
C701	C70	0.312200	0.166600	0.190150
C711	C71	0.173900	0.150300	0.213350
C721	C72	0.096100	0.036100	0.228260
C731	C73	0.953900	0.021600	0.254490
C741	C74	0.828900	0.077800	0.248380
C751	C75	0.704200	0.065700	0.275120
C761	C76	0.815600	0.946700	0.313060
C771	C77	0.943300	0.952500	0.287610
C781	C78	0.158100	0.940200	0.218650
C791	C79	0.295200	0.954100	0.194920
C801	C80	0.373700	0.069700	0.181030
C811	C81	0.355500	0.848900	0.183800
C821	C82	0.245100	0.735500	0.178380
C831	C83	0.303000	0.639700	0.167290
C841	C84	0.570400	0.757300	0.166840
C851	C85	0.522300	0.857900	0.177580
C861	C86	0.836500	0.633200	0.108950
C871	C87	0.927500	0.657400	0.071320
C881	C88	0.092600	0.724700	0.070480
C891	C89	0.177600	0.753700	0.035970
C901	C90	0.093200	0.715900	0.002200
C911	C91	0.927700	0.647500	0.002080
C921	C92	0.847300	0.616600	0.037170
C931	C93	0.835600	0.610000	0.965920
C941	C94	0.703900	0.507300	0.963470
C951	C95	0.616700	0.479000	0.929890
C961	C96	0.779800	0.641400	0.900070
C971	C97	0.873900	0.676400	0.932420
C981	C98	0.356400	0.820800	0.036100
C991	C99	0.427400	0.893800	0.066280
C1001	C100	0.597500	0.949700	0.066120
C1011	C101	0.627900	0.872600	0.009050
C1021	C102	0.460000	0.812700	0.006620
C1031	C103	0.608000	0.211300	0.673930
C1041	C104	0.687800	0.333400	0.690150
C1051	C105	0.826100	0.349700	0.713350
C1061	C106	0.903900	0.463900	0.728260
C1071	C107	0.046100	0.478400	0.754490
C1081	C108	0.171100	0.422200	0.748380
C1091	C109	0.295800	0.434300	0.775120
C1101	C110	0.184400	0.553300	0.813060
C1111	C111	0.056700	0.547500	0.787610
C1121	C112	0.841900	0.559800	0.718650
C1131	C113	0.704800	0.545900	0.694920
C1141	C114	0.626300	0.430300	0.681030
C1151	C115	0.644500	0.651100	0.683800
C1161	C116	0.754900	0.764500	0.678380
C1171	C117	0.697000	0.860300	0.667290
C1181	C118	0.429600	0.742700	0.666840
C1191	C119	0.477700	0.642100	0.677580
C1201	C120	0.163500	0.866800	0.608950
C1211	C121	0.072500	0.842600	0.571320
C1221	C122	0.907400	0.775300	0.570480
C1231	C123	0.822400	0.746300	0.535970
C1241	C124	0.906800	0.784100	0.502200
C1251	C125	0.072300	0.852500	0.502080
C1261	C126	0.152700	0.883400	0.537170
C1271	C127	0.164400	0.890000	0.465920
C1281	C128	0.296100	0.992700	0.463470
C1291	C129	0.383300	0.021000	0.429890
C1301	C130	0.220200	0.858600	0.400070
C1311	C131	0.126100	0.823600	0.432420
C1321	C132	0.643600	0.679200	0.536100
C1331	C133	0.572600	0.606200	0.566280
C1341	C134	0.402500	0.550300	0.566120
C1351	C135	0.372100	0.627400	0.509050
C1361	C136	0.540000	0.687300	0.506620
N11	N1	0.303600	0.997000	0.692500
N21	N2	0.535700	0.352300	0.838400
N31	N3	0.350400	0.455700	0.102010
N41	N4	0.302500	0.061400	0.961870
N51	N5	0.696400	0.503000	0.192500
N61	N6	0.464300	0.147700	0.338400
N71	N7	0.649600	0.044300	0.602010
N81	N8	0.697500	0.438600	0.461870
N91	N9	0.696400	0.003000	0.307500
N101	N10	0.464300	0.647700	0.161600
N111	N11	0.649600	0.544300	0.897990
N121	N12	0.697500	0.938600	0.038130
N131	N13	0.303600	0.497000	0.807500
N141	N14	0.535700	0.852300	0.661600
N151	N15	0.350400	0.955700	0.397990
N161	N16	0.302500	0.561400	0.538130
O11	O1	0.657200	0.621550	0.815140
O21	O2	0.494500	0.699100	0.850640
O31	O3	0.107500	0.299500	0.863640
O41	O4	0.295200	0.454100	0.891130
O51	O5	0.342800	0.878450	0.315140
O61	O6	0.505500	0.800900	0.350640
O71	O7	0.892500	0.200500	0.363640
O81	O8	0.704800	0.045900	0.391130
O91	O9	0.342800	0.378450	0.184860
O101	O10	0.505500	0.300900	0.149360
O111	O11	0.892500	0.700500	0.136360
O121	O12	0.704800	0.545900	0.108870
O131	O13	0.657200	0.121550	0.684860
O141	O14	0.494500	0.199100	0.649360
O151	O15	0.107500	0.799500	0.636360
O161	O16	0.295200	0.954100	0.608870
