data_FEVNOK_freeONLY_PM
_symmetry_space_group_name_H-M	'P1'
_cell_length_a	4.710100
_cell_length_b	10.770400
_cell_length_c	20.028900
_cell_angle_alpha	90.000000
_cell_angle_beta	90.000000
_cell_angle_gamma	95.472000
_symmetry_Int_Tables_number 1

loop_
_symmetry_equiv_pos_as_xyz
'x,y,z'

loop_
_atom_site_label
_atom_site_type_symbol
_atom_site_fract_x
_atom_site_fract_y
_atom_site_fract_z
Cu11	Cu1	0.311000	0.465000	0.663600
Cu21	Cu2	0.689000	0.035000	0.163600
Cu31	Cu3	0.689000	0.535000	0.336400
Cu41	Cu4	0.311000	0.965000	0.836400
H11	H1	0.234660	0.431350	0.915380
H21	H2	0.403610	0.536350	0.816800
H31	H3	0.611290	0.355270	0.574960
H41	H4	0.179980	0.631980	0.535450
H51	H5	0.765340	0.068650	0.415380
H61	H6	0.596390	0.963650	0.316800
H71	H7	0.388710	0.144730	0.074960
H81	H8	0.820020	0.868020	0.035450
H91	H9	0.765340	0.568650	0.084620
H101	H10	0.596390	0.463650	0.183200
H111	H11	0.388710	0.644730	0.425040
H121	H12	0.820020	0.368020	0.464550
H131	H13	0.234660	0.931350	0.584620
H141	H14	0.403610	0.036350	0.683200
H151	H15	0.611290	0.855270	0.925040
H161	H16	0.179980	0.131980	0.964550
C11	C1	0.059000	0.300000	0.755000
C21	C2	0.957000	0.240000	0.813000
C31	C3	0.188000	0.400000	0.872000
C41	C4	0.289000	0.459000	0.815400
C51	C5	0.007000	0.240000	0.685000
C61	C6	0.784000	0.120000	0.820000
C71	C7	0.567000	0.416000	0.543000
C81	C8	0.314000	0.577000	0.521000
C91	C9	0.941000	0.200000	0.255000
C101	C10	0.043000	0.260000	0.313000
C111	C11	0.812000	0.100000	0.372000
C121	C12	0.711000	0.041000	0.315400
C131	C13	0.993000	0.260000	0.185000
C141	C14	0.216000	0.380000	0.320000
C151	C15	0.433000	0.084000	0.043000
C161	C16	0.686000	0.923000	0.021000
C171	C17	0.941000	0.700000	0.245000
C181	C18	0.043000	0.760000	0.187000
C191	C19	0.812000	0.600000	0.128000
C201	C20	0.711000	0.541000	0.184600
C211	C21	0.993000	0.760000	0.315000
C221	C22	0.216000	0.880000	0.180000
C231	C23	0.433000	0.584000	0.457000
C241	C24	0.686000	0.423000	0.479000
C251	C25	0.059000	0.800000	0.745000
C261	C26	0.957000	0.740000	0.687000
C271	C27	0.188000	0.900000	0.628000
C281	C28	0.289000	0.959000	0.684600
C291	C29	0.007000	0.740000	0.815000
C301	C30	0.784000	0.620000	0.680000
C311	C31	0.567000	0.916000	0.957000
C321	C32	0.314000	0.077000	0.979000
N11	N1	0.220000	0.404000	0.756300
N21	N2	0.025000	0.290000	0.871000
N31	N3	0.389000	0.493000	0.563200
N41	N4	0.780000	0.096000	0.256300
N51	N5	0.975000	0.210000	0.371000
N61	N6	0.611000	0.007000	0.063200
N71	N7	0.780000	0.596000	0.243700
N81	N8	0.975000	0.710000	0.129000
N91	N9	0.611000	0.507000	0.436800
N101	N10	0.220000	0.904000	0.743700
N111	N11	0.025000	0.790000	0.629000
N121	N12	0.389000	0.993000	0.936800
O11	O1	0.129000	0.305000	0.630000
O21	O2	0.872000	0.136000	0.686000
O31	O3	0.495000	0.136000	0.817000
O41	O4	0.886000	0.027000	0.837000
O51	O5	0.871000	0.195000	0.130000
O61	O6	0.128000	0.364000	0.186000
O71	O7	0.505000	0.364000	0.317000
O81	O8	0.114000	0.473000	0.337000
O91	O9	0.871000	0.695000	0.370000
O101	O10	0.128000	0.864000	0.314000
O111	O11	0.505000	0.864000	0.183000
O121	O12	0.114000	0.973000	0.163000
O131	O13	0.129000	0.805000	0.870000
O141	O14	0.872000	0.636000	0.814000
O151	O15	0.495000	0.636000	0.683000
O161	O16	0.886000	0.527000	0.663000
