data_FEYDET_freeONLY_PM
_symmetry_space_group_name_H-M	'P1'
_cell_length_a	7.318100
_cell_length_b	17.020000
_cell_length_c	10.578900
_cell_angle_alpha	90.000000
_cell_angle_beta	102.651000
_cell_angle_gamma	90.000000
_symmetry_Int_Tables_number 1

loop_
_symmetry_equiv_pos_as_xyz
'x,y,z'

loop_
_atom_site_label
_atom_site_type_symbol
_atom_site_fract_x
_atom_site_fract_y
_atom_site_fract_z
In11	In1	0.693330	0.398140	0.180430
In21	In2	0.200930	0.453430	0.262090
O11	O1	0.669100	0.536700	0.081800
O21	O2	0.586000	0.425200	0.980400
O31	O3	0.462000	0.787500	0.873500
O41	O4	0.282500	0.789200	0.679000
O51	O5	0.297200	0.433300	0.501100
O61	O6	0.254100	0.549600	0.409600
O71	O7	0.855500	0.067300	0.857300
O81	O8	0.888900	0.957200	0.965200
O91	O9	0.916000	0.320400	0.112700
O101	O10	0.193200	0.328500	0.259100
O111	O11	0.300000	0.069400	0.532100
O121	O12	0.116700	0.971300	0.450200
O131	O13	0.919700	0.450200	0.290600
O141	O14	0.495600	0.451000	0.267200
C11	C1	0.512200	0.544600	0.865000
C21	C2	0.496000	0.624100	0.869200
H11	H1	0.538400	0.650300	0.947200
C31	C3	0.417000	0.666600	0.759000
C41	C4	0.343000	0.626900	0.642900
H21	H2	0.281300	0.655000	0.570600
C51	C5	0.361000	0.546500	0.635300
C61	C6	0.446200	0.505700	0.747400
H31	H3	0.459400	0.451500	0.743700
C71	C7	0.598000	0.501200	0.984200
C81	C8	0.390000	0.751900	0.772200
C91	C9	0.299000	0.506200	0.506100
C101	C10	0.975700	0.077200	0.085300
C111	C11	0.981000	0.158000	0.083900
H41	H4	0.930100	0.184400	0.007300
C121	C12	0.059000	0.200800	0.192500
C131	C13	0.133300	0.160700	0.307100
H51	H5	0.193300	0.188300	0.380400
C141	C14	0.117500	0.079200	0.311500
C151	C15	0.047000	0.037300	0.203400
H61	H6	0.045900	0.982700	0.206300
C161	C16	0.902000	0.029500	0.964900
C171	C17	0.056000	0.289300	0.189000
C181	C18	0.184000	0.037800	0.438800
In31	In3	0.306670	0.898140	0.819570
In41	In4	0.799070	0.953430	0.737910
O151	O15	0.330900	0.036700	0.918200
O161	O16	0.414000	0.925200	0.019600
O171	O17	0.538000	0.287500	0.126500
O181	O18	0.717500	0.289200	0.321000
O191	O19	0.702800	0.933300	0.498900
O201	O20	0.745900	0.049600	0.590400
O211	O21	0.144500	0.567300	0.142700
O221	O22	0.111100	0.457200	0.034800
O231	O23	0.084000	0.820400	0.887300
O241	O24	0.806800	0.828500	0.740900
O251	O25	0.700000	0.569400	0.467900
O261	O26	0.883300	0.471300	0.549800
O271	O27	0.080300	0.950200	0.709400
O281	O28	0.504400	0.951000	0.732800
C191	C19	0.487800	0.044600	0.135000
C201	C20	0.504000	0.124100	0.130800
H71	H7	0.461600	0.150300	0.052800
C211	C21	0.583000	0.166600	0.241000
C221	C22	0.657000	0.126900	0.357100
H81	H8	0.718700	0.155000	0.429400
C231	C23	0.639000	0.046500	0.364700
C241	C24	0.553800	0.005700	0.252600
H91	H9	0.540600	0.951500	0.256300
C251	C25	0.402000	0.001200	0.015800
C261	C26	0.610000	0.251900	0.227800
C271	C27	0.701000	0.006200	0.493900
C281	C28	0.024300	0.577200	0.914700
C291	C29	0.019000	0.658000	0.916100
H101	H10	0.069900	0.684400	0.992700
C301	C30	0.941000	0.700800	0.807500
C311	C31	0.866700	0.660700	0.692900
H111	H11	0.806700	0.688300	0.619600
C321	C32	0.882500	0.579200	0.688500
C331	C33	0.953000	0.537300	0.796600
H121	H12	0.954100	0.482700	0.793700
C341	C34	0.098000	0.529500	0.035100
C351	C35	0.944000	0.789300	0.811000
C361	C36	0.816000	0.537800	0.561200
