data_FIFGAE_freeONLY_PM
_symmetry_space_group_name_H-M	'P1'
_cell_length_a	18.199700
_cell_length_b	18.199700
_cell_length_c	20.020400
_cell_angle_alpha	90.000000
_cell_angle_beta	90.000000
_cell_angle_gamma	120.000000
_symmetry_Int_Tables_number 1

loop_
_symmetry_equiv_pos_as_xyz
'x,y,z'

loop_
_atom_site_label
_atom_site_type_symbol
_atom_site_fract_x
_atom_site_fract_y
_atom_site_fract_z
O11	O1	0.072600	0.111900	0.195300
O21	O2	0.313800	0.320500	0.072600
O31	O3	0.419000	0.430600	0.119400
O41	O4	0.548400	0.449000	0.006070
O51	O5	0.457100	0.314000	0.007000
O61	O6	0.934800	0.896100	0.079300
N11	N1	0.854000	0.749700	0.069700
C11	C1	0.310400	0.328600	0.189100
C21	C2	0.806300	0.668800	0.101900
H11	H1	0.797800	0.677100	0.148000
H21	H2	0.837000	0.638600	0.099100
H31	H3	0.752300	0.636500	0.080300
C31	C3	0.352000	0.363600	0.124500
C41	C4	0.874300	0.751200	0.999500
H41	H4	0.843800	0.694600	0.981800
H51	H5	0.934100	0.772900	0.994600
H61	H6	0.858300	0.786800	0.975700
C51	C5	0.232000	0.258000	0.191300
H71	H7	0.205400	0.233700	0.151100
C61	C6	0.581500	0.267800	0.010700
C71	C7	0.890900	0.824300	0.105800
H81	H8	0.882900	0.821400	0.151800
C81	C8	0.603600	0.354200	0.011600
C91	C9	0.531100	0.374000	0.008000
O71	O7	0.888100	0.960700	0.195300
O81	O8	0.679500	0.993300	0.072600
O91	O9	0.569400	0.988400	0.119400
O101	O10	0.551000	0.099400	0.006070
O111	O11	0.686000	0.143100	0.007000
O121	O12	0.103900	0.038700	0.079300
N21	N2	0.250300	0.104300	0.069700
C101	C10	0.671400	0.981800	0.189100
C111	C11	0.331200	0.137500	0.101900
H91	H9	0.322900	0.120700	0.148000
H101	H10	0.361400	0.198400	0.099100
H111	H11	0.363500	0.115800	0.080300
C121	C12	0.636400	0.988400	0.124500
C131	C13	0.248800	0.123100	0.999500
H121	H12	0.305400	0.149200	0.981800
H131	H13	0.227100	0.161200	0.994600
H141	H14	0.213200	0.071500	0.975700
C141	C14	0.742000	0.974000	0.191300
H151	H15	0.766300	0.971700	0.151100
C151	C15	0.732200	0.313700	0.010700
C161	C16	0.175700	0.066600	0.105800
H161	H16	0.178600	0.061500	0.151800
C171	C17	0.645800	0.249400	0.011600
C181	C18	0.626000	0.157100	0.008000
O131	O13	0.039300	0.927400	0.195300
O141	O14	0.006700	0.686200	0.072600
O151	O15	0.011600	0.581000	0.119400
O161	O16	0.900600	0.451600	0.006070
O171	O17	0.856900	0.542900	0.007000
O181	O18	0.961300	0.065200	0.079300
N31	N3	0.895700	0.146000	0.069700
C191	C19	0.018200	0.689600	0.189100
C201	C20	0.862500	0.193700	0.101900
H171	H17	0.879300	0.202200	0.148000
H181	H18	0.801600	0.163000	0.099100
H191	H19	0.884200	0.247700	0.080300
C211	C21	0.011600	0.648000	0.124500
C221	C22	0.876900	0.125700	0.999500
H201	H20	0.850800	0.156200	0.981800
H211	H21	0.838800	0.065900	0.994600
H221	H22	0.928500	0.141700	0.975700
C231	C23	0.026000	0.768000	0.191300
H231	H23	0.028300	0.794600	0.151100
C241	C24	0.686300	0.418500	0.010700
C251	C25	0.933400	0.109100	0.105800
H241	H24	0.938500	0.117100	0.151800
C261	C26	0.750600	0.396400	0.011600
C271	C27	0.842900	0.468900	0.008000
O191	O19	0.072600	0.111900	0.304700
O201	O20	0.313800	0.320500	0.427400
O211	O21	0.419000	0.430600	0.380600
O221	O22	0.548400	0.449000	0.493930
O231	O23	0.457100	0.314000	0.493000
O241	O24	0.934800	0.896100	0.420700
N41	N4	0.854000	0.749700	0.430300
C281	C28	0.310400	0.328600	0.310900
C291	C29	0.806300	0.668800	0.398100
H251	H25	0.797800	0.677100	0.352000
H261	H26	0.837000	0.638600	0.400900
H271	H27	0.752300	0.636500	0.419700
C301	C30	0.352000	0.363600	0.375500
C311	C31	0.874300	0.751200	0.500500
H281	H28	0.843800	0.694600	0.518200
H291	H29	0.934100	0.772900	0.505400
H301	H30	0.858300	0.786800	0.524300
C321	C32	0.232000	0.258000	0.308700
H311	H31	0.205400	0.233700	0.348900
C331	C33	0.581500	0.267800	0.489300
C341	C34	0.890900	0.824300	0.394200
H321	H32	0.882900	0.821400	0.348200
C351	C35	0.603600	0.354200	0.488400
C361	C36	0.531100	0.374000	0.492000
O251	O25	0.888100	0.960700	0.304700
O261	O26	0.679500	0.993300	0.427400
O271	O27	0.569400	0.988400	0.380600
O281	O28	0.551000	0.099400	0.493930
O291	O29	0.686000	0.143100	0.493000
O301	O30	0.103900	0.038700	0.420700
N51	N5	0.250300	0.104300	0.430300
C371	C37	0.671400	0.981800	0.310900
C381	C38	0.331200	0.137500	0.398100
H331	H33	0.322900	0.120700	0.352000
H341	H34	0.361400	0.198400	0.400900
H351	H35	0.363500	0.115800	0.419700
C391	C39	0.636400	0.988400	0.375500
C401	C40	0.248800	0.123100	0.500500
H361	H36	0.305400	0.149200	0.518200
H371	H37	0.227100	0.161200	0.505400
H381	H38	0.213200	0.071500	0.524300
C411	C41	0.742000	0.974000	0.308700
H391	H39	0.766300	0.971700	0.348900
C421	C42	0.732200	0.313700	0.489300
C431	C43	0.175700	0.066600	0.394200
H401	H40	0.178600	0.061500	0.348200
C441	C44	0.645800	0.249400	0.488400
C451	C45	0.626000	0.157100	0.492000
O311	O31	0.039300	0.927400	0.304700
O321	O32	0.006700	0.686200	0.427400
O331	O33	0.011600	0.581000	0.380600
O341	O34	0.900600	0.451600	0.493930
O351	O35	0.856900	0.542900	0.493000
O361	O36	0.961300	0.065200	0.420700
N61	N6	0.895700	0.146000	0.430300
C461	C46	0.018200	0.689600	0.310900
C471	C47	0.862500	0.193700	0.398100
H411	H41	0.879300	0.202200	0.352000
H421	H42	0.801600	0.163000	0.400900
H431	H43	0.884200	0.247700	0.419700
C481	C48	0.011600	0.648000	0.375500
C491	C49	0.876900	0.125700	0.500500
H441	H44	0.850800	0.156200	0.518200
H451	H45	0.838800	0.065900	0.505400
H461	H46	0.928500	0.141700	0.524300
C501	C50	0.026000	0.768000	0.308700
H471	H47	0.028300	0.794600	0.348900
C511	C51	0.686300	0.418500	0.489300
C521	C52	0.933400	0.109100	0.394200
H481	H48	0.938500	0.117100	0.348200
C531	C53	0.750600	0.396400	0.488400
C541	C54	0.842900	0.468900	0.492000
O371	O37	0.111900	0.072600	0.804700
O381	O38	0.320500	0.313800	0.927400
O391	O39	0.430600	0.419000	0.880600
O401	O40	0.449000	0.548400	0.993930
O411	O41	0.314000	0.457100	0.993000
O421	O42	0.896100	0.934800	0.920700
N71	N7	0.749700	0.854000	0.930300
C551	C55	0.328600	0.310400	0.810900
C561	C56	0.668800	0.806300	0.898100
H491	H49	0.677100	0.797800	0.852000
H501	H50	0.638600	0.837000	0.900900
H511	H51	0.636500	0.752300	0.919700
C571	C57	0.363600	0.352000	0.875500
C581	C58	0.751200	0.874300	0.000500
H521	H52	0.694600	0.843800	0.018200
H531	H53	0.772900	0.934100	0.005400
H541	H54	0.786800	0.858300	0.024300
C591	C59	0.258000	0.232000	0.808700
H551	H55	0.233700	0.205400	0.848900
C601	C60	0.267800	0.581500	0.989300
C611	C61	0.824300	0.890900	0.894200
H561	H56	0.821400	0.882900	0.848200
C621	C62	0.354200	0.603600	0.988400
C631	C63	0.374000	0.531100	0.992000
O431	O43	0.960700	0.888100	0.804700
O441	O44	0.993300	0.679500	0.927400
O451	O45	0.988400	0.569400	0.880600
O461	O46	0.099400	0.551000	0.993930
O471	O47	0.143100	0.686000	0.993000
O481	O48	0.038700	0.103900	0.920700
N81	N8	0.104300	0.250300	0.930300
C641	C64	0.981800	0.671400	0.810900
C651	C65	0.137500	0.331200	0.898100
H571	H57	0.120700	0.322900	0.852000
H581	H58	0.198400	0.361400	0.900900
H591	H59	0.115800	0.363500	0.919700
C661	C66	0.988400	0.636400	0.875500
C671	C67	0.123100	0.248800	0.000500
H601	H60	0.149200	0.305400	0.018200
H611	H61	0.161200	0.227100	0.005400
H621	H62	0.071500	0.213200	0.024300
C681	C68	0.974000	0.742000	0.808700
H631	H63	0.971700	0.766300	0.848900
C691	C69	0.313700	0.732200	0.989300
C701	C70	0.066600	0.175700	0.894200
H641	H64	0.061500	0.178600	0.848200
C711	C71	0.249400	0.645800	0.988400
C721	C72	0.157100	0.626000	0.992000
O491	O49	0.927400	0.039300	0.804700
O501	O50	0.686200	0.006700	0.927400
O511	O51	0.581000	0.011600	0.880600
O521	O52	0.451600	0.900600	0.993930
O531	O53	0.542900	0.856900	0.993000
O541	O54	0.065200	0.961300	0.920700
N91	N9	0.146000	0.895700	0.930300
C731	C73	0.689600	0.018200	0.810900
C741	C74	0.193700	0.862500	0.898100
H651	H65	0.202200	0.879300	0.852000
H661	H66	0.163000	0.801600	0.900900
H671	H67	0.247700	0.884200	0.919700
C751	C75	0.648000	0.011600	0.875500
C761	C76	0.125700	0.876900	0.000500
H681	H68	0.156200	0.850800	0.018200
H691	H69	0.065900	0.838800	0.005400
H701	H70	0.141700	0.928500	0.024300
C771	C77	0.768000	0.026000	0.808700
H711	H71	0.794600	0.028300	0.848900
C781	C78	0.418500	0.686300	0.989300
C791	C79	0.109100	0.933400	0.894200
H721	H72	0.117100	0.938500	0.848200
C801	C80	0.396400	0.750600	0.988400
C811	C81	0.468900	0.842900	0.992000
O551	O55	0.111900	0.072600	0.695300
O561	O56	0.320500	0.313800	0.572600
O571	O57	0.430600	0.419000	0.619400
O581	O58	0.449000	0.548400	0.506070
O591	O59	0.314000	0.457100	0.507000
O601	O60	0.896100	0.934800	0.579300
N101	N10	0.749700	0.854000	0.569700
C821	C82	0.328600	0.310400	0.689100
C831	C83	0.668800	0.806300	0.601900
H731	H73	0.677100	0.797800	0.648000
H741	H74	0.638600	0.837000	0.599100
H751	H75	0.636500	0.752300	0.580300
C841	C84	0.363600	0.352000	0.624500
C851	C85	0.751200	0.874300	0.499500
H761	H76	0.694600	0.843800	0.481800
H771	H77	0.772900	0.934100	0.494600
H781	H78	0.786800	0.858300	0.475700
C861	C86	0.258000	0.232000	0.691300
H791	H79	0.233700	0.205400	0.651100
C871	C87	0.267800	0.581500	0.510700
C881	C88	0.824300	0.890900	0.605800
H801	H80	0.821400	0.882900	0.651800
C891	C89	0.354200	0.603600	0.511600
C901	C90	0.374000	0.531100	0.508000
O611	O61	0.960700	0.888100	0.695300
O621	O62	0.993300	0.679500	0.572600
O631	O63	0.988400	0.569400	0.619400
O641	O64	0.099400	0.551000	0.506070
O651	O65	0.143100	0.686000	0.507000
O661	O66	0.038700	0.103900	0.579300
N111	N11	0.104300	0.250300	0.569700
C911	C91	0.981800	0.671400	0.689100
C921	C92	0.137500	0.331200	0.601900
H811	H81	0.120700	0.322900	0.648000
H821	H82	0.198400	0.361400	0.599100
H831	H83	0.115800	0.363500	0.580300
C931	C93	0.988400	0.636400	0.624500
C941	C94	0.123100	0.248800	0.499500
H841	H84	0.149200	0.305400	0.481800
H851	H85	0.161200	0.227100	0.494600
H861	H86	0.071500	0.213200	0.475700
C951	C95	0.974000	0.742000	0.691300
H871	H87	0.971700	0.766300	0.651100
C961	C96	0.313700	0.732200	0.510700
C971	C97	0.066600	0.175700	0.605800
H881	H88	0.061500	0.178600	0.651800
C981	C98	0.249400	0.645800	0.511600
C991	C99	0.157100	0.626000	0.508000
O671	O67	0.927400	0.039300	0.695300
O681	O68	0.686200	0.006700	0.572600
O691	O69	0.581000	0.011600	0.619400
O701	O70	0.451600	0.900600	0.506070
O711	O71	0.542900	0.856900	0.507000
O721	O72	0.065200	0.961300	0.579300
N121	N12	0.146000	0.895700	0.569700
C1001	C100	0.689600	0.018200	0.689100
C1011	C101	0.193700	0.862500	0.601900
H891	H89	0.202200	0.879300	0.648000
H901	H90	0.163000	0.801600	0.599100
H911	H91	0.247700	0.884200	0.580300
C1021	C102	0.648000	0.011600	0.624500
C1031	C103	0.125700	0.876900	0.499500
H921	H92	0.156200	0.850800	0.481800
H931	H93	0.065900	0.838800	0.494600
H941	H94	0.141700	0.928500	0.475700
C1041	C104	0.768000	0.026000	0.691300
H951	H95	0.794600	0.028300	0.651100
C1051	C105	0.418500	0.686300	0.510700
C1061	C106	0.109100	0.933400	0.605800
H961	H96	0.117100	0.938500	0.651800
C1071	C107	0.396400	0.750600	0.511600
C1081	C108	0.468900	0.842900	0.508000
In11	In1	0.408910	0.408910	0.000000
In21	In2	0.591090	0.000000	0.000000
In31	In3	0.000000	0.591090	0.000000
In41	In4	0.408910	0.408910	0.500000
In51	In5	0.591090	0.000000	0.500000
In61	In6	0.000000	0.591090	0.500000
Co11	Co1	0.000000	0.000000	0.147040
Co21	Co2	0.000000	0.000000	0.352960
Co31	Co3	0.000000	0.000000	0.852960
Co41	Co4	0.000000	0.000000	0.647040
C1091	C109	0.103100	0.140600	0.250000
C1101	C110	0.189800	0.220400	0.250000
C1111	C111	0.350400	0.363500	0.250000
H971	H97	0.404500	0.410800	0.250000
C1121	C112	0.859400	0.962500	0.250000
C1131	C113	0.779600	0.969400	0.250000
C1141	C114	0.636500	0.986900	0.250000
H981	H98	0.589200	0.993700	0.250000
C1151	C115	0.037500	0.896900	0.250000
C1161	C116	0.030600	0.810200	0.250000
C1171	C117	0.013100	0.649600	0.250000
H991	H99	0.006300	0.595500	0.250000
C1181	C118	0.140600	0.103100	0.750000
C1191	C119	0.220400	0.189800	0.750000
C1201	C120	0.363500	0.350400	0.750000
H1001	H100	0.410800	0.404500	0.750000
C1211	C121	0.962500	0.859400	0.750000
C1221	C122	0.969400	0.779600	0.750000
C1231	C123	0.986900	0.636500	0.750000
H1011	H101	0.993700	0.589200	0.750000
C1241	C124	0.896900	0.037500	0.750000
C1251	C125	0.810200	0.030600	0.750000
C1261	C126	0.649600	0.013100	0.750000
H1021	H102	0.595500	0.006300	0.750000
