data_FIFMIS01_freeONLY_PM
_symmetry_space_group_name_H-M	'P1'
_cell_length_a	15.936300
_cell_length_b	15.936300
_cell_length_c	21.338000
_cell_angle_alpha	90.000000
_cell_angle_beta	90.000000
_cell_angle_gamma	120.000000
_symmetry_Int_Tables_number 1

loop_
_symmetry_equiv_pos_as_xyz
'x,y,z'

loop_
_atom_site_label
_atom_site_type_symbol
_atom_site_fract_x
_atom_site_fract_y
_atom_site_fract_z
Co11	Co1	0.553350	0.846370	0.911850
Co21	Co2	0.482880	0.968990	0.806070
Co31	Co3	0.293020	0.446650	0.578520
Co41	Co4	0.486110	0.517120	0.472740
Co51	Co5	0.153630	0.706980	0.245180
Co61	Co6	0.031010	0.513890	0.139400
Co71	Co7	0.446650	0.153630	0.411850
Co81	Co8	0.517120	0.031010	0.306070
Co91	Co9	0.706980	0.553350	0.078520
Co101	Co10	0.513890	0.482880	0.972740
Co111	Co11	0.846370	0.293020	0.745180
Co121	Co12	0.968990	0.486110	0.639400
H11	H1	0.472400	0.806200	0.445000
H21	H2	0.446200	0.987000	0.563800
H31	H3	0.400000	0.731200	0.624400
H41	H4	0.384800	0.932700	0.671000
H51	H5	0.368700	0.832400	0.694000
H61	H6	0.593900	0.894500	0.676500
H71	H7	0.502100	0.813700	0.710900
H81	H8	0.536300	0.064700	0.661200
H91	H9	0.608400	0.027700	0.644900
H101	H10	0.705900	0.052200	0.909100
H111	H11	0.871600	0.154300	0.915800
H121	H12	0.898000	0.921400	0.953600
H131	H13	0.736500	0.828200	0.943800
H141	H14	0.044500	0.082400	0.952500
H151	H15	0.024500	0.234300	0.920200
H161	H16	0.170500	0.395600	0.931300
H171	H17	0.331600	0.492700	0.945900
H181	H18	0.365100	0.267200	0.945400
H191	H19	0.206300	0.165800	0.933300
H201	H20	0.486700	0.778800	0.022400
H211	H21	0.520400	0.721300	0.004200
H221	H22	0.333800	0.527600	0.111670
H231	H23	0.540800	0.553800	0.230470
H241	H24	0.331200	0.600000	0.291070
H251	H25	0.547900	0.615200	0.337670
H261	H26	0.463700	0.631300	0.360670
H271	H27	0.300600	0.406100	0.343170
H281	H28	0.311600	0.497900	0.377570
H291	H29	0.528400	0.463700	0.327870
H301	H30	0.419300	0.391600	0.311570
H311	H31	0.346300	0.294100	0.575770
H321	H32	0.282700	0.128400	0.582470
H331	H33	0.023400	0.102000	0.620270
H341	H34	0.091700	0.263500	0.610470
H351	H35	0.037900	0.955500	0.619170
H361	H36	0.209800	0.975500	0.586870
H371	H37	0.225100	0.829500	0.597970
H381	H38	0.161100	0.668400	0.612570
H391	H39	0.902100	0.634900	0.612070
H401	H40	0.959500	0.793700	0.599970
H411	H41	0.292100	0.513300	0.689070
H421	H42	0.200900	0.479600	0.670870
H431	H43	0.193800	0.666200	0.778330
H441	H44	0.013000	0.459200	0.897130
H451	H45	0.268800	0.668800	0.957730
H461	H46	0.067300	0.452100	0.004330
H471	H47	0.167600	0.536300	0.027330
H481	H48	0.105500	0.699400	0.009830
H491	H49	0.186300	0.688400	0.044230
H501	H50	0.935300	0.471600	0.994530
H511	H51	0.972300	0.580700	0.978230
H521	H52	0.947800	0.653700	0.242430
H531	H53	0.845700	0.717300	0.249130
H541	H54	0.078600	0.976600	0.286930
H551	H55	0.171800	0.908300	0.277130
H561	H56	0.917600	0.962100	0.285830
H571	H57	0.765700	0.790200	0.253530
H581	H58	0.604400	0.774900	0.264630
H591	H59	0.507300	0.838900	0.279230
H601	H60	0.732800	0.097900	0.278730
H611	H61	0.834200	0.040500	0.266630
H621	H62	0.221200	0.707900	0.355730
H631	H63	0.278700	0.799100	0.337530
H641	H64	0.527600	0.193800	0.945000
H651	H65	0.553800	0.013000	0.063800
H661	H66	0.600000	0.268800	0.124400
H671	H67	0.615200	0.067300	0.171000
H681	H68	0.631300	0.167600	0.194000
H691	H69	0.406100	0.105500	0.176500
H701	H70	0.497900	0.186300	0.210900
H711	H71	0.463700	0.935300	0.161200
H721	H72	0.391600	0.972300	0.144900
H731	H73	0.294100	0.947800	0.409100
H741	H74	0.128400	0.845700	0.415800
H751	H75	0.102000	0.078600	0.453600
H761	H76	0.263500	0.171800	0.443800
H771	H77	0.955500	0.917600	0.452500
H781	H78	0.975500	0.765700	0.420200
H791	H79	0.829500	0.604400	0.431300
H801	H80	0.668400	0.507300	0.445900
H811	H81	0.634900	0.732800	0.445400
H821	H82	0.793700	0.834200	0.433300
H831	H83	0.513300	0.221200	0.522400
H841	H84	0.479600	0.278700	0.504200
H851	H85	0.666200	0.472400	0.611670
H861	H86	0.459200	0.446200	0.730470
H871	H87	0.668800	0.400000	0.791070
H881	H88	0.452100	0.384800	0.837670
H891	H89	0.536300	0.368700	0.860670
H901	H90	0.699400	0.593900	0.843170
H911	H91	0.688400	0.502100	0.877570
H921	H92	0.471600	0.536300	0.827870
H931	H93	0.580700	0.608400	0.811570
H941	H94	0.653700	0.705900	0.075770
H951	H95	0.717300	0.871600	0.082470
H961	H96	0.976600	0.898000	0.120270
H971	H97	0.908300	0.736500	0.110470
H981	H98	0.962100	0.044500	0.119170
H991	H99	0.790200	0.024500	0.086870
H1001	H100	0.774900	0.170500	0.097970
H1011	H101	0.838900	0.331600	0.112570
H1021	H102	0.097900	0.365100	0.112070
H1031	H103	0.040500	0.206300	0.099970
H1041	H104	0.707900	0.486700	0.189070
H1051	H105	0.799100	0.520400	0.170870
H1061	H106	0.806200	0.333800	0.278330
H1071	H107	0.987000	0.540800	0.397130
H1081	H108	0.731200	0.331200	0.457730
H1091	H109	0.932700	0.547900	0.504330
H1101	H110	0.832400	0.463700	0.527330
H1111	H111	0.894500	0.300600	0.509830
H1121	H112	0.813700	0.311600	0.544230
H1131	H113	0.064700	0.528400	0.494530
H1141	H114	0.027700	0.419300	0.478230
H1151	H115	0.052200	0.346300	0.742430
H1161	H116	0.154300	0.282700	0.749130
H1171	H117	0.921400	0.023400	0.786930
H1181	H118	0.828200	0.091700	0.777130
H1191	H119	0.082400	0.037900	0.785830
H1201	H120	0.234300	0.209800	0.753530
H1211	H121	0.395600	0.225100	0.764630
H1221	H122	0.492700	0.161100	0.779230
H1231	H123	0.267200	0.902100	0.778730
H1241	H124	0.165800	0.959500	0.766630
H1251	H125	0.778800	0.292100	0.855730
H1261	H126	0.721300	0.200900	0.837530
C11	C1	0.431600	0.752300	0.532200
C21	C2	0.457100	0.819500	0.484500
C31	C3	0.460000	0.906800	0.495400
C41	C4	0.443500	0.928200	0.556300
C51	C5	0.423600	0.865100	0.604900
C61	C6	0.415900	0.775900	0.592100
C71	C7	0.413300	0.891300	0.671900
C81	C8	0.552000	0.881500	0.712500
C91	C9	0.611700	0.899200	0.772300
C101	C10	0.573100	0.036900	0.678800
C111	C11	0.645000	0.106700	0.727200
C121	C12	0.420500	0.652800	0.524400
C131	C13	0.478600	0.979800	0.444100
C141	C14	0.745300	0.026000	0.917700
C151	C15	0.844800	0.088000	0.922200
C161	C16	0.904400	0.048800	0.936700
C171	C17	0.860800	0.949800	0.944400
C181	C18	0.764100	0.894700	0.938500
C191	C19	0.009500	0.112300	0.941100
C201	C20	0.059500	0.204200	0.931300
C211	C21	0.165100	0.267500	0.935400
C221	C22	0.209000	0.367400	0.936200
C231	C23	0.306000	0.426100	0.943800
C241	C24	0.324400	0.293300	0.943800
C251	C25	0.229500	0.232000	0.937000
C261	C26	0.320700	0.568400	0.198870
C271	C27	0.362400	0.542900	0.151170
C281	C28	0.446800	0.540000	0.162070
C291	C29	0.484700	0.556500	0.222970
C301	C30	0.441500	0.576400	0.271570
C311	C31	0.360000	0.584100	0.258770
C321	C32	0.478000	0.586700	0.338570
C331	C33	0.329500	0.448000	0.379170
C341	C34	0.287500	0.388300	0.438970
C351	C35	0.463800	0.426900	0.345470
C361	C36	0.461700	0.355000	0.393870
C371	C37	0.232300	0.579500	0.191070
C381	C38	0.501200	0.521400	0.110770
C391	C39	0.280700	0.254700	0.584370
C401	C40	0.243200	0.155200	0.588870
C411	C41	0.144400	0.095600	0.603370
C421	C42	0.089000	0.139200	0.611070
C431	C43	0.130600	0.235900	0.605170
C441	C44	0.102800	0.990500	0.607770
C451	C45	0.144700	0.940500	0.597970
C461	C46	0.102400	0.834900	0.602070
C471	C47	0.158400	0.791000	0.602870
C481	C48	0.120100	0.694000	0.610470
C491	C49	0.968900	0.675600	0.610470
C501	C50	0.002500	0.770500	0.603670
C511	C51	0.247700	0.679300	0.865530
C521	C52	0.180500	0.637600	0.817830
C531	C53	0.093200	0.553200	0.828730
C541	C54	0.071800	0.515300	0.889630
C551	C55	0.134900	0.558500	0.938230
C561	C56	0.224100	0.640000	0.925430
C571	C57	0.108700	0.522000	0.005230
C581	C58	0.118500	0.670500	0.045830
C591	C59	0.100800	0.712500	0.105630
C601	C60	0.963100	0.536200	0.012130
C611	C61	0.893300	0.538300	0.060530
C621	C62	0.347200	0.767700	0.857730
C631	C63	0.020200	0.498800	0.777430
C641	C64	0.974000	0.719300	0.251030
C651	C65	0.912000	0.756800	0.255530
C661	C66	0.951200	0.855600	0.270030
C671	C67	0.050200	0.911000	0.277730
C681	C68	0.105300	0.869400	0.271830
C691	C69	0.887700	0.897200	0.274430
C701	C70	0.795800	0.855300	0.264630
C711	C71	0.732500	0.897600	0.268730
C721	C72	0.632600	0.841600	0.269530
C731	C73	0.573900	0.879900	0.277130
C741	C74	0.706700	0.031100	0.277130
C751	C75	0.768000	0.997500	0.270330
C761	C76	0.568400	0.247700	0.032200
C771	C77	0.542900	0.180500	0.984500
C781	C78	0.540000	0.093200	0.995400
C791	C79	0.556500	0.071800	0.056300
C801	C80	0.576400	0.134900	0.104900
C811	C81	0.584100	0.224100	0.092100
C821	C82	0.586700	0.108700	0.171900
C831	C83	0.448000	0.118500	0.212500
C841	C84	0.388300	0.100800	0.272300
C851	C85	0.426900	0.963100	0.178800
C861	C86	0.355000	0.893300	0.227200
C871	C87	0.579500	0.347200	0.024400
C881	C88	0.521400	0.020200	0.944100
C891	C89	0.254700	0.974000	0.417700
C901	C90	0.155200	0.912000	0.422200
C911	C91	0.095600	0.951200	0.436700
C921	C92	0.139200	0.050200	0.444400
C931	C93	0.235900	0.105300	0.438500
C941	C94	0.990500	0.887700	0.441100
C951	C95	0.940500	0.795800	0.431300
C961	C96	0.834900	0.732500	0.435400
C971	C97	0.791000	0.632600	0.436200
C981	C98	0.694000	0.573900	0.443800
C991	C99	0.675600	0.706700	0.443800
C1001	C100	0.770500	0.768000	0.437000
C1011	C101	0.679300	0.431600	0.698870
C1021	C102	0.637600	0.457100	0.651170
C1031	C103	0.553200	0.460000	0.662070
C1041	C104	0.515300	0.443500	0.722970
C1051	C105	0.558500	0.423600	0.771570
C1061	C106	0.640000	0.415900	0.758770
C1071	C107	0.522000	0.413300	0.838570
C1081	C108	0.670500	0.552000	0.879170
C1091	C109	0.712500	0.611700	0.938970
C1101	C110	0.536200	0.573100	0.845470
C1111	C111	0.538300	0.645000	0.893870
C1121	C112	0.767700	0.420500	0.691070
C1131	C113	0.498800	0.478600	0.610770
C1141	C114	0.719300	0.745300	0.084370
C1151	C115	0.756800	0.844800	0.088870
C1161	C116	0.855600	0.904400	0.103370
C1171	C117	0.911000	0.860800	0.111070
C1181	C118	0.869400	0.764100	0.105170
C1191	C119	0.897200	0.009500	0.107770
C1201	C120	0.855300	0.059500	0.097970
C1211	C121	0.897600	0.165100	0.102070
C1221	C122	0.841600	0.209000	0.102870
C1231	C123	0.879900	0.306000	0.110470
C1241	C124	0.031100	0.324400	0.110470
C1251	C125	0.997500	0.229500	0.103670
C1261	C126	0.752300	0.320700	0.365530
C1271	C127	0.819500	0.362400	0.317830
C1281	C128	0.906800	0.446800	0.328730
C1291	C129	0.928200	0.484700	0.389630
C1301	C130	0.865100	0.441500	0.438230
C1311	C131	0.775900	0.360000	0.425430
C1321	C132	0.891300	0.478000	0.505230
C1331	C133	0.881500	0.329500	0.545830
C1341	C134	0.899200	0.287500	0.605630
C1351	C135	0.036900	0.463800	0.512130
C1361	C136	0.106700	0.461700	0.560530
C1371	C137	0.652800	0.232300	0.357730
C1381	C138	0.979800	0.501200	0.277430
C1391	C139	0.026000	0.280700	0.751030
C1401	C140	0.088000	0.243200	0.755530
C1411	C141	0.048800	0.144400	0.770030
C1421	C142	0.949800	0.089000	0.777730
C1431	C143	0.894700	0.130600	0.771830
C1441	C144	0.112300	0.102800	0.774430
C1451	C145	0.204200	0.144700	0.764630
C1461	C146	0.267500	0.102400	0.768730
C1471	C147	0.367400	0.158400	0.769530
C1481	C148	0.426100	0.120100	0.777130
C1491	C149	0.293300	0.968900	0.777130
C1501	C150	0.232000	0.002500	0.770330
N11	N1	0.505600	0.941500	0.707700
N21	N2	0.703900	0.930000	0.925300
N31	N3	0.364900	0.389600	0.948500
N41	N4	0.435900	0.494400	0.374370
N51	N5	0.226100	0.296100	0.591970
N61	N6	0.024700	0.635100	0.615170
N71	N7	0.058500	0.564100	0.041030
N81	N8	0.070000	0.773900	0.258630
N91	N9	0.610400	0.975300	0.281830
N101	N10	0.494400	0.058500	0.207700
N111	N11	0.296100	0.070000	0.425300
N121	N12	0.635100	0.610400	0.448500
N131	N13	0.564100	0.505600	0.874370
N141	N14	0.773900	0.703900	0.091970
N151	N15	0.975300	0.364900	0.115170
N161	N16	0.941500	0.435900	0.541030
N171	N17	0.930000	0.226100	0.758630
N181	N18	0.389600	0.024700	0.781830
O11	O1	0.574000	0.912600	0.822840
O21	O2	0.685800	0.894800	0.770600
O31	O3	0.616600	0.101900	0.782600
O41	O4	0.726400	0.166300	0.707000
O51	O5	0.360900	0.589800	0.561100
O61	O6	0.469700	0.639900	0.483200
O71	O7	0.511300	0.969900	0.393200
O81	O8	0.459600	0.044700	0.456700
O91	O9	0.532500	0.779500	0.001500
O101	O10	0.338600	0.426000	0.489510
O111	O11	0.209000	0.314200	0.437270
O121	O12	0.485300	0.383400	0.449270
O131	O13	0.439900	0.273600	0.373670
O141	O14	0.228900	0.639100	0.227770
O151	O15	0.170200	0.530300	0.149870
O161	O16	0.458600	0.488700	0.059870
O171	O17	0.585100	0.540400	0.123370
O181	O18	0.247000	0.467500	0.668170
O191	O19	0.087400	0.661400	0.156170
O201	O20	0.105200	0.791000	0.103930
O211	O21	0.898100	0.514700	0.115930
O221	O22	0.833700	0.560100	0.040330
O231	O23	0.410200	0.771100	0.894430
O241	O24	0.360100	0.829800	0.816530
O251	O25	0.030100	0.541400	0.726530
O261	O26	0.955300	0.414900	0.790030
O271	O27	0.220500	0.753000	0.334830
O281	O28	0.426000	0.087400	0.322840
O291	O29	0.314200	0.105200	0.270600
O301	O30	0.383400	0.898100	0.282600
O311	O31	0.273600	0.833700	0.207000
O321	O32	0.639100	0.410200	0.061100
O331	O33	0.530300	0.360100	0.983200
O341	O34	0.488700	0.030100	0.893200
O351	O35	0.540400	0.955300	0.956700
O361	O36	0.467500	0.220500	0.501500
O371	O37	0.661400	0.574000	0.989510
O381	O38	0.791000	0.685800	0.937270
O391	O39	0.514700	0.616600	0.949270
O401	O40	0.560100	0.726400	0.873670
O411	O41	0.771100	0.360900	0.727770
O421	O42	0.829800	0.469700	0.649870
O431	O43	0.541400	0.511300	0.559870
O441	O44	0.414900	0.459600	0.623370
O451	O45	0.753000	0.532500	0.168170
O461	O46	0.912600	0.338600	0.656170
O471	O47	0.894800	0.209000	0.603930
O481	O48	0.101900	0.485300	0.615930
O491	O49	0.166300	0.439900	0.540330
O501	O50	0.589800	0.228900	0.394430
O511	O51	0.639900	0.170200	0.316530
O521	O52	0.969900	0.458600	0.226530
O531	O53	0.044700	0.585100	0.290030
O541	O54	0.779500	0.247000	0.834830
