data_FIHLOZ_freeONLY_PM
_symmetry_space_group_name_H-M	'P1'
_cell_length_a	10.787300
_cell_length_b	22.348600
_cell_length_c	26.907200
_cell_angle_alpha	90.000000
_cell_angle_beta	90.000000
_cell_angle_gamma	101.173000
_symmetry_Int_Tables_number 1

loop_
_symmetry_equiv_pos_as_xyz
'x,y,z'

loop_
_atom_site_label
_atom_site_type_symbol
_atom_site_fract_x
_atom_site_fract_y
_atom_site_fract_z
Co11	Co1	0.832770	0.841140	0.344460
Co21	Co2	0.087720	0.953010	0.390160
Co31	Co3	0.589510	0.944730	0.147880
Co41	Co4	0.345880	0.823440	0.101610
Co51	Co5	0.667230	0.658860	0.844460
Co61	Co6	0.412280	0.546990	0.890160
Co71	Co7	0.910490	0.555270	0.647880
Co81	Co8	0.154120	0.676560	0.601610
Co91	Co9	0.167230	0.158860	0.655540
Co101	Co10	0.912280	0.046990	0.609840
Co111	Co11	0.410490	0.055270	0.852120
Co121	Co12	0.654120	0.176560	0.898390
Co131	Co13	0.332770	0.341140	0.155540
Co141	Co14	0.587720	0.453010	0.109840
Co151	Co15	0.089510	0.444730	0.352120
Co161	Co16	0.845880	0.323440	0.398390
H11	H1	0.048000	0.845900	0.384600
H21	H2	0.054000	0.853100	0.335900
H31	H3	0.379000	0.929300	0.095500
H41	H4	0.357000	0.927500	0.145100
H51	H5	0.803000	0.727300	0.332400
H61	H6	0.818000	0.730800	0.380600
H71	H7	0.782900	0.068100	0.459400
H81	H8	0.869200	0.248600	0.488400
H91	H9	0.369100	0.980300	0.421300
H101	H10	0.724500	0.992300	0.349000
H111	H11	0.782700	0.012300	0.402700
H121	H12	0.591900	0.000000	0.300200
H131	H13	0.213900	0.946600	0.289300
H141	H14	0.618000	0.510000	0.007100
H151	H15	0.712200	0.694300	0.013900
H161	H16	0.660000	0.590000	0.137800
H171	H17	0.731800	0.955500	0.246000
H181	H18	0.768000	0.193200	0.352800
H191	H19	0.191900	0.043500	0.981400
H201	H20	0.018800	0.944200	0.075700
H211	H21	0.162600	0.974900	0.063800
H221	H22	0.123200	0.130600	0.106300
H231	H23	0.403900	0.205900	0.019600
H241	H24	0.066900	0.794800	0.063600
H251	H25	0.201900	0.835100	0.198100
H261	H26	0.689200	0.843100	0.251900
H271	H27	0.554900	0.799600	0.385600
H281	H28	0.178900	0.771800	0.326200
H291	H29	0.144700	0.747800	0.381500
H301	H30	0.313900	0.781300	0.269000
H311	H31	0.130300	0.577900	0.319800
H321	H32	0.225900	0.690200	0.437000
H331	H33	0.101800	0.508700	0.454500
H341	H34	0.866500	0.983100	0.110300
H351	H35	0.110000	0.991200	0.225300
H361	H36	0.823200	0.795100	0.177800
H371	H37	0.690600	0.784900	0.121200
H381	H38	0.653400	0.757500	0.067000
H391	H39	0.452000	0.654100	0.884600
H401	H40	0.446000	0.646900	0.835900
H411	H41	0.121000	0.570700	0.595500
H421	H42	0.143000	0.572500	0.645100
H431	H43	0.697000	0.772700	0.832400
H441	H44	0.682000	0.769200	0.880600
H451	H45	0.717100	0.431900	0.959400
H461	H46	0.630800	0.251400	0.988400
H471	H47	0.130900	0.519700	0.921300
H481	H48	0.775500	0.507700	0.849000
H491	H49	0.717300	0.487700	0.902700
H501	H50	0.908100	0.500000	0.800200
H511	H51	0.286100	0.553400	0.789300
H521	H52	0.882000	0.990000	0.507100
H531	H53	0.787800	0.805700	0.513900
H541	H54	0.840000	0.910000	0.637800
H551	H55	0.768200	0.544500	0.746000
H561	H56	0.732000	0.306800	0.852800
H571	H57	0.308100	0.456500	0.481400
H581	H58	0.481200	0.555800	0.575700
H591	H59	0.337400	0.525100	0.563800
H601	H60	0.376800	0.369400	0.606300
H611	H61	0.096100	0.294100	0.519600
H621	H62	0.433100	0.705200	0.563600
H631	H63	0.298100	0.664900	0.698100
H641	H64	0.810800	0.656900	0.751900
H651	H65	0.945100	0.700400	0.885600
H661	H66	0.321100	0.728200	0.826200
H671	H67	0.355300	0.752200	0.881500
H681	H68	0.186100	0.718700	0.769000
H691	H69	0.369700	0.922100	0.819800
H701	H70	0.274100	0.809800	0.937000
H711	H71	0.398200	0.991300	0.954500
H721	H72	0.633500	0.516900	0.610300
H731	H73	0.390000	0.508800	0.725300
H741	H74	0.676800	0.704900	0.677800
H751	H75	0.809400	0.715100	0.621200
H761	H76	0.846600	0.742500	0.567000
H771	H77	0.952000	0.154100	0.615400
H781	H78	0.946000	0.146900	0.664100
H791	H79	0.621000	0.070700	0.904500
H801	H80	0.643000	0.072500	0.854900
H811	H81	0.197000	0.272700	0.667600
H821	H82	0.182000	0.269200	0.619400
H831	H83	0.217100	0.931900	0.540600
H841	H84	0.130800	0.751400	0.511600
H851	H85	0.630900	0.019700	0.578700
H861	H86	0.275500	0.007700	0.651000
H871	H87	0.217300	0.987700	0.597300
H881	H88	0.408100	0.000000	0.699800
H891	H89	0.786100	0.053400	0.710700
H901	H90	0.382000	0.490000	0.992900
H911	H91	0.287800	0.305700	0.986100
H921	H92	0.340000	0.410000	0.862200
H931	H93	0.268200	0.044500	0.754000
H941	H94	0.232000	0.806800	0.647200
H951	H95	0.808100	0.956500	0.018600
H961	H96	0.981200	0.055800	0.924300
H971	H97	0.837400	0.025100	0.936200
H981	H98	0.876800	0.869400	0.893700
H991	H99	0.596100	0.794100	0.980400
H1001	H100	0.933100	0.205200	0.936400
H1011	H101	0.798100	0.164900	0.801900
H1021	H102	0.310800	0.156900	0.748100
H1031	H103	0.445100	0.200400	0.614400
H1041	H104	0.821100	0.228200	0.673800
H1051	H105	0.855300	0.252200	0.618500
H1061	H106	0.686100	0.218700	0.731000
H1071	H107	0.869700	0.422100	0.680200
H1081	H108	0.774100	0.309800	0.563000
H1091	H109	0.898200	0.491300	0.545500
H1101	H110	0.133500	0.016900	0.889700
H1111	H111	0.890000	0.008800	0.774700
H1121	H112	0.176800	0.204900	0.822200
H1131	H113	0.309400	0.215100	0.878800
H1141	H114	0.346600	0.242500	0.933000
H1151	H115	0.548000	0.345900	0.115400
H1161	H116	0.554000	0.353100	0.164100
H1171	H117	0.879000	0.429300	0.404500
H1181	H118	0.857000	0.427500	0.354900
H1191	H119	0.303000	0.227300	0.167600
H1201	H120	0.318000	0.230800	0.119400
H1211	H121	0.282900	0.568100	0.040600
H1221	H122	0.369200	0.748600	0.011600
H1231	H123	0.869100	0.480300	0.078700
H1241	H124	0.224500	0.492300	0.151000
H1251	H125	0.282700	0.512300	0.097300
H1261	H126	0.091900	0.500000	0.199800
H1271	H127	0.713900	0.446600	0.210700
H1281	H128	0.118000	0.010000	0.492900
H1291	H129	0.212200	0.194300	0.486100
H1301	H130	0.160000	0.090000	0.362200
H1311	H131	0.231800	0.455500	0.254000
H1321	H132	0.268000	0.693200	0.147200
H1331	H133	0.691900	0.543500	0.518600
H1341	H134	0.518800	0.444200	0.424300
H1351	H135	0.662600	0.474900	0.436200
H1361	H136	0.623200	0.630600	0.393700
H1371	H137	0.903900	0.705900	0.480400
H1381	H138	0.566900	0.294800	0.436400
H1391	H139	0.701900	0.335100	0.301900
H1401	H140	0.189200	0.343100	0.248100
H1411	H141	0.054900	0.299600	0.114400
H1421	H142	0.678900	0.271800	0.173800
H1431	H143	0.644700	0.247800	0.118500
H1441	H144	0.813900	0.281300	0.231000
H1451	H145	0.630300	0.077900	0.180200
H1461	H146	0.725900	0.190200	0.063000
H1471	H147	0.601800	0.008700	0.045500
H1481	H148	0.366500	0.483100	0.389700
H1491	H149	0.610000	0.491200	0.274700
H1501	H150	0.323200	0.295100	0.322200
H1511	H151	0.190600	0.284900	0.378800
H1521	H152	0.153400	0.257500	0.433000
C11	C1	0.935400	0.963030	0.299500
C21	C2	0.867600	0.143250	0.534110
C31	C3	0.832900	0.156740	0.481960
C41	C4	0.794400	0.109340	0.448810
C51	C5	0.773300	0.123390	0.400050
C61	C6	0.843300	0.216240	0.465480
C71	C7	0.377800	0.978330	0.386280
C81	C8	0.497800	0.990900	0.366010
C91	C9	0.718700	0.018920	0.377990
C101	C10	0.510900	0.989240	0.315130
C111	C11	0.403900	0.971580	0.286230
C121	C12	0.414800	0.964660	0.231010
C131	C13	0.287200	0.958930	0.309230
C141	C14	0.637160	0.546290	0.026330
C151	C15	0.663200	0.601960	0.001510
C161	C16	0.651290	0.602350	0.945430
C171	C17	0.690410	0.655560	0.029510
C181	C18	0.684500	0.650230	0.080930
C191	C19	0.660400	0.592890	0.102580
C201	C20	0.923400	0.973200	0.244690
C211	C21	0.802400	0.964630	0.224260
C221	C22	0.489680	0.823790	0.196650
C231	C23	0.784700	0.183950	0.386280
C241	C24	0.386000	0.124310	0.945750
C251	C25	0.310200	0.125490	0.992710
C261	C26	0.211500	0.077220	0.003370
C271	C27	0.143100	0.079030	0.046090
C281	C28	0.084200	0.981550	0.080250
C291	C29	0.172300	0.129220	0.077210
C301	C30	0.335300	0.173300	0.026220
C311	C31	0.177800	0.603230	0.510300
C321	C32	0.166300	0.599770	0.454510
C331	C33	0.053000	0.800480	0.098000
C341	C34	0.131600	0.823760	0.176490
C351	C35	0.500500	0.813610	0.251650
C361	C36	0.619300	0.828270	0.272890
C371	C37	0.541100	0.803470	0.350990
C381	C38	0.418400	0.788930	0.333090
C391	C39	0.204000	0.747050	0.353540
C401	C40	0.396600	0.792630	0.282380
C411	C41	0.138700	0.583400	0.354680
C421	C42	0.177300	0.641780	0.372970
C431	C43	0.195200	0.650770	0.423750
C441	C44	0.123900	0.543000	0.433230
C451	C45	0.880600	0.979480	0.144930
C461	C46	0.003400	0.985670	0.162240
C471	C47	0.026100	0.984460	0.212750
C481	C48	0.996500	0.825820	0.251410
C491	C49	0.010700	0.816400	0.196220
C501	C50	0.906900	0.800540	0.165160
C511	C51	0.929400	0.792850	0.115160
C521	C52	0.712400	0.757350	0.095190
C531	C53	0.564600	0.536970	0.799500
C541	C54	0.632400	0.356750	0.034110
C551	C55	0.667100	0.343260	0.981960
C561	C56	0.705600	0.390660	0.948810
C571	C57	0.726700	0.376610	0.900050
C581	C58	0.656700	0.283760	0.965480
C591	C59	0.122200	0.521670	0.886280
C601	C60	0.002200	0.509100	0.866010
C611	C61	0.781300	0.481080	0.877990
C621	C62	0.989100	0.510760	0.815130
C631	C63	0.096100	0.528420	0.786230
C641	C64	0.085200	0.535340	0.731010
C651	C65	0.212800	0.541070	0.809230
C661	C66	0.862840	0.953710	0.526330
C671	C67	0.836800	0.898040	0.501510
C681	C68	0.848710	0.897650	0.445430
C691	C69	0.809590	0.844440	0.529510
C701	C70	0.815500	0.849770	0.580930
C711	C71	0.839600	0.907110	0.602580
C721	C72	0.576600	0.526800	0.744690
C731	C73	0.697600	0.535370	0.724260
C741	C74	0.010320	0.676210	0.696650
C751	C75	0.715300	0.316050	0.886280
C761	C76	0.114000	0.375690	0.445750
C771	C77	0.189800	0.374510	0.492710
C781	C78	0.288500	0.422780	0.503370
C791	C79	0.356900	0.420970	0.546090
C801	C80	0.415800	0.518450	0.580250
C811	C81	0.327700	0.370780	0.577210
C821	C82	0.164700	0.326700	0.526220
C831	C83	0.322200	0.896770	0.010300
C841	C84	0.333700	0.900230	0.954510
C851	C85	0.447000	0.699520	0.598000
C861	C86	0.368400	0.676240	0.676490
C871	C87	0.999500	0.686390	0.751650
C881	C88	0.880700	0.671730	0.772890
C891	C89	0.958900	0.696530	0.850990
C901	C90	0.081600	0.711070	0.833090
C911	C91	0.296000	0.752950	0.853540
C921	C92	0.103400	0.707370	0.782380
C931	C93	0.361300	0.916600	0.854680
C941	C94	0.322700	0.858220	0.872970
C951	C95	0.304800	0.849230	0.923750
C961	C96	0.376100	0.957000	0.933230
C971	C97	0.619400	0.520520	0.644930
C981	C98	0.496600	0.514330	0.662240
C991	C99	0.473900	0.515540	0.712750
C1001	C100	0.503500	0.674180	0.751410
C1011	C101	0.489300	0.683600	0.696220
C1021	C102	0.593100	0.699460	0.665160
C1031	C103	0.570600	0.707150	0.615160
C1041	C104	0.787600	0.742650	0.595190
C1051	C105	0.064600	0.036970	0.700500
C1061	C106	0.132400	0.856750	0.465890
C1071	C107	0.167100	0.843260	0.518040
C1081	C108	0.205600	0.890660	0.551190
C1091	C109	0.226700	0.876610	0.599950
C1101	C110	0.156700	0.783760	0.534520
C1111	C111	0.622200	0.021670	0.613720
C1121	C112	0.502200	0.009100	0.633990
C1131	C113	0.281300	0.981080	0.622010
C1141	C114	0.489100	0.010760	0.684870
C1151	C115	0.596100	0.028420	0.713770
C1161	C116	0.585200	0.035340	0.768990
C1171	C117	0.712800	0.041070	0.690770
C1181	C118	0.362840	0.453710	0.973670
C1191	C119	0.336800	0.398040	0.998490
C1201	C120	0.348710	0.397650	0.054570
C1211	C121	0.309590	0.344440	0.970490
C1221	C122	0.315500	0.349770	0.919070
C1231	C123	0.339600	0.407110	0.897420
C1241	C124	0.076600	0.026800	0.755310
C1251	C125	0.197600	0.035370	0.775740
C1261	C126	0.510320	0.176210	0.803350
C1271	C127	0.215300	0.816050	0.613720
C1281	C128	0.614000	0.875690	0.054250
C1291	C129	0.689800	0.874510	0.007290
C1301	C130	0.788500	0.922780	0.996630
C1311	C131	0.856900	0.920970	0.953910
C1321	C132	0.915800	0.018450	0.919750
C1331	C133	0.827700	0.870780	0.922790
C1341	C134	0.664700	0.826700	0.973780
C1351	C135	0.822200	0.396770	0.489700
C1361	C136	0.833700	0.400230	0.545490
C1371	C137	0.947000	0.199520	0.902000
C1381	C138	0.868400	0.176240	0.823510
C1391	C139	0.499500	0.186390	0.748350
C1401	C140	0.380700	0.171730	0.727110
C1411	C141	0.458900	0.196530	0.649010
C1421	C142	0.581600	0.211070	0.666910
C1431	C143	0.796000	0.252950	0.646460
C1441	C144	0.603400	0.207370	0.717620
C1451	C145	0.861300	0.416600	0.645320
C1461	C146	0.822700	0.358220	0.627030
C1471	C147	0.804800	0.349230	0.576250
C1481	C148	0.876100	0.457000	0.566770
C1491	C149	0.119400	0.020520	0.855070
C1501	C150	0.996600	0.014330	0.837760
C1511	C151	0.973900	0.015540	0.787250
C1521	C152	0.003500	0.174180	0.748590
C1531	C153	0.989300	0.183600	0.803780
C1541	C154	0.093100	0.199460	0.834840
C1551	C155	0.070600	0.207150	0.884840
C1561	C156	0.287600	0.242650	0.904810
C1571	C157	0.435400	0.463030	0.200500
C1581	C158	0.367600	0.643250	0.965890
C1591	C159	0.332900	0.656740	0.018040
C1601	C160	0.294400	0.609340	0.051190
C1611	C161	0.273300	0.623390	0.099950
C1621	C162	0.343300	0.716240	0.034520
C1631	C163	0.877800	0.478330	0.113720
C1641	C164	0.997800	0.490900	0.133990
C1651	C165	0.218700	0.518920	0.122010
C1661	C166	0.010900	0.489240	0.184870
C1671	C167	0.903900	0.471580	0.213770
C1681	C168	0.914800	0.464660	0.268990
C1691	C169	0.787200	0.458930	0.190770
C1701	C170	0.137160	0.046290	0.473670
C1711	C171	0.163200	0.101960	0.498490
C1721	C172	0.151290	0.102350	0.554570
C1731	C173	0.190410	0.155560	0.470490
C1741	C174	0.184500	0.150230	0.419070
C1751	C175	0.160400	0.092890	0.397420
C1761	C176	0.423400	0.473200	0.255310
C1771	C177	0.302400	0.464630	0.275740
C1781	C178	0.989680	0.323790	0.303350
C1791	C179	0.284700	0.683950	0.113720
C1801	C180	0.886000	0.624310	0.554250
C1811	C181	0.810200	0.625490	0.507290
C1821	C182	0.711500	0.577220	0.496630
C1831	C183	0.643100	0.579030	0.453910
C1841	C184	0.584200	0.481550	0.419750
C1851	C185	0.672300	0.629220	0.422790
C1861	C186	0.835300	0.673300	0.473780
C1871	C187	0.677800	0.103230	0.989700
C1881	C188	0.666300	0.099770	0.045490
C1891	C189	0.553000	0.300480	0.402000
C1901	C190	0.631600	0.323760	0.323510
C1911	C191	0.000500	0.313610	0.248350
C1921	C192	0.119300	0.328270	0.227110
C1931	C193	0.041100	0.303470	0.149010
C1941	C194	0.918400	0.288930	0.166910
C1951	C195	0.704000	0.247050	0.146460
C1961	C196	0.896600	0.292630	0.217620
C1971	C197	0.638700	0.083400	0.145320
C1981	C198	0.677300	0.141780	0.127030
C1991	C199	0.695200	0.150770	0.076250
C2001	C200	0.623900	0.043000	0.066770
C2011	C201	0.380600	0.479480	0.355070
C2021	C202	0.503400	0.485670	0.337760
C2031	C203	0.526100	0.484460	0.287250
C2041	C204	0.496500	0.325820	0.248590
C2051	C205	0.510700	0.316400	0.303780
C2061	C206	0.406900	0.300540	0.334840
C2071	C207	0.429400	0.292850	0.384840
C2081	C208	0.212400	0.257350	0.404810
N11	N1	0.273210	0.963440	0.358400
N21	N2	0.637740	0.541370	0.075860
N31	N3	0.781000	0.968590	0.175750
N41	N4	0.818320	0.229960	0.418520
N51	N5	0.267300	0.175610	0.067520
N61	N6	0.153390	0.815510	0.128060
N71	N7	0.640870	0.822670	0.321590
N81	N8	0.112730	0.534270	0.384030
N91	N9	0.226790	0.536560	0.858400
N101	N10	0.862260	0.958630	0.575860
N111	N11	0.719000	0.531410	0.675750
N121	N12	0.681680	0.270040	0.918520
N131	N13	0.232700	0.324390	0.567520
N141	N14	0.346610	0.684490	0.628060
N151	N15	0.859130	0.677330	0.821590
N161	N16	0.387270	0.965730	0.884030
N171	N17	0.726790	0.036560	0.641600
N181	N18	0.362260	0.458630	0.924140
N191	N19	0.219000	0.031410	0.824250
N201	N20	0.181680	0.770040	0.581480
N211	N21	0.732700	0.824390	0.932480
N221	N22	0.846610	0.184490	0.871940
N231	N23	0.359130	0.177330	0.678410
N241	N24	0.887270	0.465730	0.615970
N251	N25	0.773210	0.463440	0.141600
N261	N26	0.137740	0.041370	0.424140
N271	N27	0.281000	0.468590	0.324250
N281	N28	0.318320	0.729960	0.081480
N291	N29	0.767300	0.675610	0.432480
N301	N30	0.653390	0.315510	0.371940
N311	N31	0.140870	0.322670	0.178410
N321	N32	0.612730	0.034270	0.115970
O11	O1	0.841080	0.928750	0.319120
O21	O2	0.034500	0.987750	0.321780
O31	O3	0.026100	0.864530	0.361440
O41	O4	0.845560	0.088070	0.547260
O51	O5	0.919540	0.188050	0.559870
O61	O6	0.596740	0.003310	0.399230
O71	O7	0.743700	0.080680	0.362710
O81	O8	0.698000	0.697800	0.114400
O91	O9	0.583360	0.555040	0.927520
O101	O10	0.705780	0.648350	0.921480
O111	O11	0.526160	0.972480	0.213930
O121	O12	0.315570	0.950960	0.206370
O131	O13	0.583890	0.856940	0.176580
O141	O14	0.389650	0.799470	0.174700
O151	O15	0.396130	0.916550	0.122530
O161	O16	0.481070	0.165720	0.938990
O171	O17	0.342800	0.081250	0.916710
O181	O18	0.043420	0.031380	0.057730
O191	O19	0.216200	0.655120	0.529880
O201	O20	0.145650	0.553940	0.533520
O211	O21	0.327670	0.772720	0.369020
O221	O22	0.195660	0.686740	0.337300
O231	O23	0.107370	0.991850	0.131510
O241	O24	0.834950	0.750130	0.354620
O251	O25	0.887000	0.822240	0.268400
O261	O26	0.097410	0.837430	0.276150
O271	O27	0.837250	0.779120	0.078900
O281	O28	0.658920	0.571250	0.819120
O291	O29	0.465500	0.512250	0.821780
O301	O30	0.473900	0.635470	0.861440
O311	O31	0.654440	0.411930	0.047260
O321	O32	0.580460	0.311950	0.059870
O331	O33	0.903260	0.496690	0.899230
O341	O34	0.756300	0.419320	0.862710
O351	O35	0.802000	0.802200	0.614400
O361	O36	0.916640	0.944960	0.427520
O371	O37	0.794220	0.851650	0.421480
O381	O38	0.973840	0.527520	0.713930
O391	O39	0.184430	0.549040	0.706370
O401	O40	0.916110	0.643060	0.676580
O411	O41	0.110350	0.700530	0.674700
O421	O42	0.103870	0.583450	0.622530
O431	O43	0.018930	0.334280	0.438990
O441	O44	0.157200	0.418750	0.416710
O451	O45	0.456580	0.468620	0.557730
O461	O46	0.283800	0.844880	0.029880
O471	O47	0.354350	0.946060	0.033520
O481	O48	0.172330	0.727280	0.869020
O491	O49	0.304340	0.813260	0.837300
O501	O50	0.392630	0.508150	0.631510
O511	O51	0.665050	0.749870	0.854620
O521	O52	0.613000	0.677760	0.768400
O531	O53	0.402590	0.662570	0.776150
O541	O54	0.662750	0.720880	0.578900
O551	O55	0.158920	0.071250	0.680880
O561	O56	0.965500	0.012250	0.678220
O571	O57	0.973900	0.135470	0.638560
O581	O58	0.154440	0.911930	0.452740
O591	O59	0.080460	0.811950	0.440130
O601	O60	0.403260	0.996690	0.600770
O611	O61	0.256300	0.919320	0.637290
O621	O62	0.302000	0.302200	0.885600
O631	O63	0.416640	0.444960	0.072480
O641	O64	0.294220	0.351650	0.078520
O651	O65	0.473840	0.027520	0.786070
O661	O66	0.684430	0.049040	0.793630
O671	O67	0.416110	0.143060	0.823420
O681	O68	0.610350	0.200530	0.825300
O691	O69	0.603870	0.083450	0.877470
O701	O70	0.518930	0.834280	0.061010
O711	O71	0.657200	0.918750	0.083290
O721	O72	0.956580	0.968620	0.942270
O731	O73	0.783800	0.344880	0.470120
O741	O74	0.854350	0.446060	0.466480
O751	O75	0.672330	0.227280	0.630980
O761	O76	0.804340	0.313260	0.662700
O771	O77	0.892630	0.008150	0.868490
O781	O78	0.165050	0.249870	0.645380
O791	O79	0.113000	0.177760	0.731600
O801	O80	0.902590	0.162570	0.723850
O811	O81	0.162750	0.220880	0.921100
O821	O82	0.341080	0.428750	0.180880
O831	O83	0.534500	0.487750	0.178220
O841	O84	0.526100	0.364530	0.138560
O851	O85	0.345560	0.588070	0.952740
O861	O86	0.419540	0.688050	0.940130
O871	O87	0.096740	0.503310	0.100770
O881	O88	0.243700	0.580680	0.137290
O891	O89	0.198000	0.197800	0.385600
O901	O90	0.083360	0.055040	0.572480
O911	O91	0.205780	0.148350	0.578520
O921	O92	0.026160	0.472480	0.286070
O931	O93	0.815570	0.450960	0.293630
O941	O94	0.083890	0.356940	0.323420
O951	O95	0.889650	0.299470	0.325300
O961	O96	0.896130	0.416550	0.377470
O971	O97	0.981070	0.665720	0.561010
O981	O98	0.842800	0.581250	0.583290
O991	O99	0.543420	0.531380	0.442270
O1001	O100	0.716200	0.155120	0.970120
O1011	O101	0.645650	0.053940	0.966480
O1021	O102	0.827670	0.272720	0.130980
O1031	O103	0.695660	0.186740	0.162700
O1041	O104	0.607370	0.491850	0.368490
O1051	O105	0.334950	0.250130	0.145380
O1061	O106	0.387000	0.322240	0.231600
O1071	O107	0.597410	0.337430	0.223850
O1081	O108	0.337250	0.279120	0.421100
