data_FIJYED_freeONLY_PM
_symmetry_space_group_name_H-M	'P1'
_cell_length_a	19.672100
_cell_length_b	9.220100
_cell_length_c	9.747800
_cell_angle_alpha	90.000000
_cell_angle_beta	95.600000
_cell_angle_gamma	90.000000
_symmetry_Int_Tables_number 1

loop_
_symmetry_equiv_pos_as_xyz
'x,y,z'

loop_
_atom_site_label
_atom_site_type_symbol
_atom_site_fract_x
_atom_site_fract_y
_atom_site_fract_z
P11	P1	0.420500	0.116800	0.077100
P21	P2	0.400500	0.831800	0.714200
P31	P3	0.161700	0.844800	0.985800
P41	P4	0.047900	0.153600	0.287700
Al11	Al1	0.056300	0.081900	0.991300
Al21	Al2	0.530400	0.872200	0.218400
Al31	Al3	0.919600	0.339100	0.265100
Al41	Al4	0.325200	0.869900	0.987700
O11	O1	0.078300	0.183900	0.149700
O21	O2	0.970300	0.174500	0.268700
O31	O3	0.130700	0.989800	0.935600
O41	O4	0.351500	0.847300	0.824600
O51	O5	0.238200	0.856100	0.974400
O61	O6	0.361100	0.775400	0.583100
O71	O7	0.476200	0.010200	0.128800
O81	O8	0.132800	0.720000	0.894200
O91	O9	0.433400	0.181800	0.936100
O101	O10	0.427800	0.982100	0.675800
O111	O11	0.065000	0.998200	0.341200
O121	O12	0.029300	0.918900	0.086100
O131	O13	0.412600	0.240500	0.180700
O141	O14	0.153100	0.816000	0.138500
O151	O15	0.352100	0.035800	0.060300
O161	O16	0.456000	0.722300	0.765700
O171	O17	0.081700	0.258900	0.393600
P51	P5	0.579500	0.616800	0.422900
P61	P6	0.599500	0.331800	0.785800
P71	P7	0.838300	0.344800	0.514200
P81	P8	0.952100	0.653600	0.212300
Al51	Al5	0.943700	0.581900	0.508700
Al61	Al6	0.469600	0.372200	0.281600
Al71	Al7	0.080400	0.839100	0.234900
Al81	Al8	0.674800	0.369900	0.512300
O181	O18	0.921700	0.683900	0.350300
O191	O19	0.029700	0.674500	0.231300
O201	O20	0.869300	0.489800	0.564400
O211	O21	0.648500	0.347300	0.675400
O221	O22	0.761800	0.356100	0.525600
O231	O23	0.638900	0.275400	0.916900
O241	O24	0.523800	0.510200	0.371200
O251	O25	0.867200	0.220000	0.605800
O261	O26	0.566600	0.681800	0.563900
O271	O27	0.572200	0.482100	0.824200
O281	O28	0.935000	0.498200	0.158800
O291	O29	0.970700	0.418900	0.413900
O301	O30	0.587400	0.740500	0.319300
O311	O31	0.846900	0.316000	0.361500
O321	O32	0.647900	0.535800	0.439700
O331	O33	0.544000	0.222300	0.734300
O341	O34	0.918300	0.758900	0.106400
P91	P9	0.579500	0.883200	0.922900
P101	P10	0.599500	0.168200	0.285800
P111	P11	0.838300	0.155200	0.014200
P121	P12	0.952100	0.846400	0.712300
Al91	Al9	0.943700	0.918100	0.008700
Al101	Al10	0.469600	0.127800	0.781600
Al111	Al11	0.080400	0.660900	0.734900
Al121	Al12	0.674800	0.130100	0.012300
O351	O35	0.921700	0.816100	0.850300
O361	O36	0.029700	0.825500	0.731300
O371	O37	0.869300	0.010200	0.064400
O381	O38	0.648500	0.152700	0.175400
O391	O39	0.761800	0.143900	0.025600
O401	O40	0.638900	0.224600	0.416900
O411	O41	0.523800	0.989800	0.871200
O421	O42	0.867200	0.280000	0.105800
O431	O43	0.566600	0.818200	0.063900
O441	O44	0.572200	0.017900	0.324200
O451	O45	0.935000	0.001800	0.658800
O461	O46	0.970700	0.081100	0.913900
O471	O47	0.587400	0.759500	0.819300
O481	O48	0.846900	0.184000	0.861500
O491	O49	0.647900	0.964200	0.939700
O501	O50	0.544000	0.277700	0.234300
O511	O51	0.918300	0.741100	0.606400
P131	P13	0.420500	0.383200	0.577100
P141	P14	0.400500	0.668200	0.214200
P151	P15	0.161700	0.655200	0.485800
P161	P16	0.047900	0.346400	0.787700
Al131	Al13	0.056300	0.418100	0.491300
Al141	Al14	0.530400	0.627800	0.718400
Al151	Al15	0.919600	0.160900	0.765100
Al161	Al16	0.325200	0.630100	0.487700
O521	O52	0.078300	0.316100	0.649700
O531	O53	0.970300	0.325500	0.768700
O541	O54	0.130700	0.510200	0.435600
O551	O55	0.351500	0.652700	0.324600
O561	O56	0.238200	0.643900	0.474400
O571	O57	0.361100	0.724600	0.083100
O581	O58	0.476200	0.489800	0.628800
O591	O59	0.132800	0.780000	0.394200
O601	O60	0.433400	0.318200	0.436100
O611	O61	0.427800	0.517900	0.175800
O621	O62	0.065000	0.501800	0.841200
O631	O63	0.029300	0.581100	0.586100
O641	O64	0.412600	0.259500	0.680700
O651	O65	0.153100	0.684000	0.638500
O661	O66	0.352100	0.464200	0.560300
O671	O67	0.456000	0.777700	0.265700
O681	O68	0.081700	0.241100	0.893600
