data_FIJZEE_freeONLY_PM
_symmetry_space_group_name_H-M	'P1'
_cell_length_a	13.860300
_cell_length_b	23.128500
_cell_length_c	8.542000
_cell_angle_alpha	90.000000
_cell_angle_beta	90.000000
_cell_angle_gamma	90.000000
_symmetry_Int_Tables_number 1

loop_
_symmetry_equiv_pos_as_xyz
'x,y,z'

loop_
_atom_site_label
_atom_site_type_symbol
_atom_site_fract_x
_atom_site_fract_y
_atom_site_fract_z
P11	P1	0.211000	0.159600	0.305300
P21	P2	0.106400	0.066000	0.789300
P31	P3	0.399800	0.224100	0.824800
Al11	Al1	0.100900	0.059400	0.158000
Al21	Al2	0.215600	0.177700	0.669300
Al31	Al3	0.106600	0.272300	0.194400
O11	O1	0.189900	0.103200	0.223400
O21	O2	0.205000	0.151300	0.482400
O31	O3	0.140100	0.204900	0.249300
O41	O4	0.313600	0.176100	0.266500
O51	O5	0.096200	0.058000	0.961800
O61	O6	0.010500	0.082900	0.732500
O71	O7	0.184200	0.108700	0.753900
O81	O8	0.135000	0.007200	0.725400
O91	O9	0.330500	0.178800	0.767800
O101	O10	0.378400	0.283600	0.764200
O111	O11	0.497700	0.206600	0.776500
O121	O12	0.395900	0.223900	0.995800
P41	P4	0.711000	0.659600	0.305300
P51	P5	0.606400	0.566000	0.789300
P61	P6	0.899800	0.724100	0.824800
Al41	Al4	0.600900	0.559400	0.158000
Al51	Al5	0.715600	0.677700	0.669300
Al61	Al6	0.606600	0.772300	0.194400
O131	O13	0.689900	0.603200	0.223400
O141	O14	0.705000	0.651300	0.482400
O151	O15	0.640100	0.704900	0.249300
O161	O16	0.813600	0.676100	0.266500
O171	O17	0.596200	0.558000	0.961800
O181	O18	0.510500	0.582900	0.732500
O191	O19	0.684200	0.608700	0.753900
O201	O20	0.635000	0.507200	0.725400
O211	O21	0.830500	0.678800	0.767800
O221	O22	0.878400	0.783600	0.764200
O231	O23	0.997700	0.706600	0.776500
O241	O24	0.895900	0.723900	0.995800
P71	P7	0.789000	0.840400	0.305300
P81	P8	0.893600	0.934000	0.789300
P91	P9	0.600200	0.775900	0.824800
Al71	Al7	0.899100	0.940600	0.158000
Al81	Al8	0.784400	0.822300	0.669300
Al91	Al9	0.893400	0.727700	0.194400
O251	O25	0.810100	0.896800	0.223400
O261	O26	0.795000	0.848700	0.482400
O271	O27	0.859900	0.795100	0.249300
O281	O28	0.686400	0.823900	0.266500
O291	O29	0.903800	0.942000	0.961800
O301	O30	0.989500	0.917100	0.732500
O311	O31	0.815800	0.891300	0.753900
O321	O32	0.865000	0.992800	0.725400
O331	O33	0.669500	0.821200	0.767800
O341	O34	0.621600	0.716400	0.764200
O351	O35	0.502300	0.793400	0.776500
O361	O36	0.604100	0.776100	0.995800
P101	P10	0.289000	0.340400	0.305300
P111	P11	0.393600	0.434000	0.789300
P121	P12	0.100200	0.275900	0.824800
Al101	Al10	0.399100	0.440600	0.158000
Al111	Al11	0.284400	0.322300	0.669300
Al121	Al12	0.393400	0.227700	0.194400
O371	O37	0.310100	0.396800	0.223400
O381	O38	0.295000	0.348700	0.482400
O391	O39	0.359900	0.295100	0.249300
O401	O40	0.186400	0.323900	0.266500
O411	O41	0.403800	0.442000	0.961800
O421	O42	0.489500	0.417100	0.732500
O431	O43	0.315800	0.391300	0.753900
O441	O44	0.365000	0.492800	0.725400
O451	O45	0.169500	0.321200	0.767800
O461	O46	0.121600	0.216400	0.764200
O471	O47	0.002300	0.293400	0.776500
O481	O48	0.104100	0.276100	0.995800
P131	P13	0.211000	0.840400	0.805300
P141	P14	0.106400	0.934000	0.289300
P151	P15	0.399800	0.775900	0.324800
Al131	Al13	0.100900	0.940600	0.658000
Al141	Al14	0.215600	0.822300	0.169300
Al151	Al15	0.106600	0.727700	0.694400
O491	O49	0.189900	0.896800	0.723400
O501	O50	0.205000	0.848700	0.982400
O511	O51	0.140100	0.795100	0.749300
O521	O52	0.313600	0.823900	0.766500
O531	O53	0.096200	0.942000	0.461800
O541	O54	0.010500	0.917100	0.232500
O551	O55	0.184200	0.891300	0.253900
O561	O56	0.135000	0.992800	0.225400
O571	O57	0.330500	0.821200	0.267800
O581	O58	0.378400	0.716400	0.264200
O591	O59	0.497700	0.793400	0.276500
O601	O60	0.395900	0.776100	0.495800
P161	P16	0.711000	0.340400	0.805300
P171	P17	0.606400	0.434000	0.289300
P181	P18	0.899800	0.275900	0.324800
Al161	Al16	0.600900	0.440600	0.658000
Al171	Al17	0.715600	0.322300	0.169300
Al181	Al18	0.606600	0.227700	0.694400
O611	O61	0.689900	0.396800	0.723400
O621	O62	0.705000	0.348700	0.982400
O631	O63	0.640100	0.295100	0.749300
O641	O64	0.813600	0.323900	0.766500
O651	O65	0.596200	0.442000	0.461800
O661	O66	0.510500	0.417100	0.232500
O671	O67	0.684200	0.391300	0.253900
O681	O68	0.635000	0.492800	0.225400
O691	O69	0.830500	0.321200	0.267800
O701	O70	0.878400	0.216400	0.264200
O711	O71	0.997700	0.293400	0.276500
O721	O72	0.895900	0.276100	0.495800
P191	P19	0.789000	0.159600	0.805300
P201	P20	0.893600	0.066000	0.289300
P211	P21	0.600200	0.224100	0.324800
Al191	Al19	0.899100	0.059400	0.658000
Al201	Al20	0.784400	0.177700	0.169300
Al211	Al21	0.893400	0.272300	0.694400
O731	O73	0.810100	0.103200	0.723400
O741	O74	0.795000	0.151300	0.982400
O751	O75	0.859900	0.204900	0.749300
O761	O76	0.686400	0.176100	0.766500
O771	O77	0.903800	0.058000	0.461800
O781	O78	0.989500	0.082900	0.232500
O791	O79	0.815800	0.108700	0.253900
O801	O80	0.865000	0.007200	0.225400
O811	O81	0.669500	0.178800	0.267800
O821	O82	0.621600	0.283600	0.264200
O831	O83	0.502300	0.206600	0.276500
O841	O84	0.604100	0.223900	0.495800
P221	P22	0.289000	0.659600	0.805300
P231	P23	0.393600	0.566000	0.289300
P241	P24	0.100200	0.724100	0.324800
Al221	Al22	0.399100	0.559400	0.658000
Al231	Al23	0.284400	0.677700	0.169300
Al241	Al24	0.393400	0.772300	0.694400
O851	O85	0.310100	0.603200	0.723400
O861	O86	0.295000	0.651300	0.982400
O871	O87	0.359900	0.704900	0.749300
O881	O88	0.186400	0.676100	0.766500
O891	O89	0.403800	0.558000	0.461800
O901	O90	0.489500	0.582900	0.232500
O911	O91	0.315800	0.608700	0.253900
O921	O92	0.365000	0.507200	0.225400
O931	O93	0.169500	0.678800	0.267800
O941	O94	0.121600	0.783600	0.264200
O951	O95	0.002300	0.706600	0.276500
O961	O96	0.104100	0.723900	0.495800
F11	F1	0.250000	0.250000	0.580500
F21	F2	0.750000	0.750000	0.580500
F31	F3	0.250000	0.750000	0.080500
F41	F4	0.750000	0.250000	0.080500
