data_FIMZAE_freeONLY_PM
_symmetry_space_group_name_H-M	'P1'
_cell_length_a	24.494000
_cell_length_b	24.494000
_cell_length_c	24.494000
_cell_angle_alpha	90.000000
_cell_angle_beta	90.000000
_cell_angle_gamma	90.000000
_symmetry_Int_Tables_number 1

loop_
_symmetry_equiv_pos_as_xyz
'x,y,z'

loop_
_atom_site_label
_atom_site_type_symbol
_atom_site_fract_x
_atom_site_fract_y
_atom_site_fract_z
Cu11	Cu1	0.202660	0.484100	0.146120
Cu21	Cu2	0.214020	0.383050	0.056310
N11	N1	0.223970	0.411680	0.170340
N21	N2	0.225750	0.369410	0.135000
O11	O1	0.194130	0.390760	0.978850
O21	O2	0.055230	0.371490	0.827980
O31	O3	0.182560	0.451660	0.077310
O41	O4	0.322600	0.460080	0.765220
O51	O5	0.254860	0.482980	0.707830
O61	O6	0.276090	0.424980	0.957630
O71	O7	0.068570	0.418500	0.752140
C11	C1	0.210070	0.417540	0.886600
C21	C2	0.156770	0.405900	0.870640
C31	C3	0.272740	0.464770	0.752300
C41	C4	0.141010	0.414670	0.816600
C51	C5	0.231570	0.445880	0.794010
C61	C6	0.178410	0.435800	0.778660
C71	C7	0.247600	0.436620	0.847760
C81	C8	0.229180	0.410540	0.945090
C91	C9	0.230300	0.323200	0.164000
H11	H1	0.232300	0.288300	0.149400
C101	C10	0.084060	0.401110	0.796950
C111	C11	0.231300	0.335600	0.219100
H21	H2	0.234100	0.311400	0.248200
C121	C12	0.227300	0.391400	0.221220
H31	H3	0.227000	0.412100	0.253100
C131	C13	0.142600	0.477800	0.042400
H41	H4	0.137300	0.456300	0.010100
H51	H5	0.155400	0.513500	0.032400
H61	H6	0.108600	0.481100	0.061600
H71	H7	0.134000	0.392100	0.893600
H81	H8	0.285600	0.440900	0.857400
H91	H9	0.167000	0.444000	0.742000
Cu31	Cu3	0.297340	0.515900	0.646120
Cu41	Cu4	0.285980	0.616950	0.556310
N31	N3	0.276030	0.588320	0.670340
N41	N4	0.274250	0.630590	0.635000
O81	O8	0.305870	0.609240	0.478850
O91	O9	0.444770	0.628510	0.327980
O101	O10	0.317440	0.548340	0.577310
O111	O11	0.177400	0.539920	0.265220
O121	O12	0.245140	0.517020	0.207830
O131	O13	0.223910	0.575020	0.457630
O141	O14	0.431430	0.581500	0.252140
C141	C14	0.289930	0.582460	0.386600
C151	C15	0.343230	0.594100	0.370640
C161	C16	0.227260	0.535230	0.252300
C171	C17	0.358990	0.585330	0.316600
C181	C18	0.268430	0.554120	0.294010
C191	C19	0.321590	0.564200	0.278660
C201	C20	0.252400	0.563380	0.347760
C211	C21	0.270820	0.589460	0.445090
C221	C22	0.269700	0.676800	0.664000
H101	H10	0.267700	0.711700	0.649400
C231	C23	0.415940	0.598890	0.296950
C241	C24	0.268700	0.664400	0.719100
H111	H11	0.265900	0.688600	0.748200
C251	C25	0.272700	0.608600	0.721220
H121	H12	0.273000	0.587900	0.753100
C261	C26	0.357400	0.522200	0.542400
H131	H13	0.362700	0.543700	0.510100
H141	H14	0.344600	0.486500	0.532400
H151	H15	0.391400	0.518900	0.561600
H161	H16	0.366000	0.607900	0.393600
H171	H17	0.214400	0.559100	0.357400
H181	H18	0.333000	0.556000	0.242000
Cu51	Cu5	0.797340	0.984100	0.353880
Cu61	Cu6	0.785980	0.883050	0.443690
N51	N5	0.776030	0.911680	0.329660
N61	N6	0.774250	0.869410	0.365000
O151	O15	0.805870	0.890760	0.521150
O161	O16	0.944770	0.871490	0.672020
O171	O17	0.817440	0.951660	0.422690
O181	O18	0.677400	0.960080	0.734780
O191	O19	0.745140	0.982980	0.792170
O201	O20	0.723910	0.924980	0.542370
O211	O21	0.931430	0.918500	0.747860
C271	C27	0.789930	0.917540	0.613400
C281	C28	0.843230	0.905900	0.629360
C291	C29	0.727260	0.964770	0.747700
C301	C30	0.858990	0.914670	0.683400
C311	C31	0.768430	0.945880	0.705990
C321	C32	0.821590	0.935800	0.721340
C331	C33	0.752400	0.936620	0.652240
C341	C34	0.770820	0.910540	0.554910
C351	C35	0.769700	0.823200	0.336000
H191	H19	0.767700	0.788300	0.350600
C361	C36	0.915940	0.901110	0.703050
C371	C37	0.768700	0.835600	0.280900
H201	H20	0.765900	0.811400	0.251800
C381	C38	0.772700	0.891400	0.278780
H211	H21	0.773000	0.912100	0.246900
C391	C39	0.857400	0.977800	0.457600
H221	H22	0.862700	0.956300	0.489900
H231	H23	0.844600	0.013500	0.467600
H241	H24	0.891400	0.981100	0.438400
H251	H25	0.866000	0.892100	0.606400
H261	H26	0.714400	0.940900	0.642600
H271	H27	0.833000	0.944000	0.758000
Cu71	Cu7	0.702660	0.015900	0.853880
Cu81	Cu8	0.714020	0.116950	0.943690
N71	N7	0.723970	0.088320	0.829660
N81	N8	0.725750	0.130590	0.865000
O221	O22	0.694130	0.109240	0.021150
O231	O23	0.555230	0.128510	0.172020
O241	O24	0.682560	0.048340	0.922690
O251	O25	0.822600	0.039920	0.234780
O261	O26	0.754860	0.017020	0.292170
O271	O27	0.776090	0.075020	0.042370
O281	O28	0.568570	0.081500	0.247860
C401	C40	0.710070	0.082460	0.113400
C411	C41	0.656770	0.094100	0.129360
C421	C42	0.772740	0.035230	0.247700
C431	C43	0.641010	0.085330	0.183400
C441	C44	0.731570	0.054120	0.205990
C451	C45	0.678410	0.064200	0.221340
C461	C46	0.747600	0.063380	0.152240
C471	C47	0.729180	0.089460	0.054910
C481	C48	0.730300	0.176800	0.836000
H281	H28	0.732300	0.211700	0.850600
C491	C49	0.584060	0.098890	0.203050
C501	C50	0.731300	0.164400	0.780900
H291	H29	0.734100	0.188600	0.751800
C511	C51	0.727300	0.108600	0.778780
H301	H30	0.727000	0.087900	0.746900
C521	C52	0.642600	0.022200	0.957600
H311	H31	0.637300	0.043700	0.989900
H321	H32	0.655400	0.986500	0.967600
H331	H33	0.608600	0.018900	0.938400
H341	H34	0.634000	0.107900	0.106400
H351	H35	0.785600	0.059100	0.142600
H361	H36	0.667000	0.056000	0.258000
Cu91	Cu9	0.146120	0.202660	0.484100
Cu101	Cu10	0.056310	0.214020	0.383050
N91	N9	0.170340	0.223970	0.411680
N101	N10	0.135000	0.225750	0.369410
O291	O29	0.978850	0.194130	0.390760
O301	O30	0.827980	0.055230	0.371490
O311	O31	0.077310	0.182560	0.451660
O321	O32	0.765220	0.322600	0.460080
O331	O33	0.707830	0.254860	0.482980
O341	O34	0.957630	0.276090	0.424980
O351	O35	0.752140	0.068570	0.418500
C531	C53	0.886600	0.210070	0.417540
C541	C54	0.870640	0.156770	0.405900
C551	C55	0.752300	0.272740	0.464770
C561	C56	0.816600	0.141010	0.414670
C571	C57	0.794010	0.231570	0.445880
C581	C58	0.778660	0.178410	0.435800
C591	C59	0.847760	0.247600	0.436620
C601	C60	0.945090	0.229180	0.410540
C611	C61	0.164000	0.230300	0.323200
H371	H37	0.149400	0.232300	0.288300
C621	C62	0.796950	0.084060	0.401110
C631	C63	0.219100	0.231300	0.335600
H381	H38	0.248200	0.234100	0.311400
C641	C64	0.221220	0.227300	0.391400
H391	H39	0.253100	0.227000	0.412100
C651	C65	0.042400	0.142600	0.477800
H401	H40	0.010100	0.137300	0.456300
H411	H41	0.032400	0.155400	0.513500
H421	H42	0.061600	0.108600	0.481100
H431	H43	0.893600	0.134000	0.392100
H441	H44	0.857400	0.285600	0.440900
H451	H45	0.742000	0.167000	0.444000
Cu111	Cu11	0.646120	0.297340	0.515900
Cu121	Cu12	0.556310	0.285980	0.616950
N111	N11	0.670340	0.276030	0.588320
N121	N12	0.635000	0.274250	0.630590
O361	O36	0.478850	0.305870	0.609240
O371	O37	0.327980	0.444770	0.628510
O381	O38	0.577310	0.317440	0.548340
O391	O39	0.265220	0.177400	0.539920
O401	O40	0.207830	0.245140	0.517020
O411	O41	0.457630	0.223910	0.575020
O421	O42	0.252140	0.431430	0.581500
C661	C66	0.386600	0.289930	0.582460
C671	C67	0.370640	0.343230	0.594100
C681	C68	0.252300	0.227260	0.535230
C691	C69	0.316600	0.358990	0.585330
C701	C70	0.294010	0.268430	0.554120
C711	C71	0.278660	0.321590	0.564200
C721	C72	0.347760	0.252400	0.563380
C731	C73	0.445090	0.270820	0.589460
C741	C74	0.664000	0.269700	0.676800
H461	H46	0.649400	0.267700	0.711700
C751	C75	0.296950	0.415940	0.598890
C761	C76	0.719100	0.268700	0.664400
H471	H47	0.748200	0.265900	0.688600
C771	C77	0.721220	0.272700	0.608600
H481	H48	0.753100	0.273000	0.587900
C781	C78	0.542400	0.357400	0.522200
H491	H49	0.510100	0.362700	0.543700
H501	H50	0.532400	0.344600	0.486500
H511	H51	0.561600	0.391400	0.518900
H521	H52	0.393600	0.366000	0.607900
H531	H53	0.357400	0.214400	0.559100
H541	H54	0.242000	0.333000	0.556000
Cu131	Cu13	0.353880	0.797340	0.984100
Cu141	Cu14	0.443690	0.785980	0.883050
N131	N13	0.329660	0.776030	0.911680
N141	N14	0.365000	0.774250	0.869410
O431	O43	0.521150	0.805870	0.890760
O441	O44	0.672020	0.944770	0.871490
O451	O45	0.422690	0.817440	0.951660
O461	O46	0.734780	0.677400	0.960080
O471	O47	0.792170	0.745140	0.982980
O481	O48	0.542370	0.723910	0.924980
O491	O49	0.747860	0.931430	0.918500
C791	C79	0.613400	0.789930	0.917540
C801	C80	0.629360	0.843230	0.905900
C811	C81	0.747700	0.727260	0.964770
C821	C82	0.683400	0.858990	0.914670
C831	C83	0.705990	0.768430	0.945880
C841	C84	0.721340	0.821590	0.935800
C851	C85	0.652240	0.752400	0.936620
C861	C86	0.554910	0.770820	0.910540
C871	C87	0.336000	0.769700	0.823200
H551	H55	0.350600	0.767700	0.788300
C881	C88	0.703050	0.915940	0.901110
C891	C89	0.280900	0.768700	0.835600
H561	H56	0.251800	0.765900	0.811400
C901	C90	0.278780	0.772700	0.891400
H571	H57	0.246900	0.773000	0.912100
C911	C91	0.457600	0.857400	0.977800
H581	H58	0.489900	0.862700	0.956300
H591	H59	0.467600	0.844600	0.013500
H601	H60	0.438400	0.891400	0.981100
H611	H61	0.606400	0.866000	0.892100
H621	H62	0.642600	0.714400	0.940900
H631	H63	0.758000	0.833000	0.944000
Cu151	Cu15	0.853880	0.702660	0.015900
Cu161	Cu16	0.943690	0.714020	0.116950
N151	N15	0.829660	0.723970	0.088320
N161	N16	0.865000	0.725750	0.130590
O501	O50	0.021150	0.694130	0.109240
O511	O51	0.172020	0.555230	0.128510
O521	O52	0.922690	0.682560	0.048340
O531	O53	0.234780	0.822600	0.039920
O541	O54	0.292170	0.754860	0.017020
O551	O55	0.042370	0.776090	0.075020
O561	O56	0.247860	0.568570	0.081500
C921	C92	0.113400	0.710070	0.082460
C931	C93	0.129360	0.656770	0.094100
C941	C94	0.247700	0.772740	0.035230
C951	C95	0.183400	0.641010	0.085330
C961	C96	0.205990	0.731570	0.054120
C971	C97	0.221340	0.678410	0.064200
C981	C98	0.152240	0.747600	0.063380
C991	C99	0.054910	0.729180	0.089460
C1001	C100	0.836000	0.730300	0.176800
H641	H64	0.850600	0.732300	0.211700
C1011	C101	0.203050	0.584060	0.098890
C1021	C102	0.780900	0.731300	0.164400
H651	H65	0.751800	0.734100	0.188600
C1031	C103	0.778780	0.727300	0.108600
H661	H66	0.746900	0.727000	0.087900
C1041	C104	0.957600	0.642600	0.022200
H671	H67	0.989900	0.637300	0.043700
H681	H68	0.967600	0.655400	0.986500
H691	H69	0.938400	0.608600	0.018900
H701	H70	0.106400	0.634000	0.107900
H711	H71	0.142600	0.785600	0.059100
H721	H72	0.258000	0.667000	0.056000
Cu171	Cu17	0.484100	0.146120	0.202660
Cu181	Cu18	0.383050	0.056310	0.214020
N171	N17	0.411680	0.170340	0.223970
N181	N18	0.369410	0.135000	0.225750
O571	O57	0.390760	0.978850	0.194130
O581	O58	0.371490	0.827980	0.055230
O591	O59	0.451660	0.077310	0.182560
O601	O60	0.460080	0.765220	0.322600
O611	O61	0.482980	0.707830	0.254860
O621	O62	0.424980	0.957630	0.276090
O631	O63	0.418500	0.752140	0.068570
C1051	C105	0.417540	0.886600	0.210070
C1061	C106	0.405900	0.870640	0.156770
C1071	C107	0.464770	0.752300	0.272740
C1081	C108	0.414670	0.816600	0.141010
C1091	C109	0.445880	0.794010	0.231570
C1101	C110	0.435800	0.778660	0.178410
C1111	C111	0.436620	0.847760	0.247600
C1121	C112	0.410540	0.945090	0.229180
C1131	C113	0.323200	0.164000	0.230300
H731	H73	0.288300	0.149400	0.232300
C1141	C114	0.401110	0.796950	0.084060
C1151	C115	0.335600	0.219100	0.231300
H741	H74	0.311400	0.248200	0.234100
C1161	C116	0.391400	0.221220	0.227300
H751	H75	0.412100	0.253100	0.227000
C1171	C117	0.477800	0.042400	0.142600
H761	H76	0.456300	0.010100	0.137300
H771	H77	0.513500	0.032400	0.155400
H781	H78	0.481100	0.061600	0.108600
H791	H79	0.392100	0.893600	0.134000
H801	H80	0.440900	0.857400	0.285600
H811	H81	0.444000	0.742000	0.167000
Cu191	Cu19	0.515900	0.646120	0.297340
Cu201	Cu20	0.616950	0.556310	0.285980
N191	N19	0.588320	0.670340	0.276030
N201	N20	0.630590	0.635000	0.274250
O641	O64	0.609240	0.478850	0.305870
O651	O65	0.628510	0.327980	0.444770
O661	O66	0.548340	0.577310	0.317440
O671	O67	0.539920	0.265220	0.177400
O681	O68	0.517020	0.207830	0.245140
O691	O69	0.575020	0.457630	0.223910
O701	O70	0.581500	0.252140	0.431430
C1181	C118	0.582460	0.386600	0.289930
C1191	C119	0.594100	0.370640	0.343230
C1201	C120	0.535230	0.252300	0.227260
C1211	C121	0.585330	0.316600	0.358990
C1221	C122	0.554120	0.294010	0.268430
C1231	C123	0.564200	0.278660	0.321590
C1241	C124	0.563380	0.347760	0.252400
C1251	C125	0.589460	0.445090	0.270820
C1261	C126	0.676800	0.664000	0.269700
H821	H82	0.711700	0.649400	0.267700
C1271	C127	0.598890	0.296950	0.415940
C1281	C128	0.664400	0.719100	0.268700
H831	H83	0.688600	0.748200	0.265900
C1291	C129	0.608600	0.721220	0.272700
H841	H84	0.587900	0.753100	0.273000
C1301	C130	0.522200	0.542400	0.357400
H851	H85	0.543700	0.510100	0.362700
H861	H86	0.486500	0.532400	0.344600
H871	H87	0.518900	0.561600	0.391400
H881	H88	0.607900	0.393600	0.366000
H891	H89	0.559100	0.357400	0.214400
H901	H90	0.556000	0.242000	0.333000
Cu211	Cu21	0.984100	0.353880	0.797340
Cu221	Cu22	0.883050	0.443690	0.785980
N211	N21	0.911680	0.329660	0.776030
N221	N22	0.869410	0.365000	0.774250
O711	O71	0.890760	0.521150	0.805870
O721	O72	0.871490	0.672020	0.944770
O731	O73	0.951660	0.422690	0.817440
O741	O74	0.960080	0.734780	0.677400
O751	O75	0.982980	0.792170	0.745140
O761	O76	0.924980	0.542370	0.723910
O771	O77	0.918500	0.747860	0.931430
C1311	C131	0.917540	0.613400	0.789930
C1321	C132	0.905900	0.629360	0.843230
C1331	C133	0.964770	0.747700	0.727260
C1341	C134	0.914670	0.683400	0.858990
C1351	C135	0.945880	0.705990	0.768430
C1361	C136	0.935800	0.721340	0.821590
C1371	C137	0.936620	0.652240	0.752400
C1381	C138	0.910540	0.554910	0.770820
C1391	C139	0.823200	0.336000	0.769700
H911	H91	0.788300	0.350600	0.767700
C1401	C140	0.901110	0.703050	0.915940
C1411	C141	0.835600	0.280900	0.768700
H921	H92	0.811400	0.251800	0.765900
C1421	C142	0.891400	0.278780	0.772700
H931	H93	0.912100	0.246900	0.773000
C1431	C143	0.977800	0.457600	0.857400
H941	H94	0.956300	0.489900	0.862700
H951	H95	0.013500	0.467600	0.844600
H961	H96	0.981100	0.438400	0.891400
H971	H97	0.892100	0.606400	0.866000
H981	H98	0.940900	0.642600	0.714400
H991	H99	0.944000	0.758000	0.833000
Cu231	Cu23	0.015900	0.853880	0.702660
Cu241	Cu24	0.116950	0.943690	0.714020
N231	N23	0.088320	0.829660	0.723970
N241	N24	0.130590	0.865000	0.725750
O781	O78	0.109240	0.021150	0.694130
O791	O79	0.128510	0.172020	0.555230
O801	O80	0.048340	0.922690	0.682560
O811	O81	0.039920	0.234780	0.822600
O821	O82	0.017020	0.292170	0.754860
O831	O83	0.075020	0.042370	0.776090
O841	O84	0.081500	0.247860	0.568570
C1441	C144	0.082460	0.113400	0.710070
C1451	C145	0.094100	0.129360	0.656770
C1461	C146	0.035230	0.247700	0.772740
C1471	C147	0.085330	0.183400	0.641010
C1481	C148	0.054120	0.205990	0.731570
C1491	C149	0.064200	0.221340	0.678410
C1501	C150	0.063380	0.152240	0.747600
C1511	C151	0.089460	0.054910	0.729180
C1521	C152	0.176800	0.836000	0.730300
H1001	H100	0.211700	0.850600	0.732300
C1531	C153	0.098890	0.203050	0.584060
C1541	C154	0.164400	0.780900	0.731300
H1011	H101	0.188600	0.751800	0.734100
C1551	C155	0.108600	0.778780	0.727300
H1021	H102	0.087900	0.746900	0.727000
C1561	C156	0.022200	0.957600	0.642600
H1031	H103	0.043700	0.989900	0.637300
H1041	H104	0.986500	0.967600	0.655400
H1051	H105	0.018900	0.938400	0.608600
H1061	H106	0.107900	0.106400	0.634000
H1071	H107	0.059100	0.142600	0.785600
H1081	H108	0.056000	0.258000	0.667000
Cu251	Cu25	0.797340	0.515900	0.853880
Cu261	Cu26	0.785980	0.616950	0.943690
N251	N25	0.776030	0.588320	0.829660
N261	N26	0.774250	0.630590	0.865000
O851	O85	0.805870	0.609240	0.021150
O861	O86	0.944770	0.628510	0.172020
O871	O87	0.817440	0.548340	0.922690
O881	O88	0.677400	0.539920	0.234780
O891	O89	0.745140	0.517020	0.292170
O901	O90	0.723910	0.575020	0.042370
O911	O91	0.931430	0.581500	0.247860
C1571	C157	0.789930	0.582460	0.113400
C1581	C158	0.843230	0.594100	0.129360
C1591	C159	0.727260	0.535230	0.247700
C1601	C160	0.858990	0.585330	0.183400
C1611	C161	0.768430	0.554120	0.205990
C1621	C162	0.821590	0.564200	0.221340
C1631	C163	0.752400	0.563380	0.152240
C1641	C164	0.770820	0.589460	0.054910
C1651	C165	0.769700	0.676800	0.836000
H1091	H109	0.767700	0.711700	0.850600
C1661	C166	0.915940	0.598890	0.203050
C1671	C167	0.768700	0.664400	0.780900
H1101	H110	0.765900	0.688600	0.751800
C1681	C168	0.772700	0.608600	0.778780
H1111	H111	0.773000	0.587900	0.746900
C1691	C169	0.857400	0.522200	0.957600
H1121	H112	0.862700	0.543700	0.989900
H1131	H113	0.844600	0.486500	0.967600
H1141	H114	0.891400	0.518900	0.938400
H1151	H115	0.866000	0.607900	0.106400
H1161	H116	0.714400	0.559100	0.142600
H1171	H117	0.833000	0.556000	0.258000
Cu271	Cu27	0.702660	0.484100	0.353880
Cu281	Cu28	0.714020	0.383050	0.443690
N271	N27	0.723970	0.411680	0.329660
N281	N28	0.725750	0.369410	0.365000
O921	O92	0.694130	0.390760	0.521150
O931	O93	0.555230	0.371490	0.672020
O941	O94	0.682560	0.451660	0.422690
O951	O95	0.822600	0.460080	0.734780
O961	O96	0.754860	0.482980	0.792170
O971	O97	0.776090	0.424980	0.542370
O981	O98	0.568570	0.418500	0.747860
C1701	C170	0.710070	0.417540	0.613400
C1711	C171	0.656770	0.405900	0.629360
C1721	C172	0.772740	0.464770	0.747700
C1731	C173	0.641010	0.414670	0.683400
C1741	C174	0.731570	0.445880	0.705990
C1751	C175	0.678410	0.435800	0.721340
C1761	C176	0.747600	0.436620	0.652240
C1771	C177	0.729180	0.410540	0.554910
C1781	C178	0.730300	0.323200	0.336000
H1181	H118	0.732300	0.288300	0.350600
C1791	C179	0.584060	0.401110	0.703050
C1801	C180	0.731300	0.335600	0.280900
H1191	H119	0.734100	0.311400	0.251800
C1811	C181	0.727300	0.391400	0.278780
H1201	H120	0.727000	0.412100	0.246900
C1821	C182	0.642600	0.477800	0.457600
H1211	H121	0.637300	0.456300	0.489900
H1221	H122	0.655400	0.513500	0.467600
H1231	H123	0.608600	0.481100	0.438400
H1241	H124	0.634000	0.392100	0.606400
H1251	H125	0.785600	0.440900	0.642600
H1261	H126	0.667000	0.444000	0.758000
Cu291	Cu29	0.202660	0.015900	0.646120
Cu301	Cu30	0.214020	0.116950	0.556310
N291	N29	0.223970	0.088320	0.670340
N301	N30	0.225750	0.130590	0.635000
O991	O99	0.194130	0.109240	0.478850
O1001	O100	0.055230	0.128510	0.327980
O1011	O101	0.182560	0.048340	0.577310
O1021	O102	0.322600	0.039920	0.265220
O1031	O103	0.254860	0.017020	0.207830
O1041	O104	0.276090	0.075020	0.457630
O1051	O105	0.068570	0.081500	0.252140
C1831	C183	0.210070	0.082460	0.386600
C1841	C184	0.156770	0.094100	0.370640
C1851	C185	0.272740	0.035230	0.252300
C1861	C186	0.141010	0.085330	0.316600
C1871	C187	0.231570	0.054120	0.294010
C1881	C188	0.178410	0.064200	0.278660
C1891	C189	0.247600	0.063380	0.347760
C1901	C190	0.229180	0.089460	0.445090
C1911	C191	0.230300	0.176800	0.664000
H1271	H127	0.232300	0.211700	0.649400
C1921	C192	0.084060	0.098890	0.296950
C1931	C193	0.231300	0.164400	0.719100
H1281	H128	0.234100	0.188600	0.748200
C1941	C194	0.227300	0.108600	0.721220
H1291	H129	0.227000	0.087900	0.753100
C1951	C195	0.142600	0.022200	0.542400
H1301	H130	0.137300	0.043700	0.510100
H1311	H131	0.155400	0.986500	0.532400
H1321	H132	0.108600	0.018900	0.561600
H1331	H133	0.134000	0.107900	0.393600
H1341	H134	0.285600	0.059100	0.357400
H1351	H135	0.167000	0.056000	0.242000
Cu311	Cu31	0.297340	0.984100	0.146120
Cu321	Cu32	0.285980	0.883050	0.056310
N311	N31	0.276030	0.911680	0.170340
N321	N32	0.274250	0.869410	0.135000
O1061	O106	0.305870	0.890760	0.978850
O1071	O107	0.444770	0.871490	0.827980
O1081	O108	0.317440	0.951660	0.077310
O1091	O109	0.177400	0.960080	0.765220
O1101	O110	0.245140	0.982980	0.707830
O1111	O111	0.223910	0.924980	0.957630
O1121	O112	0.431430	0.918500	0.752140
C1961	C196	0.289930	0.917540	0.886600
C1971	C197	0.343230	0.905900	0.870640
C1981	C198	0.227260	0.964770	0.752300
C1991	C199	0.358990	0.914670	0.816600
C2001	C200	0.268430	0.945880	0.794010
C2011	C201	0.321590	0.935800	0.778660
C2021	C202	0.252400	0.936620	0.847760
C2031	C203	0.270820	0.910540	0.945090
C2041	C204	0.269700	0.823200	0.164000
H1361	H136	0.267700	0.788300	0.149400
C2051	C205	0.415940	0.901110	0.796950
C2061	C206	0.268700	0.835600	0.219100
H1371	H137	0.265900	0.811400	0.248200
C2071	C207	0.272700	0.891400	0.221220
H1381	H138	0.273000	0.912100	0.253100
C2081	C208	0.357400	0.977800	0.042400
H1391	H139	0.362700	0.956300	0.010100
H1401	H140	0.344600	0.013500	0.032400
H1411	H141	0.391400	0.981100	0.061600
H1421	H142	0.366000	0.892100	0.893600
H1431	H143	0.214400	0.940900	0.857400
H1441	H144	0.333000	0.944000	0.742000
Cu331	Cu33	0.853880	0.797340	0.515900
Cu341	Cu34	0.943690	0.785980	0.616950
N331	N33	0.829660	0.776030	0.588320
N341	N34	0.865000	0.774250	0.630590
O1131	O113	0.021150	0.805870	0.609240
O1141	O114	0.172020	0.944770	0.628510
O1151	O115	0.922690	0.817440	0.548340
O1161	O116	0.234780	0.677400	0.539920
O1171	O117	0.292170	0.745140	0.517020
O1181	O118	0.042370	0.723910	0.575020
O1191	O119	0.247860	0.931430	0.581500
C2091	C209	0.113400	0.789930	0.582460
C2101	C210	0.129360	0.843230	0.594100
C2111	C211	0.247700	0.727260	0.535230
C2121	C212	0.183400	0.858990	0.585330
C2131	C213	0.205990	0.768430	0.554120
C2141	C214	0.221340	0.821590	0.564200
C2151	C215	0.152240	0.752400	0.563380
C2161	C216	0.054910	0.770820	0.589460
C2171	C217	0.836000	0.769700	0.676800
H1451	H145	0.850600	0.767700	0.711700
C2181	C218	0.203050	0.915940	0.598890
C2191	C219	0.780900	0.768700	0.664400
H1461	H146	0.751800	0.765900	0.688600
C2201	C220	0.778780	0.772700	0.608600
H1471	H147	0.746900	0.773000	0.587900
C2211	C221	0.957600	0.857400	0.522200
H1481	H148	0.989900	0.862700	0.543700
H1491	H149	0.967600	0.844600	0.486500
H1501	H150	0.938400	0.891400	0.518900
H1511	H151	0.106400	0.866000	0.607900
H1521	H152	0.142600	0.714400	0.559100
H1531	H153	0.258000	0.833000	0.556000
Cu351	Cu35	0.353880	0.702660	0.484100
Cu361	Cu36	0.443690	0.714020	0.383050
N351	N35	0.329660	0.723970	0.411680
N361	N36	0.365000	0.725750	0.369410
O1201	O120	0.521150	0.694130	0.390760
O1211	O121	0.672020	0.555230	0.371490
O1221	O122	0.422690	0.682560	0.451660
O1231	O123	0.734780	0.822600	0.460080
O1241	O124	0.792170	0.754860	0.482980
O1251	O125	0.542370	0.776090	0.424980
O1261	O126	0.747860	0.568570	0.418500
C2221	C222	0.613400	0.710070	0.417540
C2231	C223	0.629360	0.656770	0.405900
C2241	C224	0.747700	0.772740	0.464770
C2251	C225	0.683400	0.641010	0.414670
C2261	C226	0.705990	0.731570	0.445880
C2271	C227	0.721340	0.678410	0.435800
C2281	C228	0.652240	0.747600	0.436620
C2291	C229	0.554910	0.729180	0.410540
C2301	C230	0.336000	0.730300	0.323200
H1541	H154	0.350600	0.732300	0.288300
C2311	C231	0.703050	0.584060	0.401110
C2321	C232	0.280900	0.731300	0.335600
H1551	H155	0.251800	0.734100	0.311400
C2331	C233	0.278780	0.727300	0.391400
H1561	H156	0.246900	0.727000	0.412100
C2341	C234	0.457600	0.642600	0.477800
H1571	H157	0.489900	0.637300	0.456300
H1581	H158	0.467600	0.655400	0.513500
H1591	H159	0.438400	0.608600	0.481100
H1601	H160	0.606400	0.634000	0.392100
H1611	H161	0.642600	0.785600	0.440900
H1621	H162	0.758000	0.667000	0.444000
Cu371	Cu37	0.646120	0.202660	0.015900
Cu381	Cu38	0.556310	0.214020	0.116950
N371	N37	0.670340	0.223970	0.088320
N381	N38	0.635000	0.225750	0.130590
O1271	O127	0.478850	0.194130	0.109240
O1281	O128	0.327980	0.055230	0.128510
O1291	O129	0.577310	0.182560	0.048340
O1301	O130	0.265220	0.322600	0.039920
O1311	O131	0.207830	0.254860	0.017020
O1321	O132	0.457630	0.276090	0.075020
O1331	O133	0.252140	0.068570	0.081500
C2351	C235	0.386600	0.210070	0.082460
C2361	C236	0.370640	0.156770	0.094100
C2371	C237	0.252300	0.272740	0.035230
C2381	C238	0.316600	0.141010	0.085330
C2391	C239	0.294010	0.231570	0.054120
C2401	C240	0.278660	0.178410	0.064200
C2411	C241	0.347760	0.247600	0.063380
C2421	C242	0.445090	0.229180	0.089460
C2431	C243	0.664000	0.230300	0.176800
H1631	H163	0.649400	0.232300	0.211700
C2441	C244	0.296950	0.084060	0.098890
C2451	C245	0.719100	0.231300	0.164400
H1641	H164	0.748200	0.234100	0.188600
C2461	C246	0.721220	0.227300	0.108600
H1651	H165	0.753100	0.227000	0.087900
C2471	C247	0.542400	0.142600	0.022200
H1661	H166	0.510100	0.137300	0.043700
H1671	H167	0.532400	0.155400	0.986500
H1681	H168	0.561600	0.108600	0.018900
H1691	H169	0.393600	0.134000	0.107900
H1701	H170	0.357400	0.285600	0.059100
H1711	H171	0.242000	0.167000	0.056000
Cu391	Cu39	0.146120	0.297340	0.984100
Cu401	Cu40	0.056310	0.285980	0.883050
N391	N39	0.170340	0.276030	0.911680
N401	N40	0.135000	0.274250	0.869410
O1341	O134	0.978850	0.305870	0.890760
O1351	O135	0.827980	0.444770	0.871490
O1361	O136	0.077310	0.317440	0.951660
O1371	O137	0.765220	0.177400	0.960080
O1381	O138	0.707830	0.245140	0.982980
O1391	O139	0.957630	0.223910	0.924980
O1401	O140	0.752140	0.431430	0.918500
C2481	C248	0.886600	0.289930	0.917540
C2491	C249	0.870640	0.343230	0.905900
C2501	C250	0.752300	0.227260	0.964770
C2511	C251	0.816600	0.358990	0.914670
C2521	C252	0.794010	0.268430	0.945880
C2531	C253	0.778660	0.321590	0.935800
C2541	C254	0.847760	0.252400	0.936620
C2551	C255	0.945090	0.270820	0.910540
C2561	C256	0.164000	0.269700	0.823200
H1721	H172	0.149400	0.267700	0.788300
C2571	C257	0.796950	0.415940	0.901110
C2581	C258	0.219100	0.268700	0.835600
H1731	H173	0.248200	0.265900	0.811400
C2591	C259	0.221220	0.272700	0.891400
H1741	H174	0.253100	0.273000	0.912100
C2601	C260	0.042400	0.357400	0.977800
H1751	H175	0.010100	0.362700	0.956300
H1761	H176	0.032400	0.344600	0.013500
H1771	H177	0.061600	0.391400	0.981100
H1781	H178	0.893600	0.366000	0.892100
H1791	H179	0.857400	0.214400	0.940900
H1801	H180	0.742000	0.333000	0.944000
Cu411	Cu41	0.515900	0.853880	0.797340
Cu421	Cu42	0.616950	0.943690	0.785980
N411	N41	0.588320	0.829660	0.776030
N421	N42	0.630590	0.865000	0.774250
O1411	O141	0.609240	0.021150	0.805870
O1421	O142	0.628510	0.172020	0.944770
O1431	O143	0.548340	0.922690	0.817440
O1441	O144	0.539920	0.234780	0.677400
O1451	O145	0.517020	0.292170	0.745140
O1461	O146	0.575020	0.042370	0.723910
O1471	O147	0.581500	0.247860	0.931430
C2611	C261	0.582460	0.113400	0.789930
C2621	C262	0.594100	0.129360	0.843230
C2631	C263	0.535230	0.247700	0.727260
C2641	C264	0.585330	0.183400	0.858990
C2651	C265	0.554120	0.205990	0.768430
C2661	C266	0.564200	0.221340	0.821590
C2671	C267	0.563380	0.152240	0.752400
C2681	C268	0.589460	0.054910	0.770820
C2691	C269	0.676800	0.836000	0.769700
H1811	H181	0.711700	0.850600	0.767700
C2701	C270	0.598890	0.203050	0.915940
C2711	C271	0.664400	0.780900	0.768700
H1821	H182	0.688600	0.751800	0.765900
C2721	C272	0.608600	0.778780	0.772700
H1831	H183	0.587900	0.746900	0.773000
C2731	C273	0.522200	0.957600	0.857400
H1841	H184	0.543700	0.989900	0.862700
H1851	H185	0.486500	0.967600	0.844600
H1861	H186	0.518900	0.938400	0.891400
H1871	H187	0.607900	0.106400	0.866000
H1881	H188	0.559100	0.142600	0.714400
H1891	H189	0.556000	0.258000	0.833000
Cu431	Cu43	0.484100	0.353880	0.702660
Cu441	Cu44	0.383050	0.443690	0.714020
N431	N43	0.411680	0.329660	0.723970
N441	N44	0.369410	0.365000	0.725750
O1481	O148	0.390760	0.521150	0.694130
O1491	O149	0.371490	0.672020	0.555230
O1501	O150	0.451660	0.422690	0.682560
O1511	O151	0.460080	0.734780	0.822600
O1521	O152	0.482980	0.792170	0.754860
O1531	O153	0.424980	0.542370	0.776090
O1541	O154	0.418500	0.747860	0.568570
C2741	C274	0.417540	0.613400	0.710070
C2751	C275	0.405900	0.629360	0.656770
C2761	C276	0.464770	0.747700	0.772740
C2771	C277	0.414670	0.683400	0.641010
C2781	C278	0.445880	0.705990	0.731570
C2791	C279	0.435800	0.721340	0.678410
C2801	C280	0.436620	0.652240	0.747600
C2811	C281	0.410540	0.554910	0.729180
C2821	C282	0.323200	0.336000	0.730300
H1901	H190	0.288300	0.350600	0.732300
C2831	C283	0.401110	0.703050	0.584060
C2841	C284	0.335600	0.280900	0.731300
H1911	H191	0.311400	0.251800	0.734100
C2851	C285	0.391400	0.278780	0.727300
H1921	H192	0.412100	0.246900	0.727000
C2861	C286	0.477800	0.457600	0.642600
H1931	H193	0.456300	0.489900	0.637300
H1941	H194	0.513500	0.467600	0.655400
H1951	H195	0.481100	0.438400	0.608600
H1961	H196	0.392100	0.606400	0.634000
H1971	H197	0.440900	0.642600	0.785600
H1981	H198	0.444000	0.758000	0.667000
Cu451	Cu45	0.015900	0.646120	0.202660
Cu461	Cu46	0.116950	0.556310	0.214020
N451	N45	0.088320	0.670340	0.223970
N461	N46	0.130590	0.635000	0.225750
O1551	O155	0.109240	0.478850	0.194130
O1561	O156	0.128510	0.327980	0.055230
O1571	O157	0.048340	0.577310	0.182560
O1581	O158	0.039920	0.265220	0.322600
O1591	O159	0.017020	0.207830	0.254860
O1601	O160	0.075020	0.457630	0.276090
O1611	O161	0.081500	0.252140	0.068570
C2871	C287	0.082460	0.386600	0.210070
C2881	C288	0.094100	0.370640	0.156770
C2891	C289	0.035230	0.252300	0.272740
C2901	C290	0.085330	0.316600	0.141010
C2911	C291	0.054120	0.294010	0.231570
C2921	C292	0.064200	0.278660	0.178410
C2931	C293	0.063380	0.347760	0.247600
C2941	C294	0.089460	0.445090	0.229180
C2951	C295	0.176800	0.664000	0.230300
H1991	H199	0.211700	0.649400	0.232300
C2961	C296	0.098890	0.296950	0.084060
C2971	C297	0.164400	0.719100	0.231300
H2001	H200	0.188600	0.748200	0.234100
C2981	C298	0.108600	0.721220	0.227300
H2011	H201	0.087900	0.753100	0.227000
C2991	C299	0.022200	0.542400	0.142600
H2021	H202	0.043700	0.510100	0.137300
H2031	H203	0.986500	0.532400	0.155400
H2041	H204	0.018900	0.561600	0.108600
H2051	H205	0.107900	0.393600	0.134000
H2061	H206	0.059100	0.357400	0.285600
H2071	H207	0.056000	0.242000	0.167000
Cu471	Cu47	0.984100	0.146120	0.297340
Cu481	Cu48	0.883050	0.056310	0.285980
N471	N47	0.911680	0.170340	0.276030
N481	N48	0.869410	0.135000	0.274250
O1621	O162	0.890760	0.978850	0.305870
O1631	O163	0.871490	0.827980	0.444770
O1641	O164	0.951660	0.077310	0.317440
O1651	O165	0.960080	0.765220	0.177400
O1661	O166	0.982980	0.707830	0.245140
O1671	O167	0.924980	0.957630	0.223910
O1681	O168	0.918500	0.752140	0.431430
C3001	C300	0.917540	0.886600	0.289930
C3011	C301	0.905900	0.870640	0.343230
C3021	C302	0.964770	0.752300	0.227260
C3031	C303	0.914670	0.816600	0.358990
C3041	C304	0.945880	0.794010	0.268430
C3051	C305	0.935800	0.778660	0.321590
C3061	C306	0.936620	0.847760	0.252400
C3071	C307	0.910540	0.945090	0.270820
C3081	C308	0.823200	0.164000	0.269700
H2081	H208	0.788300	0.149400	0.267700
C3091	C309	0.901110	0.796950	0.415940
C3101	C310	0.835600	0.219100	0.268700
H2091	H209	0.811400	0.248200	0.265900
C3111	C311	0.891400	0.221220	0.272700
H2101	H210	0.912100	0.253100	0.273000
C3121	C312	0.977800	0.042400	0.357400
H2111	H211	0.956300	0.010100	0.362700
H2121	H212	0.013500	0.032400	0.344600
H2131	H213	0.981100	0.061600	0.391400
H2141	H214	0.892100	0.893600	0.366000
H2151	H215	0.940900	0.857400	0.214400
H2161	H216	0.944000	0.742000	0.333000
