data_FINQUQ_freeONLY_PM
_symmetry_space_group_name_H-M	'P1'
_cell_length_a	12.011700
_cell_length_b	13.936000
_cell_length_c	22.602000
_cell_angle_alpha	77.088000
_cell_angle_beta	74.657000
_cell_angle_gamma	75.524000
_symmetry_Int_Tables_number 1

loop_
_symmetry_equiv_pos_as_xyz
'x,y,z'

loop_
_atom_site_label
_atom_site_type_symbol
_atom_site_fract_x
_atom_site_fract_y
_atom_site_fract_z
Ag11	Ag1	0.843120	0.167680	0.503390
Ag21	Ag2	0.327940	0.651010	0.196610
Ag31	Ag3	0.224970	0.380410	0.673790
Ag41	Ag4	0.707630	0.516790	0.646450
Ag51	Ag5	0.384630	0.667860	0.435190
Ag61	Ag6	0.369350	0.924060	0.939430
Ag71	Ag7	0.434780	0.563190	0.583750
Ag81	Ag8	0.156880	0.832320	0.496610
Ag91	Ag9	0.672060	0.348990	0.803390
Ag101	Ag10	0.775030	0.619590	0.326210
Ag111	Ag11	0.292370	0.483210	0.353550
Ag121	Ag12	0.615370	0.332140	0.564810
Ag131	Ag13	0.630650	0.075940	0.060570
Ag141	Ag14	0.565220	0.436810	0.416250
H11	H1	0.809200	0.439800	0.990600
H21	H2	0.017100	0.163000	0.581700
H31	H3	0.135300	0.794200	0.156900
H41	H4	0.736200	0.001700	0.589300
H51	H5	0.061300	0.455600	0.440500
H61	H6	0.325200	0.029300	0.807400
H71	H7	0.723300	0.107700	0.413000
H81	H8	0.579400	0.319900	0.129500
H91	H9	0.923000	0.366500	0.441000
H101	H10	0.081200	0.879500	0.064200
H111	H11	0.647700	0.871000	0.590700
H121	H12	0.429000	0.125800	0.931300
H131	H13	0.678400	0.593800	0.980400
H141	H14	0.349200	0.174900	0.735500
H151	H15	0.636900	0.977000	0.409200
H161	H16	0.442800	0.471900	0.126100
H171	H17	0.157200	0.247300	0.586200
H181	H18	0.866000	0.645600	0.193500
H191	H19	0.818400	0.731200	0.100000
H201	H20	0.456700	0.274000	0.863900
H211	H21	0.190800	0.560200	0.009400
H221	H22	0.982900	0.837000	0.418300
H231	H23	0.864700	0.205800	0.843100
H241	H24	0.263800	0.998300	0.410700
H251	H25	0.938700	0.544400	0.559500
H261	H26	0.674800	0.970700	0.192600
H271	H27	0.276700	0.892300	0.587000
H281	H28	0.420600	0.680100	0.870500
H291	H29	0.077000	0.633500	0.559000
H301	H30	0.918800	0.120500	0.935800
H311	H31	0.352300	0.129000	0.409300
H321	H32	0.571000	0.874200	0.068700
H331	H33	0.321600	0.406200	0.019600
H341	H34	0.650800	0.825100	0.264500
H351	H35	0.363100	0.023000	0.590800
H361	H36	0.557200	0.528100	0.873900
H371	H37	0.842800	0.752700	0.413800
H381	H38	0.134000	0.354400	0.806500
H391	H39	0.181600	0.268800	0.900000
H401	H40	0.543300	0.726000	0.136100
C11	C1	0.735000	0.447600	0.017200
C21	C2	0.027400	0.223800	0.552500
C31	C3	0.038200	0.658400	0.244100
C41	C4	0.467100	0.646900	0.047800
C51	C5	0.069300	0.781800	0.145900
C61	C6	0.715500	0.996900	0.552200
C71	C7	0.054000	0.395600	0.470100
C81	C8	0.353800	0.080300	0.818500
C91	C9	0.547900	0.549800	0.053500
C101	C10	0.708500	0.058400	0.449500
C111	C11	0.599000	0.377700	0.099600
C121	C12	0.972600	0.341900	0.470400
C131	C13	0.037900	0.831800	0.091200
C141	C14	0.663800	0.918900	0.553200
C151	C15	0.213500	0.418800	0.512000
C161	C16	0.414100	0.136300	0.890400
C171	C17	0.657700	0.539000	0.012000
C181	C18	0.634700	0.909600	0.499900
C191	C19	0.444800	0.325900	0.745300
C201	C20	0.368400	0.166000	0.775300
C211	C21	0.005100	0.712400	0.185800
C221	C22	0.577000	0.827700	0.500400
C231	C23	0.125900	0.361900	0.513200
C241	C24	0.657000	0.981200	0.446800
C251	C25	0.518500	0.466900	0.097600
C261	C26	0.110500	0.273300	0.555500
C271	C27	0.911100	0.694100	0.167500
C281	C28	0.411600	0.238700	0.791100
C291	C29	0.882900	0.744600	0.112600
C301	C30	0.431500	0.224100	0.850700
C311	C31	0.265000	0.552400	0.982800
C321	C32	0.972600	0.776200	0.447500
C331	C33	0.961800	0.341600	0.755900
C341	C34	0.532900	0.353100	0.952200
C351	C35	0.930700	0.218200	0.854100
C361	C36	0.284500	0.003100	0.447800
C371	C37	0.946000	0.604400	0.529900
C381	C38	0.646200	0.919700	0.181500
C391	C39	0.452100	0.450200	0.946500
C401	C40	0.291500	0.941600	0.550500
C411	C41	0.401000	0.622300	0.900400
C421	C42	0.027400	0.658100	0.529600
C431	C43	0.962100	0.168200	0.908800
C441	C44	0.336200	0.081100	0.446800
C451	C45	0.786500	0.581200	0.488000
C461	C46	0.585900	0.863700	0.109600
C471	C47	0.342300	0.461000	0.988000
C481	C48	0.365300	0.090400	0.500100
C491	C49	0.555200	0.674100	0.254700
C501	C50	0.631600	0.834000	0.224700
C511	C51	0.994900	0.287600	0.814200
C521	C52	0.423000	0.172300	0.499600
C531	C53	0.874100	0.638100	0.486800
C541	C54	0.343000	0.018800	0.553200
C551	C55	0.481500	0.533100	0.902400
C561	C56	0.889500	0.726700	0.444500
C571	C57	0.088900	0.305900	0.832500
C581	C58	0.588400	0.761300	0.208900
C591	C59	0.117100	0.255400	0.887400
C601	C60	0.568500	0.775900	0.149300
N11	N1	0.489600	0.736400	0.473200
N21	N2	0.554500	0.757000	0.550000
N31	N3	0.330500	0.776100	0.065500
N41	N4	0.257500	0.421600	0.560400
N51	N5	0.738200	0.066200	0.501200
N61	N6	0.944900	0.812800	0.075800
N71	N7	0.138400	0.584000	0.312600
N81	N8	0.704800	0.370600	0.059800
N91	N9	0.958400	0.256500	0.510000
N101	N10	0.389100	0.789900	0.006700
N111	N11	0.538800	0.816700	0.451800
N121	N12	0.256400	0.480300	0.460900
N131	N13	0.475400	0.711300	0.994200
N141	N14	0.378300	0.684700	0.092800
N151	N15	0.499200	0.700500	0.532300
N161	N16	0.543600	0.436700	0.693200
N171	N17	0.459600	0.440500	0.665100
N181	N18	0.147600	0.636800	0.254300
N191	N19	0.330800	0.486300	0.537600
N201	N20	0.963800	0.619900	0.294700
N211	N21	0.329000	0.521800	0.478500
N221	N22	0.394800	0.370700	0.697000
N231	N23	0.536300	0.365700	0.744400
N241	N24	0.028600	0.573900	0.337100
N251	N25	0.376900	0.063800	0.875000
N261	N26	0.510400	0.263600	0.526800
N271	N27	0.445500	0.243000	0.450000
N281	N28	0.669500	0.223900	0.934500
N291	N29	0.742500	0.578400	0.439600
N301	N30	0.261800	0.933800	0.498800
N311	N31	0.055100	0.187200	0.924200
N321	N32	0.861600	0.416000	0.687400
N331	N33	0.295200	0.629400	0.940200
N341	N34	0.041600	0.743500	0.490000
N351	N35	0.610900	0.210100	0.993300
N361	N36	0.461200	0.183300	0.548200
N371	N37	0.743600	0.519700	0.539100
N381	N38	0.524600	0.288700	0.005800
N391	N39	0.621700	0.315300	0.907200
N401	N40	0.500800	0.299500	0.467700
N411	N41	0.456400	0.563300	0.306800
N421	N42	0.540400	0.559500	0.334900
N431	N43	0.852400	0.363200	0.745700
N441	N44	0.669200	0.513700	0.462400
N451	N45	0.036200	0.380100	0.705300
N461	N46	0.671000	0.478200	0.521500
N471	N47	0.605200	0.629300	0.303000
N481	N48	0.463700	0.634300	0.255600
N491	N49	0.971400	0.426100	0.662900
N501	N50	0.623100	0.936200	0.125000
O11	O1	0.256800	0.744600	0.365100
O21	O2	0.551600	0.659000	0.669700
O31	O3	0.743200	0.255400	0.634900
O41	O4	0.448400	0.341000	0.330300
