data_FINQOK_freeONLY_PM
_symmetry_space_group_name_H-M	'P1'
_cell_length_a	12.042000
_cell_length_b	13.967000
_cell_length_c	22.754000
_cell_angle_alpha	95.802000
_cell_angle_beta	105.211000
_cell_angle_gamma	104.118000
_symmetry_Int_Tables_number 1

loop_
_symmetry_equiv_pos_as_xyz
'x,y,z'

loop_
_atom_site_label
_atom_site_type_symbol
_atom_site_fract_x
_atom_site_fract_y
_atom_site_fract_z
Ag11	Ag1	0.685850	0.924800	0.059730
Ag21	Ag2	0.526850	0.348100	0.196870
Ag31	Ag3	0.186780	0.670530	0.566190
Ag41	Ag4	0.102180	0.382110	0.325320
Ag51	Ag5	0.652170	0.162400	0.498870
Ag61	Ag6	0.644280	0.513870	0.354170
Ag71	Ag7	0.985040	0.559290	0.418010
Ag81	Ag8	0.314150	0.075200	0.940270
Ag91	Ag9	0.473150	0.651900	0.803130
Ag101	Ag10	0.813220	0.329470	0.433810
Ag111	Ag11	0.897820	0.617890	0.674680
Ag121	Ag12	0.347830	0.837600	0.501130
Ag131	Ag13	0.355720	0.486130	0.645830
Ag141	Ag14	0.014960	0.440710	0.581990
H11	H1	0.760300	0.866800	0.412000
H21	H2	0.675700	0.996600	0.415100
H31	H3	0.953300	0.975000	0.587100
H41	H4	0.860900	0.100700	0.587400
H51	H5	0.060100	0.348900	0.193200
H61	H6	0.857600	0.029900	0.192000
H71	H7	0.499600	0.452100	0.559300
H81	H8	0.642100	0.129000	0.071000
H91	H9	0.633000	0.363200	0.559800
H101	H10	0.202700	0.441500	0.006500
H111	H11	0.332100	0.590900	0.015400
H121	H12	0.905100	0.171500	0.264800
H131	H13	0.155200	0.130000	0.063600
H141	H14	0.685900	0.275600	0.138100
H151	H15	0.270300	0.258100	0.412000
H161	H16	0.292700	0.205100	0.156100
H171	H17	0.297000	0.322200	0.871700
H181	H18	0.431200	0.473100	0.874000
H191	H19	0.925100	0.264700	0.100800
H201	H20	0.402900	0.166100	0.419300
H211	H21	0.239700	0.133200	0.588000
H221	H22	0.324300	0.003400	0.584900
H231	H23	0.046700	0.025000	0.412900
H241	H24	0.139100	0.899300	0.412600
H251	H25	0.939900	0.651100	0.806800
H261	H26	0.142400	0.970100	0.808000
H271	H27	0.500400	0.547900	0.440700
H281	H28	0.357900	0.871000	0.929000
H291	H29	0.367000	0.636800	0.440200
H301	H30	0.797300	0.558500	0.993500
H311	H31	0.667900	0.409100	0.984600
H321	H32	0.094900	0.828500	0.735200
H331	H33	0.844800	0.870000	0.936400
H341	H34	0.314100	0.724400	0.861900
H351	H35	0.729700	0.741900	0.588000
H361	H36	0.707300	0.794900	0.843900
H371	H37	0.703000	0.677800	0.128300
H381	H38	0.568800	0.526900	0.126000
H391	H39	0.074900	0.735300	0.899200
H401	H40	0.597100	0.833900	0.580700
C11	C1	0.782300	0.913900	0.448000
C21	C2	0.732700	0.991800	0.450500
C31	C3	0.867100	0.907500	0.501400
C41	C4	0.895600	0.977600	0.551400
C51	C5	0.841200	0.054200	0.551400
C61	C6	0.080100	0.303900	0.167600
C71	C7	0.283700	0.342500	0.242700
C81	C8	0.821500	0.080100	0.181700
C91	C9	0.478700	0.393500	0.530500
C101	C10	0.695500	0.137600	0.110300
C111	C11	0.557800	0.340300	0.530600
C121	C12	0.249800	0.448600	0.979800
C131	C13	0.365600	0.361000	0.487400
C141	C14	0.191600	0.286800	0.184600
C151	C15	0.484300	0.648300	0.951700
C161	C16	0.281300	0.421900	0.488200
C171	C17	0.813000	0.326300	0.256200
C181	C18	0.326300	0.537300	0.985800
C191	C19	0.851500	0.164700	0.225800
C201	C20	0.923700	0.824000	0.499000
C211	C21	0.399300	0.548500	0.945600
C221	C22	0.136200	0.173200	0.090800
C231	C23	0.720800	0.225500	0.150500
C241	C24	0.342000	0.278200	0.444000
C251	C25	0.218800	0.218700	0.145000
C261	C26	0.797900	0.239600	0.209300
C271	C27	0.304800	0.378000	0.900100
C281	C28	0.386200	0.467500	0.901700
C291	C29	0.000300	0.253600	0.112500
C301	C30	0.423100	0.225400	0.447400
C311	C31	0.217700	0.086100	0.552000
C321	C32	0.267300	0.008200	0.549500
C331	C33	0.132900	0.092500	0.498600
C341	C34	0.104400	0.022400	0.448600
C351	C35	0.158800	0.945800	0.448600
C361	C36	0.919900	0.696100	0.832400
C371	C37	0.716300	0.657500	0.757300
C381	C38	0.178500	0.919900	0.818300
C391	C39	0.521300	0.606500	0.469500
C401	C40	0.304500	0.862400	0.889700
C411	C41	0.442200	0.659700	0.469400
C421	C42	0.750200	0.551400	0.020200
C431	C43	0.634400	0.639000	0.512600
C441	C44	0.808400	0.713200	0.815400
C451	C45	0.515700	0.351700	0.048300
C461	C46	0.718700	0.578100	0.511800
C471	C47	0.187000	0.673700	0.743800
C481	C48	0.673700	0.462700	0.014200
C491	C49	0.148500	0.835300	0.774200
C501	C50	0.076300	0.176000	0.501000
C511	C51	0.600700	0.451500	0.054400
C521	C52	0.863800	0.826800	0.909200
C531	C53	0.279200	0.774500	0.849500
C541	C54	0.658000	0.721800	0.556000
C551	C55	0.781200	0.781300	0.855000
C561	C56	0.202100	0.760400	0.790700
C571	C57	0.695200	0.622000	0.099900
C581	C58	0.613800	0.532500	0.098300
C591	C59	0.999700	0.746400	0.887500
C601	C60	0.576900	0.774600	0.552600
N11	N1	0.744000	0.064900	0.125000
N21	N2	0.449600	0.418200	0.311100
N31	N3	0.401500	0.363400	0.253100
N41	N4	0.258600	0.379000	0.292400
N51	N5	0.722000	0.369100	0.256700
N61	N6	0.765000	0.440500	0.306700
N71	N7	0.188700	0.423100	0.440600
N81	N8	0.196600	0.523900	0.521300
N91	N9	0.598800	0.777400	0.933500
N101	N10	0.364800	0.428000	0.335100
N111	N11	0.878000	0.441000	0.334900
N121	N12	0.285700	0.480700	0.539500
N131	N13	0.971500	0.696400	0.469000
N141	N14	0.011700	0.814100	0.548900
N151	N15	0.026500	0.188300	0.074500
N161	N16	0.761900	0.062100	0.501200
N171	N17	0.235500	0.369300	0.938800
N181	N18	0.525700	0.687000	0.907100
N191	N19	0.532700	0.255400	0.490100
N201	N20	0.909100	0.373300	0.304200
N211	N21	0.137800	0.490400	0.463200
N221	N22	0.897300	0.753300	0.451200
N231	N23	0.526900	0.712800	0.004800
N241	N24	0.598400	0.791000	0.991700
N251	N25	0.036500	0.733800	0.525800
N261	N26	0.256000	0.935100	0.875000
N271	N27	0.550400	0.581800	0.688900
N281	N28	0.598500	0.636600	0.746900
N291	N29	0.741400	0.621000	0.707600
N301	N30	0.278000	0.630900	0.743300
N311	N31	0.235000	0.559500	0.693300
N321	N32	0.811300	0.576900	0.559400
N331	N33	0.803400	0.476100	0.478700
N341	N34	0.401200	0.222600	0.066500
N351	N35	0.635200	0.572000	0.664900
N361	N36	0.122000	0.559000	0.665100
N371	N37	0.714300	0.519300	0.460500
N381	N38	0.028500	0.303600	0.531000
N391	N39	0.988300	0.185900	0.451100
N401	N40	0.973500	0.811700	0.925500
N411	N41	0.238100	0.937900	0.498800
N421	N42	0.764500	0.630700	0.061200
N431	N43	0.474300	0.313000	0.092900
N441	N44	0.467300	0.744600	0.509900
N451	N45	0.090900	0.626700	0.695800
N461	N46	0.862200	0.509600	0.536800
N471	N47	0.102700	0.246700	0.548800
N481	N48	0.473100	0.287200	0.995200
N491	N49	0.401600	0.209000	0.008300
N501	N50	0.963500	0.266200	0.474200
