data_FIVYEP_freeONLY_PM
_symmetry_space_group_name_H-M	'P1'
_cell_length_a	12.068200
_cell_length_b	12.068200
_cell_length_c	14.614000
_cell_angle_alpha	86.173900
_cell_angle_beta	86.173900
_cell_angle_gamma	64.284000
_symmetry_Int_Tables_number 1

loop_
_symmetry_equiv_pos_as_xyz
'x,y,z'

loop_
_atom_site_label
_atom_site_type_symbol
_atom_site_fract_x
_atom_site_fract_y
_atom_site_fract_z
K11	K1	0.061280	0.061280	0.591000
K21	K2	0.212280	0.212280	0.435000
K31	K3	0.938720	0.938720	0.409000
K41	K4	0.787720	0.787720	0.565000
U11	U1	0.054180	0.556400	0.789040
U21	U2	0.443600	0.945820	0.210960
U31	U3	0.945820	0.443600	0.210960
U41	U4	0.556400	0.054180	0.789040
C11	C1	0.052300	0.515700	0.013900
C21	C2	0.047600	0.385600	0.628400
C31	C3	0.140700	0.435100	0.590600
C41	C4	0.773500	0.054500	0.647100
C51	C5	0.777400	0.133000	0.723900
C61	C6	0.484300	0.947700	0.986100
C71	C7	0.614400	0.952400	0.371600
C81	C8	0.564900	0.859300	0.409400
C91	C9	0.945500	0.226500	0.352900
C101	C10	0.867000	0.222600	0.276100
C111	C11	0.947700	0.484300	0.986100
C121	C12	0.952400	0.614400	0.371600
C131	C13	0.859300	0.564900	0.409400
C141	C14	0.226500	0.945500	0.352900
C151	C15	0.222600	0.867000	0.276100
C161	C16	0.515700	0.052300	0.013900
C171	C17	0.385600	0.047600	0.628400
C181	C18	0.435100	0.140700	0.590600
C191	C19	0.054500	0.773500	0.647100
C201	C20	0.133000	0.777400	0.723900
C211	C21	0.346000	0.346000	0.813800
C221	C22	0.270800	0.270800	0.826200
C231	C23	0.654000	0.654000	0.186200
C241	C24	0.729200	0.729200	0.173800
C251	C25	0.811900	0.811900	0.851300
C261	C26	0.758100	0.758100	0.784100
C271	C27	0.188100	0.188100	0.148700
C281	C28	0.241900	0.241900	0.215900
O11	O1	0.853200	0.176600	0.717300
O21	O2	0.824800	0.057400	0.571700
O31	O3	0.175400	0.427000	0.508900
O41	O4	0.036900	0.303300	0.589100
O51	O5	0.286000	0.461000	0.809800
O61	O6	0.111300	0.543500	0.950200
O71	O7	0.069700	0.510100	0.097900
O81	O8	0.825600	0.652000	0.758800
O91	O9	0.156600	0.330200	0.830500
O101	O10	0.987800	0.437600	0.700100
O111	O11	0.698800	0.146600	0.789600
O121	O12	0.174200	0.483000	0.652100
O131	O13	0.919200	0.745000	0.875300
O141	O14	0.713900	0.991300	0.669900
O151	O15	0.823400	0.146800	0.282700
O161	O16	0.942600	0.175200	0.428300
O171	O17	0.573000	0.824600	0.491100
O181	O18	0.696700	0.963100	0.410900
O191	O19	0.539000	0.714000	0.190200
O201	O20	0.456500	0.888700	0.049800
O211	O21	0.489900	0.930300	0.902100
O221	O22	0.348000	0.174400	0.241200
O231	O23	0.669800	0.843400	0.169500
O241	O24	0.562400	0.012200	0.299900
O251	O25	0.853400	0.301200	0.210400
O261	O26	0.517000	0.825800	0.347900
O271	O27	0.255000	0.080800	0.124700
O281	O28	0.008700	0.286100	0.330100
O291	O29	0.146800	0.823400	0.282700
O301	O30	0.175200	0.942600	0.428300
O311	O31	0.824600	0.573000	0.491100
O321	O32	0.963100	0.696700	0.410900
O331	O33	0.714000	0.539000	0.190200
O341	O34	0.888700	0.456500	0.049800
O351	O35	0.930300	0.489900	0.902100
O361	O36	0.174400	0.348000	0.241200
O371	O37	0.843400	0.669800	0.169500
O381	O38	0.012200	0.562400	0.299900
O391	O39	0.301200	0.853400	0.210400
O401	O40	0.825800	0.517000	0.347900
O411	O41	0.080800	0.255000	0.124700
O421	O42	0.286100	0.008700	0.330100
O431	O43	0.176600	0.853200	0.717300
O441	O44	0.057400	0.824800	0.571700
O451	O45	0.427000	0.175400	0.508900
O461	O46	0.303300	0.036900	0.589100
O471	O47	0.461000	0.286000	0.809800
O481	O48	0.543500	0.111300	0.950200
O491	O49	0.510100	0.069700	0.097900
O501	O50	0.652000	0.825600	0.758800
O511	O51	0.330200	0.156600	0.830500
O521	O52	0.437600	0.987800	0.700100
O531	O53	0.146600	0.698800	0.789600
O541	O54	0.483000	0.174200	0.652100
O551	O55	0.745000	0.919200	0.875300
O561	O56	0.991300	0.713900	0.669900
