data_FIXVUE_freeONLY_PM
_symmetry_space_group_name_H-M	'P1'
_cell_length_a	32.749000
_cell_length_b	32.749000
_cell_length_c	32.749000
_cell_angle_alpha	90.000000
_cell_angle_beta	90.000000
_cell_angle_gamma	90.000000
_symmetry_Int_Tables_number 1

loop_
_symmetry_equiv_pos_as_xyz
'x,y,z'

loop_
_atom_site_label
_atom_site_type_symbol
_atom_site_fract_x
_atom_site_fract_y
_atom_site_fract_z
Au11	Au1	0.347970	0.996570	0.521650
Au21	Au2	0.418750	0.062300	0.571310
Au31	Au3	0.055540	0.006130	0.599690
Au41	Au4	0.043970	0.110430	0.574550
Ag11	Ag1	0.332640	0.082230	0.548100
Ag21	Ag2	0.422040	0.009490	0.476050
Ag31	Ag3	0.404300	0.987680	0.616740
Ag41	Ag4	0.109630	0.074150	0.626990
Ag51	Ag5	0.976260	0.037630	0.626280
Ag61	Ag6	0.057010	0.057940	0.503620
Cu11	Cu1	0.389510	0.133200	0.449330
Cu21	Cu2	0.282450	0.025320	0.645170
Cu31	Cu3	0.026640	0.109280	0.719950
Cu41	Cu4	0.177440	0.031240	0.534690
Cl11	Cl1	0.282400	0.135800	0.549900
S11	S1	0.358360	0.052910	0.480360
S21	S2	0.346730	0.942070	0.565340
S31	S3	0.363260	0.053410	0.613810
S41	S4	0.472240	0.061380	0.526000
S51	S5	0.045750	0.043050	0.658640
S61	S6	0.062460	0.972440	0.538880
S71	S7	0.106650	0.087940	0.551300
S81	S8	0.978610	0.122020	0.596980
O11	O1	0.391800	0.108100	0.399000
O21	O2	0.352300	0.076300	0.351600
O31	O3	0.389900	0.152500	0.505400
O41	O4	0.428800	0.171000	0.557500
O51	O5	0.265800	0.029000	0.590800
O61	O6	0.238100	0.991400	0.538100
O71	O7	0.309600	0.018800	0.697900
O81	O8	0.343800	0.059200	0.743000
O91	O9	0.988700	0.069600	0.744200
O101	O10	0.987500	0.004400	0.766300
O111	O11	0.062000	0.141400	0.686500
O121	O12	0.065000	0.193800	0.643500
O131	O13	0.163300	0.009200	0.587800
O141	O14	0.156400	0.948000	0.619400
O151	O15	0.179600	0.057900	0.481300
O161	O16	0.185800	0.118500	0.449400
O171	O17	0.176800	0.090100	0.645700
O181	O18	0.025100	0.153400	0.774600
N11	N1	0.329600	0.129600	0.443000
N21	N2	0.449100	0.123800	0.457400
N31	N3	0.288000	0.966500	0.636000
N41	N4	0.288400	0.086100	0.653200
N51	N5	0.069200	0.072500	0.742400
N61	N6	0.982800	0.136500	0.691100
N71	N7	0.151600	0.982800	0.513500
N81	N8	0.197000	0.086000	0.554900
C11	C1	0.358600	0.094000	0.386500
C21	C2	0.320800	0.094300	0.415600
C31	C3	0.317200	0.055400	0.440500
C41	C4	0.275200	0.054400	0.462600
C51	C5	0.320500	0.016000	0.413500
C61	C6	0.424400	0.154300	0.522700
C71	C7	0.463100	0.140300	0.497900
C81	C8	0.494000	0.112500	0.519100
C91	C9	0.530500	0.108300	0.490000
C101	C10	0.506300	0.131200	0.560800
C111	C11	0.257500	0.995500	0.572400
C121	C12	0.269400	0.954900	0.595000
C131	C13	0.294000	0.923000	0.572000
C141	C14	0.297300	0.885000	0.600800
C151	C15	0.275700	0.911300	0.529500
C161	C16	0.324100	0.052800	0.709600
C171	C17	0.326700	0.088800	0.678000
C181	C18	0.365500	0.095000	0.652700
C191	C19	0.367200	0.136300	0.629900
C201	C20	0.405000	0.091200	0.678200
C211	C21	0.005300	0.035500	0.751700
C221	C22	0.051300	0.030200	0.740600
C231	C23	0.061100	0.009200	0.700300
C241	C24	0.107500	0.002400	0.697900
C251	C25	0.037400	0.968300	0.697700
C261	C26	0.045100	0.168000	0.664200
C271	C27	0.997000	0.172000	0.664700
C281	C28	0.976800	0.174100	0.622700
C291	C29	0.993500	0.205800	0.592800
C301	C30	0.930400	0.181500	0.631100
C311	C31	0.154500	0.972200	0.588700
C321	C32	0.144000	0.952300	0.547200
C331	C33	0.101800	0.931600	0.544300
C341	C34	0.089900	0.905400	0.583100
C351	C35	0.098300	0.906400	0.503900
C361	C36	0.182300	0.096700	0.480800
C371	C37	0.181300	0.116800	0.524100
C381	C38	0.138900	0.131000	0.536400
C391	C39	0.141700	0.158200	0.574800
C401	C40	0.119000	0.156900	0.501900
Au51	Au5	0.152030	0.003430	0.021650
Au61	Au6	0.081250	0.937700	0.071310
Au71	Au7	0.444460	0.993870	0.099690
Au81	Au8	0.456030	0.889570	0.074550
Ag71	Ag7	0.167360	0.917770	0.048100
Ag81	Ag8	0.077960	0.990510	0.976050
Ag91	Ag9	0.095700	0.012320	0.116740
Ag101	Ag10	0.390370	0.925850	0.126990
Ag111	Ag11	0.523740	0.962370	0.126280
Ag121	Ag12	0.442990	0.942060	0.003620
Cu51	Cu5	0.110490	0.866800	0.949330
Cu61	Cu6	0.217550	0.974680	0.145170
Cu71	Cu7	0.473360	0.890720	0.219950
Cu81	Cu8	0.322560	0.968760	0.034690
Cl21	Cl2	0.217600	0.864200	0.049900
S91	S9	0.141640	0.947090	0.980360
S101	S10	0.153270	0.057930	0.065340
S111	S11	0.136740	0.946590	0.113810
S121	S12	0.027760	0.938620	0.026000
S131	S13	0.454250	0.956950	0.158640
S141	S14	0.437540	0.027560	0.038880
S151	S15	0.393350	0.912060	0.051300
S161	S16	0.521390	0.877980	0.096980
O191	O19	0.108200	0.891900	0.899000
O201	O20	0.147700	0.923700	0.851600
O211	O21	0.110100	0.847500	0.005400
O221	O22	0.071200	0.829000	0.057500
O231	O23	0.234200	0.971000	0.090800
O241	O24	0.261900	0.008600	0.038100
O251	O25	0.190400	0.981200	0.197900
O261	O26	0.156200	0.940800	0.243000
O271	O27	0.511300	0.930400	0.244200
O281	O28	0.512500	0.995600	0.266300
O291	O29	0.438000	0.858600	0.186500
O301	O30	0.435000	0.806200	0.143500
O311	O31	0.336700	0.990800	0.087800
O321	O32	0.343600	0.052000	0.119400
O331	O33	0.320400	0.942100	0.981300
O341	O34	0.314200	0.881500	0.949400
O351	O35	0.323200	0.909900	0.145700
O361	O36	0.474900	0.846600	0.274600
N91	N9	0.170400	0.870400	0.943000
N101	N10	0.050900	0.876200	0.957400
N111	N11	0.212000	0.033500	0.136000
N121	N12	0.211600	0.913900	0.153200
N131	N13	0.430800	0.927500	0.242400
N141	N14	0.517200	0.863500	0.191100
N151	N15	0.348400	0.017200	0.013500
N161	N16	0.303000	0.914000	0.054900
C411	C41	0.141400	0.906000	0.886500
C421	C42	0.179200	0.905700	0.915600
C431	C43	0.182800	0.944600	0.940500
C441	C44	0.224800	0.945600	0.962600
C451	C45	0.179500	0.984000	0.913500
C461	C46	0.075600	0.845700	0.022700
C471	C47	0.036900	0.859700	0.997900
C481	C48	0.006000	0.887500	0.019100
C491	C49	0.969500	0.891700	0.990000
C501	C50	0.993700	0.868800	0.060800
C511	C51	0.242500	0.004500	0.072400
C521	C52	0.230600	0.045100	0.095000
C531	C53	0.206000	0.077000	0.072000
C541	C54	0.202700	0.115000	0.100800
C551	C55	0.224300	0.088700	0.029500
C561	C56	0.175900	0.947200	0.209600
C571	C57	0.173300	0.911200	0.178000
C581	C58	0.134500	0.905000	0.152700
C591	C59	0.132800	0.863700	0.129900
C601	C60	0.095000	0.908800	0.178200
C611	C61	0.494700	0.964500	0.251700
C621	C62	0.448700	0.969800	0.240600
C631	C63	0.438900	0.990800	0.200300
C641	C64	0.392500	0.997600	0.197900
C651	C65	0.462600	0.031700	0.197700
C661	C66	0.454900	0.832000	0.164200
C671	C67	0.503000	0.828000	0.164700
C681	C68	0.523200	0.825900	0.122700
C691	C69	0.506500	0.794200	0.092800
C701	C70	0.569600	0.818500	0.131100
C711	C71	0.345500	0.027800	0.088700
C721	C72	0.356000	0.047700	0.047200
C731	C73	0.398200	0.068400	0.044300
C741	C74	0.410100	0.094600	0.083100
C751	C75	0.401700	0.093600	0.003900
C761	C76	0.317700	0.903300	0.980800
C771	C77	0.318700	0.883200	0.024100
C781	C78	0.361100	0.869000	0.036400
C791	C79	0.358300	0.841800	0.074800
C801	C80	0.381000	0.843100	0.001900
Au91	Au9	0.652030	0.496570	0.978350
Au101	Au10	0.581250	0.562300	0.928690
Au111	Au11	0.944460	0.506130	0.900310
Au121	Au12	0.956030	0.610430	0.925450
Ag131	Ag13	0.667360	0.582230	0.951900
Ag141	Ag14	0.577960	0.509490	0.023950
Ag151	Ag15	0.595700	0.487680	0.883260
Ag161	Ag16	0.890370	0.574150	0.873010
Ag171	Ag17	0.023740	0.537630	0.873720
Ag181	Ag18	0.942990	0.557940	0.996380
Cu91	Cu9	0.610490	0.633200	0.050670
Cu101	Cu10	0.717550	0.525320	0.854830
Cu111	Cu11	0.973360	0.609280	0.780050
Cu121	Cu12	0.822560	0.531240	0.965310
Cl31	Cl3	0.717600	0.635800	0.950100
S171	S17	0.641640	0.552910	0.019640
S181	S18	0.653270	0.442070	0.934660
S191	S19	0.636740	0.553410	0.886190
S201	S20	0.527760	0.561380	0.974000
S211	S21	0.954250	0.543050	0.841360
S221	S22	0.937540	0.472440	0.961120
S231	S23	0.893350	0.587940	0.948700
S241	S24	0.021390	0.622020	0.903020
O371	O37	0.608200	0.608100	0.101000
O381	O38	0.647700	0.576300	0.148400
O391	O39	0.610100	0.652500	0.994600
O401	O40	0.571200	0.671000	0.942500
O411	O41	0.734200	0.529000	0.909200
O421	O42	0.761900	0.491400	0.961900
O431	O43	0.690400	0.518800	0.802100
O441	O44	0.656200	0.559200	0.757000
O451	O45	0.011300	0.569600	0.755800
O461	O46	0.012500	0.504400	0.733700
O471	O47	0.938000	0.641400	0.813500
O481	O48	0.935000	0.693800	0.856500
O491	O49	0.836700	0.509200	0.912200
O501	O50	0.843600	0.448000	0.880600
O511	O51	0.820400	0.557900	0.018700
O521	O52	0.814200	0.618500	0.050600
O531	O53	0.823200	0.590100	0.854300
O541	O54	0.974900	0.653400	0.725400
N171	N17	0.670400	0.629600	0.057000
N181	N18	0.550900	0.623800	0.042600
N191	N19	0.712000	0.466500	0.864000
N201	N20	0.711600	0.586100	0.846800
N211	N21	0.930800	0.572500	0.757600
N221	N22	0.017200	0.636500	0.808900
N231	N23	0.848400	0.482800	0.986500
N241	N24	0.803000	0.586000	0.945100
C811	C81	0.641400	0.594000	0.113500
C821	C82	0.679200	0.594300	0.084400
C831	C83	0.682800	0.555400	0.059500
C841	C84	0.724800	0.554400	0.037400
C851	C85	0.679500	0.516000	0.086500
C861	C86	0.575600	0.654300	0.977300
C871	C87	0.536900	0.640300	0.002100
C881	C88	0.506000	0.612500	0.980900
C891	C89	0.469500	0.608300	0.010000
C901	C90	0.493700	0.631200	0.939200
C911	C91	0.742500	0.495500	0.927600
C921	C92	0.730600	0.454900	0.905000
C931	C93	0.706000	0.423000	0.928000
C941	C94	0.702700	0.385000	0.899200
C951	C95	0.724300	0.411300	0.970500
C961	C96	0.675900	0.552800	0.790400
C971	C97	0.673300	0.588800	0.822000
C981	C98	0.634500	0.595000	0.847300
C991	C99	0.632800	0.636300	0.870100
C1001	C100	0.595000	0.591200	0.821800
C1011	C101	0.994700	0.535500	0.748300
C1021	C102	0.948700	0.530200	0.759400
C1031	C103	0.938900	0.509200	0.799700
C1041	C104	0.892500	0.502400	0.802100
C1051	C105	0.962600	0.468300	0.802300
C1061	C106	0.954900	0.668000	0.835800
C1071	C107	0.003000	0.672000	0.835300
C1081	C108	0.023200	0.674100	0.877300
C1091	C109	0.006500	0.705800	0.907200
C1101	C110	0.069600	0.681500	0.868900
C1111	C111	0.845500	0.472200	0.911300
C1121	C112	0.856000	0.452300	0.952800
C1131	C113	0.898200	0.431600	0.955700
C1141	C114	0.910100	0.405400	0.916900
C1151	C115	0.901700	0.406400	0.996100
C1161	C116	0.817700	0.596700	0.019200
C1171	C117	0.818700	0.616800	0.975900
C1181	C118	0.861100	0.631000	0.963600
C1191	C119	0.858300	0.658200	0.925200
C1201	C120	0.881000	0.656900	0.998100
Au131	Au13	0.847970	0.503430	0.478350
Au141	Au14	0.918750	0.437700	0.428690
Au151	Au15	0.555540	0.493870	0.400310
Au161	Au16	0.543970	0.389570	0.425450
Ag191	Ag19	0.832640	0.417770	0.451900
Ag201	Ag20	0.922040	0.490510	0.523950
Ag211	Ag21	0.904300	0.512320	0.383260
Ag221	Ag22	0.609630	0.425850	0.373010
Ag231	Ag23	0.476260	0.462370	0.373720
Ag241	Ag24	0.557010	0.442060	0.496380
Cu131	Cu13	0.889510	0.366800	0.550670
Cu141	Cu14	0.782450	0.474680	0.354830
Cu151	Cu15	0.526640	0.390720	0.280050
Cu161	Cu16	0.677440	0.468760	0.465310
Cl41	Cl4	0.782400	0.364200	0.450100
S251	S25	0.858360	0.447090	0.519640
S261	S26	0.846730	0.557930	0.434660
S271	S27	0.863260	0.446590	0.386190
S281	S28	0.972240	0.438620	0.474000
S291	S29	0.545750	0.456950	0.341360
S301	S30	0.562460	0.527560	0.461120
S311	S31	0.606650	0.412060	0.448700
S321	S32	0.478610	0.377980	0.403020
O551	O55	0.891800	0.391900	0.601000
O561	O56	0.852300	0.423700	0.648400
O571	O57	0.889900	0.347500	0.494600
O581	O58	0.928800	0.329000	0.442500
O591	O59	0.765800	0.471000	0.409200
O601	O60	0.738100	0.508600	0.461900
O611	O61	0.809600	0.481200	0.302100
O621	O62	0.843800	0.440800	0.257000
O631	O63	0.488700	0.430400	0.255800
O641	O64	0.487500	0.495600	0.233700
O651	O65	0.562000	0.358600	0.313500
O661	O66	0.565000	0.306200	0.356500
O671	O67	0.663300	0.490800	0.412200
O681	O68	0.656400	0.552000	0.380600
O691	O69	0.679600	0.442100	0.518700
O701	O70	0.685800	0.381500	0.550600
O711	O71	0.676800	0.409900	0.354300
O721	O72	0.525100	0.346600	0.225400
N251	N25	0.829600	0.370400	0.557000
N261	N26	0.949100	0.376200	0.542600
N271	N27	0.788000	0.533500	0.364000
N281	N28	0.788400	0.413900	0.346800
N291	N29	0.569200	0.427500	0.257600
N301	N30	0.482800	0.363500	0.308900
N311	N31	0.651600	0.517200	0.486500
N321	N32	0.697000	0.414000	0.445100
C1211	C121	0.858600	0.406000	0.613500
C1221	C122	0.820800	0.405700	0.584400
C1231	C123	0.817200	0.444600	0.559500
C1241	C124	0.775200	0.445600	0.537400
C1251	C125	0.820500	0.484000	0.586500
C1261	C126	0.924400	0.345700	0.477300
C1271	C127	0.963100	0.359700	0.502100
C1281	C128	0.994000	0.387500	0.480900
C1291	C129	0.030500	0.391700	0.510000
C1301	C130	0.006300	0.368800	0.439200
C1311	C131	0.757500	0.504500	0.427600
C1321	C132	0.769400	0.545100	0.405000
C1331	C133	0.794000	0.577000	0.428000
C1341	C134	0.797300	0.615000	0.399200
C1351	C135	0.775700	0.588700	0.470500
C1361	C136	0.824100	0.447200	0.290400
C1371	C137	0.826700	0.411200	0.322000
C1381	C138	0.865500	0.405000	0.347300
C1391	C139	0.867200	0.363700	0.370100
C1401	C140	0.905000	0.408800	0.321800
C1411	C141	0.505300	0.464500	0.248300
C1421	C142	0.551300	0.469800	0.259400
C1431	C143	0.561100	0.490800	0.299700
C1441	C144	0.607500	0.497600	0.302100
C1451	C145	0.537400	0.531700	0.302300
C1461	C146	0.545100	0.332000	0.335800
C1471	C147	0.497000	0.328000	0.335300
C1481	C148	0.476800	0.325900	0.377300
C1491	C149	0.493500	0.294200	0.407200
C1501	C150	0.430400	0.318500	0.368900
C1511	C151	0.654500	0.527800	0.411300
C1521	C152	0.644000	0.547700	0.452800
C1531	C153	0.601800	0.568400	0.455700
C1541	C154	0.589900	0.594600	0.416900
C1551	C155	0.598300	0.593600	0.496100
C1561	C156	0.682300	0.403300	0.519200
C1571	C157	0.681300	0.383200	0.475900
C1581	C158	0.638900	0.369000	0.463600
C1591	C159	0.641700	0.341800	0.425200
C1601	C160	0.619000	0.343100	0.498100
Au171	Au17	0.521650	0.347970	0.996570
Au181	Au18	0.571310	0.418750	0.062300
Au191	Au19	0.599690	0.055540	0.006130
Au201	Au20	0.574550	0.043970	0.110430
Ag251	Ag25	0.548100	0.332640	0.082230
Ag261	Ag26	0.476050	0.422040	0.009490
Ag271	Ag27	0.616740	0.404300	0.987680
Ag281	Ag28	0.626990	0.109630	0.074150
Ag291	Ag29	0.626280	0.976260	0.037630
Ag301	Ag30	0.503620	0.057010	0.057940
Cu171	Cu17	0.449330	0.389510	0.133200
Cu181	Cu18	0.645170	0.282450	0.025320
Cu191	Cu19	0.719950	0.026640	0.109280
Cu201	Cu20	0.534690	0.177440	0.031240
Cl51	Cl5	0.549900	0.282400	0.135800
S331	S33	0.480360	0.358360	0.052910
S341	S34	0.565340	0.346730	0.942070
S351	S35	0.613810	0.363260	0.053410
S361	S36	0.526000	0.472240	0.061380
S371	S37	0.658640	0.045750	0.043050
S381	S38	0.538880	0.062460	0.972440
S391	S39	0.551300	0.106650	0.087940
S401	S40	0.596980	0.978610	0.122020
O731	O73	0.399000	0.391800	0.108100
O741	O74	0.351600	0.352300	0.076300
O751	O75	0.505400	0.389900	0.152500
O761	O76	0.557500	0.428800	0.171000
O771	O77	0.590800	0.265800	0.029000
O781	O78	0.538100	0.238100	0.991400
O791	O79	0.697900	0.309600	0.018800
O801	O80	0.743000	0.343800	0.059200
O811	O81	0.744200	0.988700	0.069600
O821	O82	0.766300	0.987500	0.004400
O831	O83	0.686500	0.062000	0.141400
O841	O84	0.643500	0.065000	0.193800
O851	O85	0.587800	0.163300	0.009200
O861	O86	0.619400	0.156400	0.948000
O871	O87	0.481300	0.179600	0.057900
O881	O88	0.449400	0.185800	0.118500
O891	O89	0.645700	0.176800	0.090100
O901	O90	0.774600	0.025100	0.153400
N331	N33	0.443000	0.329600	0.129600
N341	N34	0.457400	0.449100	0.123800
N351	N35	0.636000	0.288000	0.966500
N361	N36	0.653200	0.288400	0.086100
N371	N37	0.742400	0.069200	0.072500
N381	N38	0.691100	0.982800	0.136500
N391	N39	0.513500	0.151600	0.982800
N401	N40	0.554900	0.197000	0.086000
C1611	C161	0.386500	0.358600	0.094000
C1621	C162	0.415600	0.320800	0.094300
C1631	C163	0.440500	0.317200	0.055400
C1641	C164	0.462600	0.275200	0.054400
C1651	C165	0.413500	0.320500	0.016000
C1661	C166	0.522700	0.424400	0.154300
C1671	C167	0.497900	0.463100	0.140300
C1681	C168	0.519100	0.494000	0.112500
C1691	C169	0.490000	0.530500	0.108300
C1701	C170	0.560800	0.506300	0.131200
C1711	C171	0.572400	0.257500	0.995500
C1721	C172	0.595000	0.269400	0.954900
C1731	C173	0.572000	0.294000	0.923000
C1741	C174	0.600800	0.297300	0.885000
C1751	C175	0.529500	0.275700	0.911300
C1761	C176	0.709600	0.324100	0.052800
C1771	C177	0.678000	0.326700	0.088800
C1781	C178	0.652700	0.365500	0.095000
C1791	C179	0.629900	0.367200	0.136300
C1801	C180	0.678200	0.405000	0.091200
C1811	C181	0.751700	0.005300	0.035500
C1821	C182	0.740600	0.051300	0.030200
C1831	C183	0.700300	0.061100	0.009200
C1841	C184	0.697900	0.107500	0.002400
C1851	C185	0.697700	0.037400	0.968300
C1861	C186	0.664200	0.045100	0.168000
C1871	C187	0.664700	0.997000	0.172000
C1881	C188	0.622700	0.976800	0.174100
C1891	C189	0.592800	0.993500	0.205800
C1901	C190	0.631100	0.930400	0.181500
C1911	C191	0.588700	0.154500	0.972200
C1921	C192	0.547200	0.144000	0.952300
C1931	C193	0.544300	0.101800	0.931600
C1941	C194	0.583100	0.089900	0.905400
C1951	C195	0.503900	0.098300	0.906400
C1961	C196	0.480800	0.182300	0.096700
C1971	C197	0.524100	0.181300	0.116800
C1981	C198	0.536400	0.138900	0.131000
C1991	C199	0.574800	0.141700	0.158200
C2001	C200	0.501900	0.119000	0.156900
Au211	Au21	0.021650	0.152030	0.003430
Au221	Au22	0.071310	0.081250	0.937700
Au231	Au23	0.099690	0.444460	0.993870
Au241	Au24	0.074550	0.456030	0.889570
Ag311	Ag31	0.048100	0.167360	0.917770
Ag321	Ag32	0.976050	0.077960	0.990510
Ag331	Ag33	0.116740	0.095700	0.012320
Ag341	Ag34	0.126990	0.390370	0.925850
Ag351	Ag35	0.126280	0.523740	0.962370
Ag361	Ag36	0.003620	0.442990	0.942060
Cu211	Cu21	0.949330	0.110490	0.866800
Cu221	Cu22	0.145170	0.217550	0.974680
Cu231	Cu23	0.219950	0.473360	0.890720
Cu241	Cu24	0.034690	0.322560	0.968760
Cl61	Cl6	0.049900	0.217600	0.864200
S411	S41	0.980360	0.141640	0.947090
S421	S42	0.065340	0.153270	0.057930
S431	S43	0.113810	0.136740	0.946590
S441	S44	0.026000	0.027760	0.938620
S451	S45	0.158640	0.454250	0.956950
S461	S46	0.038880	0.437540	0.027560
S471	S47	0.051300	0.393350	0.912060
S481	S48	0.096980	0.521390	0.877980
O911	O91	0.899000	0.108200	0.891900
O921	O92	0.851600	0.147700	0.923700
O931	O93	0.005400	0.110100	0.847500
O941	O94	0.057500	0.071200	0.829000
O951	O95	0.090800	0.234200	0.971000
O961	O96	0.038100	0.261900	0.008600
O971	O97	0.197900	0.190400	0.981200
O981	O98	0.243000	0.156200	0.940800
O991	O99	0.244200	0.511300	0.930400
O1001	O100	0.266300	0.512500	0.995600
O1011	O101	0.186500	0.438000	0.858600
O1021	O102	0.143500	0.435000	0.806200
O1031	O103	0.087800	0.336700	0.990800
O1041	O104	0.119400	0.343600	0.052000
O1051	O105	0.981300	0.320400	0.942100
O1061	O106	0.949400	0.314200	0.881500
O1071	O107	0.145700	0.323200	0.909900
O1081	O108	0.274600	0.474900	0.846600
N411	N41	0.943000	0.170400	0.870400
N421	N42	0.957400	0.050900	0.876200
N431	N43	0.136000	0.212000	0.033500
N441	N44	0.153200	0.211600	0.913900
N451	N45	0.242400	0.430800	0.927500
N461	N46	0.191100	0.517200	0.863500
N471	N47	0.013500	0.348400	0.017200
N481	N48	0.054900	0.303000	0.914000
C2011	C201	0.886500	0.141400	0.906000
C2021	C202	0.915600	0.179200	0.905700
C2031	C203	0.940500	0.182800	0.944600
C2041	C204	0.962600	0.224800	0.945600
C2051	C205	0.913500	0.179500	0.984000
C2061	C206	0.022700	0.075600	0.845700
C2071	C207	0.997900	0.036900	0.859700
C2081	C208	0.019100	0.006000	0.887500
C2091	C209	0.990000	0.969500	0.891700
C2101	C210	0.060800	0.993700	0.868800
C2111	C211	0.072400	0.242500	0.004500
C2121	C212	0.095000	0.230600	0.045100
C2131	C213	0.072000	0.206000	0.077000
C2141	C214	0.100800	0.202700	0.115000
C2151	C215	0.029500	0.224300	0.088700
C2161	C216	0.209600	0.175900	0.947200
C2171	C217	0.178000	0.173300	0.911200
C2181	C218	0.152700	0.134500	0.905000
C2191	C219	0.129900	0.132800	0.863700
C2201	C220	0.178200	0.095000	0.908800
C2211	C221	0.251700	0.494700	0.964500
C2221	C222	0.240600	0.448700	0.969800
C2231	C223	0.200300	0.438900	0.990800
C2241	C224	0.197900	0.392500	0.997600
C2251	C225	0.197700	0.462600	0.031700
C2261	C226	0.164200	0.454900	0.832000
C2271	C227	0.164700	0.503000	0.828000
C2281	C228	0.122700	0.523200	0.825900
C2291	C229	0.092800	0.506500	0.794200
C2301	C230	0.131100	0.569600	0.818500
C2311	C231	0.088700	0.345500	0.027800
C2321	C232	0.047200	0.356000	0.047700
C2331	C233	0.044300	0.398200	0.068400
C2341	C234	0.083100	0.410100	0.094600
C2351	C235	0.003900	0.401700	0.093600
C2361	C236	0.980800	0.317700	0.903300
C2371	C237	0.024100	0.318700	0.883200
C2381	C238	0.036400	0.361100	0.869000
C2391	C239	0.074800	0.358300	0.841800
C2401	C240	0.001900	0.381000	0.843100
Au251	Au25	0.978350	0.652030	0.496570
Au261	Au26	0.928690	0.581250	0.562300
Au271	Au27	0.900310	0.944460	0.506130
Au281	Au28	0.925450	0.956030	0.610430
Ag371	Ag37	0.951900	0.667360	0.582230
Ag381	Ag38	0.023950	0.577960	0.509490
Ag391	Ag39	0.883260	0.595700	0.487680
Ag401	Ag40	0.873010	0.890370	0.574150
Ag411	Ag41	0.873720	0.023740	0.537630
Ag421	Ag42	0.996380	0.942990	0.557940
Cu251	Cu25	0.050670	0.610490	0.633200
Cu261	Cu26	0.854830	0.717550	0.525320
Cu271	Cu27	0.780050	0.973360	0.609280
Cu281	Cu28	0.965310	0.822560	0.531240
Cl71	Cl7	0.950100	0.717600	0.635800
S491	S49	0.019640	0.641640	0.552910
S501	S50	0.934660	0.653270	0.442070
S511	S51	0.886190	0.636740	0.553410
S521	S52	0.974000	0.527760	0.561380
S531	S53	0.841360	0.954250	0.543050
S541	S54	0.961120	0.937540	0.472440
S551	S55	0.948700	0.893350	0.587940
S561	S56	0.903020	0.021390	0.622020
O1091	O109	0.101000	0.608200	0.608100
O1101	O110	0.148400	0.647700	0.576300
O1111	O111	0.994600	0.610100	0.652500
O1121	O112	0.942500	0.571200	0.671000
O1131	O113	0.909200	0.734200	0.529000
O1141	O114	0.961900	0.761900	0.491400
O1151	O115	0.802100	0.690400	0.518800
O1161	O116	0.757000	0.656200	0.559200
O1171	O117	0.755800	0.011300	0.569600
O1181	O118	0.733700	0.012500	0.504400
O1191	O119	0.813500	0.938000	0.641400
O1201	O120	0.856500	0.935000	0.693800
O1211	O121	0.912200	0.836700	0.509200
O1221	O122	0.880600	0.843600	0.448000
O1231	O123	0.018700	0.820400	0.557900
O1241	O124	0.050600	0.814200	0.618500
O1251	O125	0.854300	0.823200	0.590100
O1261	O126	0.725400	0.974900	0.653400
N491	N49	0.057000	0.670400	0.629600
N501	N50	0.042600	0.550900	0.623800
N511	N51	0.864000	0.712000	0.466500
N521	N52	0.846800	0.711600	0.586100
N531	N53	0.757600	0.930800	0.572500
N541	N54	0.808900	0.017200	0.636500
N551	N55	0.986500	0.848400	0.482800
N561	N56	0.945100	0.803000	0.586000
C2411	C241	0.113500	0.641400	0.594000
C2421	C242	0.084400	0.679200	0.594300
C2431	C243	0.059500	0.682800	0.555400
C2441	C244	0.037400	0.724800	0.554400
C2451	C245	0.086500	0.679500	0.516000
C2461	C246	0.977300	0.575600	0.654300
C2471	C247	0.002100	0.536900	0.640300
C2481	C248	0.980900	0.506000	0.612500
C2491	C249	0.010000	0.469500	0.608300
C2501	C250	0.939200	0.493700	0.631200
C2511	C251	0.927600	0.742500	0.495500
C2521	C252	0.905000	0.730600	0.454900
C2531	C253	0.928000	0.706000	0.423000
C2541	C254	0.899200	0.702700	0.385000
C2551	C255	0.970500	0.724300	0.411300
C2561	C256	0.790400	0.675900	0.552800
C2571	C257	0.822000	0.673300	0.588800
C2581	C258	0.847300	0.634500	0.595000
C2591	C259	0.870100	0.632800	0.636300
C2601	C260	0.821800	0.595000	0.591200
C2611	C261	0.748300	0.994700	0.535500
C2621	C262	0.759400	0.948700	0.530200
C2631	C263	0.799700	0.938900	0.509200
C2641	C264	0.802100	0.892500	0.502400
C2651	C265	0.802300	0.962600	0.468300
C2661	C266	0.835800	0.954900	0.668000
C2671	C267	0.835300	0.003000	0.672000
C2681	C268	0.877300	0.023200	0.674100
C2691	C269	0.907200	0.006500	0.705800
C2701	C270	0.868900	0.069600	0.681500
C2711	C271	0.911300	0.845500	0.472200
C2721	C272	0.952800	0.856000	0.452300
C2731	C273	0.955700	0.898200	0.431600
C2741	C274	0.916900	0.910100	0.405400
C2751	C275	0.996100	0.901700	0.406400
C2761	C276	0.019200	0.817700	0.596700
C2771	C277	0.975900	0.818700	0.616800
C2781	C278	0.963600	0.861100	0.631000
C2791	C279	0.925200	0.858300	0.658200
C2801	C280	0.998100	0.881000	0.656900
Au291	Au29	0.478350	0.847970	0.503430
Au301	Au30	0.428690	0.918750	0.437700
Au311	Au31	0.400310	0.555540	0.493870
Au321	Au32	0.425450	0.543970	0.389570
Ag431	Ag43	0.451900	0.832640	0.417770
Ag441	Ag44	0.523950	0.922040	0.490510
Ag451	Ag45	0.383260	0.904300	0.512320
Ag461	Ag46	0.373010	0.609630	0.425850
Ag471	Ag47	0.373720	0.476260	0.462370
Ag481	Ag48	0.496380	0.557010	0.442060
Cu291	Cu29	0.550670	0.889510	0.366800
Cu301	Cu30	0.354830	0.782450	0.474680
Cu311	Cu31	0.280050	0.526640	0.390720
Cu321	Cu32	0.465310	0.677440	0.468760
Cl81	Cl8	0.450100	0.782400	0.364200
S571	S57	0.519640	0.858360	0.447090
S581	S58	0.434660	0.846730	0.557930
S591	S59	0.386190	0.863260	0.446590
S601	S60	0.474000	0.972240	0.438620
S611	S61	0.341360	0.545750	0.456950
S621	S62	0.461120	0.562460	0.527560
S631	S63	0.448700	0.606650	0.412060
S641	S64	0.403020	0.478610	0.377980
O1271	O127	0.601000	0.891800	0.391900
O1281	O128	0.648400	0.852300	0.423700
O1291	O129	0.494600	0.889900	0.347500
O1301	O130	0.442500	0.928800	0.329000
O1311	O131	0.409200	0.765800	0.471000
O1321	O132	0.461900	0.738100	0.508600
O1331	O133	0.302100	0.809600	0.481200
O1341	O134	0.257000	0.843800	0.440800
O1351	O135	0.255800	0.488700	0.430400
O1361	O136	0.233700	0.487500	0.495600
O1371	O137	0.313500	0.562000	0.358600
O1381	O138	0.356500	0.565000	0.306200
O1391	O139	0.412200	0.663300	0.490800
O1401	O140	0.380600	0.656400	0.552000
O1411	O141	0.518700	0.679600	0.442100
O1421	O142	0.550600	0.685800	0.381500
O1431	O143	0.354300	0.676800	0.409900
O1441	O144	0.225400	0.525100	0.346600
N571	N57	0.557000	0.829600	0.370400
N581	N58	0.542600	0.949100	0.376200
N591	N59	0.364000	0.788000	0.533500
N601	N60	0.346800	0.788400	0.413900
N611	N61	0.257600	0.569200	0.427500
N621	N62	0.308900	0.482800	0.363500
N631	N63	0.486500	0.651600	0.517200
N641	N64	0.445100	0.697000	0.414000
C2811	C281	0.613500	0.858600	0.406000
C2821	C282	0.584400	0.820800	0.405700
C2831	C283	0.559500	0.817200	0.444600
C2841	C284	0.537400	0.775200	0.445600
C2851	C285	0.586500	0.820500	0.484000
C2861	C286	0.477300	0.924400	0.345700
C2871	C287	0.502100	0.963100	0.359700
C2881	C288	0.480900	0.994000	0.387500
C2891	C289	0.510000	0.030500	0.391700
C2901	C290	0.439200	0.006300	0.368800
C2911	C291	0.427600	0.757500	0.504500
C2921	C292	0.405000	0.769400	0.545100
C2931	C293	0.428000	0.794000	0.577000
C2941	C294	0.399200	0.797300	0.615000
C2951	C295	0.470500	0.775700	0.588700
C2961	C296	0.290400	0.824100	0.447200
C2971	C297	0.322000	0.826700	0.411200
C2981	C298	0.347300	0.865500	0.405000
C2991	C299	0.370100	0.867200	0.363700
C3001	C300	0.321800	0.905000	0.408800
C3011	C301	0.248300	0.505300	0.464500
C3021	C302	0.259400	0.551300	0.469800
C3031	C303	0.299700	0.561100	0.490800
C3041	C304	0.302100	0.607500	0.497600
C3051	C305	0.302300	0.537400	0.531700
C3061	C306	0.335800	0.545100	0.332000
C3071	C307	0.335300	0.497000	0.328000
C3081	C308	0.377300	0.476800	0.325900
C3091	C309	0.407200	0.493500	0.294200
C3101	C310	0.368900	0.430400	0.318500
C3111	C311	0.411300	0.654500	0.527800
C3121	C312	0.452800	0.644000	0.547700
C3131	C313	0.455700	0.601800	0.568400
C3141	C314	0.416900	0.589900	0.594600
C3151	C315	0.496100	0.598300	0.593600
C3161	C316	0.519200	0.682300	0.403300
C3171	C317	0.475900	0.681300	0.383200
C3181	C318	0.463600	0.638900	0.369000
C3191	C319	0.425200	0.641700	0.341800
C3201	C320	0.498100	0.619000	0.343100
Au331	Au33	0.996570	0.521650	0.347970
Au341	Au34	0.062300	0.571310	0.418750
Au351	Au35	0.006130	0.599690	0.055540
Au361	Au36	0.110430	0.574550	0.043970
Ag491	Ag49	0.082230	0.548100	0.332640
Ag501	Ag50	0.009490	0.476050	0.422040
Ag511	Ag51	0.987680	0.616740	0.404300
Ag521	Ag52	0.074150	0.626990	0.109630
Ag531	Ag53	0.037630	0.626280	0.976260
Ag541	Ag54	0.057940	0.503620	0.057010
Cu331	Cu33	0.133200	0.449330	0.389510
Cu341	Cu34	0.025320	0.645170	0.282450
Cu351	Cu35	0.109280	0.719950	0.026640
Cu361	Cu36	0.031240	0.534690	0.177440
Cl91	Cl9	0.135800	0.549900	0.282400
S651	S65	0.052910	0.480360	0.358360
S661	S66	0.942070	0.565340	0.346730
S671	S67	0.053410	0.613810	0.363260
S681	S68	0.061380	0.526000	0.472240
S691	S69	0.043050	0.658640	0.045750
S701	S70	0.972440	0.538880	0.062460
S711	S71	0.087940	0.551300	0.106650
S721	S72	0.122020	0.596980	0.978610
O1451	O145	0.108100	0.399000	0.391800
O1461	O146	0.076300	0.351600	0.352300
O1471	O147	0.152500	0.505400	0.389900
O1481	O148	0.171000	0.557500	0.428800
O1491	O149	0.029000	0.590800	0.265800
O1501	O150	0.991400	0.538100	0.238100
O1511	O151	0.018800	0.697900	0.309600
O1521	O152	0.059200	0.743000	0.343800
O1531	O153	0.069600	0.744200	0.988700
O1541	O154	0.004400	0.766300	0.987500
O1551	O155	0.141400	0.686500	0.062000
O1561	O156	0.193800	0.643500	0.065000
O1571	O157	0.009200	0.587800	0.163300
O1581	O158	0.948000	0.619400	0.156400
O1591	O159	0.057900	0.481300	0.179600
O1601	O160	0.118500	0.449400	0.185800
O1611	O161	0.090100	0.645700	0.176800
O1621	O162	0.153400	0.774600	0.025100
N651	N65	0.129600	0.443000	0.329600
N661	N66	0.123800	0.457400	0.449100
N671	N67	0.966500	0.636000	0.288000
N681	N68	0.086100	0.653200	0.288400
N691	N69	0.072500	0.742400	0.069200
N701	N70	0.136500	0.691100	0.982800
N711	N71	0.982800	0.513500	0.151600
N721	N72	0.086000	0.554900	0.197000
C3211	C321	0.094000	0.386500	0.358600
C3221	C322	0.094300	0.415600	0.320800
C3231	C323	0.055400	0.440500	0.317200
C3241	C324	0.054400	0.462600	0.275200
C3251	C325	0.016000	0.413500	0.320500
C3261	C326	0.154300	0.522700	0.424400
C3271	C327	0.140300	0.497900	0.463100
C3281	C328	0.112500	0.519100	0.494000
C3291	C329	0.108300	0.490000	0.530500
C3301	C330	0.131200	0.560800	0.506300
C3311	C331	0.995500	0.572400	0.257500
C3321	C332	0.954900	0.595000	0.269400
C3331	C333	0.923000	0.572000	0.294000
C3341	C334	0.885000	0.600800	0.297300
C3351	C335	0.911300	0.529500	0.275700
C3361	C336	0.052800	0.709600	0.324100
C3371	C337	0.088800	0.678000	0.326700
C3381	C338	0.095000	0.652700	0.365500
C3391	C339	0.136300	0.629900	0.367200
C3401	C340	0.091200	0.678200	0.405000
C3411	C341	0.035500	0.751700	0.005300
C3421	C342	0.030200	0.740600	0.051300
C3431	C343	0.009200	0.700300	0.061100
C3441	C344	0.002400	0.697900	0.107500
C3451	C345	0.968300	0.697700	0.037400
C3461	C346	0.168000	0.664200	0.045100
C3471	C347	0.172000	0.664700	0.997000
C3481	C348	0.174100	0.622700	0.976800
C3491	C349	0.205800	0.592800	0.993500
C3501	C350	0.181500	0.631100	0.930400
C3511	C351	0.972200	0.588700	0.154500
C3521	C352	0.952300	0.547200	0.144000
C3531	C353	0.931600	0.544300	0.101800
C3541	C354	0.905400	0.583100	0.089900
C3551	C355	0.906400	0.503900	0.098300
C3561	C356	0.096700	0.480800	0.182300
C3571	C357	0.116800	0.524100	0.181300
C3581	C358	0.131000	0.536400	0.138900
C3591	C359	0.158200	0.574800	0.141700
C3601	C360	0.156900	0.501900	0.119000
Au371	Au37	0.003430	0.021650	0.152030
Au381	Au38	0.937700	0.071310	0.081250
Au391	Au39	0.993870	0.099690	0.444460
Au401	Au40	0.889570	0.074550	0.456030
Ag551	Ag55	0.917770	0.048100	0.167360
Ag561	Ag56	0.990510	0.976050	0.077960
Ag571	Ag57	0.012320	0.116740	0.095700
Ag581	Ag58	0.925850	0.126990	0.390370
Ag591	Ag59	0.962370	0.126280	0.523740
Ag601	Ag60	0.942060	0.003620	0.442990
Cu371	Cu37	0.866800	0.949330	0.110490
Cu381	Cu38	0.974680	0.145170	0.217550
Cu391	Cu39	0.890720	0.219950	0.473360
Cu401	Cu40	0.968760	0.034690	0.322560
Cl101	Cl10	0.864200	0.049900	0.217600
S731	S73	0.947090	0.980360	0.141640
S741	S74	0.057930	0.065340	0.153270
S751	S75	0.946590	0.113810	0.136740
S761	S76	0.938620	0.026000	0.027760
S771	S77	0.956950	0.158640	0.454250
S781	S78	0.027560	0.038880	0.437540
S791	S79	0.912060	0.051300	0.393350
S801	S80	0.877980	0.096980	0.521390
O1631	O163	0.891900	0.899000	0.108200
O1641	O164	0.923700	0.851600	0.147700
O1651	O165	0.847500	0.005400	0.110100
O1661	O166	0.829000	0.057500	0.071200
O1671	O167	0.971000	0.090800	0.234200
O1681	O168	0.008600	0.038100	0.261900
O1691	O169	0.981200	0.197900	0.190400
O1701	O170	0.940800	0.243000	0.156200
O1711	O171	0.930400	0.244200	0.511300
O1721	O172	0.995600	0.266300	0.512500
O1731	O173	0.858600	0.186500	0.438000
O1741	O174	0.806200	0.143500	0.435000
O1751	O175	0.990800	0.087800	0.336700
O1761	O176	0.052000	0.119400	0.343600
O1771	O177	0.942100	0.981300	0.320400
O1781	O178	0.881500	0.949400	0.314200
O1791	O179	0.909900	0.145700	0.323200
O1801	O180	0.846600	0.274600	0.474900
N731	N73	0.870400	0.943000	0.170400
N741	N74	0.876200	0.957400	0.050900
N751	N75	0.033500	0.136000	0.212000
N761	N76	0.913900	0.153200	0.211600
N771	N77	0.927500	0.242400	0.430800
N781	N78	0.863500	0.191100	0.517200
N791	N79	0.017200	0.013500	0.348400
N801	N80	0.914000	0.054900	0.303000
C3611	C361	0.906000	0.886500	0.141400
C3621	C362	0.905700	0.915600	0.179200
C3631	C363	0.944600	0.940500	0.182800
C3641	C364	0.945600	0.962600	0.224800
C3651	C365	0.984000	0.913500	0.179500
C3661	C366	0.845700	0.022700	0.075600
C3671	C367	0.859700	0.997900	0.036900
C3681	C368	0.887500	0.019100	0.006000
C3691	C369	0.891700	0.990000	0.969500
C3701	C370	0.868800	0.060800	0.993700
C3711	C371	0.004500	0.072400	0.242500
C3721	C372	0.045100	0.095000	0.230600
C3731	C373	0.077000	0.072000	0.206000
C3741	C374	0.115000	0.100800	0.202700
C3751	C375	0.088700	0.029500	0.224300
C3761	C376	0.947200	0.209600	0.175900
C3771	C377	0.911200	0.178000	0.173300
C3781	C378	0.905000	0.152700	0.134500
C3791	C379	0.863700	0.129900	0.132800
C3801	C380	0.908800	0.178200	0.095000
C3811	C381	0.964500	0.251700	0.494700
C3821	C382	0.969800	0.240600	0.448700
C3831	C383	0.990800	0.200300	0.438900
C3841	C384	0.997600	0.197900	0.392500
C3851	C385	0.031700	0.197700	0.462600
C3861	C386	0.832000	0.164200	0.454900
C3871	C387	0.828000	0.164700	0.503000
C3881	C388	0.825900	0.122700	0.523200
C3891	C389	0.794200	0.092800	0.506500
C3901	C390	0.818500	0.131100	0.569600
C3911	C391	0.027800	0.088700	0.345500
C3921	C392	0.047700	0.047200	0.356000
C3931	C393	0.068400	0.044300	0.398200
C3941	C394	0.094600	0.083100	0.410100
C3951	C395	0.093600	0.003900	0.401700
C3961	C396	0.903300	0.980800	0.317700
C3971	C397	0.883200	0.024100	0.318700
C3981	C398	0.869000	0.036400	0.361100
C3991	C399	0.841800	0.074800	0.358300
C4001	C400	0.843100	0.001900	0.381000
Au411	Au41	0.496570	0.978350	0.652030
Au421	Au42	0.562300	0.928690	0.581250
Au431	Au43	0.506130	0.900310	0.944460
Au441	Au44	0.610430	0.925450	0.956030
Ag611	Ag61	0.582230	0.951900	0.667360
Ag621	Ag62	0.509490	0.023950	0.577960
Ag631	Ag63	0.487680	0.883260	0.595700
Ag641	Ag64	0.574150	0.873010	0.890370
Ag651	Ag65	0.537630	0.873720	0.023740
Ag661	Ag66	0.557940	0.996380	0.942990
Cu411	Cu41	0.633200	0.050670	0.610490
Cu421	Cu42	0.525320	0.854830	0.717550
Cu431	Cu43	0.609280	0.780050	0.973360
Cu441	Cu44	0.531240	0.965310	0.822560
Cl111	Cl11	0.635800	0.950100	0.717600
S811	S81	0.552910	0.019640	0.641640
S821	S82	0.442070	0.934660	0.653270
S831	S83	0.553410	0.886190	0.636740
S841	S84	0.561380	0.974000	0.527760
S851	S85	0.543050	0.841360	0.954250
S861	S86	0.472440	0.961120	0.937540
S871	S87	0.587940	0.948700	0.893350
S881	S88	0.622020	0.903020	0.021390
O1811	O181	0.608100	0.101000	0.608200
O1821	O182	0.576300	0.148400	0.647700
O1831	O183	0.652500	0.994600	0.610100
O1841	O184	0.671000	0.942500	0.571200
O1851	O185	0.529000	0.909200	0.734200
O1861	O186	0.491400	0.961900	0.761900
O1871	O187	0.518800	0.802100	0.690400
O1881	O188	0.559200	0.757000	0.656200
O1891	O189	0.569600	0.755800	0.011300
O1901	O190	0.504400	0.733700	0.012500
O1911	O191	0.641400	0.813500	0.938000
O1921	O192	0.693800	0.856500	0.935000
O1931	O193	0.509200	0.912200	0.836700
O1941	O194	0.448000	0.880600	0.843600
O1951	O195	0.557900	0.018700	0.820400
O1961	O196	0.618500	0.050600	0.814200
O1971	O197	0.590100	0.854300	0.823200
O1981	O198	0.653400	0.725400	0.974900
N811	N81	0.629600	0.057000	0.670400
N821	N82	0.623800	0.042600	0.550900
N831	N83	0.466500	0.864000	0.712000
N841	N84	0.586100	0.846800	0.711600
N851	N85	0.572500	0.757600	0.930800
N861	N86	0.636500	0.808900	0.017200
N871	N87	0.482800	0.986500	0.848400
N881	N88	0.586000	0.945100	0.803000
C4011	C401	0.594000	0.113500	0.641400
C4021	C402	0.594300	0.084400	0.679200
C4031	C403	0.555400	0.059500	0.682800
C4041	C404	0.554400	0.037400	0.724800
C4051	C405	0.516000	0.086500	0.679500
C4061	C406	0.654300	0.977300	0.575600
C4071	C407	0.640300	0.002100	0.536900
C4081	C408	0.612500	0.980900	0.506000
C4091	C409	0.608300	0.010000	0.469500
C4101	C410	0.631200	0.939200	0.493700
C4111	C411	0.495500	0.927600	0.742500
C4121	C412	0.454900	0.905000	0.730600
C4131	C413	0.423000	0.928000	0.706000
C4141	C414	0.385000	0.899200	0.702700
C4151	C415	0.411300	0.970500	0.724300
C4161	C416	0.552800	0.790400	0.675900
C4171	C417	0.588800	0.822000	0.673300
C4181	C418	0.595000	0.847300	0.634500
C4191	C419	0.636300	0.870100	0.632800
C4201	C420	0.591200	0.821800	0.595000
C4211	C421	0.535500	0.748300	0.994700
C4221	C422	0.530200	0.759400	0.948700
C4231	C423	0.509200	0.799700	0.938900
C4241	C424	0.502400	0.802100	0.892500
C4251	C425	0.468300	0.802300	0.962600
C4261	C426	0.668000	0.835800	0.954900
C4271	C427	0.672000	0.835300	0.003000
C4281	C428	0.674100	0.877300	0.023200
C4291	C429	0.705800	0.907200	0.006500
C4301	C430	0.681500	0.868900	0.069600
C4311	C431	0.472200	0.911300	0.845500
C4321	C432	0.452300	0.952800	0.856000
C4331	C433	0.431600	0.955700	0.898200
C4341	C434	0.405400	0.916900	0.910100
C4351	C435	0.406400	0.996100	0.901700
C4361	C436	0.596700	0.019200	0.817700
C4371	C437	0.616800	0.975900	0.818700
C4381	C438	0.631000	0.963600	0.861100
C4391	C439	0.658200	0.925200	0.858300
C4401	C440	0.656900	0.998100	0.881000
Au451	Au45	0.503430	0.478350	0.847970
Au461	Au46	0.437700	0.428690	0.918750
Au471	Au47	0.493870	0.400310	0.555540
Au481	Au48	0.389570	0.425450	0.543970
Ag671	Ag67	0.417770	0.451900	0.832640
Ag681	Ag68	0.490510	0.523950	0.922040
Ag691	Ag69	0.512320	0.383260	0.904300
Ag701	Ag70	0.425850	0.373010	0.609630
Ag711	Ag71	0.462370	0.373720	0.476260
Ag721	Ag72	0.442060	0.496380	0.557010
Cu451	Cu45	0.366800	0.550670	0.889510
Cu461	Cu46	0.474680	0.354830	0.782450
Cu471	Cu47	0.390720	0.280050	0.526640
Cu481	Cu48	0.468760	0.465310	0.677440
Cl121	Cl12	0.364200	0.450100	0.782400
S891	S89	0.447090	0.519640	0.858360
S901	S90	0.557930	0.434660	0.846730
S911	S91	0.446590	0.386190	0.863260
S921	S92	0.438620	0.474000	0.972240
S931	S93	0.456950	0.341360	0.545750
S941	S94	0.527560	0.461120	0.562460
S951	S95	0.412060	0.448700	0.606650
S961	S96	0.377980	0.403020	0.478610
O1991	O199	0.391900	0.601000	0.891800
O2001	O200	0.423700	0.648400	0.852300
O2011	O201	0.347500	0.494600	0.889900
O2021	O202	0.329000	0.442500	0.928800
O2031	O203	0.471000	0.409200	0.765800
O2041	O204	0.508600	0.461900	0.738100
O2051	O205	0.481200	0.302100	0.809600
O2061	O206	0.440800	0.257000	0.843800
O2071	O207	0.430400	0.255800	0.488700
O2081	O208	0.495600	0.233700	0.487500
O2091	O209	0.358600	0.313500	0.562000
O2101	O210	0.306200	0.356500	0.565000
O2111	O211	0.490800	0.412200	0.663300
O2121	O212	0.552000	0.380600	0.656400
O2131	O213	0.442100	0.518700	0.679600
O2141	O214	0.381500	0.550600	0.685800
O2151	O215	0.409900	0.354300	0.676800
O2161	O216	0.346600	0.225400	0.525100
N891	N89	0.370400	0.557000	0.829600
N901	N90	0.376200	0.542600	0.949100
N911	N91	0.533500	0.364000	0.788000
N921	N92	0.413900	0.346800	0.788400
N931	N93	0.427500	0.257600	0.569200
N941	N94	0.363500	0.308900	0.482800
N951	N95	0.517200	0.486500	0.651600
N961	N96	0.414000	0.445100	0.697000
C4411	C441	0.406000	0.613500	0.858600
C4421	C442	0.405700	0.584400	0.820800
C4431	C443	0.444600	0.559500	0.817200
C4441	C444	0.445600	0.537400	0.775200
C4451	C445	0.484000	0.586500	0.820500
C4461	C446	0.345700	0.477300	0.924400
C4471	C447	0.359700	0.502100	0.963100
C4481	C448	0.387500	0.480900	0.994000
C4491	C449	0.391700	0.510000	0.030500
C4501	C450	0.368800	0.439200	0.006300
C4511	C451	0.504500	0.427600	0.757500
C4521	C452	0.545100	0.405000	0.769400
C4531	C453	0.577000	0.428000	0.794000
C4541	C454	0.615000	0.399200	0.797300
C4551	C455	0.588700	0.470500	0.775700
C4561	C456	0.447200	0.290400	0.824100
C4571	C457	0.411200	0.322000	0.826700
C4581	C458	0.405000	0.347300	0.865500
C4591	C459	0.363700	0.370100	0.867200
C4601	C460	0.408800	0.321800	0.905000
C4611	C461	0.464500	0.248300	0.505300
C4621	C462	0.469800	0.259400	0.551300
C4631	C463	0.490800	0.299700	0.561100
C4641	C464	0.497600	0.302100	0.607500
C4651	C465	0.531700	0.302300	0.537400
C4661	C466	0.332000	0.335800	0.545100
C4671	C467	0.328000	0.335300	0.497000
C4681	C468	0.325900	0.377300	0.476800
C4691	C469	0.294200	0.407200	0.493500
C4701	C470	0.318500	0.368900	0.430400
C4711	C471	0.527800	0.411300	0.654500
C4721	C472	0.547700	0.452800	0.644000
C4731	C473	0.568400	0.455700	0.601800
C4741	C474	0.594600	0.416900	0.589900
C4751	C475	0.593600	0.496100	0.598300
C4761	C476	0.403300	0.519200	0.682300
C4771	C477	0.383200	0.475900	0.681300
C4781	C478	0.369000	0.463600	0.638900
C4791	C479	0.341800	0.425200	0.641700
C4801	C480	0.343100	0.498100	0.619000
