data_FODZUU_freeONLY_PM
_symmetry_space_group_name_H-M	'P1'
_cell_length_a	8.488000
_cell_length_b	17.721000
_cell_length_c	9.024000
_cell_angle_alpha	90.000000
_cell_angle_beta	106.960000
_cell_angle_gamma	90.000000
_symmetry_Int_Tables_number 1

loop_
_symmetry_equiv_pos_as_xyz
'x,y,z'

loop_
_atom_site_label
_atom_site_type_symbol
_atom_site_fract_x
_atom_site_fract_y
_atom_site_fract_z
Al11	Al1	0.983260	0.176610	0.807770
Al21	Al2	0.927750	0.294470	0.207180
Al31	Al3	0.371400	0.392510	0.829610
P11	P1	0.204420	0.289970	0.024540
P21	P2	0.733640	0.169250	0.000120
P31	P3	0.157370	0.071380	0.637490
O11	O1	0.163100	0.223300	0.911100
O21	O2	0.239400	0.359080	0.942800
O31	O3	0.059800	0.306500	0.084600
O41	O4	0.357600	0.268900	0.157000
O51	O5	0.874100	0.147300	0.931700
O61	O6	0.569200	0.158800	0.879600
O71	O7	0.743400	0.114100	0.131700
O81	O8	0.753700	0.250380	0.056600
O91	O9	0.044400	0.094400	0.736600
O101	O10	0.065600	0.083700	0.468800
O111	O11	0.313000	0.118700	0.682900
O121	O12	0.208800	0.990730	0.670000
O131	O13	0.966100	0.203400	0.309900
H11	H1	0.062800	0.204500	0.372600
O141	O14	0.521500	0.440500	0.692100
H21	H2	0.508000	0.426000	0.592000
H31	H3	0.572000	0.467000	0.779000
Al41	Al4	0.516740	0.676610	0.692230
Al51	Al5	0.572250	0.794470	0.292820
Al61	Al6	0.128600	0.892510	0.670390
P41	P4	0.295580	0.789970	0.475460
P51	P5	0.766360	0.669250	0.499880
P61	P6	0.342630	0.571380	0.862510
O151	O15	0.336900	0.723300	0.588900
O161	O16	0.260600	0.859080	0.557200
O171	O17	0.440200	0.806500	0.415400
O181	O18	0.142400	0.768900	0.343000
O191	O19	0.625900	0.647300	0.568300
O201	O20	0.930800	0.658800	0.620400
O211	O21	0.756600	0.614100	0.368300
O221	O22	0.746300	0.750380	0.443400
O231	O23	0.455600	0.594400	0.763400
O241	O24	0.434400	0.583700	0.031200
O251	O25	0.187000	0.618700	0.817100
O261	O26	0.291200	0.490730	0.830000
O271	O27	0.533900	0.703400	0.190100
H41	H4	0.437200	0.704500	0.127400
O281	O28	0.978500	0.940500	0.807900
H51	H5	0.992000	0.926000	0.908000
H61	H6	0.928000	0.967000	0.721000
Al71	Al7	0.016740	0.823390	0.192230
Al81	Al8	0.072250	0.705530	0.792820
Al91	Al9	0.628600	0.607490	0.170390
P71	P7	0.795580	0.710030	0.975460
P81	P8	0.266360	0.830750	0.999880
P91	P9	0.842630	0.928620	0.362510
O291	O29	0.836900	0.776700	0.088900
O301	O30	0.760600	0.640920	0.057200
O311	O31	0.940200	0.693500	0.915400
O321	O32	0.642400	0.731100	0.843000
O331	O33	0.125900	0.852700	0.068300
O341	O34	0.430800	0.841200	0.120400
O351	O35	0.256600	0.885900	0.868300
O361	O36	0.246300	0.749620	0.943400
O371	O37	0.955600	0.905600	0.263400
O381	O38	0.934400	0.916300	0.531200
O391	O39	0.687000	0.881300	0.317100
O401	O40	0.791200	0.009270	0.330000
O411	O41	0.033900	0.796600	0.690100
H71	H7	0.937200	0.795500	0.627400
O421	O42	0.478500	0.559500	0.307900
H81	H8	0.492000	0.574000	0.408000
H91	H9	0.428000	0.533000	0.221000
Al101	Al10	0.483260	0.323390	0.307770
Al111	Al11	0.427750	0.205530	0.707180
Al121	Al12	0.871400	0.107490	0.329610
P101	P10	0.704420	0.210030	0.524540
P111	P11	0.233640	0.330750	0.500120
P121	P12	0.657370	0.428620	0.137490
O431	O43	0.663100	0.276700	0.411100
O441	O44	0.739400	0.140920	0.442800
O451	O45	0.559800	0.193500	0.584600
O461	O46	0.857600	0.231100	0.657000
O471	O47	0.374100	0.352700	0.431700
O481	O48	0.069200	0.341200	0.379600
O491	O49	0.243400	0.385900	0.631700
O501	O50	0.253700	0.249620	0.556600
O511	O51	0.544400	0.405600	0.236600
O521	O52	0.565600	0.416300	0.968800
O531	O53	0.813000	0.381300	0.182900
O541	O54	0.708800	0.509270	0.170000
O551	O55	0.466100	0.296600	0.809900
H101	H10	0.562800	0.295500	0.872600
O561	O56	0.021500	0.059500	0.192100
H111	H11	0.008000	0.074000	0.092000
H121	H12	0.072000	0.033000	0.279000
