data_FOFHUE_freeONLY_PM
_symmetry_space_group_name_H-M	'P1'
_cell_length_a	9.528600
_cell_length_b	10.145100
_cell_length_c	12.579600
_cell_angle_alpha	86.429000
_cell_angle_beta	69.606000
_cell_angle_gamma	62.338000
_symmetry_Int_Tables_number 1

loop_
_symmetry_equiv_pos_as_xyz
'x,y,z'

loop_
_atom_site_label
_atom_site_type_symbol
_atom_site_fract_x
_atom_site_fract_y
_atom_site_fract_z
Ga11	Ga1	0.866590	0.917900	0.163740
Ga21	Ga2	0.897010	0.853950	0.663210
Mn11	Mn1	0.746740	0.764260	0.434140
P11	P1	0.995580	0.842610	0.887240
P21	P2	0.888390	0.965370	0.415540
P31	P3	0.485600	0.013690	0.317560
O11	O1	0.883600	0.922500	0.007000
O21	O2	0.125000	0.897200	0.826100
O31	O3	0.881600	0.855800	0.822400
O41	O4	0.111400	0.669300	0.888900
O51	O5	0.044500	0.984700	0.359300
O61	O6	0.906100	0.851500	0.502400
O71	O7	0.843600	0.904700	0.329500
O81	O8	0.734900	0.122300	0.475800
O91	O9	0.623600	0.013600	0.208000
O101	O10	0.344100	0.020200	0.279700
O111	O11	0.423400	0.150400	0.399400
O121	O12	0.545700	0.868600	0.373100
O131	O13	0.852800	0.673300	0.675300
O141	O14	0.140100	0.684900	0.611600
O151	O15	0.116800	0.786300	0.126200
O161	O16	0.873500	0.714400	0.163200
O171	O17	0.289800	0.438200	0.557600
O181	O18	0.993800	0.424400	0.628500
O191	O19	0.062300	0.471700	0.110200
O201	O20	0.310200	0.546400	0.099500
C11	C1	0.021400	0.604500	0.130200
C21	C2	0.163900	0.646400	0.115900
C31	C3	0.985500	0.549000	0.636500
C41	C4	0.153700	0.556400	0.596900
H11	H1	0.639400	0.118800	0.517300
H21	H2	0.084700	0.602600	0.889100
Ga31	Ga3	0.133410	0.082100	0.836260
Ga41	Ga4	0.102990	0.146050	0.336790
Mn21	Mn2	0.253260	0.235740	0.565860
P41	P4	0.004420	0.157390	0.112760
P51	P5	0.111610	0.034630	0.584460
P61	P6	0.514400	0.986310	0.682440
O211	O21	0.116400	0.077500	0.993000
O221	O22	0.875000	0.102800	0.173900
O231	O23	0.118400	0.144200	0.177600
O241	O24	0.888600	0.330700	0.111100
O251	O25	0.955500	0.015300	0.640700
O261	O26	0.093900	0.148500	0.497600
O271	O27	0.156400	0.095300	0.670500
O281	O28	0.265100	0.877700	0.524200
O291	O29	0.376400	0.986400	0.792000
O301	O30	0.655900	0.979800	0.720300
O311	O31	0.576600	0.849600	0.600600
O321	O32	0.454300	0.131400	0.626900
O331	O33	0.147200	0.326700	0.324700
O341	O34	0.859900	0.315100	0.388400
O351	O35	0.883200	0.213700	0.873800
O361	O36	0.126500	0.285600	0.836800
O371	O37	0.710200	0.561800	0.442400
O381	O38	0.006200	0.575600	0.371500
O391	O39	0.937700	0.528300	0.889800
O401	O40	0.689800	0.453600	0.900500
C51	C5	0.978600	0.395500	0.869800
C61	C6	0.836100	0.353600	0.884100
C71	C7	0.014500	0.451000	0.363500
C81	C8	0.846300	0.443600	0.403100
H31	H3	0.360600	0.881200	0.482700
H41	H4	0.915300	0.397400	0.110900
