data_FONKEA_freeONLY_PM
_symmetry_space_group_name_H-M	'P1'
_cell_length_a	29.778000
_cell_length_b	6.675400
_cell_length_c	19.478200
_cell_angle_alpha	90.000000
_cell_angle_beta	113.623000
_cell_angle_gamma	90.000000
_symmetry_Int_Tables_number 1

loop_
_symmetry_equiv_pos_as_xyz
'x,y,z'

loop_
_atom_site_label
_atom_site_type_symbol
_atom_site_fract_x
_atom_site_fract_y
_atom_site_fract_z
Cd11	Cd1	0.103380	0.958540	0.353270
O11	O1	0.423630	0.877000	0.667800
C11	C1	0.400530	0.038900	0.646300
O21	O2	0.420710	0.203200	0.672200
C21	C2	0.348300	0.031100	0.591700
O31	O3	0.476950	0.130900	0.341000
O41	O4	0.477080	0.801500	0.341000
C31	C3	0.263100	0.034200	0.570400
H11	H1	0.238900	0.048100	0.588800
O51	O5	0.186290	0.949500	0.374600
C41	C4	0.250400	0.995600	0.495500
O61	O6	0.165060	0.000200	0.468500
C51	C5	0.286400	0.976800	0.468500
H21	H2	0.277600	0.952100	0.417800
C61	C6	0.335900	0.994000	0.515800
O71	O7	0.038630	0.966200	0.387700
H31	H3	0.041200	0.856100	0.420800
H41	H4	0.039000	0.090100	0.413000
C71	C7	0.197610	0.980200	0.442900
C81	C8	0.312200	0.052400	0.618500
H51	H5	0.320800	0.079100	0.669000
O81	O8	0.083100	0.948900	0.229800
H61	H6	0.104600	0.951000	0.207900
H71	H7	0.048200	0.941200	0.204000
C91	C9	0.373400	0.979500	0.483100
C101	C10	0.377600	0.808100	0.446000
H81	H8	0.358700	0.696300	0.444900
C111	C11	0.409700	0.801700	0.410700
H91	H9	0.412600	0.684600	0.386800
C121	C12	0.437600	0.966700	0.410400
C131	C13	0.433800	0.137900	0.447400
H101	H10	0.452100	0.250700	0.447000
C141	C14	0.403000	0.142700	0.485100
H111	H11	0.402200	0.256300	0.512200
C151	C15	0.466170	0.965700	0.362300
Cd21	Cd2	0.603380	0.458540	0.353270
O91	O9	0.923630	0.377000	0.667800
C161	C16	0.900530	0.538900	0.646300
O101	O10	0.920710	0.703200	0.672200
C171	C17	0.848300	0.531100	0.591700
O111	O11	0.976950	0.630900	0.341000
O121	O12	0.977080	0.301500	0.341000
C181	C18	0.763100	0.534200	0.570400
H121	H12	0.738900	0.548100	0.588800
O131	O13	0.686290	0.449500	0.374600
C191	C19	0.750400	0.495600	0.495500
O141	O14	0.665060	0.500200	0.468500
C201	C20	0.786400	0.476800	0.468500
H131	H13	0.777600	0.452100	0.417800
C211	C21	0.835900	0.494000	0.515800
O151	O15	0.538630	0.466200	0.387700
H141	H14	0.541200	0.356100	0.420800
H151	H15	0.539000	0.590100	0.413000
C221	C22	0.697610	0.480200	0.442900
C231	C23	0.812200	0.552400	0.618500
H161	H16	0.820800	0.579100	0.669000
O161	O16	0.583100	0.448900	0.229800
H171	H17	0.604600	0.451000	0.207900
H181	H18	0.548200	0.441200	0.204000
C241	C24	0.873400	0.479500	0.483100
C251	C25	0.877600	0.308100	0.446000
H191	H19	0.858700	0.196300	0.444900
C261	C26	0.909700	0.301700	0.410700
H201	H20	0.912600	0.184600	0.386800
C271	C27	0.937600	0.466700	0.410400
C281	C28	0.933800	0.637900	0.447400
H211	H21	0.952100	0.750700	0.447000
C291	C29	0.903000	0.642700	0.485100
H221	H22	0.902200	0.756300	0.512200
C301	C30	0.966170	0.465700	0.362300
Cd31	Cd3	0.896620	0.958540	0.146730
O171	O17	0.576370	0.877000	0.832200
C311	C31	0.599470	0.038900	0.853700
O181	O18	0.579290	0.203200	0.827800
C321	C32	0.651700	0.031100	0.908300
O191	O19	0.523050	0.130900	0.159000
O201	O20	0.522920	0.801500	0.159000
C331	C33	0.736900	0.034200	0.929600
H231	H23	0.761100	0.048100	0.911200
O211	O21	0.813710	0.949500	0.125400
C341	C34	0.749600	0.995600	0.004500
O221	O22	0.834940	0.000200	0.031500
C351	C35	0.713600	0.976800	0.031500
H241	H24	0.722400	0.952100	0.082200
C361	C36	0.664100	0.994000	0.984200
O231	O23	0.961370	0.966200	0.112300
H251	H25	0.958800	0.856100	0.079200
H261	H26	0.961000	0.090100	0.087000
C371	C37	0.802390	0.980200	0.057100
C381	C38	0.687800	0.052400	0.881500
H271	H27	0.679200	0.079100	0.831000
O241	O24	0.916900	0.948900	0.270200
H281	H28	0.895400	0.951000	0.292100
H291	H29	0.951800	0.941200	0.296000
C391	C39	0.626600	0.979500	0.016900
C401	C40	0.622400	0.808100	0.054000
H301	H30	0.641300	0.696300	0.055100
C411	C41	0.590300	0.801700	0.089300
H311	H31	0.587400	0.684600	0.113200
C421	C42	0.562400	0.966700	0.089600
C431	C43	0.566200	0.137900	0.052600
H321	H32	0.547900	0.250700	0.053000
C441	C44	0.597000	0.142700	0.014900
H331	H33	0.597800	0.256300	0.987800
C451	C45	0.533830	0.965700	0.137700
Cd41	Cd4	0.396620	0.458540	0.146730
O251	O25	0.076370	0.377000	0.832200
C461	C46	0.099470	0.538900	0.853700
O261	O26	0.079290	0.703200	0.827800
C471	C47	0.151700	0.531100	0.908300
O271	O27	0.023050	0.630900	0.159000
O281	O28	0.022920	0.301500	0.159000
C481	C48	0.236900	0.534200	0.929600
H341	H34	0.261100	0.548100	0.911200
O291	O29	0.313710	0.449500	0.125400
C491	C49	0.249600	0.495600	0.004500
O301	O30	0.334940	0.500200	0.031500
C501	C50	0.213600	0.476800	0.031500
H351	H35	0.222400	0.452100	0.082200
C511	C51	0.164100	0.494000	0.984200
O311	O31	0.461370	0.466200	0.112300
H361	H36	0.458800	0.356100	0.079200
H371	H37	0.461000	0.590100	0.087000
C521	C52	0.302390	0.480200	0.057100
C531	C53	0.187800	0.552400	0.881500
H381	H38	0.179200	0.579100	0.831000
O321	O32	0.416900	0.448900	0.270200
H391	H39	0.395400	0.451000	0.292100
H401	H40	0.451800	0.441200	0.296000
C541	C54	0.126600	0.479500	0.016900
C551	C55	0.122400	0.308100	0.054000
H411	H41	0.141300	0.196300	0.055100
C561	C56	0.090300	0.301700	0.089300
H421	H42	0.087400	0.184600	0.113200
C571	C57	0.062400	0.466700	0.089600
C581	C58	0.066200	0.637900	0.052600
H431	H43	0.047900	0.750700	0.053000
C591	C59	0.097000	0.642700	0.014900
H441	H44	0.097800	0.756300	0.987800
C601	C60	0.033830	0.465700	0.137700
Cd51	Cd5	0.896620	0.041460	0.646730
O331	O33	0.576370	0.123000	0.332200
C611	C61	0.599470	0.961100	0.353700
O341	O34	0.579290	0.796800	0.327800
C621	C62	0.651700	0.968900	0.408300
O351	O35	0.523050	0.869100	0.659000
O361	O36	0.522920	0.198500	0.659000
C631	C63	0.736900	0.965800	0.429600
H451	H45	0.761100	0.951900	0.411200
O371	O37	0.813710	0.050500	0.625400
C641	C64	0.749600	0.004400	0.504500
O381	O38	0.834940	0.999800	0.531500
C651	C65	0.713600	0.023200	0.531500
H461	H46	0.722400	0.047900	0.582200
C661	C66	0.664100	0.006000	0.484200
O391	O39	0.961370	0.033800	0.612300
H471	H47	0.958800	0.143900	0.579200
H481	H48	0.961000	0.909900	0.587000
C671	C67	0.802390	0.019800	0.557100
C681	C68	0.687800	0.947600	0.381500
H491	H49	0.679200	0.920900	0.331000
O401	O40	0.916900	0.051100	0.770200
H501	H50	0.895400	0.049000	0.792100
H511	H51	0.951800	0.058800	0.796000
C691	C69	0.626600	0.020500	0.516900
C701	C70	0.622400	0.191900	0.554000
H521	H52	0.641300	0.303700	0.555100
C711	C71	0.590300	0.198300	0.589300
H531	H53	0.587400	0.315400	0.613200
C721	C72	0.562400	0.033300	0.589600
C731	C73	0.566200	0.862100	0.552600
H541	H54	0.547900	0.749300	0.553000
C741	C74	0.597000	0.857300	0.514900
H551	H55	0.597800	0.743700	0.487800
C751	C75	0.533830	0.034300	0.637700
Cd61	Cd6	0.396620	0.541460	0.646730
O411	O41	0.076370	0.623000	0.332200
C761	C76	0.099470	0.461100	0.353700
O421	O42	0.079290	0.296800	0.327800
C771	C77	0.151700	0.468900	0.408300
O431	O43	0.023050	0.369100	0.659000
O441	O44	0.022920	0.698500	0.659000
C781	C78	0.236900	0.465800	0.429600
H561	H56	0.261100	0.451900	0.411200
O451	O45	0.313710	0.550500	0.625400
C791	C79	0.249600	0.504400	0.504500
O461	O46	0.334940	0.499800	0.531500
C801	C80	0.213600	0.523200	0.531500
H571	H57	0.222400	0.547900	0.582200
C811	C81	0.164100	0.506000	0.484200
O471	O47	0.461370	0.533800	0.612300
H581	H58	0.458800	0.643900	0.579200
H591	H59	0.461000	0.409900	0.587000
C821	C82	0.302390	0.519800	0.557100
C831	C83	0.187800	0.447600	0.381500
H601	H60	0.179200	0.420900	0.331000
O481	O48	0.416900	0.551100	0.770200
H611	H61	0.395400	0.549000	0.792100
H621	H62	0.451800	0.558800	0.796000
C841	C84	0.126600	0.520500	0.516900
C851	C85	0.122400	0.691900	0.554000
H631	H63	0.141300	0.803700	0.555100
C861	C86	0.090300	0.698300	0.589300
H641	H64	0.087400	0.815400	0.613200
C871	C87	0.062400	0.533300	0.589600
C881	C88	0.066200	0.362100	0.552600
H651	H65	0.047900	0.249300	0.553000
C891	C89	0.097000	0.357300	0.514900
H661	H66	0.097800	0.243700	0.487800
C901	C90	0.033830	0.534300	0.637700
Cd71	Cd7	0.103380	0.041460	0.853270
O491	O49	0.423630	0.123000	0.167800
C911	C91	0.400530	0.961100	0.146300
O501	O50	0.420710	0.796800	0.172200
C921	C92	0.348300	0.968900	0.091700
O511	O51	0.476950	0.869100	0.841000
O521	O52	0.477080	0.198500	0.841000
C931	C93	0.263100	0.965800	0.070400
H671	H67	0.238900	0.951900	0.088800
O531	O53	0.186290	0.050500	0.874600
C941	C94	0.250400	0.004400	0.995500
O541	O54	0.165060	0.999800	0.968500
C951	C95	0.286400	0.023200	0.968500
H681	H68	0.277600	0.047900	0.917800
C961	C96	0.335900	0.006000	0.015800
O551	O55	0.038630	0.033800	0.887700
H691	H69	0.041200	0.143900	0.920800
H701	H70	0.039000	0.909900	0.913000
C971	C97	0.197610	0.019800	0.942900
C981	C98	0.312200	0.947600	0.118500
H711	H71	0.320800	0.920900	0.169000
O561	O56	0.083100	0.051100	0.729800
H721	H72	0.104600	0.049000	0.707900
H731	H73	0.048200	0.058800	0.704000
C991	C99	0.373400	0.020500	0.983100
C1001	C100	0.377600	0.191900	0.946000
H741	H74	0.358700	0.303700	0.944900
C1011	C101	0.409700	0.198300	0.910700
H751	H75	0.412600	0.315400	0.886800
C1021	C102	0.437600	0.033300	0.910400
C1031	C103	0.433800	0.862100	0.947400
H761	H76	0.452100	0.749300	0.947000
C1041	C104	0.403000	0.857300	0.985100
H771	H77	0.402200	0.743700	0.012200
C1051	C105	0.466170	0.034300	0.862300
Cd81	Cd8	0.603380	0.541460	0.853270
O571	O57	0.923630	0.623000	0.167800
C1061	C106	0.900530	0.461100	0.146300
O581	O58	0.920710	0.296800	0.172200
C1071	C107	0.848300	0.468900	0.091700
O591	O59	0.976950	0.369100	0.841000
O601	O60	0.977080	0.698500	0.841000
C1081	C108	0.763100	0.465800	0.070400
H781	H78	0.738900	0.451900	0.088800
O611	O61	0.686290	0.550500	0.874600
C1091	C109	0.750400	0.504400	0.995500
O621	O62	0.665060	0.499800	0.968500
C1101	C110	0.786400	0.523200	0.968500
H791	H79	0.777600	0.547900	0.917800
C1111	C111	0.835900	0.506000	0.015800
O631	O63	0.538630	0.533800	0.887700
H801	H80	0.541200	0.643900	0.920800
H811	H81	0.539000	0.409900	0.913000
C1121	C112	0.697610	0.519800	0.942900
C1131	C113	0.812200	0.447600	0.118500
H821	H82	0.820800	0.420900	0.169000
O641	O64	0.583100	0.551100	0.729800
H831	H83	0.604600	0.549000	0.707900
H841	H84	0.548200	0.558800	0.704000
C1141	C114	0.873400	0.520500	0.983100
C1151	C115	0.877600	0.691900	0.946000
H851	H85	0.858700	0.803700	0.944900
C1161	C116	0.909700	0.698300	0.910700
H861	H86	0.912600	0.815400	0.886800
C1171	C117	0.937600	0.533300	0.910400
C1181	C118	0.933800	0.362100	0.947400
H871	H87	0.952100	0.249300	0.947000
C1191	C119	0.903000	0.357300	0.985100
H881	H88	0.902200	0.243700	0.012200
C1201	C120	0.966170	0.534300	0.862300
Cd91	Cd9	0.500000	0.962230	0.250000
Cd101	Cd10	0.000000	0.462230	0.250000
Cd111	Cd11	0.500000	0.037770	0.750000
Cd121	Cd12	0.000000	0.537770	0.750000
