data_FONPUV_freeONLY_PM
_symmetry_space_group_name_H-M	'P1'
_cell_length_a	6.571600
_cell_length_b	20.219300
_cell_length_c	27.935000
_cell_angle_alpha	90.000000
_cell_angle_beta	90.000000
_cell_angle_gamma	90.000000
_symmetry_Int_Tables_number 1

loop_
_symmetry_equiv_pos_as_xyz
'x,y,z'

loop_
_atom_site_label
_atom_site_type_symbol
_atom_site_fract_x
_atom_site_fract_y
_atom_site_fract_z
Zn11	Zn1	0.514030	0.778680	0.832250
Zn21	Zn2	0.189650	0.876690	0.871490
Zn31	Zn3	0.310350	0.376690	0.128510
Zn41	Zn4	0.310350	0.876690	0.371490
Zn51	Zn5	0.985970	0.778680	0.332250
Zn61	Zn6	0.689650	0.623310	0.871490
Zn71	Zn7	0.189650	0.376690	0.628510
Zn81	Zn8	0.689650	0.123310	0.628510
Zn91	Zn9	0.485970	0.721320	0.332250
Zn101	Zn10	0.485970	0.221320	0.167750
Zn111	Zn11	0.514030	0.278680	0.667750
Zn121	Zn12	0.810350	0.123310	0.128510
Zn131	Zn13	0.014030	0.721320	0.832250
Zn141	Zn14	0.014030	0.221320	0.667750
Zn151	Zn15	0.985970	0.278680	0.167750
Zn161	Zn16	0.810350	0.623310	0.371490
H11	H1	0.286400	0.256300	0.608400
H21	H2	0.465100	0.005500	0.159100
H31	H3	0.826300	0.372000	0.020000
H41	H4	0.034900	0.005500	0.659100
H51	H5	0.795900	0.288200	0.727300
H61	H6	0.034900	0.505500	0.840900
H71	H7	0.204100	0.211800	0.227300
H81	H8	0.926900	0.536700	0.236400
H91	H9	0.673700	0.372000	0.520000
H101	H10	0.426900	0.963300	0.236400
H111	H11	0.201500	0.052800	0.457900
H121	H12	0.320100	0.908100	0.550500
H131	H13	0.926900	0.036700	0.263600
H141	H14	0.786400	0.743700	0.891600
H151	H15	0.298500	0.552800	0.542100
H161	H16	0.947900	0.837300	0.797400
H171	H17	0.889100	0.885200	0.198400
H181	H18	0.295900	0.711800	0.772700
H191	H19	0.704100	0.788200	0.272700
H201	H20	0.110900	0.614800	0.698400
H211	H21	0.201500	0.552800	0.042100
H221	H22	0.889100	0.385200	0.301600
H231	H23	0.704100	0.288200	0.227300
H241	H24	0.820100	0.591900	0.550500
H251	H25	0.389100	0.614800	0.198400
H261	H26	0.701500	0.447200	0.457900
H271	H27	0.447900	0.662700	0.797400
H281	H28	0.713600	0.743700	0.391600
H291	H29	0.072000	0.073000	0.877800
H301	H30	0.534900	0.994500	0.840900
H311	H31	0.786400	0.243700	0.608400
H321	H32	0.679900	0.091900	0.449500
H331	H33	0.795900	0.788200	0.772700
H341	H34	0.204100	0.711800	0.272700
H351	H35	0.179900	0.908100	0.050500
H361	H36	0.673700	0.872000	0.980000
H371	H37	0.426900	0.463300	0.263600
H381	H38	0.572000	0.927000	0.622200
H391	H39	0.713600	0.243700	0.108400
H401	H40	0.110900	0.114800	0.801600
H411	H41	0.534900	0.494500	0.659100
H421	H42	0.173700	0.628000	0.980000
H431	H43	0.326300	0.628000	0.480000
H441	H44	0.073100	0.463300	0.763600
H451	H45	0.928000	0.427000	0.377800
H461	H46	0.052100	0.162700	0.202600
H471	H47	0.965100	0.994500	0.340900
H481	H48	0.389100	0.114800	0.301600
H491	H49	0.447900	0.162700	0.702600
H501	H50	0.826300	0.872000	0.480000
H511	H51	0.610900	0.885200	0.698400
H521	H52	0.552100	0.337300	0.202600
H531	H53	0.072000	0.573000	0.622200
H541	H54	0.798500	0.947200	0.542100
H551	H55	0.965100	0.494500	0.159100
H561	H56	0.573100	0.536700	0.736400
H571	H57	0.286400	0.756300	0.891600
H581	H58	0.173700	0.128000	0.520000
H591	H59	0.073100	0.963300	0.736400
H601	H60	0.052100	0.662700	0.297400
H611	H61	0.465100	0.505500	0.340900
H621	H62	0.295900	0.211800	0.727300
H631	H63	0.320100	0.408100	0.949500
H641	H64	0.213600	0.256300	0.108400
H651	H65	0.213600	0.756300	0.391600
H661	H66	0.572000	0.427000	0.877800
H671	H67	0.298500	0.052800	0.957900
H681	H68	0.798500	0.447200	0.957900
H691	H69	0.179900	0.408100	0.449500
H701	H70	0.428000	0.573000	0.122200
H711	H71	0.820100	0.091900	0.949500
H721	H72	0.947900	0.337300	0.702600
H731	H73	0.679900	0.591900	0.050500
H741	H74	0.928000	0.927000	0.122200
H751	H75	0.326300	0.128000	0.020000
H761	H76	0.701500	0.947200	0.042100
H771	H77	0.610900	0.385200	0.801600
H781	H78	0.573100	0.036700	0.763600
H791	H79	0.428000	0.073000	0.377800
H801	H80	0.552100	0.837300	0.297400
C11	C1	0.505300	0.590800	0.190600
C21	C2	0.656600	0.580600	0.225010
C31	C3	0.722500	0.386000	0.612480
C41	C4	0.708900	0.047600	0.455530
C51	C5	0.826600	0.044300	0.286640
C61	C6	0.137600	0.887500	0.273520
C71	C7	0.720500	0.961300	0.010720
C81	C8	0.208900	0.452400	0.455530
C91	C9	0.302500	0.471500	0.867040
C101	C10	0.203700	0.584000	0.973600
C111	C11	0.173400	0.955700	0.713360
C121	C12	0.362400	0.387500	0.726480
C131	C13	0.764700	0.026600	0.002130
C141	C14	0.767500	0.437500	0.073680
C151	C15	0.732500	0.437500	0.573680
C161	C16	0.708900	0.547600	0.044470
C171	C17	0.716800	0.074900	0.542460
C181	C18	0.775100	0.003500	0.917370
C191	C19	0.173400	0.455700	0.786640
C201	C20	0.279500	0.038700	0.989280
C211	C21	0.802500	0.028500	0.867040
C221	C22	0.291100	0.952400	0.544470
C231	C23	0.005300	0.909200	0.190600
C241	C24	0.779500	0.961300	0.510720
C251	C25	0.277500	0.614000	0.387520
C261	C26	0.156600	0.919400	0.225010
C271	C27	0.222500	0.614000	0.887520
C281	C28	0.302500	0.971500	0.632960
C291	C29	0.151000	0.481600	0.832930
C301	C30	0.005300	0.409200	0.309400
C311	C31	0.722500	0.886000	0.887520
C321	C32	0.203700	0.084000	0.526400
C331	C33	0.777500	0.386000	0.112480
C341	C34	0.703700	0.416000	0.526400
C351	C35	0.843400	0.080600	0.774990
C361	C36	0.232500	0.562500	0.926320
C371	C37	0.326600	0.455700	0.286640
C381	C38	0.528200	0.565300	0.145080
C391	C39	0.777500	0.886000	0.387520
C401	C40	0.716800	0.574900	0.957540
C411	C41	0.862400	0.112500	0.726480
C421	C42	0.264700	0.973400	0.497870
C431	C43	0.220500	0.538700	0.010720
C441	C44	0.208900	0.952400	0.044470
C451	C45	0.791100	0.047600	0.955530
C461	C46	0.735300	0.526600	0.997870
C471	C47	0.235300	0.473400	0.502130
C481	C48	0.028200	0.934700	0.145080
C491	C49	0.296300	0.084000	0.026400
C501	C50	0.216800	0.425100	0.542460
C511	C51	0.505300	0.090800	0.309400
C521	C52	0.279500	0.538700	0.510720
C531	C53	0.528200	0.065300	0.354920
C541	C54	0.028200	0.434700	0.354920
C551	C55	0.775100	0.503500	0.582630
C561	C56	0.494700	0.909200	0.690600
C571	C57	0.275100	0.496500	0.917370
C581	C58	0.277500	0.114000	0.112480
C591	C59	0.637600	0.112500	0.226480
C601	C60	0.343400	0.419400	0.774990
C611	C61	0.849000	0.518400	0.167070
C621	C62	0.343400	0.919400	0.725010
C631	C63	0.224900	0.996500	0.082630
C641	C64	0.197500	0.971500	0.132960
C651	C65	0.283200	0.925100	0.457540
C661	C66	0.232500	0.062500	0.573680
C671	C67	0.224900	0.496500	0.417370
C681	C68	0.151000	0.981600	0.667070
C691	C69	0.732500	0.937500	0.926320
C701	C70	0.349000	0.481600	0.332930
C711	C71	0.791100	0.547600	0.544470
C721	C72	0.724900	0.003500	0.417370
C731	C73	0.156600	0.419400	0.274990
C741	C74	0.471800	0.434700	0.854920
C751	C75	0.656600	0.080600	0.274990
C761	C76	0.764700	0.526600	0.497870
C771	C77	0.703700	0.916000	0.973600
C781	C78	0.267500	0.562500	0.426320
C791	C79	0.471800	0.934700	0.645080
C801	C80	0.326600	0.955700	0.213360
C811	C81	0.697500	0.528500	0.132960
C821	C82	0.673400	0.544300	0.713360
C831	C83	0.697500	0.028500	0.367040
C841	C84	0.291100	0.452400	0.955530
C851	C85	0.994700	0.090800	0.809400
C861	C86	0.802500	0.528500	0.632960
C871	C87	0.197500	0.471500	0.367040
C881	C88	0.267500	0.062500	0.073680
C891	C89	0.862400	0.612500	0.773520
C901	C90	0.843400	0.580600	0.725010
C911	C91	0.651000	0.018400	0.832930
C921	C92	0.220500	0.038700	0.489280
C931	C93	0.349000	0.981600	0.167070
C941	C94	0.720500	0.461300	0.489280
C951	C95	0.235300	0.973400	0.997870
C961	C96	0.222500	0.114000	0.612480
C971	C97	0.735300	0.026600	0.502130
C981	C98	0.779500	0.461300	0.989280
C991	C99	0.826600	0.544300	0.213360
C1001	C100	0.283200	0.425100	0.042460
C1011	C101	0.724900	0.503500	0.082630
C1021	C102	0.494700	0.409200	0.809400
C1031	C103	0.637600	0.612500	0.273520
C1041	C104	0.137600	0.387500	0.226480
C1051	C105	0.971800	0.565300	0.645080
C1061	C106	0.783200	0.074900	0.042460
C1071	C107	0.849000	0.018400	0.332930
C1081	C108	0.216800	0.925100	0.957540
C1091	C109	0.994700	0.590800	0.690600
C1101	C110	0.362400	0.887500	0.773520
C1111	C111	0.783200	0.574900	0.457540
C1121	C112	0.264700	0.473400	0.002130
C1131	C113	0.796300	0.416000	0.026400
C1141	C114	0.651000	0.518400	0.667070
C1151	C115	0.767500	0.937500	0.426320
C1161	C116	0.296300	0.584000	0.473600
C1171	C117	0.275100	0.996500	0.582630
C1181	C118	0.971800	0.065300	0.854920
C1191	C119	0.796300	0.916000	0.473600
C1201	C120	0.673400	0.044300	0.786640
O11	O1	0.731800	0.550900	0.915480
O21	O2	0.508300	0.158180	0.222010
O31	O3	0.226200	0.778280	0.863040
O41	O4	0.380100	0.125380	0.637770
O51	O5	0.565600	0.794700	0.282610
O61	O6	0.187900	0.365300	0.534920
O71	O7	0.619900	0.374620	0.137770
O81	O8	0.434400	0.705300	0.782610
O91	O9	0.812100	0.134700	0.034920
O101	O10	0.934400	0.294700	0.717390
O111	O11	0.726200	0.721720	0.863040
O121	O12	0.119900	0.125380	0.137770
O131	O13	0.726200	0.221720	0.636960
O141	O14	0.312100	0.365300	0.034920
O151	O15	0.255500	0.908070	0.305870
O161	O16	0.755500	0.091930	0.194130
O171	O17	0.934400	0.794700	0.782610
O181	O18	0.755500	0.591930	0.305870
O191	O19	0.268200	0.449100	0.084520
O201	O20	0.565600	0.294700	0.217390
O211	O21	0.119900	0.625380	0.362230
O221	O22	0.187900	0.865300	0.965080
O231	O23	0.060800	0.145500	0.617910
O241	O24	0.880100	0.374620	0.637770
O251	O25	0.065600	0.205300	0.217390
O261	O26	0.687900	0.634700	0.965080
O271	O27	0.744500	0.091930	0.694130
O281	O28	0.939200	0.854500	0.382090
O291	O29	0.434400	0.205300	0.717390
O301	O30	0.273800	0.278280	0.136960
O311	O31	0.687900	0.134700	0.534920
O321	O32	0.619900	0.874620	0.362230
O331	O33	0.773800	0.221720	0.136960
O341	O34	0.939200	0.354500	0.117910
O351	O35	0.991700	0.158180	0.722010
O361	O36	0.060800	0.645500	0.882090
O371	O37	0.744500	0.591930	0.805870
O381	O38	0.244500	0.408070	0.694130
O391	O39	0.231800	0.949100	0.915480
O401	O40	0.508300	0.658180	0.277990
O411	O41	0.731800	0.050900	0.584520
O421	O42	0.812100	0.634700	0.465080
O431	O43	0.008300	0.841820	0.277990
O441	O44	0.439200	0.645500	0.382090
O451	O45	0.560800	0.854500	0.882090
O461	O46	0.491700	0.841820	0.777990
O471	O47	0.008300	0.341820	0.222010
O481	O48	0.560800	0.354500	0.617910
O491	O49	0.773800	0.721720	0.363040
O501	O50	0.312100	0.865300	0.465080
O511	O51	0.380100	0.625380	0.862230
O521	O52	0.768200	0.050900	0.084520
O531	O53	0.991700	0.658180	0.777990
O541	O54	0.268200	0.949100	0.415480
O551	O55	0.880100	0.874620	0.862230
O561	O56	0.768200	0.550900	0.415480
O571	O57	0.231800	0.449100	0.584520
O581	O58	0.244500	0.908070	0.805870
O591	O59	0.255500	0.408070	0.194130
O601	O60	0.226200	0.278280	0.636960
O611	O61	0.065600	0.705300	0.282610
O621	O62	0.273800	0.778280	0.363040
O631	O63	0.439200	0.145500	0.117910
O641	O64	0.491700	0.341820	0.722010
