data_FORPIM_freeONLY_PM
_symmetry_space_group_name_H-M	'P1'
_cell_length_a	30.863000
_cell_length_b	15.742500
_cell_length_c	22.192000
_cell_angle_alpha	90.000000
_cell_angle_beta	133.173000
_cell_angle_gamma	90.000000
_symmetry_Int_Tables_number 1

loop_
_symmetry_equiv_pos_as_xyz
'x,y,z'

loop_
_atom_site_label
_atom_site_type_symbol
_atom_site_fract_x
_atom_site_fract_y
_atom_site_fract_z
La11	La1	0.890080	0.862840	0.328310
La21	La2	0.830520	0.128950	0.485940
N11	N1	0.837900	0.004100	0.241900
N21	N2	0.133200	0.730800	0.535900
O11	O1	0.875700	0.885800	0.203300
O21	O2	0.840900	0.954900	0.091100
O31	O3	0.866300	0.973900	0.382800
O41	O4	0.825300	0.098400	0.372400
O51	O5	0.059600	0.852100	0.431600
O61	O6	0.980800	0.780800	0.389800
O71	O7	0.247100	0.764500	0.626700
O81	O8	0.276100	0.650400	0.705800
O91	O9	0.974000	0.975900	0.376400
H11	H1	0.976900	0.014700	0.405600
H21	H2	0.007600	0.951500	0.404800
O101	O10	0.864500	0.717200	0.261900
H31	H3	0.881300	0.677800	0.297700
H41	H4	0.827200	0.708900	0.225800
O111	O11	0.969300	0.870700	0.492400
H51	H5	0.975100	0.822600	0.514200
H61	H6	0.956300	0.907300	0.504900
O121	O12	0.839300	0.794000	0.371000
H71	H7	0.864100	0.782400	0.422300
H81	H8	0.812000	0.825500	0.359200
O131	O13	0.867200	0.234400	0.606200
H91	H9	0.872700	0.205900	0.643500
H101	H10	0.839400	0.269600	0.586700
O141	O14	0.877800	0.982000	0.514300
H111	H11	0.866100	0.957800	0.471000
H121	H12	0.874000	0.949100	0.540800
O151	O15	0.745300	0.027900	0.386000
H131	H13	0.719800	0.028800	0.389800
H141	H14	0.757100	0.977200	0.391300
O161	O16	0.744800	0.161100	0.479700
H151	H15	0.737900	0.120600	0.497500
H161	H16	0.712900	0.177200	0.432300
C11	C1	0.849800	0.947800	0.154800
C21	C2	0.825200	0.013200	0.171900
C31	C3	0.786500	0.075700	0.116700
H171	H17	0.778700	0.082800	0.068400
C41	C4	0.758800	0.128700	0.132600
H181	H18	0.730700	0.168800	0.094300
C51	C5	0.775000	0.118800	0.207400
H191	H19	0.759000	0.154200	0.221500
C61	C6	0.814800	0.056800	0.261100
C71	C7	0.837200	0.042500	0.345700
C81	C8	0.035000	0.788700	0.431000
C91	C9	0.076200	0.718400	0.489200
C101	C10	0.054000	0.645000	0.496900
H201	H20	0.013400	0.637700	0.464500
C111	C11	0.094400	0.584100	0.554100
H211	H21	0.081000	0.533500	0.558300
C121	C12	0.155600	0.599300	0.605900
H221	H22	0.183800	0.561100	0.647100
C131	C13	0.172300	0.674000	0.592800
C141	C14	0.236100	0.697200	0.645100
La31	La3	0.390080	0.362840	0.328310
La41	La4	0.330520	0.628950	0.485940
N31	N3	0.337900	0.504100	0.241900
N41	N4	0.633200	0.230800	0.535900
O171	O17	0.375700	0.385800	0.203300
O181	O18	0.340900	0.454900	0.091100
O191	O19	0.366300	0.473900	0.382800
O201	O20	0.325300	0.598400	0.372400
O211	O21	0.559600	0.352100	0.431600
O221	O22	0.480800	0.280800	0.389800
O231	O23	0.747100	0.264500	0.626700
O241	O24	0.776100	0.150400	0.705800
O251	O25	0.474000	0.475900	0.376400
H231	H23	0.476900	0.514700	0.405600
H241	H24	0.507600	0.451500	0.404800
O261	O26	0.364500	0.217200	0.261900
H251	H25	0.381300	0.177800	0.297700
H261	H26	0.327200	0.208900	0.225800
O271	O27	0.469300	0.370700	0.492400
H271	H27	0.475100	0.322600	0.514200
H281	H28	0.456300	0.407300	0.504900
O281	O28	0.339300	0.294000	0.371000
H291	H29	0.364100	0.282400	0.422300
H301	H30	0.312000	0.325500	0.359200
O291	O29	0.367200	0.734400	0.606200
H311	H31	0.372700	0.705900	0.643500
H321	H32	0.339400	0.769600	0.586700
O301	O30	0.377800	0.482000	0.514300
H331	H33	0.366100	0.457800	0.471000
H341	H34	0.374000	0.449100	0.540800
O311	O31	0.245300	0.527900	0.386000
H351	H35	0.219800	0.528800	0.389800
H361	H36	0.257100	0.477200	0.391300
O321	O32	0.244800	0.661100	0.479700
H371	H37	0.237900	0.620600	0.497500
H381	H38	0.212900	0.677200	0.432300
C151	C15	0.349800	0.447800	0.154800
C161	C16	0.325200	0.513200	0.171900
C171	C17	0.286500	0.575700	0.116700
H391	H39	0.278700	0.582800	0.068400
C181	C18	0.258800	0.628700	0.132600
H401	H40	0.230700	0.668800	0.094300
C191	C19	0.275000	0.618800	0.207400
H411	H41	0.259000	0.654200	0.221500
C201	C20	0.314800	0.556800	0.261100
C211	C21	0.337200	0.542500	0.345700
C221	C22	0.535000	0.288700	0.431000
C231	C23	0.576200	0.218400	0.489200
C241	C24	0.554000	0.145000	0.496900
H421	H42	0.513400	0.137700	0.464500
C251	C25	0.594400	0.084100	0.554100
H431	H43	0.581000	0.033500	0.558300
C261	C26	0.655600	0.099300	0.605900
H441	H44	0.683800	0.061100	0.647100
C271	C27	0.672300	0.174000	0.592800
C281	C28	0.736100	0.197200	0.645100
La51	La5	0.109920	0.862840	0.171690
La61	La6	0.169480	0.128950	0.014060
N51	N5	0.162100	0.004100	0.258100
N61	N6	0.866800	0.730800	0.964100
O331	O33	0.124300	0.885800	0.296700
O341	O34	0.159100	0.954900	0.408900
O351	O35	0.133700	0.973900	0.117200
O361	O36	0.174700	0.098400	0.127600
O371	O37	0.940400	0.852100	0.068400
O381	O38	0.019200	0.780800	0.110200
O391	O39	0.752900	0.764500	0.873300
O401	O40	0.723900	0.650400	0.794200
O411	O41	0.026000	0.975900	0.123600
H451	H45	0.023100	0.014700	0.094400
H461	H46	0.992400	0.951500	0.095200
O421	O42	0.135500	0.717200	0.238100
H471	H47	0.118700	0.677800	0.202300
H481	H48	0.172800	0.708900	0.274200
O431	O43	0.030700	0.870700	0.007600
H491	H49	0.024900	0.822600	0.985800
H501	H50	0.043700	0.907300	0.995100
O441	O44	0.160700	0.794000	0.129000
H511	H51	0.135900	0.782400	0.077700
H521	H52	0.188000	0.825500	0.140800
O451	O45	0.132800	0.234400	0.893800
H531	H53	0.127300	0.205900	0.856500
H541	H54	0.160600	0.269600	0.913300
O461	O46	0.122200	0.982000	0.985700
H551	H55	0.133900	0.957800	0.029000
H561	H56	0.126000	0.949100	0.959200
O471	O47	0.254700	0.027900	0.114000
H571	H57	0.280200	0.028800	0.110200
H581	H58	0.242900	0.977200	0.108700
O481	O48	0.255200	0.161100	0.020300
H591	H59	0.262100	0.120600	0.002500
H601	H60	0.287100	0.177200	0.067700
C291	C29	0.150200	0.947800	0.345200
C301	C30	0.174800	0.013200	0.328100
C311	C31	0.213500	0.075700	0.383300
H611	H61	0.221300	0.082800	0.431600
C321	C32	0.241200	0.128700	0.367400
H621	H62	0.269300	0.168800	0.405700
C331	C33	0.225000	0.118800	0.292600
H631	H63	0.241000	0.154200	0.278500
C341	C34	0.185200	0.056800	0.238900
C351	C35	0.162800	0.042500	0.154300
C361	C36	0.965000	0.788700	0.069000
C371	C37	0.923800	0.718400	0.010800
C381	C38	0.946000	0.645000	0.003100
H641	H64	0.986600	0.637700	0.035500
C391	C39	0.905600	0.584100	0.945900
H651	H65	0.919000	0.533500	0.941700
C401	C40	0.844400	0.599300	0.894100
H661	H66	0.816200	0.561100	0.852900
C411	C41	0.827700	0.674000	0.907200
C421	C42	0.763900	0.697200	0.854900
La71	La7	0.609920	0.362840	0.171690
La81	La8	0.669480	0.628950	0.014060
N71	N7	0.662100	0.504100	0.258100
N81	N8	0.366800	0.230800	0.964100
O491	O49	0.624300	0.385800	0.296700
O501	O50	0.659100	0.454900	0.408900
O511	O51	0.633700	0.473900	0.117200
O521	O52	0.674700	0.598400	0.127600
O531	O53	0.440400	0.352100	0.068400
O541	O54	0.519200	0.280800	0.110200
O551	O55	0.252900	0.264500	0.873300
O561	O56	0.223900	0.150400	0.794200
O571	O57	0.526000	0.475900	0.123600
H671	H67	0.523100	0.514700	0.094400
H681	H68	0.492400	0.451500	0.095200
O581	O58	0.635500	0.217200	0.238100
H691	H69	0.618700	0.177800	0.202300
H701	H70	0.672800	0.208900	0.274200
O591	O59	0.530700	0.370700	0.007600
H711	H71	0.524900	0.322600	0.985800
H721	H72	0.543700	0.407300	0.995100
O601	O60	0.660700	0.294000	0.129000
H731	H73	0.635900	0.282400	0.077700
H741	H74	0.688000	0.325500	0.140800
O611	O61	0.632800	0.734400	0.893800
H751	H75	0.627300	0.705900	0.856500
H761	H76	0.660600	0.769600	0.913300
O621	O62	0.622200	0.482000	0.985700
H771	H77	0.633900	0.457800	0.029000
H781	H78	0.626000	0.449100	0.959200
O631	O63	0.754700	0.527900	0.114000
H791	H79	0.780200	0.528800	0.110200
H801	H80	0.742900	0.477200	0.108700
O641	O64	0.755200	0.661100	0.020300
H811	H81	0.762100	0.620600	0.002500
H821	H82	0.787100	0.677200	0.067700
C431	C43	0.650200	0.447800	0.345200
C441	C44	0.674800	0.513200	0.328100
C451	C45	0.713500	0.575700	0.383300
H831	H83	0.721300	0.582800	0.431600
C461	C46	0.741200	0.628700	0.367400
H841	H84	0.769300	0.668800	0.405700
C471	C47	0.725000	0.618800	0.292600
H851	H85	0.741000	0.654200	0.278500
C481	C48	0.685200	0.556800	0.238900
C491	C49	0.662800	0.542500	0.154300
C501	C50	0.465000	0.288700	0.069000
C511	C51	0.423800	0.218400	0.010800
C521	C52	0.446000	0.145000	0.003100
H861	H86	0.486600	0.137700	0.035500
C531	C53	0.405600	0.084100	0.945900
H871	H87	0.419000	0.033500	0.941700
C541	C54	0.344400	0.099300	0.894100
H881	H88	0.316200	0.061100	0.852900
C551	C55	0.327700	0.174000	0.907200
C561	C56	0.263900	0.197200	0.854900
La91	La9	0.109920	0.137160	0.671690
La101	La10	0.169480	0.871050	0.514060
N91	N9	0.162100	0.995900	0.758100
N101	N10	0.866800	0.269200	0.464100
O651	O65	0.124300	0.114200	0.796700
O661	O66	0.159100	0.045100	0.908900
O671	O67	0.133700	0.026100	0.617200
O681	O68	0.174700	0.901600	0.627600
O691	O69	0.940400	0.147900	0.568400
O701	O70	0.019200	0.219200	0.610200
O711	O71	0.752900	0.235500	0.373300
O721	O72	0.723900	0.349600	0.294200
O731	O73	0.026000	0.024100	0.623600
H891	H89	0.023100	0.985300	0.594400
H901	H90	0.992400	0.048500	0.595200
O741	O74	0.135500	0.282800	0.738100
H911	H91	0.118700	0.322200	0.702300
H921	H92	0.172800	0.291100	0.774200
O751	O75	0.030700	0.129300	0.507600
H931	H93	0.024900	0.177400	0.485800
H941	H94	0.043700	0.092700	0.495100
O761	O76	0.160700	0.206000	0.629000
H951	H95	0.135900	0.217600	0.577700
H961	H96	0.188000	0.174500	0.640800
O771	O77	0.132800	0.765600	0.393800
H971	H97	0.127300	0.794100	0.356500
H981	H98	0.160600	0.730400	0.413300
O781	O78	0.122200	0.018000	0.485700
H991	H99	0.133900	0.042200	0.529000
H1001	H100	0.126000	0.050900	0.459200
O791	O79	0.254700	0.972100	0.614000
H1011	H101	0.280200	0.971200	0.610200
H1021	H102	0.242900	0.022800	0.608700
O801	O80	0.255200	0.838900	0.520300
H1031	H103	0.262100	0.879400	0.502500
H1041	H104	0.287100	0.822800	0.567700
C571	C57	0.150200	0.052200	0.845200
C581	C58	0.174800	0.986800	0.828100
C591	C59	0.213500	0.924300	0.883300
H1051	H105	0.221300	0.917200	0.931600
C601	C60	0.241200	0.871300	0.867400
H1061	H106	0.269300	0.831200	0.905700
C611	C61	0.225000	0.881200	0.792600
H1071	H107	0.241000	0.845800	0.778500
C621	C62	0.185200	0.943200	0.738900
C631	C63	0.162800	0.957500	0.654300
C641	C64	0.965000	0.211300	0.569000
C651	C65	0.923800	0.281600	0.510800
C661	C66	0.946000	0.355000	0.503100
H1081	H108	0.986600	0.362300	0.535500
C671	C67	0.905600	0.415900	0.445900
H1091	H109	0.919000	0.466500	0.441700
C681	C68	0.844400	0.400700	0.394100
H1101	H110	0.816200	0.438900	0.352900
C691	C69	0.827700	0.326000	0.407200
C701	C70	0.763900	0.302800	0.354900
La111	La11	0.609920	0.637160	0.671690
La121	La12	0.669480	0.371050	0.514060
N111	N11	0.662100	0.495900	0.758100
N121	N12	0.366800	0.769200	0.464100
O811	O81	0.624300	0.614200	0.796700
O821	O82	0.659100	0.545100	0.908900
O831	O83	0.633700	0.526100	0.617200
O841	O84	0.674700	0.401600	0.627600
O851	O85	0.440400	0.647900	0.568400
O861	O86	0.519200	0.719200	0.610200
O871	O87	0.252900	0.735500	0.373300
O881	O88	0.223900	0.849600	0.294200
O891	O89	0.526000	0.524100	0.623600
H1111	H111	0.523100	0.485300	0.594400
H1121	H112	0.492400	0.548500	0.595200
O901	O90	0.635500	0.782800	0.738100
H1131	H113	0.618700	0.822200	0.702300
H1141	H114	0.672800	0.791100	0.774200
O911	O91	0.530700	0.629300	0.507600
H1151	H115	0.524900	0.677400	0.485800
H1161	H116	0.543700	0.592700	0.495100
O921	O92	0.660700	0.706000	0.629000
H1171	H117	0.635900	0.717600	0.577700
H1181	H118	0.688000	0.674500	0.640800
O931	O93	0.632800	0.265600	0.393800
H1191	H119	0.627300	0.294100	0.356500
H1201	H120	0.660600	0.230400	0.413300
O941	O94	0.622200	0.518000	0.485700
H1211	H121	0.633900	0.542200	0.529000
H1221	H122	0.626000	0.550900	0.459200
O951	O95	0.754700	0.472100	0.614000
H1231	H123	0.780200	0.471200	0.610200
H1241	H124	0.742900	0.522800	0.608700
O961	O96	0.755200	0.338900	0.520300
H1251	H125	0.762100	0.379400	0.502500
H1261	H126	0.787100	0.322800	0.567700
C711	C71	0.650200	0.552200	0.845200
C721	C72	0.674800	0.486800	0.828100
C731	C73	0.713500	0.424300	0.883300
H1271	H127	0.721300	0.417200	0.931600
C741	C74	0.741200	0.371300	0.867400
H1281	H128	0.769300	0.331200	0.905700
C751	C75	0.725000	0.381200	0.792600
H1291	H129	0.741000	0.345800	0.778500
C761	C76	0.685200	0.443200	0.738900
C771	C77	0.662800	0.457500	0.654300
C781	C78	0.465000	0.711300	0.569000
C791	C79	0.423800	0.781600	0.510800
C801	C80	0.446000	0.855000	0.503100
H1301	H130	0.486600	0.862300	0.535500
C811	C81	0.405600	0.915900	0.445900
H1311	H131	0.419000	0.966500	0.441700
C821	C82	0.344400	0.900700	0.394100
H1321	H132	0.316200	0.938900	0.352900
C831	C83	0.327700	0.826000	0.407200
C841	C84	0.263900	0.802800	0.354900
La131	La13	0.890080	0.137160	0.828310
La141	La14	0.830520	0.871050	0.985940
N131	N13	0.837900	0.995900	0.741900
N141	N14	0.133200	0.269200	0.035900
O971	O97	0.875700	0.114200	0.703300
O981	O98	0.840900	0.045100	0.591100
O991	O99	0.866300	0.026100	0.882800
O1001	O100	0.825300	0.901600	0.872400
O1011	O101	0.059600	0.147900	0.931600
O1021	O102	0.980800	0.219200	0.889800
O1031	O103	0.247100	0.235500	0.126700
O1041	O104	0.276100	0.349600	0.205800
O1051	O105	0.974000	0.024100	0.876400
H1331	H133	0.976900	0.985300	0.905600
H1341	H134	0.007600	0.048500	0.904800
O1061	O106	0.864500	0.282800	0.761900
H1351	H135	0.881300	0.322200	0.797700
H1361	H136	0.827200	0.291100	0.725800
O1071	O107	0.969300	0.129300	0.992400
H1371	H137	0.975100	0.177400	0.014200
H1381	H138	0.956300	0.092700	0.004900
O1081	O108	0.839300	0.206000	0.871000
H1391	H139	0.864100	0.217600	0.922300
H1401	H140	0.812000	0.174500	0.859200
O1091	O109	0.867200	0.765600	0.106200
H1411	H141	0.872700	0.794100	0.143500
H1421	H142	0.839400	0.730400	0.086700
O1101	O110	0.877800	0.018000	0.014300
H1431	H143	0.866100	0.042200	0.971000
H1441	H144	0.874000	0.050900	0.040800
O1111	O111	0.745300	0.972100	0.886000
H1451	H145	0.719800	0.971200	0.889800
H1461	H146	0.757100	0.022800	0.891300
O1121	O112	0.744800	0.838900	0.979700
H1471	H147	0.737900	0.879400	0.997500
H1481	H148	0.712900	0.822800	0.932300
C851	C85	0.849800	0.052200	0.654800
C861	C86	0.825200	0.986800	0.671900
C871	C87	0.786500	0.924300	0.616700
H1491	H149	0.778700	0.917200	0.568400
C881	C88	0.758800	0.871300	0.632600
H1501	H150	0.730700	0.831200	0.594300
C891	C89	0.775000	0.881200	0.707400
H1511	H151	0.759000	0.845800	0.721500
C901	C90	0.814800	0.943200	0.761100
C911	C91	0.837200	0.957500	0.845700
C921	C92	0.035000	0.211300	0.931000
C931	C93	0.076200	0.281600	0.989200
C941	C94	0.054000	0.355000	0.996900
H1521	H152	0.013400	0.362300	0.964500
C951	C95	0.094400	0.415900	0.054100
H1531	H153	0.081000	0.466500	0.058300
C961	C96	0.155600	0.400700	0.105900
H1541	H154	0.183800	0.438900	0.147100
C971	C97	0.172300	0.326000	0.092800
C981	C98	0.236100	0.302800	0.145100
La151	La15	0.390080	0.637160	0.828310
La161	La16	0.330520	0.371050	0.985940
N151	N15	0.337900	0.495900	0.741900
N161	N16	0.633200	0.769200	0.035900
O1131	O113	0.375700	0.614200	0.703300
O1141	O114	0.340900	0.545100	0.591100
O1151	O115	0.366300	0.526100	0.882800
O1161	O116	0.325300	0.401600	0.872400
O1171	O117	0.559600	0.647900	0.931600
O1181	O118	0.480800	0.719200	0.889800
O1191	O119	0.747100	0.735500	0.126700
O1201	O120	0.776100	0.849600	0.205800
O1211	O121	0.474000	0.524100	0.876400
H1551	H155	0.476900	0.485300	0.905600
H1561	H156	0.507600	0.548500	0.904800
O1221	O122	0.364500	0.782800	0.761900
H1571	H157	0.381300	0.822200	0.797700
H1581	H158	0.327200	0.791100	0.725800
O1231	O123	0.469300	0.629300	0.992400
H1591	H159	0.475100	0.677400	0.014200
H1601	H160	0.456300	0.592700	0.004900
O1241	O124	0.339300	0.706000	0.871000
H1611	H161	0.364100	0.717600	0.922300
H1621	H162	0.312000	0.674500	0.859200
O1251	O125	0.367200	0.265600	0.106200
H1631	H163	0.372700	0.294100	0.143500
H1641	H164	0.339400	0.230400	0.086700
O1261	O126	0.377800	0.518000	0.014300
H1651	H165	0.366100	0.542200	0.971000
H1661	H166	0.374000	0.550900	0.040800
O1271	O127	0.245300	0.472100	0.886000
H1671	H167	0.219800	0.471200	0.889800
H1681	H168	0.257100	0.522800	0.891300
O1281	O128	0.244800	0.338900	0.979700
H1691	H169	0.237900	0.379400	0.997500
H1701	H170	0.212900	0.322800	0.932300
C991	C99	0.349800	0.552200	0.654800
C1001	C100	0.325200	0.486800	0.671900
C1011	C101	0.286500	0.424300	0.616700
H1711	H171	0.278700	0.417200	0.568400
C1021	C102	0.258800	0.371300	0.632600
H1721	H172	0.230700	0.331200	0.594300
C1031	C103	0.275000	0.381200	0.707400
H1731	H173	0.259000	0.345800	0.721500
C1041	C104	0.314800	0.443200	0.761100
C1051	C105	0.337200	0.457500	0.845700
C1061	C106	0.535000	0.711300	0.931000
C1071	C107	0.576200	0.781600	0.989200
C1081	C108	0.554000	0.855000	0.996900
H1741	H174	0.513400	0.862300	0.964500
C1091	C109	0.594400	0.915900	0.054100
H1751	H175	0.581000	0.966500	0.058300
C1101	C110	0.655600	0.900700	0.105900
H1761	H176	0.683800	0.938900	0.147100
C1111	C111	0.672300	0.826000	0.092800
C1121	C112	0.736100	0.802800	0.145100
