data_FORQEJ_freeONLY_PM
_symmetry_space_group_name_H-M	'P1'
_cell_length_a	30.727000
_cell_length_b	15.769000
_cell_length_c	22.110000
_cell_angle_alpha	90.000000
_cell_angle_beta	133.080000
_cell_angle_gamma	90.000000
_symmetry_Int_Tables_number 1

loop_
_symmetry_equiv_pos_as_xyz
'x,y,z'

loop_
_atom_site_label
_atom_site_type_symbol
_atom_site_fract_x
_atom_site_fract_y
_atom_site_fract_z
Ce11	Ce1	0.669450	0.371800	0.014420
Ce21	Ce2	0.889970	0.136890	0.327090
N11	N1	0.632900	0.232600	0.035600
N21	N2	0.662500	0.497600	0.259200
O11	O1	0.559700	0.353600	0.931200
O21	O2	0.480800	0.282100	0.888300
O31	O3	0.747000	0.266400	0.127000
O41	O4	0.776500	0.150300	0.205100
O51	O5	0.633600	0.528600	0.117100
O61	O6	0.673700	0.403400	0.126800
O71	O7	0.624200	0.615500	0.296000
O81	O8	0.659000	0.547100	0.409600
O91	O9	0.633600	0.266100	0.895200
H11	H1	0.661800	0.237200	0.906800
H21	H2	0.605100	0.234000	0.879000
O101	O10	0.755200	0.339600	0.022100
H31	H3	0.749100	0.294900	0.995800
H41	H4	0.762500	0.381000	0.005600
O111	O11	0.752400	0.473400	0.111500
H51	H5	0.778100	0.473000	0.107600
H61	H6	0.739900	0.523600	0.105600
O121	O12	0.621900	0.517100	0.985600
H71	H7	0.633400	0.541400	0.028800
H81	H8	0.626200	0.550000	0.959600
O131	O13	0.973600	0.025400	0.375900
H91	H9	0.976200	0.986700	0.405000
H101	H10	0.007300	0.049600	0.404800
O141	O14	0.968400	0.131100	0.490700
H111	H11	0.951900	0.092800	0.496400
H121	H12	0.983300	0.167400	0.529000
O151	O15	0.839000	0.205900	0.368300
H131	H13	0.863800	0.218000	0.419500
H141	H14	0.811800	0.174300	0.356800
O161	O16	0.866700	0.280300	0.262500
H151	H15	0.883900	0.319300	0.298800
H161	H16	0.829400	0.289500	0.226400
C11	C1	0.535300	0.291900	0.930700
C21	C2	0.575900	0.220100	0.988700
C31	C3	0.554000	0.146700	0.996200
H171	H17	0.513300	0.139300	0.963100
C41	C4	0.594100	0.085000	0.053800
H181	H18	0.580800	0.034800	0.058500
C51	C5	0.655900	0.101100	0.105100
H191	H19	0.684000	0.062100	0.145300
C61	C6	0.673600	0.176200	0.094200
C71	C7	0.737800	0.199700	0.147300
C81	C8	0.662200	0.459800	0.153400
C91	C9	0.684000	0.444000	0.238000
C101	C10	0.725900	0.383000	0.292900
H201	H20	0.743800	0.349500	0.280400
C111	C11	0.740000	0.374100	0.365700
H211	H21	0.767300	0.332800	0.403300
C121	C12	0.714700	0.424600	0.384400
H221	H22	0.723600	0.417000	0.433500
C131	C13	0.675500	0.487600	0.329300
C141	C14	0.650100	0.553600	0.345400
Ce31	Ce3	0.169450	0.871800	0.014420
Ce41	Ce4	0.389970	0.636890	0.327090
N31	N3	0.132900	0.732600	0.035600
N41	N4	0.162500	0.997600	0.259200
O171	O17	0.059700	0.853600	0.931200
O181	O18	0.980800	0.782100	0.888300
O191	O19	0.247000	0.766400	0.127000
O201	O20	0.276500	0.650300	0.205100
O211	O21	0.133600	0.028600	0.117100
O221	O22	0.173700	0.903400	0.126800
O231	O23	0.124200	0.115500	0.296000
O241	O24	0.159000	0.047100	0.409600
O251	O25	0.133600	0.766100	0.895200
H231	H23	0.161800	0.737200	0.906800
H241	H24	0.105100	0.734000	0.879000
O261	O26	0.255200	0.839600	0.022100
H251	H25	0.249100	0.794900	0.995800
H261	H26	0.262500	0.881000	0.005600
O271	O27	0.252400	0.973400	0.111500
H271	H27	0.278100	0.973000	0.107600
H281	H28	0.239900	0.023600	0.105600
O281	O28	0.121900	0.017100	0.985600
H291	H29	0.133400	0.041400	0.028800
H301	H30	0.126200	0.050000	0.959600
O291	O29	0.473600	0.525400	0.375900
H311	H31	0.476200	0.486700	0.405000
H321	H32	0.507300	0.549600	0.404800
O301	O30	0.468400	0.631100	0.490700
H331	H33	0.451900	0.592800	0.496400
H341	H34	0.483300	0.667400	0.529000
O311	O31	0.339000	0.705900	0.368300
H351	H35	0.363800	0.718000	0.419500
H361	H36	0.311800	0.674300	0.356800
O321	O32	0.366700	0.780300	0.262500
H371	H37	0.383900	0.819300	0.298800
H381	H38	0.329400	0.789500	0.226400
C151	C15	0.035300	0.791900	0.930700
C161	C16	0.075900	0.720100	0.988700
C171	C17	0.054000	0.646700	0.996200
H391	H39	0.013300	0.639300	0.963100
C181	C18	0.094100	0.585000	0.053800
H401	H40	0.080800	0.534800	0.058500
C191	C19	0.155900	0.601100	0.105100
H411	H41	0.184000	0.562100	0.145300
C201	C20	0.173600	0.676200	0.094200
C211	C21	0.237800	0.699700	0.147300
C221	C22	0.162200	0.959800	0.153400
C231	C23	0.184000	0.944000	0.238000
C241	C24	0.225900	0.883000	0.292900
H421	H42	0.243800	0.849500	0.280400
C251	C25	0.240000	0.874100	0.365700
H431	H43	0.267300	0.832800	0.403300
C261	C26	0.214700	0.924600	0.384400
H441	H44	0.223600	0.917000	0.433500
C271	C27	0.175500	0.987600	0.329300
C281	C28	0.150100	0.053600	0.345400
Ce51	Ce5	0.330550	0.371800	0.485580
Ce61	Ce6	0.110030	0.136890	0.172910
N51	N5	0.367100	0.232600	0.464400
N61	N6	0.337500	0.497600	0.240800
O331	O33	0.440300	0.353600	0.568800
O341	O34	0.519200	0.282100	0.611700
O351	O35	0.253000	0.266400	0.373000
O361	O36	0.223500	0.150300	0.294900
O371	O37	0.366400	0.528600	0.382900
O381	O38	0.326300	0.403400	0.373200
O391	O39	0.375800	0.615500	0.204000
O401	O40	0.341000	0.547100	0.090400
O411	O41	0.366400	0.266100	0.604800
H451	H45	0.338200	0.237200	0.593200
H461	H46	0.394900	0.234000	0.621000
O421	O42	0.244800	0.339600	0.477900
H471	H47	0.250900	0.294900	0.504200
H481	H48	0.237500	0.381000	0.494400
O431	O43	0.247600	0.473400	0.388500
H491	H49	0.221900	0.473000	0.392400
H501	H50	0.260100	0.523600	0.394400
O441	O44	0.378100	0.517100	0.514400
H511	H51	0.366600	0.541400	0.471200
H521	H52	0.373800	0.550000	0.540400
O451	O45	0.026400	0.025400	0.124100
H531	H53	0.023800	0.986700	0.095000
H541	H54	0.992700	0.049600	0.095200
O461	O46	0.031600	0.131100	0.009300
H551	H55	0.048100	0.092800	0.003600
H561	H56	0.016700	0.167400	0.971000
O471	O47	0.161000	0.205900	0.131700
H571	H57	0.136200	0.218000	0.080500
H581	H58	0.188200	0.174300	0.143200
O481	O48	0.133300	0.280300	0.237500
H591	H59	0.116100	0.319300	0.201200
H601	H60	0.170600	0.289500	0.273600
C291	C29	0.464700	0.291900	0.569300
C301	C30	0.424100	0.220100	0.511300
C311	C31	0.446000	0.146700	0.503800
H611	H61	0.486700	0.139300	0.536900
C321	C32	0.405900	0.085000	0.446200
H621	H62	0.419200	0.034800	0.441500
C331	C33	0.344100	0.101100	0.394900
H631	H63	0.316000	0.062100	0.354700
C341	C34	0.326400	0.176200	0.405800
C351	C35	0.262200	0.199700	0.352700
C361	C36	0.337800	0.459800	0.346600
C371	C37	0.316000	0.444000	0.262000
C381	C38	0.274100	0.383000	0.207100
H641	H64	0.256200	0.349500	0.219600
C391	C39	0.260000	0.374100	0.134300
H651	H65	0.232700	0.332800	0.096700
C401	C40	0.285300	0.424600	0.115600
H661	H66	0.276400	0.417000	0.066500
C411	C41	0.324500	0.487600	0.170700
C421	C42	0.349900	0.553600	0.154600
Ce71	Ce7	0.830550	0.871800	0.485580
Ce81	Ce8	0.610030	0.636890	0.172910
N71	N7	0.867100	0.732600	0.464400
N81	N8	0.837500	0.997600	0.240800
O491	O49	0.940300	0.853600	0.568800
O501	O50	0.019200	0.782100	0.611700
O511	O51	0.753000	0.766400	0.373000
O521	O52	0.723500	0.650300	0.294900
O531	O53	0.866400	0.028600	0.382900
O541	O54	0.826300	0.903400	0.373200
O551	O55	0.875800	0.115500	0.204000
O561	O56	0.841000	0.047100	0.090400
O571	O57	0.866400	0.766100	0.604800
H671	H67	0.838200	0.737200	0.593200
H681	H68	0.894900	0.734000	0.621000
O581	O58	0.744800	0.839600	0.477900
H691	H69	0.750900	0.794900	0.504200
H701	H70	0.737500	0.881000	0.494400
O591	O59	0.747600	0.973400	0.388500
H711	H71	0.721900	0.973000	0.392400
H721	H72	0.760100	0.023600	0.394400
O601	O60	0.878100	0.017100	0.514400
H731	H73	0.866600	0.041400	0.471200
H741	H74	0.873800	0.050000	0.540400
O611	O61	0.526400	0.525400	0.124100
H751	H75	0.523800	0.486700	0.095000
H761	H76	0.492700	0.549600	0.095200
O621	O62	0.531600	0.631100	0.009300
H771	H77	0.548100	0.592800	0.003600
H781	H78	0.516700	0.667400	0.971000
O631	O63	0.661000	0.705900	0.131700
H791	H79	0.636200	0.718000	0.080500
H801	H80	0.688200	0.674300	0.143200
O641	O64	0.633300	0.780300	0.237500
H811	H81	0.616100	0.819300	0.201200
H821	H82	0.670600	0.789500	0.273600
C431	C43	0.964700	0.791900	0.569300
C441	C44	0.924100	0.720100	0.511300
C451	C45	0.946000	0.646700	0.503800
H831	H83	0.986700	0.639300	0.536900
C461	C46	0.905900	0.585000	0.446200
H841	H84	0.919200	0.534800	0.441500
C471	C47	0.844100	0.601100	0.394900
H851	H85	0.816000	0.562100	0.354700
C481	C48	0.826400	0.676200	0.405800
C491	C49	0.762200	0.699700	0.352700
C501	C50	0.837800	0.959800	0.346600
C511	C51	0.816000	0.944000	0.262000
C521	C52	0.774100	0.883000	0.207100
H861	H86	0.756200	0.849500	0.219600
C531	C53	0.760000	0.874100	0.134300
H871	H87	0.732700	0.832800	0.096700
C541	C54	0.785300	0.924600	0.115600
H881	H88	0.776400	0.917000	0.066500
C551	C55	0.824500	0.987600	0.170700
C561	C56	0.849900	0.053600	0.154600
Ce91	Ce9	0.330550	0.628200	0.985580
Ce101	Ce10	0.110030	0.863110	0.672910
N91	N9	0.367100	0.767400	0.964400
N101	N10	0.337500	0.502400	0.740800
O651	O65	0.440300	0.646400	0.068800
O661	O66	0.519200	0.717900	0.111700
O671	O67	0.253000	0.733600	0.873000
O681	O68	0.223500	0.849700	0.794900
O691	O69	0.366400	0.471400	0.882900
O701	O70	0.326300	0.596600	0.873200
O711	O71	0.375800	0.384500	0.704000
O721	O72	0.341000	0.452900	0.590400
O731	O73	0.366400	0.733900	0.104800
H891	H89	0.338200	0.762800	0.093200
H901	H90	0.394900	0.766000	0.121000
O741	O74	0.244800	0.660400	0.977900
H911	H91	0.250900	0.705100	0.004200
H921	H92	0.237500	0.619000	0.994400
O751	O75	0.247600	0.526600	0.888500
H931	H93	0.221900	0.527000	0.892400
H941	H94	0.260100	0.476400	0.894400
O761	O76	0.378100	0.482900	0.014400
H951	H95	0.366600	0.458600	0.971200
H961	H96	0.373800	0.450000	0.040400
O771	O77	0.026400	0.974600	0.624100
H971	H97	0.023800	0.013300	0.595000
H981	H98	0.992700	0.950400	0.595200
O781	O78	0.031600	0.868900	0.509300
H991	H99	0.048100	0.907200	0.503600
H1001	H100	0.016700	0.832600	0.471000
O791	O79	0.161000	0.794100	0.631700
H1011	H101	0.136200	0.782000	0.580500
H1021	H102	0.188200	0.825700	0.643200
O801	O80	0.133300	0.719700	0.737500
H1031	H103	0.116100	0.680700	0.701200
H1041	H104	0.170600	0.710500	0.773600
C571	C57	0.464700	0.708100	0.069300
C581	C58	0.424100	0.779900	0.011300
C591	C59	0.446000	0.853300	0.003800
H1051	H105	0.486700	0.860700	0.036900
C601	C60	0.405900	0.915000	0.946200
H1061	H106	0.419200	0.965200	0.941500
C611	C61	0.344100	0.898900	0.894900
H1071	H107	0.316000	0.937900	0.854700
C621	C62	0.326400	0.823800	0.905800
C631	C63	0.262200	0.800300	0.852700
C641	C64	0.337800	0.540200	0.846600
C651	C65	0.316000	0.556000	0.762000
C661	C66	0.274100	0.617000	0.707100
H1081	H108	0.256200	0.650500	0.719600
C671	C67	0.260000	0.625900	0.634300
H1091	H109	0.232700	0.667200	0.596700
C681	C68	0.285300	0.575400	0.615600
H1101	H110	0.276400	0.583000	0.566500
C691	C69	0.324500	0.512400	0.670700
C701	C70	0.349900	0.446400	0.654600
Ce111	Ce11	0.830550	0.128200	0.985580
Ce121	Ce12	0.610030	0.363110	0.672910
N111	N11	0.867100	0.267400	0.964400
N121	N12	0.837500	0.002400	0.740800
O811	O81	0.940300	0.146400	0.068800
O821	O82	0.019200	0.217900	0.111700
O831	O83	0.753000	0.233600	0.873000
O841	O84	0.723500	0.349700	0.794900
O851	O85	0.866400	0.971400	0.882900
O861	O86	0.826300	0.096600	0.873200
O871	O87	0.875800	0.884500	0.704000
O881	O88	0.841000	0.952900	0.590400
O891	O89	0.866400	0.233900	0.104800
H1111	H111	0.838200	0.262800	0.093200
H1121	H112	0.894900	0.266000	0.121000
O901	O90	0.744800	0.160400	0.977900
H1131	H113	0.750900	0.205100	0.004200
H1141	H114	0.737500	0.119000	0.994400
O911	O91	0.747600	0.026600	0.888500
H1151	H115	0.721900	0.027000	0.892400
H1161	H116	0.760100	0.976400	0.894400
O921	O92	0.878100	0.982900	0.014400
H1171	H117	0.866600	0.958600	0.971200
H1181	H118	0.873800	0.950000	0.040400
O931	O93	0.526400	0.474600	0.624100
H1191	H119	0.523800	0.513300	0.595000
H1201	H120	0.492700	0.450400	0.595200
O941	O94	0.531600	0.368900	0.509300
H1211	H121	0.548100	0.407200	0.503600
H1221	H122	0.516700	0.332600	0.471000
O951	O95	0.661000	0.294100	0.631700
H1231	H123	0.636200	0.282000	0.580500
H1241	H124	0.688200	0.325700	0.643200
O961	O96	0.633300	0.219700	0.737500
H1251	H125	0.616100	0.180700	0.701200
H1261	H126	0.670600	0.210500	0.773600
C711	C71	0.964700	0.208100	0.069300
C721	C72	0.924100	0.279900	0.011300
C731	C73	0.946000	0.353300	0.003800
H1271	H127	0.986700	0.360700	0.036900
C741	C74	0.905900	0.415000	0.946200
H1281	H128	0.919200	0.465200	0.941500
C751	C75	0.844100	0.398900	0.894900
H1291	H129	0.816000	0.437900	0.854700
C761	C76	0.826400	0.323800	0.905800
C771	C77	0.762200	0.300300	0.852700
C781	C78	0.837800	0.040200	0.846600
C791	C79	0.816000	0.056000	0.762000
C801	C80	0.774100	0.117000	0.707100
H1301	H130	0.756200	0.150500	0.719600
C811	C81	0.760000	0.125900	0.634300
H1311	H131	0.732700	0.167200	0.596700
C821	C82	0.785300	0.075400	0.615600
H1321	H132	0.776400	0.083000	0.566500
C831	C83	0.824500	0.012400	0.670700
C841	C84	0.849900	0.946400	0.654600
Ce131	Ce13	0.669450	0.628200	0.514420
Ce141	Ce14	0.889970	0.863110	0.827090
N131	N13	0.632900	0.767400	0.535600
N141	N14	0.662500	0.502400	0.759200
O971	O97	0.559700	0.646400	0.431200
O981	O98	0.480800	0.717900	0.388300
O991	O99	0.747000	0.733600	0.627000
O1001	O100	0.776500	0.849700	0.705100
O1011	O101	0.633600	0.471400	0.617100
O1021	O102	0.673700	0.596600	0.626800
O1031	O103	0.624200	0.384500	0.796000
O1041	O104	0.659000	0.452900	0.909600
O1051	O105	0.633600	0.733900	0.395200
H1331	H133	0.661800	0.762800	0.406800
H1341	H134	0.605100	0.766000	0.379000
O1061	O106	0.755200	0.660400	0.522100
H1351	H135	0.749100	0.705100	0.495800
H1361	H136	0.762500	0.619000	0.505600
O1071	O107	0.752400	0.526600	0.611500
H1371	H137	0.778100	0.527000	0.607600
H1381	H138	0.739900	0.476400	0.605600
O1081	O108	0.621900	0.482900	0.485600
H1391	H139	0.633400	0.458600	0.528800
H1401	H140	0.626200	0.450000	0.459600
O1091	O109	0.973600	0.974600	0.875900
H1411	H141	0.976200	0.013300	0.905000
H1421	H142	0.007300	0.950400	0.904800
O1101	O110	0.968400	0.868900	0.990700
H1431	H143	0.951900	0.907200	0.996400
H1441	H144	0.983300	0.832600	0.029000
O1111	O111	0.839000	0.794100	0.868300
H1451	H145	0.863800	0.782000	0.919500
H1461	H146	0.811800	0.825700	0.856800
O1121	O112	0.866700	0.719700	0.762500
H1471	H147	0.883900	0.680700	0.798800
H1481	H148	0.829400	0.710500	0.726400
C851	C85	0.535300	0.708100	0.430700
C861	C86	0.575900	0.779900	0.488700
C871	C87	0.554000	0.853300	0.496200
H1491	H149	0.513300	0.860700	0.463100
C881	C88	0.594100	0.915000	0.553800
H1501	H150	0.580800	0.965200	0.558500
C891	C89	0.655900	0.898900	0.605100
H1511	H151	0.684000	0.937900	0.645300
C901	C90	0.673600	0.823800	0.594200
C911	C91	0.737800	0.800300	0.647300
C921	C92	0.662200	0.540200	0.653400
C931	C93	0.684000	0.556000	0.738000
C941	C94	0.725900	0.617000	0.792900
H1521	H152	0.743800	0.650500	0.780400
C951	C95	0.740000	0.625900	0.865700
H1531	H153	0.767300	0.667200	0.903300
C961	C96	0.714700	0.575400	0.884400
H1541	H154	0.723600	0.583000	0.933500
C971	C97	0.675500	0.512400	0.829300
C981	C98	0.650100	0.446400	0.845400
Ce151	Ce15	0.169450	0.128200	0.514420
Ce161	Ce16	0.389970	0.363110	0.827090
N151	N15	0.132900	0.267400	0.535600
N161	N16	0.162500	0.002400	0.759200
O1131	O113	0.059700	0.146400	0.431200
O1141	O114	0.980800	0.217900	0.388300
O1151	O115	0.247000	0.233600	0.627000
O1161	O116	0.276500	0.349700	0.705100
O1171	O117	0.133600	0.971400	0.617100
O1181	O118	0.173700	0.096600	0.626800
O1191	O119	0.124200	0.884500	0.796000
O1201	O120	0.159000	0.952900	0.909600
O1211	O121	0.133600	0.233900	0.395200
H1551	H155	0.161800	0.262800	0.406800
H1561	H156	0.105100	0.266000	0.379000
O1221	O122	0.255200	0.160400	0.522100
H1571	H157	0.249100	0.205100	0.495800
H1581	H158	0.262500	0.119000	0.505600
O1231	O123	0.252400	0.026600	0.611500
H1591	H159	0.278100	0.027000	0.607600
H1601	H160	0.239900	0.976400	0.605600
O1241	O124	0.121900	0.982900	0.485600
H1611	H161	0.133400	0.958600	0.528800
H1621	H162	0.126200	0.950000	0.459600
O1251	O125	0.473600	0.474600	0.875900
H1631	H163	0.476200	0.513300	0.905000
H1641	H164	0.507300	0.450400	0.904800
O1261	O126	0.468400	0.368900	0.990700
H1651	H165	0.451900	0.407200	0.996400
H1661	H166	0.483300	0.332600	0.029000
O1271	O127	0.339000	0.294100	0.868300
H1671	H167	0.363800	0.282000	0.919500
H1681	H168	0.311800	0.325700	0.856800
O1281	O128	0.366700	0.219700	0.762500
H1691	H169	0.383900	0.180700	0.798800
H1701	H170	0.329400	0.210500	0.726400
C991	C99	0.035300	0.208100	0.430700
C1001	C100	0.075900	0.279900	0.488700
C1011	C101	0.054000	0.353300	0.496200
H1711	H171	0.013300	0.360700	0.463100
C1021	C102	0.094100	0.415000	0.553800
H1721	H172	0.080800	0.465200	0.558500
C1031	C103	0.155900	0.398900	0.605100
H1731	H173	0.184000	0.437900	0.645300
C1041	C104	0.173600	0.323800	0.594200
C1051	C105	0.237800	0.300300	0.647300
C1061	C106	0.162200	0.040200	0.653400
C1071	C107	0.184000	0.056000	0.738000
C1081	C108	0.225900	0.117000	0.792900
H1741	H174	0.243800	0.150500	0.780400
C1091	C109	0.240000	0.125900	0.865700
H1751	H175	0.267300	0.167200	0.903300
C1101	C110	0.214700	0.075400	0.884400
H1761	H176	0.223600	0.083000	0.933500
C1111	C111	0.175500	0.012400	0.829300
C1121	C112	0.150100	0.946400	0.845400
