data_FORTUD_freeONLY_PM
_symmetry_space_group_name_H-M	'P1'
_cell_length_a	33.003000
_cell_length_b	34.597000
_cell_length_c	34.597000
_cell_angle_alpha	120.000000
_cell_angle_beta	90.000000
_cell_angle_gamma	90.000000
_symmetry_Int_Tables_number 1

loop_
_symmetry_equiv_pos_as_xyz
'x,y,z'

loop_
_atom_site_label
_atom_site_type_symbol
_atom_site_fract_x
_atom_site_fract_y
_atom_site_fract_z
Zn11	Zn1	0.822970	0.434810	0.489950
Zn21	Zn2	0.730160	0.409570	0.001650
Zn31	Zn3	0.769840	0.592080	0.001650
Zn41	Zn4	0.269840	0.407920	0.998350
Zn51	Zn5	0.170980	0.510690	0.954060
Zn61	Zn6	0.985470	0.709640	0.316730
Zn71	Zn7	0.750000	0.499470	0.998940
Zn81	Zn8	0.170980	0.443370	0.489310
Zn91	Zn9	0.170980	0.045940	0.556630
Zn101	Zn10	0.485470	0.392910	0.709640
Zn111	Zn11	0.230160	0.001650	0.592080
Zn121	Zn12	0.985470	0.607090	0.290360
Zn131	Zn13	0.177030	0.944860	0.510050
Zn141	Zn14	0.730160	0.592080	0.590430
Zn151	Zn15	0.329020	0.510690	0.556630
Zn161	Zn16	0.329020	0.443370	0.954060
Zn171	Zn17	0.177030	0.489950	0.434810
Zn181	Zn18	0.670980	0.954060	0.443370
Zn191	Zn19	0.829020	0.489310	0.443370
Zn201	Zn20	0.322970	0.944860	0.434810
Zn211	Zn21	0.514530	0.683270	0.290360
Zn221	Zn22	0.250000	0.500530	0.499470
Zn231	Zn23	0.230160	0.407920	0.409570
Zn241	Zn24	0.014530	0.290360	0.607090
Zn251	Zn25	0.769840	0.409570	0.407920
Zn261	Zn26	0.750000	0.001060	0.500530
Zn271	Zn27	0.269840	0.590430	0.592080
Zn281	Zn28	0.014530	0.392910	0.683270
Zn291	Zn29	0.670980	0.489310	0.045940
Zn301	Zn30	0.829020	0.556630	0.045940
Zn311	Zn31	0.822970	0.510050	0.944860
Zn321	Zn32	0.269840	0.001650	0.409570
Zn331	Zn33	0.250000	0.998940	0.499470
Zn341	Zn34	0.677030	0.510050	0.565190
Zn351	Zn35	0.250000	0.500530	0.001060
Zn361	Zn36	0.514530	0.709640	0.392910
Zn371	Zn37	0.562570	0.333330	0.666660
Zn381	Zn38	0.177030	0.565190	0.055140
Zn391	Zn39	0.329020	0.045940	0.489310
Zn401	Zn40	0.322970	0.565190	0.510050
Zn411	Zn41	0.677030	0.055140	0.489950
Zn421	Zn42	0.485470	0.316730	0.607090
Zn431	Zn43	0.062570	0.666670	0.333340
Zn441	Zn44	0.437430	0.666670	0.333340
Zn451	Zn45	0.670980	0.556630	0.510690
Zn461	Zn46	0.985470	0.683270	0.392910
Zn471	Zn47	0.730160	0.998350	0.407920
Zn481	Zn48	0.514530	0.607090	0.316730
Zn491	Zn49	0.829020	0.954060	0.510690
Zn501	Zn50	0.769840	0.998350	0.590430
Zn511	Zn51	0.750000	0.499470	0.500530
Zn521	Zn52	0.677030	0.434810	0.944860
Zn531	Zn53	0.322970	0.489950	0.055140
Zn541	Zn54	0.937430	0.333330	0.666660
Zn551	Zn55	0.230160	0.590430	0.998350
Zn561	Zn56	0.822970	0.055140	0.565190
Zn571	Zn57	0.014530	0.316730	0.709640
Zn581	Zn58	0.485470	0.290360	0.683270
H11	H1	0.370800	0.635500	0.948100
H21	H2	0.668100	0.613900	0.735200
H31	H3	0.588100	0.971100	0.635700
H41	H4	0.439300	0.950500	0.418300
H51	H5	0.309600	0.822600	0.374900
H61	H6	0.778600	0.697900	0.613000
H71	H7	0.689300	0.677500	0.123500
H81	H8	0.846500	0.347100	0.791000
H91	H9	0.016500	0.965200	0.528900
H101	H10	0.194000	0.677800	0.617000
H111	H11	0.177300	0.693600	0.074400
H121	H12	0.605000	0.749400	0.540700
H131	H13	0.420100	0.392000	0.559700
H141	H14	0.975700	0.394400	0.476300
H151	H15	0.615400	0.446900	0.379700
H161	H16	0.773500	0.589700	0.386500
H171	H17	0.639800	0.673700	0.183800
H181	H18	0.922400	0.490300	0.525700
H191	H19	0.815300	0.788600	0.385900
H201	H20	0.897700	0.902200	0.414500
H211	H21	0.016500	0.471100	0.436300
H221	H22	0.750300	0.602600	0.896800
H231	H23	0.194400	0.552900	0.230300
H241	H24	0.135900	0.589700	0.372800
H251	H25	0.815300	0.597300	0.211400
H261	H26	0.822700	0.619200	0.925600
H271	H27	0.139800	0.326300	0.816200
H281	H28	0.032300	0.524300	0.502900
H291	H29	0.858500	0.728700	0.128200
H301	H30	0.703700	0.722900	0.553700
H311	H31	0.273500	0.410300	0.613500
H321	H32	0.176900	0.492800	0.703300
H331	H33	0.895000	0.749400	0.208700
H341	H34	0.395000	0.208700	0.459300
H351	H35	0.102300	0.487700	0.585500
H361	H36	0.248400	0.812500	0.455800
H371	H37	0.250300	0.397400	0.103200
H381	H38	0.852800	0.437200	0.230900
H391	H39	0.725000	0.216800	0.961100
H401	H40	0.764000	0.603100	0.853700
H411	H41	0.164400	0.446700	0.662400
H421	H42	0.656200	0.319100	0.408700
H431	H43	0.805600	0.447100	0.677400
H441	H44	0.701100	0.693800	0.501600
H451	H45	0.688600	0.611100	0.436300
H461	H46	0.864100	0.410300	0.783100
H471	H47	0.516500	0.528900	0.563700
H481	H48	0.852800	0.769100	0.206300
H491	H49	0.190400	0.625100	0.177400
H501	H50	0.804500	0.707600	0.899800
H511	H51	0.773500	0.796800	0.410300
H521	H52	0.201100	0.501600	0.807800
H531	H53	0.195500	0.899800	0.707600
H541	H54	0.060700	0.950500	0.532200
H551	H55	0.309600	0.625100	0.447700
H561	H56	0.189300	0.123500	0.446000
H571	H57	0.843800	0.591300	0.680900
H581	H58	0.483500	0.965200	0.436300
H591	H59	0.200400	0.329200	0.469200
H601	H60	0.467700	0.524300	0.021400
H611	H61	0.194400	0.677400	0.447100
H621	H62	0.654200	0.077700	0.343000
H631	H63	0.422400	0.509700	0.474300
H641	H64	0.271600	0.366000	0.248900
H651	H65	0.736000	0.250600	0.853700
H661	H66	0.024300	0.476300	0.394400
H671	H67	0.271600	0.882900	0.634000
H681	H68	0.860200	0.816200	0.326300
H691	H69	0.642000	0.764400	0.253400
H701	H70	0.383300	0.517300	0.377800
H711	H71	0.728400	0.248900	0.366000
H721	H72	0.358500	0.128200	0.399500
H731	H73	0.079900	0.440300	0.608000
H741	H74	0.032300	0.497100	0.021400
H751	H75	0.241700	0.302500	0.191100
H761	H76	0.525500	0.416200	0.836300
H771	H77	0.397700	0.487700	0.902200
H781	H78	0.129200	0.051900	0.364500
H791	H79	0.228400	0.366000	0.117100
H801	H80	0.654200	0.657000	0.734700
H811	H81	0.345800	0.922300	0.265300
H821	H82	0.124800	0.667900	0.526400
H831	H83	0.079900	0.167700	0.559700
H841	H84	0.653500	0.443900	0.791000
H851	H85	0.250300	0.896800	0.294200
H861	H86	0.721400	0.915100	0.613000
H871	H87	0.911900	0.364300	0.028900
H881	H88	0.641500	0.871800	0.271300
H891	H89	0.221400	0.084900	0.387000
H901	H90	0.311400	0.174800	0.563700
H911	H91	0.677300	0.306400	0.925600
H921	H92	0.221400	0.613000	0.697900
H931	H93	0.895000	0.459300	0.250600
H941	H94	0.708900	0.190500	0.855500
H951	H95	0.845800	0.265300	0.343000
H961	H96	0.156200	0.910400	0.319100
H971	H97	0.101600	0.576000	0.872000
H981	H98	0.398600	0.308500	0.773800
H991	H99	0.858500	0.399500	0.271300
H1001	H100	0.156200	0.680900	0.591300
H1011	H101	0.420100	0.167700	0.608000
H1021	H102	0.624800	0.332100	0.473600
H1031	H103	0.635900	0.216900	0.589700
H1041	H104	0.358500	0.600500	0.728700
H1051	H105	0.884600	0.446900	0.067200
H1061	H106	0.835300	0.209000	0.512100
H1071	H107	0.264000	0.749400	0.603100
H1081	H108	0.524300	0.081900	0.476300
H1091	H109	0.101400	0.465300	0.773800
H1101	H110	0.142000	0.235600	0.746600
H1111	H111	0.550500	0.060300	0.568400
H1121	H112	0.804500	0.192200	0.292400
H1131	H113	0.651200	0.311000	0.360200
H1141	H114	0.739000	0.922800	0.678300
H1151	H115	0.684700	0.597300	0.385900
H1161	H116	0.898400	0.872000	0.576000
H1171	H117	0.305600	0.677400	0.230300
H1181	H118	0.974500	0.163700	0.583800
H1191	H119	0.315300	0.211400	0.614100
H1201	H120	0.615400	0.932800	0.553100
H1211	H121	0.601400	0.691500	0.465300
H1221	H122	0.291100	0.335000	0.144500
H1231	H123	0.370800	0.051900	0.687400
H1241	H124	0.115400	0.379700	0.932800
H1251	H125	0.810700	0.876500	0.322500
H1261	H126	0.101400	0.308500	0.534700
H1271	H127	0.668100	0.264800	0.878700
H1281	H128	0.883300	0.139500	0.517300
H1291	H129	0.605000	0.791300	0.250600
H1301	H130	0.748400	0.187500	0.544200
H1311	H131	0.398400	0.296000	0.872000
H1321	H132	0.304500	0.899800	0.192200
H1331	H133	0.296300	0.277100	0.830800
H1341	H134	0.641500	0.728700	0.600500
H1351	H135	0.139400	0.100600	0.676500
H1361	H136	0.116700	0.622200	0.482700
H1371	H137	0.060700	0.581700	0.049500
H1381	H138	0.016500	0.563700	0.034800
H1391	H139	0.764000	0.146300	0.749400
H1401	H140	0.101600	0.128000	0.704000
H1411	H141	0.151200	0.950800	0.311000
H1421	H142	0.616700	0.139500	0.622200
H1431	H143	0.758300	0.111400	0.808900
H1441	H144	0.758300	0.697500	0.888600
H1451	H145	0.507100	0.890700	0.459800
H1461	H146	0.352800	0.230900	0.793700
H1471	H147	0.315300	0.402700	0.788600
H1481	H148	0.775000	0.038900	0.783200
H1491	H149	0.791100	0.665000	0.855500
H1501	H150	0.397700	0.414500	0.512300
H1511	H151	0.701100	0.807800	0.306200
H1521	H152	0.639400	0.676500	0.575900
H1531	H153	0.011600	0.413300	0.525500
H1541	H154	0.653500	0.209000	0.652900
H1551	H155	0.775000	0.744300	0.961100
H1561	H156	0.050500	0.939700	0.431600
H1571	H157	0.194000	0.939200	0.322200
H1581	H158	0.798900	0.498400	0.306200
H1591	H159	0.264000	0.853700	0.250600
H1601	H160	0.101400	0.226200	0.691500
H1611	H161	0.323100	0.492800	0.789500
H1621	H162	0.164400	0.337600	0.784300
H1631	H163	0.151200	0.360200	0.049200
H1641	H164	0.395000	0.540700	0.749400
H1651	H165	0.684700	0.614100	0.211400
H1661	H166	0.694400	0.447100	0.769700
H1671	H167	0.156200	0.408700	0.089600
H1681	H168	0.616700	0.482700	0.860500
H1691	H169	0.154200	0.734700	0.077700
H1701	H170	0.105000	0.208700	0.749400
H1711	H171	0.378100	0.670600	0.998500
H1721	H172	0.798900	0.693800	0.192200
H1731	H173	0.976900	0.932000	0.475000
H1741	H174	0.228400	0.751100	0.634000
H1751	H175	0.653500	0.347100	0.556100
H1761	H176	0.751600	0.187500	0.643300
H1771	H177	0.668100	0.121300	0.386100
H1781	H178	0.124800	0.858500	0.332100
H1791	H179	0.296300	0.553700	0.722900
H1801	H180	0.378100	0.327900	0.329400
H1811	H181	0.761000	0.755500	0.678300
H1821	H182	0.860200	0.510100	0.183800
H1831	H183	0.629200	0.948100	0.635500
H1841	H184	0.967700	0.021400	0.497100
H1851	H185	0.550500	0.431600	0.491900
H1861	H186	0.188600	0.388900	0.563700
H1871	H187	0.343800	0.408700	0.319100
H1881	H188	0.331900	0.878700	0.264800
H1891	H189	0.831900	0.613900	0.878700
H1901	H190	0.664400	0.662400	0.215700
H1911	H191	0.809600	0.447700	0.822600
H1921	H192	0.105000	0.250600	0.459300
H1931	H193	0.476900	0.068000	0.525000
H1941	H194	0.154200	0.922300	0.657000
H1951	H195	0.550500	0.508100	0.939700
H1961	H196	0.348800	0.689000	0.049200
H1971	H197	0.579900	0.608000	0.167700
H1981	H198	0.618800	0.095300	0.624300
H1991	H199	0.184700	0.402700	0.614100
H2001	H200	0.601600	0.872000	0.296000
H2011	H201	0.664400	0.553300	0.337600
H2021	H202	0.105000	0.540700	0.791300
H2031	H203	0.141500	0.600500	0.871800
H2041	H204	0.331900	0.386100	0.121300
H2051	H205	0.007100	0.109300	0.540200
H2061	H206	0.375200	0.858500	0.526400
H2071	H207	0.360600	0.323500	0.899400
H2081	H208	0.306000	0.383000	0.322200
H2091	H209	0.822700	0.074400	0.693600
H2101	H210	0.811400	0.563700	0.388900
H2111	H211	0.664400	0.784300	0.446700
H2121	H212	0.860200	0.673700	0.489900
H2131	H213	0.798900	0.807800	0.501600
H2141	H214	0.411900	0.028900	0.664600
H2151	H215	0.476900	0.475000	0.543000
H2161	H216	0.153500	0.791000	0.347100
H2171	H217	0.799600	0.469200	0.329200
H2181	H218	0.474500	0.579900	0.163700
H2191	H219	0.208900	0.335000	0.190500
H2201	H220	0.695500	0.707600	0.807800
H2211	H221	0.577600	0.474300	0.509700
H2221	H222	0.331900	0.735200	0.613900
H2231	H223	0.398600	0.226200	0.534700
H2241	H224	0.335600	0.446700	0.784300
H2251	H225	0.345800	0.734700	0.657000
H2261	H226	0.639800	0.510100	0.326300
H2271	H227	0.007100	0.459800	0.569100
H2281	H228	0.360200	0.183800	0.673700
H2291	H229	0.690400	0.447700	0.625100
H2301	H230	0.352800	0.206300	0.437200
H2311	H231	0.771600	0.634000	0.751100
H2321	H232	0.226500	0.203200	0.613500
H2331	H233	0.870800	0.948100	0.312600
H2341	H234	0.805600	0.230300	0.552900
H2351	H235	0.025500	0.836300	0.420100
H2361	H236	0.278600	0.613000	0.915100
H2371	H237	0.761000	0.321700	0.077200
H2381	H238	0.194400	0.769700	0.322600
H2391	H239	0.335300	0.512100	0.303100
H2401	H240	0.475700	0.918100	0.394400
H2411	H241	0.188600	0.436300	0.825200
H2421	H242	0.677300	0.619200	0.693600
H2431	H243	0.602300	0.512300	0.414500
H2441	H244	0.195500	0.292400	0.192200
H2451	H245	0.225000	0.783200	0.038900
H2461	H246	0.690400	0.177400	0.552300
H2471	H247	0.983500	0.034800	0.563700
H2481	H248	0.323100	0.296700	0.507200
H2491	H249	0.024300	0.918100	0.523700
H2501	H250	0.275000	0.255700	0.038900
H2511	H251	0.694400	0.230300	0.677400
H2521	H252	0.129200	0.312600	0.948100
H2531	H253	0.115400	0.553100	0.620300
H2541	H254	0.164700	0.512100	0.209000
H2551	H255	0.439300	0.581700	0.532200
H2561	H256	0.346500	0.791000	0.443900
H2571	H257	0.360600	0.575900	0.676500
H2581	H258	0.360200	0.489900	0.816200
H2591	H259	0.898400	0.424000	0.296000
H2601	H260	0.135900	0.627200	0.216900
H2611	H261	0.988400	0.586700	0.112200
H2621	H262	0.249700	0.896800	0.602600
H2631	H263	0.751600	0.356700	0.544200
H2641	H264	0.251600	0.544200	0.187500
H2651	H265	0.249700	0.397400	0.294200
H2661	H266	0.708900	0.144500	0.335000
H2671	H267	0.525500	0.420100	0.583800
H2681	H268	0.248400	0.643300	0.187500
H2691	H269	0.602300	0.585500	0.097800
H2701	H270	0.860600	0.676500	0.100600
H2711	H271	0.299600	0.530800	0.670800
H2721	H272	0.121900	0.001500	0.329400
H2731	H273	0.694000	0.617000	0.939200
H2741	H274	0.560700	0.418300	0.950500
H2751	H275	0.664700	0.487900	0.791000
H2761	H276	0.315300	0.385900	0.597300
H2771	H277	0.641500	0.399500	0.128200
H2781	H278	0.023100	0.068000	0.543000
H2791	H279	0.897700	0.585500	0.487700
H2801	H280	0.579900	0.832300	0.440300
H2811	H281	0.225000	0.255700	0.216800
H2821	H282	0.511600	0.887800	0.413300
H2831	H283	0.656200	0.089600	0.680900
H2841	H284	0.700400	0.469200	0.140000
H2851	H285	0.291100	0.809500	0.665000
H2861	H286	0.241700	0.888600	0.697500
H2871	H287	0.147200	0.562800	0.793700
H2881	H288	0.761000	0.922800	0.244500
H2891	H289	0.523100	0.525000	0.068000
H2901	H290	0.726500	0.589700	0.203200
H2911	H291	0.524300	0.523700	0.605600
H2921	H292	0.201100	0.306200	0.498400
H2931	H293	0.721400	0.697900	0.084900
H2941	H294	0.773500	0.613500	0.203200
H2951	H295	0.492900	0.430900	0.540200
H2961	H296	0.601400	0.773800	0.308500
H2971	H297	0.153500	0.652900	0.443900
H2981	H298	0.898600	0.534700	0.308500
H2991	H299	0.239000	0.244500	0.922800
H3001	H300	0.750300	0.103200	0.705800
H3011	H301	0.060700	0.467800	0.418300
H3021	H302	0.024300	0.605600	0.081900
H3031	H303	0.806000	0.617000	0.677800
H3041	H304	0.384600	0.067200	0.620300
H3051	H305	0.654200	0.265300	0.922300
H3061	H306	0.226500	0.386500	0.589700
H3071	H307	0.920100	0.608000	0.440300
H3081	H308	0.878100	0.672100	0.670600
H3091	H309	0.976900	0.543000	0.068000
H3101	H310	0.164700	0.696900	0.487900
H3111	H311	0.275000	0.961100	0.216800
H3121	H312	0.343800	0.910400	0.591300
H3131	H313	0.023100	0.475000	0.932000
H3141	H314	0.323100	0.210500	0.703300
H3151	H315	0.684700	0.788600	0.402700
H3161	H316	0.250300	0.705800	0.602600
H3171	H317	0.189300	0.322500	0.876500
H3181	H318	0.728400	0.634000	0.882900
H3191	H319	0.577600	0.035400	0.525700
H3201	H320	0.647200	0.437200	0.206300
H3211	H321	0.189300	0.554000	0.677500
H3221	H322	0.949500	0.431600	0.939700
H3231	H323	0.878100	0.998500	0.327900
H3241	H324	0.236000	0.396900	0.250600
H3251	H325	0.848800	0.639800	0.689000
H3261	H326	0.381200	0.904700	0.529000
H3271	H327	0.751600	0.455800	0.812500
H3281	H328	0.736000	0.146300	0.396900
H3291	H329	0.121900	0.670600	0.672100
H3301	H330	0.475700	0.605600	0.523700
H3311	H331	0.358000	0.235600	0.489000
H3321	H332	0.221400	0.302100	0.915100
H3331	H333	0.184700	0.211400	0.597300
H3341	H334	0.195500	0.807800	0.100200
H3351	H335	0.664700	0.303100	0.512100
H3361	H336	0.639800	0.816200	0.489900
H3371	H337	0.810700	0.446000	0.123500
H3381	H338	0.258300	0.302500	0.111400
H3391	H339	0.101600	0.296000	0.424000
H3401	H340	0.739000	0.321700	0.244500
H3411	H341	0.398400	0.576000	0.704000
H3421	H342	0.352800	0.562800	0.769100
H3431	H343	0.474500	0.583800	0.420100
H3441	H344	0.911900	0.664600	0.635700
H3451	H345	0.343800	0.680900	0.089600
H3461	H346	0.011600	0.112200	0.586700
H3471	H347	0.791100	0.190500	0.335000
H3481	H348	0.749700	0.103200	0.397400
H3491	H349	0.310700	0.322500	0.446000
H3501	H350	0.967700	0.502900	0.524300
H3511	H351	0.395000	0.250600	0.791300
H3521	H352	0.694000	0.060800	0.677800
H3531	H353	0.375200	0.473600	0.332100
H3541	H354	0.835600	0.553300	0.215700
H3551	H355	0.881200	0.375700	0.904700
H3561	H356	0.190400	0.822600	0.447700
H3571	H357	0.023100	0.457000	0.525000
H3581	H358	0.271600	0.751100	0.117100
H3591	H359	0.615400	0.620300	0.067200
H3601	H360	0.121900	0.327900	0.998500
H3611	H361	0.736000	0.603100	0.749400
H3621	H362	0.475700	0.476300	0.081900
H3631	H363	0.422400	0.525700	0.035400
H3641	H364	0.809600	0.374900	0.552300
H3651	H365	0.725000	0.744300	0.783200
H3661	H366	0.203700	0.277100	0.446300
H3671	H367	0.258300	0.888600	0.191100
H3681	H368	0.118800	0.471000	0.095300
H3691	H369	0.488400	0.112200	0.525500
H3701	H370	0.261000	0.244500	0.321700
H3711	H371	0.804500	0.100200	0.807800
H3721	H372	0.983500	0.436300	0.471100
H3731	H373	0.758300	0.191100	0.302500
H3741	H374	0.949500	0.508100	0.568400
H3751	H375	0.878100	0.329400	0.001500
H3761	H376	0.201100	0.192200	0.693800
H3771	H377	0.248400	0.544200	0.356700
H3781	H378	0.845800	0.077700	0.734700
H3791	H379	0.139400	0.575900	0.899400
H3801	H380	0.088100	0.635700	0.664600
H3811	H381	0.739000	0.755500	0.077200
H3821	H382	0.676900	0.703300	0.210500
H3831	H383	0.741700	0.191100	0.888600
H3841	H384	0.858500	0.871800	0.600500
H3851	H385	0.796300	0.722900	0.169200
H3861	H386	0.370800	0.312600	0.364500
H3871	H387	0.304500	0.292400	0.100200
H3881	H388	0.700400	0.670800	0.530800
H3891	H389	0.079900	0.392000	0.832300
H3901	H390	0.011600	0.474500	0.887800
H3911	H391	0.992900	0.569100	0.459800
H3921	H392	0.806000	0.060800	0.383000
H3931	H393	0.411900	0.635700	0.971100
H3941	H394	0.883300	0.482700	0.622200
H3951	H395	0.831900	0.121300	0.735200
H3961	H396	0.700400	0.860000	0.329200
H3971	H397	0.358000	0.253400	0.764400
H3981	H398	0.516500	0.436300	0.965200
H3991	H399	0.275000	0.783200	0.744300
H4001	H400	0.835300	0.303100	0.791000
H4011	H401	0.726500	0.796800	0.386500
H4021	H402	0.858000	0.764400	0.511000
H4031	H403	0.525500	0.163700	0.579900
H4041	H404	0.810700	0.677500	0.554000
H4051	H405	0.177300	0.925600	0.619200
H4061	H406	0.629200	0.364500	0.312600
H4071	H407	0.846500	0.209000	0.556100
H4081	H408	0.822700	0.306400	0.380800
H4091	H409	0.449500	0.568400	0.060300
H4101	H410	0.488400	0.474500	0.586700
H4111	H411	0.139800	0.489900	0.673700
H4121	H412	0.278600	0.302100	0.387000
H4131	H413	0.147200	0.206300	0.769100
H4141	H414	0.278600	0.084900	0.697900
H4151	H415	0.858000	0.489000	0.253400
H4161	H416	0.309600	0.552300	0.177400
H4171	H417	0.139400	0.323500	0.424100
H4181	H418	0.771600	0.117100	0.366000
H4191	H419	0.398600	0.465300	0.691500
H4201	H420	0.601400	0.534700	0.226200
H4211	H421	0.898400	0.704000	0.128000
H4221	H422	0.939300	0.532200	0.950500
H4231	H423	0.273500	0.203200	0.589700
H4241	H424	0.102300	0.097800	0.512300
H4251	H425	0.364100	0.783100	0.372800
H4261	H426	0.689300	0.446000	0.322500
H4271	H427	0.688600	0.563700	0.174800
H4281	H428	0.741700	0.697500	0.808900
H4291	H429	0.647200	0.793700	0.230900
H4301	H430	0.523100	0.543000	0.475000
H4311	H431	0.988400	0.887800	0.474500
H4321	H432	0.147200	0.230900	0.437200
H4331	H433	0.322700	0.925600	0.306400
H4341	H434	0.560700	0.049500	0.467800
H4351	H435	0.467700	0.497100	0.475700
H4361	H436	0.852800	0.793700	0.562800
H4371	H437	0.775000	0.216800	0.255700
H4381	H438	0.077600	0.964600	0.474300
H4391	H439	0.422400	0.964600	0.490300
H4401	H440	0.911900	0.971100	0.335400
H4411	H441	0.304500	0.807800	0.707600
H4421	H442	0.164700	0.791000	0.303100
H4431	H443	0.151200	0.689000	0.639800
H4441	H444	0.823100	0.789500	0.296700
H4451	H445	0.311400	0.436300	0.611100
H4461	H446	0.524300	0.394400	0.918100
H4471	H447	0.364100	0.589700	0.216900
H4481	H448	0.577600	0.490300	0.964600
H4491	H449	0.726500	0.613500	0.410300
H4501	H450	0.184700	0.385900	0.788600
H4511	H451	0.621900	0.998500	0.670600
H4521	H452	0.305600	0.769700	0.447100
H4531	H453	0.835600	0.784300	0.337600
H4541	H454	0.168100	0.735200	0.121300
H4551	H455	0.983500	0.528900	0.965200
H4561	H456	0.115400	0.067200	0.446900
H4571	H457	0.088100	0.335400	0.971100
H4581	H458	0.898600	0.691500	0.226200
H4591	H459	0.200400	0.140000	0.670800
H4601	H460	0.920100	0.832300	0.392000
H4611	H461	0.311400	0.388900	0.825200
H4621	H462	0.176900	0.296700	0.789500
H4631	H463	0.239000	0.077200	0.321700
H4641	H464	0.796300	0.830800	0.553700
H4651	H465	0.741700	0.111400	0.302500
H4661	H466	0.642000	0.746600	0.511000
H4671	H467	0.579900	0.559700	0.392000
H4681	H468	0.799600	0.670800	0.140000
H4691	H469	0.507100	0.540200	0.430900
H4701	H470	0.688600	0.825200	0.388900
H4711	H471	0.639400	0.424100	0.100600
H4721	H472	0.305600	0.552900	0.322600
H4731	H473	0.335300	0.791000	0.487900
H4741	H474	0.884600	0.620300	0.553100
H4751	H475	0.639400	0.899400	0.323500
H4761	H476	0.208900	0.855500	0.665000
H4771	H477	0.511600	0.586700	0.474500
H4781	H478	0.208900	0.809500	0.144500
H4791	H479	0.249700	0.705800	0.103200
H4801	H480	0.846500	0.443900	0.652900
H4811	H481	0.897700	0.512300	0.097800
H4821	H482	0.299600	0.329200	0.860000
H4831	H483	0.616700	0.377800	0.517300
H4841	H484	0.823100	0.703300	0.492800
H4851	H485	0.975700	0.523700	0.918100
H4861	H486	0.805600	0.322600	0.769700
H4871	H487	0.261000	0.077200	0.755500
H4881	H488	0.516500	0.034800	0.471100
H4891	H489	0.728400	0.117100	0.751100
H4901	H490	0.843800	0.319100	0.910400
H4911	H491	0.124800	0.473600	0.141500
H4921	H492	0.621900	0.672100	0.001500
H4931	H493	0.651200	0.639800	0.950800
H4941	H494	0.239000	0.678300	0.755500
H4951	H495	0.939300	0.049500	0.581700
H4961	H496	0.102300	0.414500	0.902200
H4971	H497	0.142000	0.511000	0.764400
H4981	H498	0.689300	0.876500	0.554000
H4991	H499	0.642000	0.489000	0.235600
H5001	H500	0.142000	0.253400	0.489000
H5011	H501	0.601600	0.424000	0.128000
H5021	H502	0.226500	0.410300	0.796800
H5031	H503	0.601600	0.704000	0.576000
H5041	H504	0.375200	0.667900	0.141500
H5051	H505	0.806000	0.322200	0.939200
H5061	H506	0.492900	0.109300	0.569100
H5071	H507	0.346500	0.556100	0.347100
H5081	H508	0.976900	0.525000	0.457000
H5091	H509	0.397700	0.097800	0.585500
H5101	H510	0.875200	0.332100	0.858500
H5111	H511	0.088100	0.028900	0.364300
H5121	H512	0.694400	0.322600	0.552900
H5131	H513	0.050500	0.491900	0.060300
H5141	H514	0.695500	0.100200	0.292400
H5151	H515	0.141500	0.271300	0.399500
H5161	H516	0.236000	0.749400	0.146300
H5171	H517	0.621900	0.329400	0.327900
H5181	H518	0.708900	0.665000	0.809500
H5191	H519	0.467700	0.978600	0.502900
H5201	H520	0.811400	0.611100	0.174800
H5211	H521	0.310700	0.123500	0.677500
H5221	H522	0.843800	0.089600	0.408700
H5231	H523	0.764000	0.250600	0.396900
H5241	H524	0.629200	0.687400	0.051900
H5251	H525	0.656200	0.591300	0.910400
H5261	H526	0.523100	0.932000	0.457000
H5271	H527	0.975700	0.081900	0.605600
H5281	H528	0.974500	0.420100	0.836300
H5291	H529	0.588100	0.664600	0.028900
H5301	H530	0.778600	0.387000	0.084900
H5311	H531	0.168100	0.386100	0.264800
H5321	H532	0.335600	0.337600	0.553300
H5331	H533	0.398400	0.128000	0.424000
H5341	H534	0.690400	0.374900	0.822600
H5351	H535	0.560700	0.532200	0.581700
H5361	H536	0.860600	0.424100	0.323500
H5371	H537	0.835600	0.662400	0.446700
H5381	H538	0.346500	0.652900	0.209000
H5391	H539	0.677300	0.074400	0.380800
H5401	H540	0.291100	0.855500	0.190500
H5411	H541	0.483500	0.563700	0.528900
H5421	H542	0.635900	0.372800	0.783100
H5431	H543	0.383300	0.622200	0.139500
H5441	H544	0.532300	0.475700	0.497100
H5451	H545	0.176900	0.210500	0.507200
H5461	H546	0.922400	0.035400	0.509700
H5471	H547	0.378100	0.001500	0.672100
H5481	H548	0.967700	0.475700	0.978600
H5491	H549	0.949500	0.060300	0.491900
H5501	H550	0.383300	0.860500	0.482700
H5511	H551	0.881200	0.095300	0.471000
H5521	H552	0.298900	0.306200	0.807800
H5531	H553	0.664700	0.209000	0.696900
H5541	H554	0.703700	0.830800	0.277100
H5551	H555	0.701100	0.498400	0.192200
H5561	H556	0.139800	0.183800	0.510100
H5571	H557	0.860600	0.899400	0.575900
H5581	H558	0.694000	0.322200	0.383000
H5591	H559	0.703700	0.446300	0.169200
H5601	H560	0.721400	0.387000	0.302100
H5611	H561	0.870800	0.687400	0.635500
H5621	H562	0.476900	0.457000	0.932000
H5631	H563	0.858000	0.746600	0.235600
H5641	H564	0.895000	0.791300	0.540700
H5651	H565	0.358000	0.511000	0.746600
H5661	H566	0.025500	0.583800	0.163700
H5671	H567	0.624800	0.526400	0.858500
H5681	H568	0.360600	0.100600	0.424100
H5691	H569	0.306000	0.677800	0.060800
H5701	H570	0.118800	0.904700	0.375700
H5711	H571	0.129200	0.635500	0.687400
H5721	H572	0.310700	0.554000	0.876500
H5731	H573	0.749700	0.602600	0.705800
H5741	H574	0.177300	0.380800	0.306400
H5751	H575	0.835300	0.487900	0.696900
H5761	H576	0.261000	0.678300	0.922800
H5771	H577	0.602300	0.902200	0.487700
H5781	H578	0.809600	0.177400	0.625100
H5791	H579	0.273500	0.386500	0.796800
H5801	H580	0.864100	0.372800	0.589700
H5811	H581	0.823100	0.507200	0.210500
H5821	H582	0.298900	0.192200	0.498400
H5831	H583	0.511600	0.525500	0.112200
H5841	H584	0.939300	0.418300	0.467800
H5851	H585	0.811400	0.825200	0.436300
H5861	H586	0.335600	0.215700	0.662400
H5871	H587	0.605000	0.459300	0.208700
H5881	H588	0.771600	0.248900	0.882900
H5891	H589	0.725000	0.038900	0.255700
H5901	H590	0.439300	0.467800	0.049500
H5911	H591	0.875200	0.526400	0.667900
H5921	H592	0.676900	0.507200	0.296700
H5931	H593	0.296300	0.169200	0.446300
H5941	H594	0.298900	0.501600	0.693800
H5951	H595	0.322700	0.380800	0.074400
H5961	H596	0.153500	0.556100	0.209000
H5971	H597	0.618800	0.529000	0.904700
H5981	H598	0.228400	0.882900	0.248900
H5991	H599	0.360200	0.326300	0.510100
H6001	H600	0.116700	0.517300	0.139500
H6011	H601	0.532300	0.021400	0.524300
H6021	H602	0.992900	0.540200	0.109300
H6031	H603	0.791100	0.144500	0.809500
H6041	H604	0.188600	0.174800	0.611100
H6051	H605	0.381200	0.471000	0.375700
H6061	H606	0.449500	0.491900	0.431600
H6071	H607	0.796300	0.446300	0.277100
H6081	H608	0.236000	0.853700	0.603100
H6091	H609	0.322700	0.693600	0.619200
H6101	H610	0.974500	0.416200	0.579900
H6111	H611	0.384600	0.379700	0.446900
H6121	H612	0.007100	0.430900	0.890700
H6131	H613	0.624800	0.141500	0.667900
H6141	H614	0.077600	0.525700	0.490300
H6151	H615	0.032300	0.978600	0.475700
H6161	H616	0.306000	0.939200	0.617000
H6171	H617	0.345800	0.343000	0.077700
H6181	H618	0.364100	0.627200	0.410300
H6191	H619	0.118800	0.624300	0.529000
H6201	H620	0.190400	0.552300	0.374900
H6211	H621	0.647200	0.769100	0.562800
H6221	H622	0.618800	0.375700	0.471000
H6231	H623	0.695500	0.192200	0.899800
H6241	H624	0.449500	0.939700	0.508100
H6251	H625	0.884600	0.932800	0.379700
H6261	H626	0.116700	0.860500	0.377800
H6271	H627	0.135900	0.783100	0.410300
H6281	H628	0.488400	0.413300	0.887800
H6291	H629	0.845800	0.657000	0.922300
H6301	H630	0.077600	0.509700	0.035400
H6311	H631	0.750300	0.294200	0.397400
H6321	H632	0.881200	0.529000	0.624300
H6331	H633	0.651200	0.049200	0.689000
H6341	H634	0.815300	0.614100	0.402700
H6351	H635	0.920100	0.559700	0.167700
H6361	H636	0.922400	0.474300	0.964600
H6371	H637	0.358500	0.271300	0.871800
H6381	H638	0.141500	0.128200	0.728700
H6391	H639	0.988400	0.525500	0.413300
H6401	H640	0.299600	0.140000	0.469200
H6411	H641	0.168100	0.878700	0.613900
H6421	H642	0.348800	0.950800	0.639800
H6431	H643	0.251600	0.812500	0.356700
H6441	H644	0.778600	0.915100	0.302100
H6451	H645	0.992900	0.890700	0.430900
H6461	H646	0.870800	0.364500	0.051900
H6471	H647	0.492900	0.459800	0.890700
H6481	H648	0.154200	0.343000	0.265300
H6491	H649	0.748400	0.356700	0.812500
H6501	H650	0.507100	0.569100	0.109300
H6511	H651	0.848800	0.049200	0.360200
H6521	H652	0.748400	0.455800	0.643300
H6531	H653	0.799600	0.860000	0.530800
H6541	H654	0.203700	0.169200	0.722900
H6551	H655	0.164400	0.215700	0.553300
H6561	H656	0.258300	0.808900	0.697500
H6571	H657	0.251600	0.643300	0.455800
H6581	H658	0.831900	0.264800	0.386100
H6591	H659	0.635900	0.410300	0.627200
H6601	H660	0.875200	0.141500	0.473600
H6611	H661	0.050500	0.568400	0.508100
H6621	H662	0.588100	0.364300	0.335400
H6631	H663	0.483500	0.471100	0.034800
H6641	H664	0.335300	0.696900	0.209000
H6651	H665	0.384600	0.553100	0.932800
H6661	H666	0.898600	0.773800	0.465300
H6671	H667	0.225000	0.961100	0.744300
H6681	H668	0.241700	0.808900	0.111400
H6691	H669	0.381200	0.624300	0.095300
H6701	H670	0.200400	0.530800	0.860000
H6711	H671	0.848800	0.311000	0.950800
H6721	H672	0.883300	0.377800	0.860500
H6731	H673	0.676900	0.789500	0.492800
H6741	H674	0.203700	0.553700	0.830800
H6751	H675	0.864100	0.216900	0.627200
H6761	H676	0.411900	0.335400	0.364300
H6771	H677	0.025500	0.579900	0.416200
H6781	H678	0.474500	0.836300	0.416200
H6791	H679	0.194000	0.383000	0.060800
H6801	H680	0.420100	0.440300	0.832300
H6811	H681	0.749700	0.294200	0.896800
H6821	H682	0.348800	0.360200	0.311000
H6831	H683	0.264000	0.396900	0.146300
H6841	H684	0.532300	0.502900	0.978600
C11	C1	0.713140	0.845970	0.451670
C21	C2	0.064300	0.757500	0.376400
C31	C3	0.460600	0.523800	0.076000
C41	C4	0.192100	0.303400	0.470700
C51	C5	0.633900	0.791500	0.254400
C61	C6	0.286860	0.154030	0.605700
C71	C7	0.870400	0.363700	0.875100
C81	C8	0.770000	0.041100	0.726100
C91	C9	0.739900	0.665300	0.681100
C101	C10	0.833800	0.804800	0.326500
C111	C11	0.657080	0.592520	0.971770
C121	C12	0.253200	0.262200	0.309800
C131	C13	0.694800	0.513140	0.357190
C141	C14	0.634350	0.451100	0.601100
C151	C15	0.354200	0.168300	0.468100
C161	C16	0.715500	0.113700	0.315600
C171	C17	0.716200	0.089300	0.342500
C181	C18	0.764020	0.080600	0.487550
C191	C19	0.949200	0.463600	0.954000
C201	C20	0.421830	0.607700	0.410380
C211	C21	0.369950	0.396840	0.437900
C221	C22	0.325000	0.725500	0.634700
C231	C23	0.175300	0.670000	0.463300
C241	C24	0.735980	0.406950	0.487550
C251	C25	0.753900	0.262600	0.379000
C261	C26	0.369950	0.041060	0.603160
C271	C27	0.630600	0.424800	0.127400
C281	C28	0.248500	0.663200	0.691700
C291	C29	0.305030	0.918500	0.521110
C301	C30	0.870400	0.124900	0.488600
C311	C31	0.626100	0.656000	0.491300
C321	C32	0.675180	0.122120	0.627420
C331	C33	0.618200	0.562300	0.095500
C341	C34	0.353310	0.437360	0.469610
C351	C35	0.039400	0.924000	0.476200
C361	C36	0.215500	0.798100	0.113700
C371	C37	0.805030	0.081500	0.478890
C381	C38	0.449200	0.954000	0.490400
C391	C39	0.886750	0.552630	0.423000
C401	C40	0.912980	0.576400	0.373300
C411	C41	0.805030	0.397390	0.918500
C421	C42	0.666200	0.673500	0.195200
C431	C43	0.238220	0.118350	0.539800
C441	C44	0.618200	0.904500	0.466800
C451	C45	0.826280	0.037040	0.447990
C461	C46	0.865650	0.398900	0.548900
C471	C47	0.202200	0.402800	0.592000
C481	C48	0.262600	0.633100	0.160940
C491	C49	0.235980	0.487550	0.080600
C501	C50	0.004800	0.444100	0.537100
C511	C51	0.760100	0.318900	0.334700
C521	C52	0.908530	0.833100	0.417000
C531	C53	0.108990	0.581600	0.112980
C541	C54	0.202200	0.189200	0.597200
C551	C55	0.145800	0.168300	0.700200
C561	C56	0.435700	0.757500	0.381100
C571	C57	0.539400	0.076000	0.523800
C581	C58	0.439000	0.242900	0.612900
C591	C59	0.381060	0.577970	0.192170
C601	C60	0.744950	0.915410	0.503880
C611	C61	0.449200	0.536400	0.046000
C621	C62	0.331470	0.543860	0.006800
C631	C63	0.145800	0.299800	0.468100
C641	C64	0.246100	0.737400	0.116400
C651	C65	0.364750	0.010820	0.618090
C661	C66	0.118200	0.095500	0.533200
C671	C67	0.134350	0.548900	0.398900
C681	C68	0.895600	0.662800	0.202000
C691	C69	0.194800	0.486860	0.642810
C701	C70	0.760100	0.665300	0.984200
C711	C71	0.834600	0.060100	0.387900
C721	C72	0.696390	0.161840	0.642660
C731	C73	0.035000	0.940500	0.517800
C741	C74	0.242800	0.512040	0.391710
C751	C75	0.822400	0.149800	0.609600
C761	C76	0.751500	0.336800	0.028500
C771	C77	0.254800	0.193000	0.956500
C781	C78	0.738220	0.881650	0.460200
C791	C79	0.921830	0.197320	0.607700
C801	C80	0.226610	0.374450	0.913490
C811	C81	0.668530	0.537060	0.993200
C821	C82	0.591470	0.833100	0.416100
C831	C83	0.738220	0.578550	0.118350
C841	C84	0.234600	0.059100	0.382200
C851	C85	0.194970	0.918500	0.397390
C861	C86	0.866100	0.791500	0.537100
C871	C87	0.305030	0.478890	0.397390
C881	C88	0.761780	0.539800	0.118350
C891	C89	0.255050	0.503880	0.915410
C901	C90	0.735980	0.080600	0.593050
C911	C91	0.175300	0.793300	0.330000
C921	C92	0.245200	0.193000	0.236500
C931	C93	0.050800	0.509600	0.046000
C941	C94	0.177600	0.540200	0.390400
C951	C95	0.645800	0.468100	0.168300
C961	C96	0.504800	0.537100	0.093000
C971	C97	0.921830	0.392300	0.589620
C981	C98	0.657080	0.379250	0.407480
C991	C99	0.935700	0.242500	0.618900
C1001	C100	0.753900	0.621000	0.883600
C1011	C101	0.798470	0.877810	0.347270
C1021	C102	0.134350	0.601100	0.150000
C1031	C103	0.175000	0.725500	0.090800
C1041	C104	0.391010	0.531380	0.112980
C1051	C105	0.116800	0.334900	0.975400
C1061	C106	0.052810	0.839700	0.427900
C1071	C107	0.743300	0.264800	0.022300
C1081	C108	0.353310	0.530390	0.967750
C1091	C109	0.175180	0.494700	0.122120
C1101	C110	0.675180	0.505300	0.877880
C1111	C111	0.465000	0.577300	0.517800
C1121	C112	0.873900	0.835300	0.491300
C1131	C113	0.630580	0.871500	0.386900
C1141	C114	0.666200	0.521700	0.326500
C1151	C115	0.831470	0.456140	0.993200
C1161	C116	0.748500	0.691700	0.028500
C1171	C117	0.949200	0.046000	0.509600
C1181	C118	0.196390	0.838160	0.357340
C1191	C119	0.286860	0.394300	0.548330
C1201	C120	0.264020	0.919400	0.512450
C1211	C121	0.854200	0.831700	0.531900
C1221	C122	0.826280	0.410950	0.962960
C1231	C123	0.166200	0.326500	0.804800
C1241	C124	0.891010	0.418400	0.531380
C1251	C125	0.261780	0.460200	0.881650
C1261	C126	0.965000	0.059500	0.577300
C1271	C127	0.745200	0.236500	0.043500
C1281	C128	0.668530	0.456140	0.462940
C1291	C129	0.421830	0.802680	0.392300
C1301	C130	0.146690	0.437360	0.967750
C1311	C131	0.246100	0.883600	0.621000
C1321	C132	0.908530	0.583000	0.416100
C1331	C133	0.381060	0.807830	0.385800
C1341	C134	0.743300	0.977700	0.242500
C1351	C135	0.786860	0.605700	0.451670
C1361	C136	0.716200	0.253200	0.910700
C1371	C137	0.322400	0.850200	0.390400
C1381	C138	0.734600	0.382200	0.323100
C1391	C139	0.334600	0.672200	0.060100
C1401	C140	0.157080	0.407480	0.028230
C1411	C141	0.412980	0.423600	0.626700
C1421	C142	0.753200	0.309800	0.047600
C1431	C143	0.824820	0.372580	0.877880
C1441	C144	0.701530	0.469460	0.347270
C1451	C145	0.881060	0.192170	0.614200
C1461	C146	0.630600	0.872600	0.297400
C1471	C147	0.834600	0.612100	0.672200
C1481	C148	0.630050	0.437900	0.396840
C1491	C149	0.762600	0.366900	0.839060
C1501	C150	0.383200	0.024600	0.665100
C1511	C151	0.260100	0.681100	0.665300
C1521	C152	0.673720	0.410950	0.447990
C1531	C153	0.824700	0.330000	0.793300
C1541	C154	0.354200	0.299800	0.831700
C1551	C155	0.130600	0.575200	0.872600
C1561	C156	0.947190	0.427900	0.839700
C1571	C157	0.248500	0.028500	0.336800
C1581	C158	0.324700	0.793300	0.463300
C1591	C159	0.242800	0.608290	0.120330
C1601	C160	0.129600	0.875100	0.363700
C1611	C161	0.324700	0.536700	0.330000
C1621	C162	0.238220	0.460200	0.578550
C1631	C163	0.307900	0.167300	0.470700
C1641	C164	0.129600	0.636300	0.511400
C1651	C165	0.061000	0.370000	0.612900
C1661	C166	0.364750	0.607270	0.989180
C1671	C167	0.568220	0.456970	0.575100
C1681	C168	0.755050	0.915410	0.411530
C1691	C169	0.257200	0.879670	0.391710
C1701	C170	0.807900	0.696600	0.167300
C1711	C171	0.262600	0.839060	0.472160
C1721	C172	0.383200	0.640500	0.975400
C1731	C173	0.322400	0.609600	0.459800
C1741	C174	0.370400	0.636300	0.124900
C1751	C175	0.805200	0.513140	0.155950
C1761	C176	0.604400	0.798000	0.337200
C1771	C177	0.298470	0.347270	0.469460
C1781	C178	0.305030	0.602610	0.081500
C1791	C179	0.692100	0.832700	0.303400
C1801	C180	0.130050	0.396840	0.958940
C1811	C181	0.173720	0.447990	0.037040
C1821	C182	0.504800	0.555900	0.462900
C1831	C183	0.591470	0.583900	0.417000
C1841	C184	0.130050	0.562100	0.603160
C1851	C185	0.324820	0.627420	0.122120
C1861	C186	0.246100	0.379000	0.262600
C1871	C187	0.251500	0.663200	0.971500
C1881	C188	0.257200	0.512040	0.120330
C1891	C189	0.675300	0.463300	0.793300
C1901	C190	0.421830	0.589620	0.197320
C1911	C191	0.696390	0.357340	0.519180
C1921	C192	0.283800	0.910700	0.253200
C1931	C193	0.824700	0.206700	0.536700
C1941	C194	0.960600	0.476200	0.924000
C1951	C195	0.629600	0.363700	0.488600
C1961	C196	0.283800	0.746800	0.657500
C1971	C197	0.243300	0.735200	0.977700
C1981	C198	0.260100	0.984200	0.318900
C1991	C199	0.243300	0.242500	0.264800
C2001	C200	0.604400	0.539200	0.202000
C2011	C201	0.550800	0.463600	0.509600
C2021	C202	0.535000	0.059500	0.482200
C2031	C203	0.748500	0.336800	0.308300
C2041	C204	0.261780	0.118350	0.578550
C2051	C205	0.495200	0.462900	0.555900
C2061	C206	0.739900	0.015800	0.334700
C2071	C207	0.783800	0.253200	0.342500
C2081	C208	0.213140	0.154030	0.548330
C2091	C209	0.270000	0.726100	0.685000
C2101	C210	0.694970	0.081500	0.602610
C2111	C211	0.325000	0.909200	0.274500
C2121	C212	0.173720	0.962960	0.410950
C2131	C213	0.881800	0.904500	0.437700
C2141	C214	0.746100	0.621000	0.737400
C2151	C215	0.391010	0.887020	0.418400
C2161	C216	0.365650	0.601100	0.451100
C2171	C217	0.833800	0.673500	0.478300
C2181	C218	0.226610	0.086510	0.460960
C2191	C219	0.535000	0.517800	0.577300
C2201	C220	0.742800	0.487960	0.608290
C2211	C221	0.246800	0.047600	0.309800
C2221	C222	0.568220	0.118130	0.543030
C2231	C223	0.091470	0.166900	0.583900
C2241	C224	0.866100	0.462900	0.254400
C2251	C225	0.255050	0.411530	0.496120
C2261	C226	0.675000	0.274500	0.909200
C2271	C227	0.265400	0.617800	0.940900
C2281	C228	0.369420	0.484600	0.613100
C2291	C229	0.630050	0.603160	0.041060
C2301	C230	0.807900	0.470700	0.303400
C2311	C231	0.078170	0.589620	0.392300
C2321	C232	0.786860	0.845970	0.394300
C2331	C233	0.730000	0.041100	0.315000
C2341	C234	0.853310	0.469610	0.032250
C2351	C235	0.238220	0.421450	0.881650
C2361	C236	0.435700	0.618900	0.376400
C2371	C237	0.370400	0.488600	0.363700
C2381	C238	0.635250	0.618090	0.010820
C2391	C239	0.865650	0.451100	0.850000
C2401	C240	0.231700	0.753100	0.022000
C2411	C241	0.762600	0.472160	0.633100
C2421	C242	0.694800	0.844050	0.486860
C2431	C243	0.004800	0.462900	0.907000
C2441	C244	0.126100	0.491300	0.835300
C2451	C245	0.842920	0.379250	0.971770
C2461	C246	0.386750	0.447370	0.577000
C2471	C247	0.765400	0.676900	0.617800
C2481	C248	0.004800	0.093000	0.555900
C2491	C249	0.253900	0.379000	0.116400
C2501	C250	0.130600	0.127400	0.702600
C2511	C251	0.133900	0.254400	0.462900
C2521	C252	0.965000	0.422700	0.482200
C2531	C253	0.246800	0.690200	0.737800
C2541	C254	0.230000	0.958900	0.685000
C2551	C255	0.116800	0.024600	0.359500
C2561	C256	0.564300	0.376400	0.618900
C2571	C257	0.701530	0.652730	0.122190
C2581	C258	0.273390	0.086510	0.625550
C2591	C259	0.165400	0.939900	0.327800
C2601	C260	0.803610	0.161840	0.519180
C2611	C261	0.157080	0.620750	0.592520
C2621	C262	0.737400	0.366900	0.527840
C2631	C263	0.675300	0.206700	0.670000
C2641	C264	0.113250	0.129630	0.577000
C2651	C265	0.831470	0.006800	0.462940
C2661	C266	0.869950	0.437900	0.041060
C2671	C267	0.460600	0.552200	0.476200
C2681	C268	0.064300	0.618900	0.242500
C2691	C269	0.342920	0.620750	0.028230
C2701	C270	0.381060	0.614200	0.422030
C2711	C271	0.746800	0.737800	0.047600
C2721	C272	0.255050	0.084590	0.588470
C2731	C273	0.284500	0.315600	0.113700
C2741	C274	0.797800	0.810800	0.408000
C2751	C275	0.535000	0.422700	0.940500
C2761	C276	0.175300	0.536700	0.206700
C2771	C277	0.431780	0.543030	0.118130
C2781	C278	0.297800	0.189200	0.592000
C2791	C279	0.333800	0.326500	0.521700
C2801	C280	0.731700	0.246900	0.978000
C2811	C281	0.108990	0.531380	0.418400
C2821	C282	0.646690	0.562640	0.032250
C2831	C283	0.175180	0.877880	0.372580
C2841	C284	0.447190	0.839700	0.411800
C2851	C285	0.578170	0.410380	0.607700
C2861	C286	0.633900	0.462900	0.208500
C2871	C287	0.196390	0.519180	0.161840
C2881	C288	0.734600	0.940900	0.617800
C2891	C289	0.587020	0.626700	0.423600
C2901	C290	0.716200	0.657500	0.746800
C2911	C291	0.068220	0.881870	0.456970
C2921	C292	0.175000	0.909200	0.634700
C2931	C293	0.196390	0.642660	0.480820
C2941	C294	0.283800	0.342500	0.089300
C2951	C295	0.713140	0.548330	0.394300
C2961	C296	0.145800	0.531900	0.831700
C2971	C297	0.765400	0.382200	0.059100
C2981	C298	0.864750	0.618090	0.607270
C2991	C299	0.342920	0.971770	0.592520
C3001	C300	0.087020	0.373300	0.576400
C3011	C301	0.783800	0.657500	0.910700
C3021	C302	0.213140	0.394300	0.845970
C3031	C303	0.783800	0.089300	0.746800
C3041	C304	0.261780	0.421450	0.539800
C3051	C305	0.803610	0.357340	0.838160
C3061	C306	0.118200	0.466800	0.562300
C3071	C307	0.784500	0.113700	0.798100
C3081	C308	0.744950	0.588470	0.084590
C3091	C309	0.465000	0.940500	0.422700
C3101	C310	0.231700	0.978000	0.731100
C3111	C311	0.842920	0.028230	0.407480
C3121	C312	0.539400	0.447800	0.924000
C3131	C313	0.881060	0.422030	0.807830
C3141	C314	0.175000	0.365300	0.274500
C3151	C315	0.194800	0.357190	0.844050
C3161	C316	0.608990	0.468620	0.581600
C3171	C317	0.460600	0.924000	0.447800
C3181	C318	0.869400	0.424800	0.297400
C3191	C319	0.773390	0.460960	0.086510
C3201	C320	0.773390	0.913490	0.374450
C3211	C321	0.635250	0.392730	0.381910
C3221	C322	0.166200	0.478300	0.673500
C3231	C323	0.168530	0.993200	0.456140
C3241	C324	0.737400	0.472160	0.839060
C3251	C325	0.853310	0.562640	0.530390
C3261	C326	0.168530	0.462940	0.006800
C3271	C327	0.173720	0.589050	0.552010
C3281	C328	0.891010	0.112980	0.581600
C3291	C329	0.824820	0.505300	0.627420
C3301	C330	0.326280	0.962960	0.552010
C3311	C331	0.768300	0.246900	0.268900
C3321	C332	0.104400	0.202000	0.662800
C3331	C333	0.630580	0.613100	0.484600
C3341	C334	0.912980	0.626700	0.203100
C3351	C335	0.745200	0.956500	0.193000
C3361	C336	0.825000	0.274500	0.365300
C3371	C337	0.231700	0.268900	0.246900
C3381	C338	0.873900	0.508700	0.344000
C3391	C339	0.675300	0.330000	0.536700
C3401	C340	0.108990	0.887020	0.468620
C3411	C341	0.239900	0.681100	0.015800
C3421	C342	0.334600	0.387900	0.327800
C3431	C343	0.550800	0.046000	0.536400
C3441	C344	0.869400	0.872600	0.575200
C3451	C345	0.305200	0.155950	0.642810
C3461	C346	0.949200	0.490400	0.536400
C3471	C347	0.784500	0.201900	0.315600
C3481	C348	0.215500	0.315600	0.201900
C3491	C349	0.284500	0.886300	0.201900
C3501	C350	0.629600	0.511400	0.875100
C3511	C351	0.113250	0.447370	0.870370
C3521	C352	0.324820	0.494700	0.372580
C3531	C353	0.797800	0.592000	0.402800
C3541	C354	0.798470	0.652730	0.530540
C3551	C355	0.216200	0.910700	0.657500
C3561	C356	0.730000	0.685000	0.726100
C3571	C357	0.194970	0.478890	0.081500
C3581	C358	0.395600	0.202000	0.539200
C3591	C359	0.168530	0.543860	0.537060
C3601	C360	0.633900	0.745600	0.537100
C3611	C361	0.408530	0.166900	0.583000
C3621	C362	0.333800	0.478300	0.804800
C3631	C363	0.194800	0.155950	0.513140
C3641	C364	0.126100	0.344000	0.508700
C3651	C365	0.731700	0.022000	0.268900
C3661	C366	0.331470	0.462940	0.456140
C3671	C367	0.104400	0.337200	0.539200
C3681	C368	0.702200	0.592000	0.189200
C3691	C369	0.886750	0.870370	0.447370
C3701	C370	0.578170	0.197320	0.589620
C3711	C371	0.618940	0.385800	0.807830
C3721	C372	0.737400	0.160940	0.633100
C3731	C373	0.935700	0.376400	0.757500
C3741	C374	0.891010	0.468620	0.887020
C3751	C375	0.175180	0.627420	0.505300
C3761	C376	0.770000	0.685000	0.958900
C3771	C377	0.634350	0.398900	0.850000
C3781	C378	0.692100	0.470700	0.167300
C3791	C379	0.412980	0.203100	0.576400
C3801	C380	0.353310	0.032250	0.562640
C3811	C381	0.260100	0.334700	0.015800
C3821	C382	0.235980	0.593050	0.512450
C3831	C383	0.931780	0.424900	0.543030
C3841	C384	0.386750	0.423000	0.870370
C3851	C385	0.608990	0.112980	0.531380
C3861	C386	0.757200	0.120330	0.608290
C3871	C387	0.939000	0.757100	0.387100
C3881	C388	0.118200	0.437700	0.904500
C3891	C389	0.616800	0.975400	0.640500
C3901	C390	0.201530	0.530540	0.652730
C3911	C391	0.177600	0.609600	0.149800
C3921	C392	0.061000	0.387100	0.757100
C3931	C393	0.305200	0.357190	0.513140
C3941	C394	0.447190	0.588200	0.427900
C3951	C395	0.673720	0.552010	0.962960
C3961	C396	0.770000	0.273900	0.315000
C3971	C397	0.886750	0.577000	0.129630
C3981	C398	0.366100	0.537100	0.745600
C3991	C399	0.822400	0.459800	0.850200
C4001	C400	0.449200	0.509600	0.463600
C4011	C401	0.078170	0.802680	0.410380
C4021	C402	0.126100	0.164700	0.656000
C4031	C403	0.039400	0.552200	0.076000
C4041	C404	0.665400	0.060100	0.672200
C4051	C405	0.616800	0.359500	0.334900
C4061	C406	0.235980	0.919400	0.406950
C4071	C407	0.673720	0.037040	0.589050
C4081	C408	0.677600	0.149800	0.540200
C4091	C409	0.864750	0.989180	0.381910
C4101	C410	0.307900	0.529300	0.696600
C4111	C411	0.873900	0.656000	0.164700
C4121	C412	0.061000	0.242900	0.630000
C4131	C413	0.104400	0.460800	0.798000
C4141	C414	0.435700	0.623600	0.242500
C4151	C415	0.234600	0.323100	0.940900
C4161	C416	0.331470	0.993200	0.537060
C4171	C417	0.744950	0.496120	0.411530
C4181	C418	0.050800	0.954000	0.463600
C4191	C419	0.134350	0.850000	0.451100
C4201	C420	0.373900	0.344000	0.835300
C4211	C421	0.243300	0.022300	0.757500
C4221	C422	0.268300	0.753100	0.731100
C4231	C423	0.834600	0.327800	0.939900
C4241	C424	0.412980	0.373300	0.796900
C4251	C425	0.091470	0.417000	0.833100
C4261	C426	0.130580	0.128500	0.613100
C4271	C427	0.244950	0.084590	0.496120
C4281	C428	0.273390	0.539040	0.913490
C4291	C429	0.253900	0.883600	0.262600
C4301	C430	0.756700	0.977700	0.735200
C4311	C431	0.395600	0.460800	0.662800
C4321	C432	0.129600	0.488600	0.124900
C4331	C433	0.270000	0.315000	0.041100
C4341	C434	0.326280	0.447990	0.410950
C4351	C435	0.635250	0.989180	0.607270
C4361	C436	0.165400	0.672200	0.612100
C4371	C437	0.237400	0.839060	0.366900
C4381	C438	0.765400	0.940900	0.323100
C4391	C439	0.995200	0.537100	0.444100
C4401	C440	0.091470	0.416100	0.583000
C4411	C441	0.881800	0.562300	0.466800
C4421	C442	0.746100	0.262600	0.883600
C4431	C443	0.552810	0.427900	0.588200
C4441	C444	0.757200	0.391710	0.512040
C4451	C445	0.381800	0.437700	0.533200
C4461	C446	0.753200	0.952400	0.262200
C4471	C447	0.381800	0.466800	0.904500
C4481	C448	0.657080	0.028230	0.620750
C4491	C449	0.715500	0.684400	0.798100
C4501	C450	0.369420	0.128500	0.515400
C4511	C451	0.068220	0.575100	0.118130
C4521	C452	0.264020	0.593050	0.080600
C4531	C453	0.618200	0.533200	0.437700
C4541	C454	0.286860	0.451670	0.845970
C4551	C455	0.239900	0.984200	0.665300
C4561	C456	0.675180	0.372580	0.494700
C4571	C457	0.248500	0.308300	0.971500
C4581	C458	0.715500	0.201900	0.886300
C4591	C459	0.730000	0.273900	0.958900
C4601	C460	0.052810	0.588200	0.160300
C4611	C461	0.762600	0.160940	0.527840
C4621	C462	0.133900	0.208500	0.745600
C4631	C463	0.226610	0.539040	0.625550
C4641	C464	0.869420	0.613100	0.128500
C4651	C465	0.869420	0.871500	0.484600
C4661	C466	0.883200	0.975400	0.334900
C4671	C467	0.881060	0.385800	0.577970
C4681	C468	0.035000	0.577300	0.059500
C4691	C469	0.245200	0.043500	0.807000
C4701	C470	0.960600	0.447800	0.523800
C4711	C471	0.135250	0.607270	0.618090
C4721	C472	0.366100	0.254400	0.791500
C4731	C473	0.039400	0.523800	0.447800
C4741	C474	0.935700	0.381100	0.623600
C4751	C475	0.869950	0.603160	0.562100
C4761	C476	0.539400	0.476200	0.552200
C4771	C477	0.745200	0.807000	0.763500
C4781	C478	0.587020	0.576400	0.203100
C4791	C479	0.064300	0.623600	0.381100
C4801	C480	0.303610	0.642660	0.161840
C4811	C481	0.753900	0.116400	0.737400
C4821	C482	0.369950	0.562100	0.958940
C4831	C483	0.268300	0.978000	0.246900
C4841	C484	0.754800	0.807000	0.043500
C4851	C485	0.369400	0.575200	0.702600
C4861	C486	0.202200	0.408000	0.810800
C4871	C487	0.322400	0.540200	0.149800
C4881	C488	0.755050	0.588470	0.503880
C4891	C489	0.550800	0.490400	0.954000
C4901	C490	0.342920	0.407480	0.379250
C4911	C491	0.939000	0.630000	0.242900
C4921	C492	0.696390	0.480820	0.838160
C4931	C493	0.805200	0.642810	0.486860
C4941	C494	0.825000	0.090800	0.725500
C4951	C495	0.265400	0.059100	0.676900
C4961	C496	0.078170	0.607700	0.197320
C4971	C497	0.270000	0.958900	0.273900
C4981	C498	0.157080	0.971770	0.379250
C4991	C499	0.842920	0.592520	0.620750
C5001	C500	0.146690	0.530390	0.562640
C5011	C501	0.626100	0.508700	0.164700
C5021	C502	0.995200	0.907000	0.462900
C5031	C503	0.251500	0.028500	0.691700
C5041	C504	0.965000	0.517800	0.940500
C5051	C505	0.869950	0.958940	0.396840
C5061	C506	0.895600	0.539200	0.337200
C5071	C507	0.087020	0.203100	0.626700
C5081	C508	0.253200	0.047600	0.737800
C5091	C509	0.165400	0.387900	0.060100
C5101	C510	0.869420	0.515400	0.386900
C5111	C511	0.230000	0.726100	0.041100
C5121	C512	0.052810	0.572100	0.411800
C5131	C513	0.960600	0.076000	0.552200
C5141	C514	0.754800	0.236500	0.193000
C5151	C515	0.325000	0.365300	0.090800
C5161	C516	0.702200	0.597200	0.408000
C5171	C517	0.495200	0.093000	0.537100
C5181	C518	0.634350	0.150000	0.548900
C5191	C519	0.854200	0.468100	0.299800
C5201	C520	0.755050	0.496120	0.084590
C5211	C521	0.373900	0.164700	0.508700
C5221	C522	0.324700	0.670000	0.206700
C5231	C523	0.439000	0.387100	0.630000
C5241	C524	0.244950	0.411530	0.915410
C5251	C525	0.675000	0.090800	0.365300
C5261	C526	0.608990	0.418400	0.887020
C5271	C527	0.677600	0.459800	0.609600
C5281	C528	0.630600	0.702600	0.575200
C5291	C529	0.645800	0.831700	0.299800
C5301	C530	0.256700	0.242500	0.977700
C5311	C531	0.245200	0.763500	0.956500
C5321	C532	0.194970	0.602610	0.521110
C5331	C533	0.761780	0.578550	0.460200
C5341	C534	0.613250	0.552630	0.129630
C5351	C535	0.773390	0.625550	0.539040
C5361	C536	0.895600	0.798000	0.460800
C5371	C537	0.613250	0.870370	0.423000
C5381	C538	0.242800	0.879670	0.487960
C5391	C539	0.746100	0.116400	0.379000
C5401	C540	0.373900	0.491300	0.656000
C5411	C541	0.257200	0.608290	0.487960
C5421	C542	0.908530	0.583900	0.166900
C5431	C543	0.354200	0.531900	0.700200
C5441	C544	0.068220	0.543030	0.424900
C5451	C545	0.677600	0.390400	0.850200
C5461	C546	0.391010	0.581600	0.468620
C5471	C547	0.254800	0.043500	0.236500
C5481	C548	0.578170	0.392300	0.802680
C5491	C549	0.369420	0.386900	0.871500
C5501	C550	0.135250	0.381910	0.989180
C5511	C551	0.383200	0.334900	0.359500
C5521	C552	0.564300	0.242500	0.623600
C5531	C553	0.626100	0.835300	0.344000
C5541	C554	0.213140	0.451670	0.605700
C5551	C555	0.133900	0.537100	0.791500
C5561	C556	0.742800	0.391710	0.879670
C5571	C557	0.995200	0.555900	0.093000
C5581	C558	0.366100	0.208500	0.462900
C5591	C559	0.831470	0.537060	0.543860
C5601	C560	0.805200	0.844050	0.357190
C5611	C561	0.613250	0.577000	0.447370
C5621	C562	0.370400	0.875100	0.511400
C5631	C563	0.618940	0.422030	0.614200
C5641	C564	0.931780	0.118130	0.575100
C5651	C565	0.616800	0.665100	0.024600
C5661	C566	0.215500	0.886300	0.684400
C5671	C567	0.262600	0.527840	0.366900
C5681	C568	0.870400	0.511400	0.636300
C5691	C569	0.431780	0.575100	0.456970
C5701	C570	0.713140	0.605700	0.154030
C5711	C571	0.751500	0.971500	0.308300
C5721	C572	0.734600	0.676900	0.059100
C5731	C573	0.881800	0.533200	0.095500
C5741	C574	0.748500	0.971500	0.663200
C5751	C575	0.864750	0.392730	0.010820
C5761	C576	0.931780	0.456970	0.881870
C5771	C577	0.273390	0.374450	0.460960
C5781	C578	0.618940	0.192170	0.577970
C5791	C579	0.630050	0.958940	0.562100
C5801	C580	0.166200	0.195200	0.521700
C5811	C581	0.561000	0.757100	0.370000
C5821	C582	0.369400	0.297400	0.872600
C5831	C583	0.118940	0.614200	0.192170
C5841	C584	0.853310	0.967750	0.437360
C5851	C585	0.303610	0.519180	0.357340
C5861	C586	0.738220	0.539800	0.421450
C5871	C587	0.833800	0.521700	0.195200
C5881	C588	0.768300	0.731100	0.978000
C5891	C589	0.298470	0.122190	0.652730
C5901	C590	0.694800	0.642810	0.155950
C5911	C591	0.666200	0.804800	0.478300
C5921	C592	0.369400	0.127400	0.424800
C5931	C593	0.333800	0.195200	0.673500
C5941	C594	0.439000	0.370000	0.757100
C5951	C595	0.746800	0.952400	0.690200
C5961	C596	0.254800	0.763500	0.807000
C5971	C597	0.675000	0.634700	0.725500
C5981	C598	0.826280	0.552010	0.589050
C5991	C599	0.256700	0.022300	0.264800
C6001	C600	0.246800	0.262200	0.952400
C6011	C601	0.561000	0.630000	0.387100
C6021	C602	0.395600	0.337200	0.798000
C6031	C603	0.646690	0.469610	0.437360
C6041	C604	0.604400	0.662800	0.460800
C6051	C605	0.284500	0.798100	0.684400
C6061	C606	0.764020	0.406950	0.919400
C6071	C607	0.237400	0.527840	0.160940
C6081	C608	0.692100	0.696600	0.529300
C6091	C609	0.629600	0.124900	0.636300
C6101	C610	0.253900	0.737400	0.621000
C6111	C611	0.665400	0.612100	0.939900
C6121	C612	0.665400	0.327800	0.387900
C6131	C613	0.297800	0.408000	0.597200
C6141	C614	0.921830	0.410380	0.802680
C6151	C615	0.297800	0.402800	0.810800
C6161	C616	0.726610	0.460960	0.374450
C6171	C617	0.753200	0.737800	0.690200
C6181	C618	0.365650	0.548900	0.150000
C6191	C619	0.756700	0.757500	0.022300
C6201	C620	0.646690	0.967750	0.530390
C6211	C621	0.645800	0.700200	0.531900
C6221	C622	0.824700	0.463300	0.670000
C6231	C623	0.797800	0.597200	0.189200
C6241	C624	0.298470	0.530540	0.877810
C6251	C625	0.883200	0.665100	0.640500
C6261	C626	0.869400	0.702600	0.127400
C6271	C627	0.365650	0.850000	0.398900
C6281	C628	0.447190	0.572100	0.160300
C6291	C629	0.731700	0.731100	0.753100
C6301	C630	0.751500	0.691700	0.663200
C6311	C631	0.265400	0.323100	0.382200
C6321	C632	0.726610	0.913490	0.539040
C6331	C633	0.784500	0.684400	0.886300
C6341	C634	0.939000	0.612900	0.370000
C6351	C635	0.264020	0.487550	0.406950
C6361	C636	0.465000	0.482200	0.059500
C6371	C637	0.743300	0.757500	0.735200
C6381	C638	0.702200	0.810800	0.402800
C6391	C639	0.694970	0.521110	0.918500
C6401	C640	0.726610	0.625550	0.086510
C6411	C641	0.495200	0.444100	0.907000
C6421	C642	0.912980	0.796900	0.423600
C6431	C643	0.408530	0.417000	0.583900
C6441	C644	0.253200	0.690200	0.952400
C6451	C645	0.739900	0.318900	0.984200
C6461	C646	0.326280	0.589050	0.037040
C6471	C647	0.130600	0.297400	0.424800
C6481	C648	0.116800	0.640500	0.665100
C6491	C649	0.386750	0.129630	0.552630
C6501	C650	0.118940	0.807830	0.422030
C6511	C651	0.552810	0.411800	0.839700
C6521	C652	0.591470	0.583000	0.166900
C6531	C653	0.866100	0.745600	0.208500
C6541	C654	0.630580	0.515400	0.128500
C6551	C655	0.334600	0.939900	0.612100
C6561	C656	0.822400	0.390400	0.540200
C6571	C657	0.504800	0.907000	0.444100
C6581	C658	0.865650	0.150000	0.601100
C6591	C659	0.192100	0.167300	0.696600
C6601	C660	0.805030	0.521110	0.602610
C6611	C661	0.118940	0.577970	0.385800
C6621	C662	0.305200	0.486860	0.844050
C6631	C663	0.307900	0.303400	0.832700
C6641	C664	0.824820	0.122120	0.494700
C6651	C665	0.564300	0.381100	0.757500
C6661	C666	0.431780	0.881870	0.424900
C6671	C667	0.756700	0.264800	0.242500
C6681	C668	0.324820	0.877880	0.505300
C6691	C669	0.764020	0.512450	0.593050
C6701	C670	0.237400	0.633100	0.472160
C6711	C671	0.234600	0.617800	0.676900
C6721	C672	0.146690	0.032250	0.469610
C6731	C673	0.552810	0.160300	0.572100
C6741	C674	0.947190	0.160300	0.588200
C6751	C675	0.561000	0.612900	0.242900
C6761	C676	0.087020	0.423600	0.796900
C6771	C677	0.803610	0.480820	0.642660
C6781	C678	0.130580	0.484600	0.871500
C6791	C679	0.825000	0.634700	0.909200
C6801	C680	0.201530	0.347270	0.877810
C6811	C681	0.883200	0.359500	0.024600
C6821	C682	0.668530	0.006800	0.543860
C6831	C683	0.746800	0.309800	0.262200
C6841	C684	0.230000	0.315000	0.273900
C6851	C685	0.113250	0.423000	0.552630
C6861	C686	0.768300	0.022000	0.753100
C6871	C687	0.251500	0.308300	0.336800
C6881	C688	0.694970	0.397390	0.478890
C6891	C689	0.408530	0.416100	0.833100
C6901	C690	0.303610	0.838160	0.480820
C6911	C691	0.761780	0.881650	0.421450
C6921	C692	0.735980	0.512450	0.919400
C6931	C693	0.177600	0.850200	0.459800
C6941	C694	0.568220	0.424900	0.881870
C6951	C695	0.239900	0.334700	0.318900
C6961	C696	0.798470	0.469460	0.122190
C6971	C697	0.130050	0.041060	0.437900
C6981	C698	0.786860	0.548330	0.154030
C6991	C699	0.216200	0.342500	0.253200
C7001	C700	0.587020	0.796900	0.373300
C7011	C701	0.050800	0.536400	0.490400
C7021	C702	0.216200	0.746800	0.089300
C7031	C703	0.035000	0.482200	0.422700
C7041	C704	0.854200	0.700200	0.168300
C7051	C705	0.760100	0.015800	0.681100
C7061	C706	0.947190	0.411800	0.572100
C7071	C707	0.244950	0.503880	0.588470
C7081	C708	0.754800	0.956500	0.763500
C7091	C709	0.807900	0.832700	0.529300
C7101	C710	0.192100	0.529300	0.832700
C7111	C711	0.130580	0.386900	0.515400
C7121	C712	0.135250	0.010820	0.392730
C7131	C713	0.268300	0.268900	0.022000
C7141	C714	0.757200	0.487960	0.879670
C7151	C715	0.701530	0.877810	0.530540
C7161	C716	0.364750	0.381910	0.392730
C7171	C717	0.381800	0.095500	0.562300
C7181	C718	0.256700	0.735200	0.757500
C7191	C719	0.201530	0.122190	0.469460
C7201	C720	0.742800	0.120330	0.512040
N11	N1	0.359170	0.455600	0.517600
N21	N2	0.140830	0.062000	0.517600
N31	N3	0.699230	0.402100	0.884320
N41	N4	0.859170	0.938000	0.455600
N51	N5	0.800770	0.115680	0.597900
N61	N6	0.199230	0.884320	0.482220
N71	N7	0.859170	0.517600	0.062000
N81	N8	0.859170	0.544400	0.482400
N91	N9	0.199230	0.517780	0.402100
N101	N10	0.140830	0.482400	0.544400
N111	N11	0.739200	0.946500	0.582800
N121	N12	0.739200	0.636300	0.053500
N131	N13	0.239200	0.053500	0.417200
N141	N14	0.239200	0.582800	0.636300
N151	N15	0.699230	0.482220	0.597900
N161	N16	0.140830	0.455600	0.938000
N171	N17	0.640830	0.938000	0.482400
N181	N18	0.699230	0.115680	0.517780
N191	N19	0.800770	0.482220	0.884320
N201	N20	0.760800	0.636300	0.582800
N211	N21	0.359170	0.482400	0.938000
N221	N22	0.359170	0.062000	0.544400
N231	N23	0.300770	0.597900	0.482220
N241	N24	0.300770	0.517780	0.115680
N251	N25	0.640830	0.544400	0.062000
N261	N26	0.260800	0.053500	0.636300
N271	N27	0.739200	0.417200	0.363700
N281	N28	0.199230	0.597900	0.115680
N291	N29	0.640830	0.517600	0.455600
N301	N30	0.800770	0.402100	0.517780
N311	N31	0.260800	0.363700	0.417200
N321	N32	0.300770	0.884320	0.402100
N331	N33	0.239200	0.363700	0.946500
N341	N34	0.260800	0.582800	0.946500
N351	N35	0.760800	0.417200	0.053500
N361	N36	0.760800	0.946500	0.363700
O11	O1	0.311990	0.499640	0.488960
O21	O2	0.031900	0.644000	0.399300
O31	O3	0.234800	0.183400	0.980800
O41	O4	0.651800	0.904480	0.387700
O51	O5	0.743120	0.431010	0.957760
O61	O6	0.266100	0.747000	0.830600
O71	O7	0.328100	0.426360	0.003160
O81	O8	0.151800	0.516780	0.904480
O91	O9	0.968100	0.356000	0.755300
O101	O10	0.938800	0.669200	0.271200
O111	O11	0.265200	0.797400	0.980800
O121	O12	0.731680	0.951730	0.437880
O131	O13	0.945800	0.646700	0.401300
O141	O14	0.084650	0.632030	0.357800
O151	O15	0.554200	0.646700	0.245400
O161	O16	0.671900	0.423200	0.996840
O171	O17	0.231680	0.048270	0.562120
O181	O18	0.915350	0.274230	0.642200
O191	O19	0.031900	0.600700	0.244700
O201	O20	0.378500	0.506500	0.072600
O211	O21	0.268320	0.513850	0.562120
O221	O22	0.415350	0.642200	0.367970
O231	O23	0.233900	0.169400	0.253000
O241	O24	0.621500	0.072600	0.506500
O251	O25	0.061200	0.330800	0.602000
O261	O26	0.554200	0.598700	0.353300
O271	O27	0.256880	0.957760	0.431010
O281	O28	0.188010	0.499640	0.010680
O291	O29	0.348200	0.095520	0.483220
O301	O30	0.828100	0.573640	0.996840
O311	O31	0.256880	0.568990	0.526750
O321	O32	0.445800	0.401300	0.754600
O331	O33	0.121500	0.927400	0.493500
O341	O34	0.121500	0.566100	0.072600
O351	O35	0.243120	0.568990	0.042240
O361	O36	0.268320	0.048270	0.486150
O371	O37	0.584650	0.367970	0.642200
O381	O38	0.531900	0.244700	0.644000
O391	O39	0.445800	0.245400	0.646700
O401	O40	0.531900	0.356000	0.600700
O411	O41	0.438800	0.271200	0.602000
O421	O42	0.188010	0.989320	0.488960
O431	O43	0.468100	0.755300	0.399300
O441	O44	0.151800	0.095520	0.612300
O451	O45	0.054200	0.353300	0.754600
O461	O46	0.171900	0.576800	0.003160
O471	O47	0.848200	0.612300	0.095520
O481	O48	0.415350	0.632030	0.274230
O491	O49	0.828100	0.003160	0.576800
O501	O50	0.256880	0.473250	0.042240
O511	O51	0.848200	0.483220	0.387700
O521	O52	0.054200	0.401300	0.646700
O531	O53	0.766100	0.253000	0.169400
O541	O54	0.188010	0.511040	0.500360
O551	O55	0.231660	0.655620	0.031420
O561	O56	0.915350	0.367970	0.725770
O571	O57	0.084650	0.725770	0.367970
O581	O58	0.756880	0.526750	0.957760
O591	O59	0.731660	0.344380	0.968580
O601	O60	0.878500	0.493500	0.927400
O611	O61	0.234800	0.019200	0.202600
O621	O62	0.328100	0.996840	0.423200
O631	O63	0.968100	0.399300	0.644000
O641	O64	0.268340	0.375800	0.031420
O651	O65	0.054200	0.245400	0.598700
O661	O66	0.234800	0.797400	0.816600
O671	O67	0.378500	0.566100	0.493500
O681	O68	0.243120	0.473250	0.431010
O691	O69	0.554200	0.754600	0.401300
O701	O70	0.348200	0.516780	0.612300
O711	O71	0.968100	0.244700	0.600700
O721	O72	0.561200	0.728800	0.330800
O731	O73	0.121500	0.506500	0.433900
O741	O74	0.915350	0.357800	0.632030
O751	O75	0.731680	0.486150	0.048270
O761	O76	0.651800	0.612300	0.516780
O771	O77	0.765200	0.202600	0.019200
O781	O78	0.768320	0.562120	0.048270
O791	O79	0.265200	0.019200	0.816600
O801	O80	0.731660	0.031420	0.375800
O811	O81	0.468100	0.600700	0.356000
O821	O82	0.438800	0.330800	0.728800
O831	O83	0.734800	0.816600	0.019200
O841	O84	0.688010	0.500360	0.989320
O851	O85	0.231680	0.513850	0.951730
O861	O86	0.415350	0.725770	0.357800
O871	O87	0.031900	0.755300	0.356000
O881	O88	0.378500	0.927400	0.433900
O891	O89	0.811990	0.500360	0.511040
O901	O90	0.828100	0.423200	0.426360
O911	O91	0.266100	0.169400	0.916400
O921	O92	0.945800	0.598700	0.245400
O931	O93	0.733900	0.916400	0.169400
O941	O94	0.878500	0.433900	0.506500
O951	O95	0.734800	0.980800	0.797400
O961	O96	0.311990	0.511040	0.010680
O971	O97	0.756880	0.431010	0.473250
O981	O98	0.756880	0.042240	0.568990
O991	O99	0.848200	0.904480	0.516780
O1001	O100	0.768320	0.951730	0.513850
O1011	O101	0.995400	0.333330	0.666660
O1021	O102	0.268320	0.437880	0.951730
O1031	O103	0.531900	0.399300	0.755300
O1041	O104	0.328100	0.576800	0.573640
O1051	O105	0.495400	0.666670	0.333340
O1061	O106	0.268340	0.968580	0.344380
O1071	O107	0.621500	0.493500	0.566100
O1081	O108	0.621500	0.433900	0.927400
O1091	O109	0.171900	0.996840	0.573640
O1101	O110	0.811990	0.488960	0.989320
O1111	O111	0.766100	0.830600	0.083600
O1121	O112	0.733900	0.830600	0.747000
O1131	O113	0.233900	0.083600	0.830600
O1141	O114	0.688010	0.488960	0.499640
O1151	O115	0.445800	0.353300	0.598700
O1161	O116	0.311990	0.989320	0.500360
O1171	O117	0.768340	0.624200	0.968580
O1181	O118	0.438800	0.398000	0.669200
O1191	O119	0.878500	0.072600	0.566100
O1201	O120	0.938800	0.728800	0.398000
O1211	O121	0.061200	0.271200	0.669200
O1221	O122	0.171900	0.426360	0.423200
O1231	O123	0.268340	0.655620	0.624200
O1241	O124	0.688010	0.010680	0.511040
O1251	O125	0.671900	0.003160	0.426360
O1261	O126	0.671900	0.573640	0.576800
O1271	O127	0.504600	0.333330	0.666660
O1281	O128	0.765200	0.980800	0.183400
O1291	O129	0.743120	0.042240	0.473250
O1301	O130	0.231660	0.375800	0.344380
O1311	O131	0.231680	0.437880	0.486150
O1321	O132	0.766100	0.916400	0.747000
O1331	O133	0.811990	0.010680	0.499640
O1341	O134	0.084650	0.642200	0.274230
O1351	O135	0.938800	0.602000	0.330800
O1361	O136	0.231660	0.968580	0.624200
O1371	O137	0.743120	0.526750	0.568990
O1381	O138	0.561200	0.669200	0.398000
O1391	O139	0.061200	0.398000	0.728800
O1401	O140	0.733900	0.253000	0.083600
O1411	O141	0.731660	0.624200	0.655620
O1421	O142	0.731680	0.562120	0.513850
O1431	O143	0.734800	0.202600	0.183400
O1441	O144	0.233900	0.747000	0.916400
O1451	O145	0.243120	0.957760	0.526750
O1461	O146	0.768340	0.031420	0.655620
O1471	O147	0.768320	0.486150	0.437880
O1481	O148	0.584650	0.274230	0.632030
O1491	O149	0.768340	0.344380	0.375800
O1501	O150	0.265200	0.183400	0.202600
O1511	O151	0.561200	0.602000	0.271200
O1521	O152	0.348200	0.387700	0.904480
O1531	O153	0.266100	0.083600	0.253000
O1541	O154	0.151800	0.387700	0.483220
O1551	O155	0.765200	0.816600	0.797400
O1561	O156	0.004600	0.666670	0.333340
O1571	O157	0.584650	0.357800	0.725770
O1581	O158	0.945800	0.754600	0.353300
O1591	O159	0.651800	0.483220	0.095520
O1601	O160	0.468100	0.644000	0.244700
