data_FORTIR_freeONLY_PM
_symmetry_space_group_name_H-M	'P1'
_cell_length_a	17.515000
_cell_length_b	26.682200
_cell_length_c	26.682200
_cell_angle_alpha	76.296100
_cell_angle_beta	70.839600
_cell_angle_gamma	70.839600
_symmetry_Int_Tables_number 1

loop_
_symmetry_equiv_pos_as_xyz
'x,y,z'

loop_
_atom_site_label
_atom_site_type_symbol
_atom_site_fract_x
_atom_site_fract_y
_atom_site_fract_z
Zn11	Zn1	0.906500	0.900030	0.516010
Zn21	Zn2	0.665670	0.409300	0.014160
Zn31	Zn3	0.593500	0.483990	0.099970
Zn41	Zn4	0.822540	0.599970	0.983990
Zn51	Zn5	0.834330	0.985840	0.590700
Zn61	Zn6	0.747650	0.502350	0.002350
Zn71	Zn7	0.919950	0.487610	0.026330
Zn81	Zn8	0.910870	0.514160	0.909300
Zn91	Zn9	0.752350	0.997650	0.497650
Zn101	Zn10	0.580050	0.973670	0.512390
Zn111	Zn11	0.677460	0.016010	0.400030
Zn121	Zn12	0.933890	0.012390	0.473670
Zn131	Zn13	0.589130	0.090700	0.485840
Zn141	Zn14	0.566110	0.526330	0.987610
Cd11	Cd1	0.245200	0.750000	0.750000
Cd21	Cd2	0.750000	0.057640	0.942360
Cd31	Cd3	0.254800	0.250000	0.250000
Cd41	Cd4	0.250000	0.442360	0.557640
H11	H1	0.132400	0.313200	0.981600
H21	H2	0.415700	0.035700	0.627500
H31	H3	0.858400	0.516000	0.732800
H41	H4	0.084300	0.372500	0.964300
H51	H5	0.745000	0.093000	0.677800
H61	H6	0.804000	0.861300	0.694900
H71	H7	0.595100	0.064600	0.759400
H81	H8	0.985400	0.709900	0.702500
H91	H9	0.512400	0.932500	0.720700
H101	H10	0.311700	0.333900	0.995300
H111	H11	0.834400	0.220700	0.432500
H121	H12	0.609800	0.732600	0.791200
H131	H13	0.696100	0.791800	0.508400
H141	H14	0.633600	0.767400	0.708800
H151	H15	0.435900	0.385700	0.589300
H161	H16	0.140900	0.166100	0.504700
H171	H17	0.367600	0.018400	0.686800
H181	H18	0.506000	0.175400	0.368400
H191	H19	0.602200	0.202500	0.209900
H201	H20	0.232000	0.319200	0.076800
H211	H21	0.466400	0.670600	0.947600
H221	H22	0.677100	0.172800	0.166200
H231	H23	0.714200	0.246200	0.434600
H241	H24	0.981500	0.252700	0.888500
H251	H25	0.332800	0.075000	0.656400
H261	H26	0.944200	0.429100	0.503300
H271	H27	0.027700	0.868000	0.888800
H281	H28	0.641600	0.267200	0.484000
H291	H29	0.741900	0.803300	0.936500
H301	H30	0.974600	0.780900	0.414500
H311	H31	0.296900	0.543100	0.296100
H321	H32	0.030300	0.388000	0.188400
H331	H33	0.033600	0.052400	0.329400
H341	H34	0.320400	0.542000	0.556600
H351	H35	0.581000	0.056600	0.042000
H361	H36	0.836900	0.444800	0.724000
H371	H37	0.491500	0.883100	0.711500
H381	H38	0.088200	0.864200	0.387600
H391	H39	0.897800	0.790100	0.797500
H401	H40	0.622700	0.247300	0.611500
H411	H41	0.983900	0.666200	0.672800
H421	H42	0.913900	0.211500	0.383100
H431	H43	0.345600	0.043400	0.551000
H441	H44	0.376600	0.070900	0.996700
H451	H45	0.991300	0.925400	0.220800
H461	H46	0.442000	0.055200	0.064000
H471	H47	0.179700	0.857600	0.349800
H481	H48	0.927200	0.186800	0.518400
H491	H49	0.008500	0.288500	0.116900
H501	H50	0.822900	0.833800	0.827200
H511	H51	0.782500	0.079600	0.266000
H521	H52	0.981700	0.696700	0.563500
H531	H53	0.232300	0.417300	0.915900
H541	H54	0.561600	0.633000	0.216000
H551	H55	0.606100	0.526100	0.278900
H561	H56	0.555800	0.496700	0.570900
H571	H57	0.919000	0.958000	0.943400
H581	H58	0.663100	0.276000	0.555200
H591	H59	0.589100	0.089300	0.885700
H601	H60	0.303500	0.322500	0.942500
H611	H61	0.508700	0.779200	0.074600
H621	H62	0.945700	0.412000	0.592400
H631	H63	0.256200	0.034100	0.567700
H641	H64	0.074300	0.584400	0.671800
H651	H65	0.688000	0.952300	0.728500
H661	H66	0.696000	0.305100	0.138700
H671	H67	0.915400	0.837100	0.813900
H681	H68	0.830500	0.915600	0.828200
H691	H69	0.640800	0.255200	0.349200
H701	H70	0.749300	0.783400	0.619400
H711	H71	0.266800	0.290900	0.997900
H721	H72	0.584600	0.186100	0.162900
H731	H73	0.140900	0.782600	0.585400
H741	H74	0.631200	0.228500	0.452300
H751	H75	0.505700	0.055200	0.776000
H761	H76	0.992000	0.688700	0.791100
H771	H77	0.938400	0.784000	0.367000
H781	H78	0.367000	0.642800	0.185800
H791	H79	0.980200	0.342900	0.869300
H801	H80	0.450100	0.088000	0.907600
H811	H81	0.537300	0.921100	0.249700
H821	H82	0.607200	0.984000	0.767200
H831	H83	0.878700	0.754000	0.124800
H841	H84	0.268500	0.577500	0.134300
H851	H85	0.496300	0.708200	0.991600
H861	H86	0.143600	0.798500	0.666500
H871	H87	0.871900	0.766000	0.579600
H881	H88	0.356400	0.333500	0.201500
H891	H89	0.372000	0.576800	0.819200
H901	H90	0.994300	0.224000	0.944800
H911	H91	0.003700	0.008400	0.291800
H921	H92	0.208100	0.578900	0.250300
H931	H93	0.863900	0.796100	0.043100
H941	H94	0.015800	0.407000	0.822200
H951	H95	0.142200	0.871900	0.463500
H961	H96	0.990100	0.859400	0.722600
H971	H97	0.892800	0.232800	0.016000
H981	H98	0.123400	0.003300	0.929100
H991	H99	0.804000	0.714600	0.484000
H1001	H100	0.514600	0.297500	0.290100
H1011	H101	0.660000	0.887600	0.364200
H1021	H102	0.904700	0.338800	0.225600
H1031	H103	0.967700	0.832100	0.371100
H1041	H104	0.911100	0.973900	0.221100
H1051	H105	0.049900	0.092400	0.912000
H1061	H106	0.584600	0.829400	0.552400
H1071	H107	0.621300	0.875200	0.246000
H1081	H108	0.127400	0.852100	0.807700
H1091	H109	0.745200	0.244800	0.150800
H1101	H110	0.971800	0.811300	0.708900
H1111	H111	0.890200	0.208800	0.267400
H1121	H112	0.840000	0.635800	0.112400
H1131	H113	0.061200	0.444800	0.436000
H1141	H114	0.359100	0.414600	0.217400
H1151	H115	0.578900	0.464300	0.872500
H1161	H116	0.196500	0.057500	0.677500
H1171	H117	0.411800	0.612400	0.135800
H1181	H118	0.977600	0.628100	0.036500
H1191	H119	0.586100	0.616900	0.788500
H1201	H120	0.188300	0.004700	0.666100
H1211	H121	0.863300	0.695500	0.772100
H1221	H122	0.695600	0.857200	0.314200
H1231	H123	0.877300	0.388500	0.752700
H1241	H124	0.893900	0.721100	0.473900
H1251	H125	0.242500	0.624800	0.254000
H1261	H126	0.231500	0.865700	0.422500
H1271	H127	0.478900	0.976200	0.325800
H1281	H128	0.480200	0.936500	0.671100
H1291	H129	0.154400	0.449000	0.956600
H1301	H130	0.910600	0.867000	0.284000
H1311	H131	0.804400	0.685800	0.142800
H1321	H132	0.546000	0.808500	0.708100
H1331	H133	0.133000	0.814200	0.357200
H1341	H134	0.847900	0.119400	0.283400
H1351	H135	0.433600	0.313900	0.337100
H1361	H136	0.257500	0.746000	0.375200
H1371	H137	0.438800	0.564000	0.555200
H1381	H138	0.564200	0.425000	0.843600
H1391	H139	0.068500	0.177500	0.557500
H1401	H140	0.267700	0.084100	0.582700
H1411	H141	0.142000	0.067700	0.534100
H1421	H142	0.358000	0.465900	0.932300
H1431	H143	0.904900	0.240600	0.935400
H1441	H144	0.868800	0.547700	0.771500
H1451	H145	0.212800	0.307700	0.352100
H1461	H146	0.444400	0.497900	0.790900
H1471	H147	0.960100	0.708700	0.131500
H1481	H148	0.372600	0.192300	0.147900
H1491	H149	0.179600	0.443400	0.458000
H1501	H150	0.528200	0.291100	0.188700
H1511	H151	0.472300	0.111200	0.132000
H1521	H152	0.969100	0.161200	0.274400
H1531	H153	0.106700	0.112000	0.311600
H1541	H154	0.915400	0.447600	0.170600
H1551	H155	0.785800	0.565400	0.753800
H1561	H156	0.128000	0.180800	0.423200
H1571	H157	0.491100	0.085400	0.282600
H1581	H158	0.066400	0.662900	0.686100
H1591	H159	0.058000	0.936000	0.944800
H1601	H160	0.692400	0.157100	0.630700
H1611	H161	0.652100	0.716600	0.880600
H1621	H162	0.519800	0.130700	0.657100
H1631	H163	0.912200	0.171100	0.436500
H1641	H164	0.532300	0.628900	0.167900
H1651	H165	0.830900	0.804500	0.727900
H1661	H166	0.670000	0.719100	0.085500
H1671	H167	0.357800	0.536500	0.128100
H1681	H168	0.287200	0.647900	0.692300
H1691	H169	0.997400	0.984000	0.214600
H1701	H170	0.530900	0.725600	0.838800
H1711	H171	0.950200	0.868400	0.675400
H1721	H172	0.484200	0.177800	0.593000
H1731	H173	0.469700	0.811600	0.612000
H1741	H174	0.807600	0.369300	0.842900
H1751	H175	0.743100	0.239900	0.931700
H1761	H176	0.288700	0.442200	0.300600
H1771	H177	0.588900	0.778900	0.026100
H1781	H178	0.829100	0.871100	0.332100
H1791	H179	0.320300	0.650200	0.142400
H1801	H180	0.754800	0.849200	0.755200
H1811	H181	0.628100	0.420400	0.234000
H1821	H182	0.431500	0.442500	0.822500
H1831	H183	0.562600	0.691500	0.791900
H1841	H184	0.434500	0.415900	0.917300
H1851	H185	0.587800	0.563500	0.828900
H1861	H186	0.508000	0.208900	0.311300
H1871	H187	0.518500	0.111500	0.747300
H1881	H188	0.572800	0.481600	0.813200
H1891	H189	0.211300	0.699400	0.557800
H1901	H190	0.199700	0.631500	0.208700
H1911	H191	0.636700	0.227900	0.304500
H1921	H192	0.291900	0.749700	0.421100
H1931	H193	0.518300	0.436500	0.303300
H1941	H194	0.085300	0.431700	0.739900
H1951	H195	0.425700	0.328200	0.415600
H1961	H196	0.268000	0.923200	0.680800
H1971	H197	0.962700	0.750300	0.078900
H1981	H198	0.670900	0.667900	0.128900
H1991	H199	0.994000	0.631600	0.824600
H2001	H200	0.300300	0.791300	0.368500
H2011	H201	0.935800	0.156400	0.575000
H2021	H202	0.108600	0.701500	0.833500
H2031	H203	0.167200	0.343600	0.925000
H2041	H204	0.509900	0.277400	0.140600
H2051	H205	0.937400	0.208100	0.308500
H2061	H206	0.987600	0.279300	0.067500
H2071	H207	0.639800	0.194900	0.361300
H2081	H208	0.219100	0.825800	0.476200
H2091	H209	0.055600	0.209100	0.502100
H2101	H210	0.391400	0.166500	0.298500
H2111	H211	0.589400	0.716000	0.133000
H2121	H212	0.019800	0.328900	0.063500
H2131	H213	0.669100	0.272100	0.195500
H2141	H214	0.064100	0.410700	0.614300
H2151	H215	0.021100	0.674200	0.023800
H2161	H216	0.427900	0.222600	0.359400
H2171	H217	0.755000	0.322200	0.907000
H2181	H218	0.414700	0.260100	0.568300
H2191	H219	0.440000	0.456600	0.949000
H2201	H220	0.830000	0.914500	0.280900
H2211	H221	0.284500	0.632000	0.611200
H2221	H222	0.549800	0.324600	0.131600
H2231	H223	0.243800	0.432300	0.965900
H2241	H224	0.669500	0.171800	0.084400
H2251	H225	0.954000	0.291900	0.191500
H2261	H226	0.696000	0.516000	0.285400
H2271	H227	0.393300	0.688400	0.888000
H2281	H228	0.860200	0.638700	0.805100
H2291	H229	0.866400	0.291200	0.232600
H2301	H230	0.065500	0.082700	0.584100
H2311	H231	0.595300	0.774400	0.661200
H2321	H232	0.502600	0.785400	0.016000
H2331	H233	0.525400	0.585500	0.219100
H2341	H234	0.233200	0.002100	0.709100
H2351	H235	0.516100	0.327200	0.333800
H2361	H236	0.060000	0.051000	0.543400
H2371	H237	0.203100	0.703900	0.456900
H2381	H238	0.019700	0.634300	0.077500
H2391	H239	0.280900	0.523800	0.174200
H2401	H240	0.359100	0.495300	0.833900
H2411	H241	0.910900	0.114300	0.910700
H2421	H242	0.919100	0.435400	0.740600
H2431	H243	0.531500	0.057800	0.199400
H2441	H244	0.895000	0.253800	0.065400
H2451	H245	0.636100	0.956900	0.203900
H2461	H246	0.480300	0.922500	0.365700
H2471	H247	0.812000	0.271500	0.047700
H2481	H248	0.605000	0.934600	0.746200
H2491	H249	0.554300	0.407600	0.588000
H2501	H250	0.862500	0.720800	0.425400
H2511	H251	0.803900	0.491600	0.208200
H2521	H252	0.612900	0.849800	0.357600
H2531	H253	0.522400	0.963500	0.371900
H2541	H254	0.758100	0.063500	0.196700
H2551	H255	0.008900	0.717400	0.914600
H2561	H256	0.756900	0.068300	0.760100
H2571	H257	0.968500	0.800600	0.942200
H2581	H258	0.215500	0.388800	0.368000
H2591	H259	0.887100	0.642400	0.150200
H2601	H260	0.539900	0.868500	0.291300
H2611	H261	0.921100	0.127500	0.535700
H2621	H262	0.665600	0.567500	0.779300
H2631	H263	0.717500	0.734000	0.920400
H2641	H264	0.750700	0.380600	0.216600
H2651	H265	0.580900	0.259400	0.564600
H2661	H266	0.859200	0.650800	0.744800
H2671	H267	0.072100	0.640600	0.777400
H2681	H268	0.637500	0.574600	0.279200
C11	C1	0.752800	0.101500	0.580500
C21	C2	0.667300	0.680200	0.878200
C31	C3	0.601900	0.441900	0.208100
C41	C4	0.043800	0.834700	0.877700
C51	C5	0.558300	0.608800	0.195800
C61	C6	0.756400	0.545200	0.096000
C71	C7	0.234600	0.606500	0.229900
C81	C8	0.562500	0.056300	0.694900
C91	C9	0.856500	0.828100	0.423500
C101	C10	0.787300	0.128700	0.428500
C111	C11	0.242200	0.329100	0.325100
C121	C12	0.996000	0.440900	0.832500
C131	C13	0.837300	0.923000	0.749800
C141	C14	0.511500	0.948300	0.346700
C151	C15	0.407600	0.155400	0.265200
C161	C16	0.402400	0.487900	0.308900
C171	C17	0.809100	0.842200	0.729600
C181	C18	0.170400	0.186700	0.318700
C191	C19	0.716600	0.026700	0.271900
C201	C20	0.771900	0.512900	0.185300
C211	C21	0.804300	0.513200	0.130200
C221	C22	0.134600	0.632400	0.528400
C231	C23	0.824000	0.883200	0.423200
C241	C24	0.600700	0.792600	0.686400
C251	C25	0.929000	0.729900	0.106500
C261	C26	0.904300	0.690900	0.079900
C271	C27	0.947700	0.986800	0.369800
C281	C28	0.324200	0.818700	0.686700
C291	C29	0.508000	0.488000	0.572000
C301	C30	0.790400	0.497000	0.812800
C311	C31	0.480000	0.633600	0.950000
C321	C32	0.418600	0.453000	0.921800
C331	C33	0.175100	0.809100	0.420100
C341	C34	0.571000	0.893500	0.270100
C351	C35	0.436000	0.421500	0.582500
C361	C36	0.725700	0.819800	0.621800
C371	C37	0.770900	0.856300	0.592100
C381	C38	0.483400	0.208900	0.514500
C391	C39	0.691500	0.544500	0.206100
C401	C40	0.103600	0.825100	0.829100
C411	C41	0.324900	0.579900	0.190900
C421	C42	0.748100	0.708100	0.941900
C431	C43	0.024100	0.065900	0.917900
C441	C44	0.351700	0.525500	0.279100
C451	C45	0.365400	0.471600	0.367600
C461	C46	0.695700	0.869800	0.486800
C471	C47	0.179300	0.343500	0.085700
C481	C48	0.391500	0.585700	0.843500
C491	C49	0.621000	0.586800	0.805800
C501	C50	0.897600	0.954800	0.404000
C511	C51	0.936400	0.450000	0.133600
C521	C52	0.947900	0.152600	0.538200
C531	C53	0.432000	0.072000	0.988000
C541	C54	0.382600	0.537100	0.223900
C551	C55	0.945000	0.984900	0.937100
C561	C56	0.645500	0.837600	0.655000
C571	C57	0.020000	0.050000	0.366400
C581	C58	0.676000	0.576800	0.116800
C591	C59	0.839100	0.158500	0.392100
C601	C60	0.898100	0.791900	0.558100
C611	C61	0.488200	0.210500	0.349100
C621	C62	0.545000	0.095000	0.652000
C631	C63	0.602400	0.596000	0.045200
C641	C64	0.992100	0.417900	0.565900
C651	C65	0.396400	0.170900	0.174900
C661	C66	0.117400	0.776100	0.462900
C671	C67	0.362700	0.860800	0.651600
C681	C68	0.081400	0.078200	0.547000
C691	C69	0.171800	0.765200	0.655400
C701	C70	0.441600	0.847400	0.615200
C711	C71	0.978300	0.638400	0.753000
C721	C72	0.724000	0.472800	0.906000
C731	C73	0.690900	0.270400	0.157800
C741	C74	0.879600	0.363200	0.011600
C751	C75	0.795400	0.867600	0.971600
C761	C76	0.941700	0.804200	0.391200
C771	C77	0.986400	0.305800	0.086800
C781	C78	0.660900	0.607900	0.841500
C791	C79	0.015700	0.716700	0.538300
C801	C80	0.595700	0.920100	0.309100
C811	C81	0.774300	0.378200	0.180200
C821	C82	0.643600	0.962900	0.276100
C831	C83	0.133000	0.437100	0.484900
C841	C84	0.288000	0.409700	0.294300
C851	C85	0.058400	0.384800	0.152600
C861	C86	0.610300	0.892100	0.658500
C871	C87	0.800800	0.808900	0.987900
C881	C88	0.952200	0.849100	0.710500
C891	C89	0.412000	0.302200	0.494800
C901	C90	0.899800	0.312800	0.997000
C911	C91	0.670400	0.237100	0.464700
C921	C92	0.511600	0.205000	0.460000
C931	C93	0.709600	0.187200	0.503000
C941	C94	0.899300	0.313600	0.207400
C951	C95	0.357400	0.954400	0.625200
C961	C96	0.008000	0.794300	0.909700
C971	C97	0.206600	0.421800	0.953000
C981	C98	0.619100	0.229600	0.342200
C991	C99	0.489900	0.249800	0.423000
C1001	C100	0.955000	0.348000	0.905000
C1011	C101	0.169800	0.755600	0.606800
C1021	C102	0.223500	0.020200	0.675200
C1031	C103	0.478300	0.887500	0.583900
C1041	C104	0.016600	0.485500	0.791100
C1051	C105	0.175800	0.313300	0.181300
C1061	C106	0.662700	0.250200	0.077000
C1071	C107	0.193500	0.846700	0.448300
C1081	C108	0.808500	0.793900	0.455500
C1091	C109	0.449700	0.612500	0.916100
C1101	C110	0.869700	0.861600	0.747000
C1111	C111	0.547800	0.289500	0.150900
C1121	C112	0.475900	0.082100	0.934100
C1131	C113	0.064000	0.417500	0.578500
C1141	C114	0.627800	0.964700	0.737100
C1151	C115	0.579700	0.707400	0.813600
C1161	C116	0.653800	0.539900	0.268500
C1171	C117	0.920300	0.186400	0.292600
C1181	C118	0.843700	0.779100	0.025500
C1191	C119	0.861900	0.155000	0.337600
C1201	C120	0.686300	0.194900	0.556300
C1211	C121	0.723000	0.242500	0.968100
C1221	C122	0.602800	0.027200	0.594000
C1231	C123	0.988400	0.540000	0.795000
C1241	C124	0.354300	0.351200	0.516200
C1251	C125	0.515200	0.473300	0.228100
C1261	C126	0.092400	0.734800	0.844600
C1271	C127	0.212000	0.705700	0.590300
C1281	C128	0.728100	0.814700	0.487100
C1291	C129	0.962200	0.960100	0.231500
C1301	C130	0.433600	0.257500	0.531900
C1311	C131	0.956500	0.250500	0.926500
C1321	C132	0.743600	0.904000	0.454800
C1331	C133	0.035500	0.801700	0.489100
C1341	C134	0.673700	0.989100	0.301700
C1351	C135	0.735800	0.910700	0.595500
C1361	C136	0.032200	0.744400	0.893200
C1371	C137	0.191600	0.368500	0.986100
C1381	C138	0.557900	0.706100	0.044500
C1391	C139	0.783400	0.728100	0.973300
C1401	C140	0.097600	0.691100	0.512100
C1411	C141	0.404200	0.652600	0.884800
C1421	C142	0.437000	0.545600	0.874800
C1431	C143	0.754400	0.136800	0.488400
C1441	C144	0.521700	0.247000	0.361600
C1451	C145	0.793200	0.014500	0.708900
C1461	C146	0.095800	0.115200	0.347400
C1471	C147	0.010100	0.577000	0.750200
C1481	C148	0.068000	0.012000	0.928000
C1491	C149	0.066400	0.468100	0.742500
C1501	C150	0.308400	0.013900	0.631500
C1511	C151	0.006200	0.672600	0.698400
C1521	C152	0.745600	0.511600	0.863200
C1531	C153	0.453800	0.486100	0.868500
C1541	C154	0.747200	0.419500	0.898500
C1551	C155	0.869600	0.923200	0.383200
C1561	C156	0.046200	0.131500	0.513900
C1571	C157	0.108500	0.156500	0.414300
C1581	C158	0.729300	0.038300	0.216700
C1591	C159	0.565200	0.080500	0.601500
C1601	C160	0.655500	0.928500	0.628700
C1611	C161	0.142600	0.374800	0.045600
C1621	C162	0.543500	0.073500	0.749500
C1631	C163	0.854800	0.661100	0.125300
C1641	C164	0.011800	0.650900	0.789500
C1651	C165	0.729100	0.407900	0.143700
C1661	C166	0.813700	0.443700	0.805100
C1671	C167	0.777000	0.031900	0.757500
C1681	C168	0.829600	0.535300	0.762900
C1691	C169	0.436200	0.941000	0.589000
C1701	C170	0.243800	0.377700	0.334700
C1711	C171	0.484300	0.461700	0.283300
C1721	C172	0.638100	0.662400	0.845000
C1731	C173	0.792000	0.405000	0.848000
C1741	C174	0.988500	0.653300	0.051700
C1751	C175	0.940000	0.078500	0.917500
C1761	C176	0.942100	0.955500	0.293900
C1771	C177	0.699200	0.012100	0.191100
C1781	C178	0.877200	0.827400	0.801600
C1791	C179	0.256200	0.665300	0.622300
C1801	C180	0.846200	0.731500	0.460100
C1811	C181	0.600200	0.003000	0.687200
C1821	C182	0.063000	0.125200	0.454400
C1831	C183	0.456200	0.122300	0.165300
C1841	C184	0.709000	0.197800	0.005200
C1851	C185	0.719300	0.643700	0.907900
C1861	C186	0.656300	0.974500	0.220900
C1871	C187	0.770700	0.783300	0.961700
C1881	C188	0.145700	0.483800	0.648800
C1891	C189	0.862900	0.891200	0.304200
C1901	C190	0.992000	0.428000	0.512000
C1911	C191	0.021700	0.416100	0.112500
C1921	C192	0.329600	0.681300	0.813300
C1931	C193	0.856400	0.723900	0.037100
C1941	C194	0.758000	0.095500	0.410700
C1951	C195	0.552100	0.461800	0.847400
C1961	C196	0.844500	0.371300	0.071500
C1971	C197	0.138700	0.347400	0.961800
C1981	C198	0.676600	0.295000	0.040000
C1991	C199	0.330200	0.393200	0.244400
C2001	C200	0.137300	0.348400	0.139200
C2011	C201	0.563600	0.866400	0.550000
C2021	C202	0.778300	0.016200	0.851200
C2031	C203	0.630300	0.253000	0.138400
C2041	C204	0.637100	0.695800	0.108800
C2051	C205	0.440200	0.298300	0.440300
C2061	C206	0.418900	0.479800	0.824800
C2071	C207	0.560000	0.082500	0.921500
C2081	C208	0.320700	0.914300	0.656500
C2091	C209	0.937500	0.305100	0.943700
C2101	C210	0.063800	0.411000	0.059000
C2111	C211	0.620400	0.988400	0.636800
C2121	C212	0.769400	0.059100	0.667500
C2131	C213	0.984800	0.771900	0.526700
C2141	C214	0.059800	0.559700	0.701700
C2151	C215	0.872200	0.262900	0.035300
C2161	C216	0.832700	0.121800	0.319800
C2171	C217	0.791000	0.994800	0.802200
C2181	C218	0.643500	0.576500	0.171900
C2191	C219	0.081100	0.175200	0.520200
C2201	C220	0.633500	0.249500	0.573500
C2211	C221	0.471900	0.062100	0.028100
C2221	C222	0.529900	0.685300	0.012900
C2231	C223	0.826300	0.698300	0.010900
C2241	C224	0.124900	0.151600	0.360800
C2251	C225	0.897200	0.406000	0.972800
C2261	C226	0.375100	0.639200	0.848400
C2271	C227	0.367000	0.515100	0.562900
C2281	C228	0.141200	0.838900	0.374700
C2291	C229	0.504000	0.167500	0.559100
C2301	C230	0.889700	0.341500	0.107900
C2311	C231	0.033800	0.089000	0.441000
C2321	C232	0.148300	0.720900	0.474500
C2331	C233	0.879000	0.194200	0.413200
C2341	C234	0.257800	0.674900	0.670900
C2351	C235	0.467800	0.106800	0.255600
C2361	C236	0.742000	0.589300	0.904500
C2371	C237	0.706800	0.291100	0.985500
C2381	C238	0.028100	0.971900	0.937900
C2391	C239	0.712700	0.571500	0.871300
C2401	C240	0.854500	0.345000	0.162400
C2411	C241	0.507900	0.434100	0.582100
C2421	C242	0.708000	0.152000	0.595000
C2431	C243	0.721700	0.148800	0.983800
C2441	C244	0.306500	0.551700	0.153300
C2451	C245	0.866500	0.426500	0.750500
C2461	C246	0.780700	0.092100	0.356300
C2471	C247	0.466200	0.559000	0.911000
C2481	C248	0.265400	0.770100	0.393500
C2491	C249	0.050300	0.083900	0.387500
C2501	C250	0.880900	0.657800	0.770400
C2511	C251	0.821200	0.940300	0.798300
C2521	C252	0.608100	0.671900	0.076500
C2531	C253	0.492000	0.090300	0.205700
C2541	C254	0.704600	0.028400	0.132400
C2551	C255	0.358800	0.625300	0.161100
C2561	C256	0.361300	0.038200	0.652600
C2571	C257	0.293400	0.047000	0.578200
C2581	C258	0.823400	0.960000	0.705000
C2591	C259	0.764200	0.404500	0.089300
C2601	C260	0.493800	0.301600	0.327400
C2611	C261	0.622800	0.198400	0.172600
C2621	C262	0.934800	0.398500	0.919500
C2631	C263	0.630400	0.616800	0.076800
C2641	C264	0.062100	0.437900	0.471900
C2651	C265	0.088000	0.505200	0.697800
C2661	C266	0.437900	0.528100	0.562100
C2671	C267	0.276500	0.324800	0.979800
C2681	C268	0.751900	0.058100	0.291900
C2691	C269	0.730600	0.332500	0.940900
C2701	C270	0.970100	0.987100	0.314700
C2711	C271	0.555000	0.062900	0.015100
C2721	C272	0.537800	0.768500	0.039900
C2731	C273	0.513600	0.913200	0.694200
C2741	C274	0.891900	0.923500	0.328100
C2751	C275	0.678800	0.201700	0.059700
C2761	C276	0.645200	0.874700	0.338900
C2771	C277	0.776000	0.094000	0.527200
C2781	C278	0.464500	0.510900	0.198300
C2791	C279	0.552300	0.630200	0.013200
C2801	C280	0.328200	0.344600	0.234800
N11	N1	0.952800	0.444500	0.882100
N21	N2	0.854000	0.840600	0.559400
N31	N3	0.779400	0.055500	0.617900
N41	N4	0.754000	0.659400	0.940600
N51	N5	0.611100	0.894100	0.517900
N61	N6	0.901400	0.038300	0.926900
N71	N7	0.127900	0.775300	0.812500
N81	N8	0.547200	0.117900	0.555500
N91	N9	0.720600	0.382100	0.944500
N101	N10	0.976900	0.017900	0.394100
N111	N11	0.284300	0.312500	0.275300
N121	N12	0.598600	0.073100	0.961700
N131	N13	0.215700	0.724700	0.687500
N141	N14	0.523100	0.605900	0.982100
N151	N15	0.746000	0.059400	0.340600
N161	N16	0.888900	0.482100	0.105900
N171	N17	0.372100	0.187500	0.224700
N181	N18	0.133400	0.426900	0.538300
N191	N19	0.646000	0.440600	0.159400
N201	N20	0.366600	0.461700	0.573100
O11	O1	0.566300	0.037800	0.453800
O21	O2	0.750000	0.988600	0.011400
O31	O3	0.010300	0.855000	0.478000
O41	O4	0.248700	0.281600	0.167800
O51	O5	0.991800	0.058800	0.481600
O61	O6	0.657800	0.341700	0.056700
O71	O7	0.843300	0.645000	0.022000
O81	O8	0.626900	0.016700	0.543100
O91	O9	0.943800	0.556700	0.841700
O101	O10	0.137300	0.319000	0.231400
O111	O11	0.717900	0.106000	0.016600
O121	O12	0.312300	0.731400	0.819000
O131	O13	0.942100	0.953800	0.537800
O141	O14	0.825000	0.889800	0.993000
O151	O15	0.626400	0.542700	0.041500
O161	O16	0.556200	0.158300	0.443300
O171	O17	0.782100	0.983400	0.894000
O181	O18	0.711100	0.063300	0.445100
O191	O19	0.032200	0.441200	0.018400
O201	O20	0.873100	0.456900	0.983300
O211	O21	0.417200	0.433700	0.390700
O221	O22	0.082800	0.609300	0.566300
O231	O23	0.557900	0.462200	0.046200
O241	O24	0.301900	0.667800	0.781600
O251	O25	0.734300	0.148600	0.934800
O261	O26	0.741600	0.066300	0.109300
O271	O27	0.362700	0.768600	0.681000
O281	O28	0.789400	0.541500	0.042700
O291	O29	0.933700	0.546200	0.962200
O301	O30	0.187700	0.181000	0.268600
O311	O31	0.675000	0.007000	0.110200
O321	O32	0.765700	0.065200	0.851400
O331	O33	0.710600	0.957300	0.458500
O341	O34	0.813300	0.043100	0.516700
O351	O35	0.207800	0.610200	0.507000
O361	O36	0.719500	0.436700	0.054900
O371	O37	0.842200	0.943300	0.658300
O381	O38	0.251300	0.832200	0.718400
O391	O39	0.292200	0.493000	0.389800
O401	O40	0.467800	0.981600	0.558800
O411	O41	0.656700	0.978000	0.355000
O421	O42	0.489700	0.522000	0.145000
O431	O43	0.508200	0.518400	0.941200
O441	O44	0.686700	0.483300	0.956900
O451	O45	0.873600	0.958500	0.457300
O461	O46	0.198100	0.218400	0.332200
O471	O47	0.780500	0.945100	0.563300
O481	O48	0.159500	0.516600	0.606000
O491	O49	0.340500	0.394000	0.483400
O501	O50	0.317700	0.351400	0.565200
O511	O51	0.250000	0.511400	0.488600
O521	O52	0.788900	0.554900	0.936700
O531	O53	0.758400	0.890700	0.933700
O541	O54	0.182300	0.434800	0.648600
