data_FOSTUE_freeONLY_PM
_symmetry_space_group_name_H-M	'P1'
_cell_length_a	44.125200
_cell_length_b	44.125200
_cell_length_c	42.296100
_cell_angle_alpha	90.000000
_cell_angle_beta	90.000000
_cell_angle_gamma	120.000000
_symmetry_Int_Tables_number 1

loop_
_symmetry_equiv_pos_as_xyz
'x,y,z'

loop_
_atom_site_label
_atom_site_type_symbol
_atom_site_fract_x
_atom_site_fract_y
_atom_site_fract_z
In11	In1	0.801380	0.040430	0.959050
O11	O1	0.824570	0.073840	0.914130
O21	O2	0.823160	0.098360	0.958230
O31	O3	0.778230	0.999710	0.998110
O41	O4	0.793180	0.052930	0.009260
O51	O5	0.827790	0.010570	0.942890
O61	O6	0.855070	0.053890	0.976120
O71	O7	0.749170	0.037960	0.948250
O81	O8	0.761230	0.999630	0.926340
C11	C1	0.832020	0.101930	0.929340
C21	C2	0.781240	0.021560	0.018370
C31	C3	0.854850	0.029130	0.959980
C41	C4	0.849310	0.135980	0.913740
C51	C5	0.771810	0.012490	0.051550
C61	C6	0.884600	0.023060	0.959720
C71	C7	0.860290	0.165580	0.932430
C81	C8	0.854410	0.139380	0.881220
C91	C9	0.760250	0.978820	0.062280
C101	C10	0.775470	0.038150	0.072870
C111	C11	0.881720	0.994040	0.943910
C121	C12	0.916010	0.046310	0.974990
H11	H1	0.856900	0.163300	0.954200
C131	C13	0.876360	0.198570	0.918590
C141	C14	0.870480	0.172370	0.867380
H21	H2	0.847100	0.119600	0.868700
H31	H3	0.758700	0.961900	0.048200
C151	C15	0.750990	0.969770	0.093360
C161	C16	0.766470	0.029070	0.104040
H41	H4	0.783900	0.061100	0.066200
H51	H5	0.861200	0.978700	0.933400
C171	C17	0.909230	0.988460	0.944070
C181	C18	0.943420	0.040390	0.973810
H61	H6	0.918100	0.065600	0.985800
H71	H7	0.883700	0.218400	0.931100
C191	C19	0.881460	0.201960	0.886060
H81	H8	0.873900	0.174600	0.845600
H91	H9	0.742700	0.946900	0.100000
C201	C20	0.754100	0.995110	0.114680
H101	H10	0.768700	0.046100	0.118300
H111	H11	0.906700	0.968500	0.934200
C211	C21	0.941490	0.011590	0.958510
H121	H12	0.964300	0.056200	0.983600
C221	C22	0.900160	0.237830	0.871370
C231	C23	0.743800	0.986450	0.149200
C241	C24	0.971840	0.006140	0.957080
C251	C25	0.891700	0.242500	0.840780
C261	C26	0.926770	0.265860	0.887680
C271	C27	0.749960	0.962390	0.164330
C281	C28	0.728900	0.003040	0.164380
C291	C29	0.005670	0.033370	0.957560
H131	H13	0.873900	0.223800	0.829900
C301	C30	0.909880	0.275190	0.826500
C311	C31	0.944950	0.298550	0.873390
H141	H14	0.932400	0.262700	0.908100
H151	H15	0.760900	0.952000	0.153800
C321	C32	0.739500	0.953890	0.195920
C331	C33	0.718500	0.995180	0.196030
H161	H16	0.725700	0.019600	0.153700
H171	H17	0.009600	0.056100	0.958200
C341	C34	0.936500	0.303220	0.842800
C351	C35	0.902500	0.279930	0.792790
C361	C36	0.972380	0.328880	0.891470
C371	C37	0.723800	0.970480	0.211220
C381	C38	0.746280	0.928790	0.213560
C391	C39	0.701850	0.012600	0.213040
H181	H18	0.948600	0.325100	0.833200
C401	C40	0.908640	0.311270	0.781040
C411	C41	0.889800	0.251770	0.772460
C421	C42	0.998560	0.327190	0.908290
C431	C43	0.971310	0.359830	0.890830
H191	H19	0.716700	0.964800	0.232100
C441	C44	0.737640	0.923270	0.245450
C451	C45	0.758810	0.909330	0.198340
C461	C46	0.675090	0.993460	0.234670
C471	C47	0.712100	0.046570	0.207650
H201	H20	0.918200	0.330700	0.794300
C481	C48	0.901120	0.315050	0.750280
C491	C49	0.884500	0.255500	0.742000
H211	H21	0.884900	0.230000	0.780000
H221	H22	0.999300	0.306500	0.908700
C501	C50	0.023670	0.356450	0.924460
C511	C51	0.996430	0.389090	0.907010
H231	H23	0.953800	0.361000	0.879600
H241	H24	0.729300	0.936300	0.255600
C521	C52	0.741500	0.898300	0.262140
C531	C53	0.762700	0.884350	0.215030
H251	H25	0.764600	0.913000	0.177000
H261	H26	0.667600	0.970000	0.238300
C541	C54	0.659760	0.009750	0.250720
C551	C55	0.697140	0.063060	0.224120
H271	H27	0.729400	0.059100	0.192700
H281	H28	0.905100	0.336600	0.742900
C561	C56	0.887610	0.286400	0.730470
H291	H29	0.878500	0.237000	0.728100
H301	H30	0.041200	0.355300	0.935700
C571	C57	0.022610	0.387400	0.923820
H311	H31	0.995700	0.409800	0.906600
H321	H32	0.735700	0.894600	0.283500
C581	C58	0.754060	0.878830	0.246930
H331	H33	0.771100	0.871300	0.204800
H341	H34	0.641600	0.996900	0.264800
C591	C59	0.671230	0.044950	0.245950
H351	H35	0.704800	0.086500	0.220300
C601	C60	0.879980	0.289200	0.696600
C611	C61	0.047900	0.417340	0.941420
C621	C62	0.757700	0.849300	0.264300
C631	C63	0.656070	0.063350	0.263140
O91	O9	0.863440	0.261720	0.680510
O101	O10	0.887790	0.318380	0.684630
O111	O11	0.040440	0.440400	0.950870
O121	O12	0.077800	0.424350	0.946440
O131	O13	0.771980	0.836090	0.254200
O141	O14	0.747800	0.847400	0.292900
In21	In2	0.859980	0.288260	0.637820
O151	O15	0.842860	0.327390	0.629410
O161	O16	0.812030	0.284260	0.661330
C641	C64	0.815870	0.309880	0.645500
C651	C65	0.786150	0.317080	0.645470
C661	C66	0.755220	0.294120	0.660890
C671	C67	0.788160	0.344550	0.627730
H361	H36	0.753900	0.275700	0.672800
C681	C68	0.726290	0.298630	0.658570
C691	C69	0.759240	0.349050	0.625420
H371	H37	0.808900	0.359900	0.617400
H381	H38	0.705600	0.283300	0.668900
C701	C70	0.728300	0.326090	0.640830
H391	H39	0.760600	0.367400	0.613500
C711	C71	0.696400	0.330600	0.637800
C721	C72	0.663200	0.300800	0.637940
H401	H40	0.661000	0.278800	0.638100
In31	In3	0.468050	0.373760	0.292390
O171	O17	0.491240	0.407170	0.247460
O181	O18	0.489830	0.431690	0.291560
O191	O19	0.444900	0.333040	0.331440
O201	O20	0.459850	0.386260	0.342590
O211	O21	0.494460	0.343900	0.276220
O221	O22	0.521740	0.387220	0.309450
O231	O23	0.415840	0.371290	0.281580
O241	O24	0.427900	0.332960	0.259670
C731	C73	0.498690	0.435260	0.262670
C741	C74	0.447910	0.354890	0.351700
C751	C75	0.521520	0.362460	0.293310
C761	C76	0.515980	0.469310	0.247070
C771	C77	0.438480	0.345820	0.384880
C781	C78	0.551270	0.356390	0.293050
C791	C79	0.526960	0.498910	0.265760
C801	C80	0.521080	0.472710	0.214550
C811	C81	0.426920	0.312150	0.395610
C821	C82	0.442140	0.371480	0.406200
C831	C83	0.548390	0.327370	0.277240
C841	C84	0.582680	0.379640	0.308320
H411	H41	0.523570	0.496630	0.287530
C851	C85	0.543030	0.531900	0.251920
C861	C86	0.537150	0.505700	0.200710
H421	H42	0.513770	0.452930	0.202030
H431	H43	0.425370	0.295230	0.381530
C871	C87	0.417660	0.303100	0.426690
C881	C88	0.433140	0.362400	0.437370
H441	H44	0.450570	0.394430	0.399530
H451	H45	0.527870	0.312030	0.266730
C891	C89	0.575900	0.321790	0.277400
C901	C90	0.610090	0.373720	0.307140
H461	H46	0.584770	0.398930	0.319130
H471	H47	0.550370	0.551730	0.264430
C911	C91	0.548130	0.535290	0.219390
H481	H48	0.540570	0.507930	0.178930
H491	H49	0.409370	0.280230	0.433330
C921	C92	0.420770	0.328440	0.448010
H501	H50	0.435370	0.379430	0.451630
H511	H51	0.573370	0.301830	0.267530
C931	C93	0.608160	0.344920	0.291840
H521	H52	0.630970	0.389530	0.316930
C941	C94	0.566830	0.571160	0.204700
C951	C95	0.410470	0.319780	0.482530
C961	C96	0.638510	0.339470	0.290410
C971	C97	0.558370	0.575830	0.174110
C981	C98	0.593440	0.599190	0.221010
C991	C99	0.416630	0.295720	0.497660
C1001	C100	0.395570	0.336370	0.497710
C1011	C101	0.672340	0.366700	0.290890
H531	H53	0.540570	0.557130	0.163230
C1021	C102	0.576550	0.608520	0.159830
C1031	C103	0.611620	0.631880	0.206720
H541	H54	0.599070	0.596030	0.241430
H551	H55	0.427570	0.285330	0.487130
C1041	C104	0.406170	0.287220	0.529250
C1051	C105	0.385170	0.328510	0.529360
H561	H56	0.392370	0.352930	0.487030
H571	H57	0.676270	0.389430	0.291530
C1061	C106	0.603170	0.636550	0.176130
C1071	C107	0.569170	0.613260	0.126120
C1081	C108	0.639050	0.662210	0.224800
C1091	C109	0.390470	0.303810	0.544550
C1101	C110	0.412950	0.262120	0.546890
C1111	C111	0.368520	0.345930	0.546370
H581	H58	0.615270	0.658430	0.166530
C1121	C112	0.575310	0.644600	0.114370
C1131	C113	0.556470	0.585100	0.105790
C1141	C114	0.665230	0.660520	0.241620
C1151	C115	0.637980	0.693160	0.224160
H591	H59	0.383370	0.298130	0.565430
C1161	C116	0.404310	0.256600	0.578780
C1171	C117	0.425480	0.242660	0.531670
C1181	C118	0.341760	0.326790	0.568000
C1191	C119	0.378770	0.379900	0.540980
H601	H60	0.584870	0.664030	0.127630
C1201	C120	0.567790	0.648380	0.083610
C1211	C121	0.551170	0.588830	0.075330
H611	H61	0.551570	0.563330	0.113330
H621	H62	0.665970	0.639830	0.242030
C1221	C122	0.690340	0.689780	0.257790
C1231	C123	0.663100	0.722420	0.240340
H631	H63	0.620470	0.694330	0.212930
H641	H64	0.395970	0.269630	0.588930
C1241	C124	0.408170	0.231630	0.595470
C1251	C125	0.429370	0.217680	0.548360
H651	H65	0.431270	0.246330	0.510330
H661	H66	0.334270	0.303330	0.571630
C1261	C126	0.326430	0.343080	0.584050
C1271	C127	0.363810	0.396390	0.557450
H671	H67	0.396070	0.392430	0.526030
H681	H68	0.571770	0.669930	0.076230
C1281	C128	0.554280	0.619730	0.063800
H691	H69	0.545170	0.570330	0.061430
H701	H70	0.707870	0.688630	0.269030
C1291	C129	0.689280	0.720730	0.257150
H711	H71	0.662370	0.743130	0.239930
H721	H72	0.402370	0.227930	0.616830
C1301	C130	0.420730	0.212160	0.580260
H731	H73	0.437770	0.204630	0.538130
H741	H74	0.308270	0.330230	0.598130
C1311	C131	0.337900	0.378280	0.579280
H751	H75	0.371470	0.419830	0.553630
C1321	C132	0.546650	0.622530	0.029930
C1331	C133	0.714570	0.750670	0.274750
C1341	C134	0.424370	0.182630	0.597630
C1351	C135	0.322740	0.396680	0.596470
O251	O25	0.530110	0.595050	0.013840
O261	O26	0.554460	0.651710	0.017960
O271	O27	0.707110	0.773730	0.284200
O281	O28	0.744470	0.757680	0.279770
O291	O29	0.438650	0.169420	0.587530
O301	O30	0.414470	0.180730	0.626230
In41	In4	0.526640	0.621590	0.971160
O311	O31	0.509530	0.660720	0.962740
O321	O32	0.478700	0.617590	0.994660
C1361	C136	0.482540	0.643210	0.978830
C1371	C137	0.452820	0.650410	0.978800
C1381	C138	0.421890	0.627450	0.994220
C1391	C139	0.454830	0.677880	0.961060
H761	H76	0.420570	0.609030	0.006130
C1401	C140	0.392960	0.631960	0.991900
C1411	C141	0.425910	0.682380	0.958750
H771	H77	0.475570	0.693230	0.950730
H781	H78	0.372270	0.616630	0.002230
C1421	C142	0.394970	0.659420	0.974160
H791	H79	0.427270	0.700730	0.946830
C1431	C143	0.363070	0.663930	0.971130
C1441	C144	0.329870	0.634130	0.971270
H801	H80	0.327670	0.612130	0.971430
In51	In5	0.134710	0.707100	0.625720
O331	O33	0.157900	0.740510	0.580800
O341	O34	0.156490	0.765030	0.624900
O351	O35	0.111560	0.666380	0.664780
O361	O36	0.126510	0.719600	0.675930
O371	O37	0.161120	0.677240	0.609560
O381	O38	0.188400	0.720560	0.642790
O391	O39	0.082500	0.704630	0.614920
O401	O40	0.094560	0.666300	0.593010
C1451	C145	0.165350	0.768600	0.596010
C1461	C146	0.114570	0.688230	0.685040
C1471	C147	0.188180	0.695800	0.626650
C1481	C148	0.182640	0.802650	0.580410
C1491	C149	0.105140	0.679160	0.718220
C1501	C150	0.217930	0.689730	0.626390
C1511	C151	0.193620	0.832250	0.599100
C1521	C152	0.187740	0.806050	0.547890
C1531	C153	0.093580	0.645490	0.728950
C1541	C154	0.108800	0.704820	0.739540
C1551	C155	0.215050	0.660710	0.610580
C1561	C156	0.249340	0.712980	0.641660
H811	H81	0.190230	0.829970	0.620870
C1571	C157	0.209690	0.865240	0.585260
C1581	C158	0.203810	0.839040	0.534050
H821	H82	0.180430	0.786270	0.535370
H831	H83	0.092030	0.628570	0.714870
C1591	C159	0.084320	0.636440	0.760030
C1601	C160	0.099800	0.695740	0.770710
H841	H84	0.117230	0.727770	0.732870
H851	H85	0.194530	0.645370	0.600070
C1611	C161	0.242560	0.655130	0.610740
C1621	C162	0.276750	0.707060	0.640480
H861	H86	0.251430	0.732270	0.652470
H871	H87	0.217030	0.885070	0.597770
C1631	C163	0.214790	0.868630	0.552730
H881	H88	0.207230	0.841270	0.512270
H891	H89	0.076030	0.613570	0.766670
C1641	C164	0.087430	0.661780	0.781350
H901	H90	0.102030	0.712770	0.784970
H911	H91	0.240030	0.635170	0.600870
C1651	C165	0.274820	0.678260	0.625180
H921	H92	0.297630	0.722870	0.650270
C1661	C166	0.233490	0.904500	0.538040
C1671	C167	0.077130	0.653120	0.815870
C1681	C168	0.305170	0.672810	0.623750
C1691	C169	0.225030	0.909170	0.507450
C1701	C170	0.260100	0.932530	0.554350
C1711	C171	0.083290	0.629060	0.831000
C1721	C172	0.062230	0.669710	0.831050
C1731	C173	0.339000	0.700040	0.624230
H931	H93	0.207230	0.890470	0.496570
C1741	C174	0.243210	0.941860	0.493170
C1751	C175	0.278280	0.965220	0.540060
H941	H94	0.265730	0.929370	0.574770
H951	H95	0.094230	0.618670	0.820470
C1761	C176	0.072830	0.620560	0.862590
C1771	C177	0.051830	0.661850	0.862700
H961	H96	0.059030	0.686270	0.820370
H971	H97	0.342930	0.722770	0.624870
C1781	C178	0.269830	0.969890	0.509470
C1791	C179	0.235830	0.946600	0.459460
C1801	C180	0.305710	0.995550	0.558140
C1811	C181	0.057130	0.637150	0.877890
C1821	C182	0.079610	0.595460	0.880230
C1831	C183	0.035180	0.679270	0.879710
H981	H98	0.281930	0.991770	0.499870
C1841	C184	0.241970	0.977940	0.447710
C1851	C185	0.223130	0.918440	0.439130
C1861	C186	0.331890	0.993860	0.574960
C1871	C187	0.304640	0.026500	0.557500
H991	H99	0.050030	0.631470	0.898770
C1881	C188	0.070970	0.589940	0.912120
C1891	C189	0.092140	0.576000	0.865010
C1901	C190	0.008420	0.660130	0.901340
C1911	C191	0.045430	0.713240	0.874320
H1001	H100	0.251530	0.997370	0.460970
C1921	C192	0.234450	0.981720	0.416950
C1931	C193	0.217830	0.922170	0.408670
H1011	H101	0.218230	0.896670	0.446670
H1021	H102	0.332630	0.973170	0.575370
C1941	C194	0.357000	0.023120	0.591130
C1951	C195	0.329760	0.055760	0.573680
H1031	H103	0.287130	0.027670	0.546270
H1041	H104	0.062630	0.602970	0.922270
C1961	C196	0.074830	0.564970	0.928810
C1971	C197	0.096030	0.551020	0.881700
H1051	H105	0.097930	0.579670	0.843670
H1061	H106	0.000930	0.636670	0.904970
C1981	C198	0.993090	0.676420	0.917390
C1991	C199	0.030470	0.729730	0.890790
H1071	H107	0.062730	0.725770	0.859370
H1081	H108	0.238430	0.003270	0.409570
C2001	C200	0.220940	0.953070	0.397140
H1091	H109	0.211830	0.903670	0.394770
H1101	H110	0.374530	0.021970	0.602370
C2011	C201	0.355940	0.054070	0.590490
H1111	H111	0.329030	0.076470	0.573270
H1121	H112	0.069030	0.561270	0.950170
C2021	C202	0.087390	0.545500	0.913600
H1131	H113	0.104430	0.537970	0.871470
H1141	H114	0.974930	0.663570	0.931470
C2031	C203	0.004560	0.711620	0.912620
H1151	H115	0.038130	0.753170	0.886970
C2041	C204	0.213310	0.955870	0.363270
C2051	C205	0.381230	0.084010	0.608090
C2061	C206	0.091030	0.515970	0.930970
C2071	C207	0.989400	0.730020	0.929810
O411	O41	0.196770	0.928390	0.347180
O421	O42	0.221120	0.985050	0.351300
O431	O43	0.373770	0.107070	0.617540
O441	O44	0.411130	0.091020	0.613110
O451	O45	0.105310	0.502760	0.920870
O461	O46	0.081130	0.514070	0.959570
In61	In6	0.193310	0.954920	0.304490
O471	O47	0.176190	0.994060	0.296080
O481	O48	0.145360	0.950930	0.328000
C2081	C208	0.149200	0.976550	0.312170
C2091	C209	0.119480	0.983750	0.312140
C2101	C210	0.088550	0.960790	0.327560
C2111	C211	0.121490	0.011220	0.294400
H1161	H116	0.087230	0.942370	0.339470
C2121	C212	0.059620	0.965300	0.325240
C2131	C213	0.092570	0.015720	0.292090
H1171	H117	0.142230	0.026570	0.284070
H1181	H118	0.038930	0.949970	0.335570
C2141	C214	0.061630	0.992760	0.307500
H1191	H119	0.093930	0.034070	0.280170
C2151	C215	0.029730	0.997270	0.304470
C2161	C216	0.996530	0.967470	0.304610
H1201	H120	0.994330	0.945470	0.304770
In71	In7	0.959570	0.760950	0.959050
O491	O49	0.926160	0.750730	0.914130
O501	O50	0.901640	0.724800	0.958230
O511	O51	0.000290	0.778520	0.998110
O521	O52	0.947070	0.740250	0.009260
O531	O53	0.989430	0.817220	0.942890
O541	O54	0.946110	0.801180	0.976120
O551	O55	0.962040	0.711210	0.948250
O561	O56	0.000370	0.761600	0.926340
C2171	C217	0.898070	0.730090	0.929340
C2181	C218	0.978440	0.759680	0.018370
C2191	C219	0.970870	0.825720	0.959980
C2201	C220	0.864020	0.713330	0.913740
C2211	C221	0.987510	0.759320	0.051550
C2221	C222	0.976940	0.861540	0.959720
C2231	C223	0.834420	0.694710	0.932430
C2241	C224	0.860620	0.715030	0.881220
C2251	C225	0.021180	0.781430	0.062280
C2261	C226	0.961850	0.737320	0.072870
C2271	C227	0.005960	0.887680	0.943910
C2281	C228	0.953690	0.869700	0.974990
H1211	H121	0.836700	0.693600	0.954200
C2291	C229	0.801430	0.677790	0.918590
C2301	C230	0.827630	0.698110	0.867380
H1221	H122	0.880400	0.727500	0.868700
H1231	H123	0.038100	0.796800	0.048200
C2311	C231	0.030230	0.781220	0.093360
C2321	C232	0.970930	0.737400	0.104040
H1241	H124	0.938900	0.722800	0.066200
H1251	H125	0.021300	0.882500	0.933400
C2331	C233	0.011540	0.920770	0.944070
C2341	C234	0.959610	0.903030	0.973810
H1261	H126	0.934400	0.852500	0.985800
H1271	H127	0.781600	0.665300	0.931100
C2351	C235	0.798040	0.679500	0.886060
H1281	H128	0.825400	0.699300	0.845600
H1291	H129	0.053100	0.795800	0.100000
C2361	C236	0.004890	0.758990	0.114680
H1301	H130	0.953900	0.722600	0.118300
H1311	H131	0.031500	0.938200	0.934200
C2371	C237	0.988410	0.929900	0.958510
H1321	H132	0.943800	0.908100	0.983600
C2381	C238	0.762170	0.662330	0.871370
C2391	C239	0.013550	0.757350	0.149200
C2401	C240	0.993860	0.965700	0.957080
C2411	C241	0.757500	0.649200	0.840780
C2421	C242	0.734140	0.660910	0.887680
C2431	C243	0.037610	0.787570	0.164330
C2441	C244	0.996960	0.725860	0.164380
C2451	C245	0.966630	0.972300	0.957560
H1331	H133	0.776200	0.650100	0.829900
C2461	C246	0.724810	0.634690	0.826500
C2471	C247	0.701450	0.646400	0.873390
H1341	H134	0.737300	0.669700	0.908100
H1351	H135	0.048000	0.808900	0.153800
C2481	C248	0.046110	0.785610	0.195920
C2491	C249	0.004820	0.723320	0.196030
H1361	H136	0.980400	0.706100	0.153700
H1371	H137	0.943900	0.953500	0.958200
C2501	C250	0.696780	0.633280	0.842800
C2511	C251	0.720070	0.622570	0.792790
C2521	C252	0.671120	0.643500	0.891470
C2531	C253	0.029520	0.753320	0.211220
C2541	C254	0.071210	0.817490	0.213560
C2551	C255	0.987400	0.689250	0.213040
H1381	H138	0.674900	0.623500	0.833200
C2561	C256	0.688730	0.597370	0.781040
C2571	C257	0.748230	0.638030	0.772460
C2581	C258	0.672810	0.671370	0.908290
C2591	C259	0.640170	0.611480	0.890830
H1391	H139	0.035200	0.751900	0.232100
C2601	C260	0.076730	0.814370	0.245450
C2611	C261	0.090670	0.849480	0.198340
C2621	C262	0.006540	0.681630	0.234670
C2631	C263	0.953430	0.665530	0.207650
H1401	H140	0.669300	0.587500	0.794300
C2641	C264	0.684950	0.586070	0.750280
C2651	C265	0.744500	0.629000	0.742000
H1411	H141	0.770000	0.654900	0.780000
H1421	H142	0.693500	0.692800	0.908700
C2661	C266	0.643550	0.667220	0.924460
C2671	C267	0.610910	0.607340	0.907010
H1431	H143	0.639000	0.592800	0.879600
H1441	H144	0.063700	0.793000	0.255600
C2681	C268	0.101700	0.843200	0.262140
C2691	C269	0.115650	0.878350	0.215030
H1451	H145	0.087000	0.851600	0.177000
H1461	H146	0.030000	0.697600	0.238300
C2701	C270	0.990250	0.650010	0.250720
C2711	C271	0.936940	0.634080	0.224120
H1471	H147	0.940900	0.670300	0.192700
H1481	H148	0.663400	0.568500	0.742900
C2721	C272	0.713600	0.601210	0.730470
H1491	H149	0.763000	0.641500	0.728100
H1501	H150	0.644700	0.685900	0.935700
C2731	C273	0.612600	0.635210	0.923820
H1511	H151	0.590200	0.585900	0.906600
H1521	H152	0.105400	0.841100	0.283500
C2741	C274	0.121170	0.875230	0.246930
H1531	H153	0.128700	0.899800	0.204800
H1541	H154	0.003100	0.644700	0.264800
C2751	C275	0.955050	0.626280	0.245950
H1551	H155	0.913500	0.618300	0.220300
C2761	C276	0.710800	0.590780	0.696600
C2771	C277	0.582660	0.630560	0.941420
C2781	C278	0.150700	0.908400	0.264300
C2791	C279	0.936650	0.592720	0.263140
O571	O57	0.738280	0.601720	0.680510
O581	O58	0.681620	0.569410	0.684630
O591	O59	0.559600	0.600040	0.950870
O601	O60	0.575650	0.653450	0.946440
O611	O61	0.163910	0.935890	0.254200
O621	O62	0.152600	0.900400	0.292900
In81	In8	0.711740	0.571720	0.637820
O631	O63	0.672610	0.515470	0.629410
O641	O64	0.715740	0.527770	0.661330
C2801	C280	0.690120	0.505990	0.645500
C2811	C281	0.682920	0.469070	0.645470
C2821	C282	0.705880	0.461100	0.660890
C2831	C283	0.655450	0.443610	0.627730
H1561	H156	0.724300	0.478200	0.672800
C2841	C284	0.701370	0.427660	0.658570
C2851	C285	0.650950	0.410190	0.625420
H1571	H157	0.640100	0.449000	0.617400
H1581	H158	0.716700	0.422300	0.668900
C2861	C286	0.673910	0.402210	0.640830
H1591	H159	0.632600	0.393200	0.613500
C2871	C287	0.669400	0.365800	0.637800
C2881	C288	0.699200	0.362400	0.637940
H1601	H160	0.721200	0.382200	0.638100
In91	In9	0.626240	0.094280	0.292390
O651	O65	0.592830	0.084060	0.247460
O661	O66	0.568310	0.058130	0.291560
O671	O67	0.666960	0.111850	0.331440
O681	O68	0.613740	0.073580	0.342590
O691	O69	0.656100	0.150550	0.276220
O701	O70	0.612780	0.134510	0.309450
O711	O71	0.628710	0.044540	0.281580
O721	O72	0.667040	0.094930	0.259670
C2891	C289	0.564740	0.063420	0.262670
C2901	C290	0.645110	0.093010	0.351700
C2911	C291	0.637540	0.159050	0.293310
C2921	C292	0.530690	0.046660	0.247070
C2931	C293	0.654180	0.092650	0.384880
C2941	C294	0.643610	0.194870	0.293050
C2951	C295	0.501090	0.028040	0.265760
C2961	C296	0.527290	0.048360	0.214550
C2971	C297	0.687850	0.114760	0.395610
C2981	C298	0.628520	0.070650	0.406200
C2991	C299	0.672630	0.221010	0.277240
C3001	C300	0.620360	0.203030	0.308320
H1611	H161	0.503370	0.026930	0.287530
C3011	C301	0.468100	0.011120	0.251920
C3021	C302	0.494300	0.031440	0.200710
H1621	H162	0.547070	0.060830	0.202030
H1631	H163	0.704770	0.130130	0.381530
C3031	C303	0.696900	0.114550	0.426690
C3041	C304	0.637600	0.070730	0.437370
H1641	H164	0.605570	0.056130	0.399530
H1651	H165	0.687970	0.215830	0.266730
C3051	C305	0.678210	0.254100	0.277400
C3061	C306	0.626280	0.236360	0.307140
H1661	H166	0.601070	0.185830	0.319130
H1671	H167	0.448270	0.998630	0.264430
C3071	C307	0.464710	0.012830	0.219390
H1681	H168	0.492070	0.032630	0.178930
H1691	H169	0.719770	0.129130	0.433330
C3081	C308	0.671560	0.092320	0.448010
H1701	H170	0.620570	0.055930	0.451630
H1711	H171	0.698170	0.271530	0.267530
C3091	C309	0.655080	0.263230	0.291840
H1721	H172	0.610470	0.241430	0.316930
C3101	C310	0.428840	0.995660	0.204700
C3111	C311	0.680220	0.090680	0.482530
C3121	C312	0.660530	0.299030	0.290410
C3131	C313	0.424170	0.982530	0.174110
C3141	C314	0.400810	0.994240	0.221010
C3151	C315	0.704280	0.120900	0.497660
C3161	C316	0.663630	0.059190	0.497710
C3171	C317	0.633300	0.305630	0.290890
H1731	H173	0.442870	0.983430	0.163230
C3181	C318	0.391480	0.968020	0.159830
C3191	C319	0.368120	0.979730	0.206720
H1741	H174	0.403970	0.003030	0.241430
H1751	H175	0.714670	0.142230	0.487130
C3201	C320	0.712780	0.118940	0.529250
C3211	C321	0.671490	0.056650	0.529360
H1761	H176	0.647070	0.039430	0.487030
H1771	H177	0.610570	0.286830	0.291530
C3221	C322	0.363450	0.966610	0.176130
C3231	C323	0.386740	0.955900	0.126120
C3241	C324	0.337790	0.976830	0.224800
C3251	C325	0.696190	0.086650	0.544550
C3261	C326	0.737880	0.150820	0.546890
C3271	C327	0.654070	0.022580	0.546370
H1781	H178	0.341570	0.956830	0.166530
C3281	C328	0.355400	0.930700	0.114370
C3291	C329	0.414900	0.971360	0.105790
C3301	C330	0.339480	0.004700	0.241620
C3311	C331	0.306840	0.944810	0.224160
H1791	H179	0.701870	0.085230	0.565430
C3321	C332	0.743400	0.147700	0.578780
C3331	C333	0.757340	0.182810	0.531670
C3341	C334	0.673210	0.014960	0.568000
C3351	C335	0.620100	0.998860	0.540980
H1801	H180	0.335970	0.920830	0.127630
C3361	C336	0.351620	0.919400	0.083610
C3371	C337	0.411170	0.962330	0.075330
H1811	H181	0.436670	0.988230	0.113330
H1821	H182	0.360170	0.026130	0.242030
C3381	C338	0.310220	0.000550	0.257790
C3391	C339	0.277580	0.940670	0.240340
H1831	H183	0.305670	0.926130	0.212930
H1841	H184	0.730370	0.126330	0.588930
C3401	C340	0.768370	0.176530	0.595470
C3411	C341	0.782320	0.211680	0.548360
H1851	H185	0.753670	0.184930	0.510330
H1861	H186	0.696670	0.030930	0.571630
C3421	C342	0.656920	0.983340	0.584050
C3431	C343	0.603610	0.967410	0.557450
H1871	H187	0.607570	0.003630	0.526030
H1881	H188	0.330070	0.901830	0.076230
C3441	C344	0.380270	0.934540	0.063800
H1891	H189	0.429670	0.974830	0.061430
H1901	H190	0.311370	0.019230	0.269030
C3451	C345	0.279270	0.968540	0.257150
H1911	H191	0.256870	0.919230	0.239930
H1921	H192	0.772070	0.174430	0.616830
C3461	C346	0.787840	0.208560	0.580260
H1931	H193	0.795370	0.233130	0.538130
H1941	H194	0.669770	0.978030	0.598130
C3471	C347	0.621720	0.959610	0.579280
H1951	H195	0.580170	0.951630	0.553630
C3481	C348	0.377470	0.924110	0.029930
C3491	C349	0.249330	0.963890	0.274750
C3501	C350	0.817370	0.241730	0.597630
C3511	C351	0.603320	0.926050	0.596470
O731	O73	0.404950	0.935050	0.013840
O741	O74	0.348290	0.902740	0.017960
O751	O75	0.226270	0.933370	0.284200
O761	O76	0.242320	0.986780	0.279770
O771	O77	0.830580	0.269220	0.587530
O781	O78	0.819270	0.233730	0.626230
In101	In10	0.378410	0.905050	0.971160
O791	O79	0.339280	0.848800	0.962740
O801	O80	0.382410	0.861100	0.994660
C3521	C352	0.356790	0.839320	0.978830
C3531	C353	0.349590	0.802400	0.978800
C3541	C354	0.372550	0.794430	0.994220
C3551	C355	0.322120	0.776940	0.961060
H1961	H196	0.390970	0.811530	0.006130
C3561	C356	0.368040	0.760990	0.991900
C3571	C357	0.317620	0.743520	0.958750
H1971	H197	0.306770	0.782330	0.950730
H1981	H198	0.383370	0.755630	0.002230
C3581	C358	0.340580	0.735540	0.974160
H1991	H199	0.299270	0.726530	0.946830
C3591	C359	0.336070	0.699130	0.971130
C3601	C360	0.365870	0.695730	0.971270
H2001	H200	0.387870	0.715530	0.971430
In111	In11	0.292900	0.427620	0.625720
O811	O81	0.259490	0.417400	0.580800
O821	O82	0.234970	0.391470	0.624900
O831	O83	0.333620	0.445190	0.664780
O841	O84	0.280400	0.406920	0.675930
O851	O85	0.322760	0.483890	0.609560
O861	O86	0.279440	0.467850	0.642790
O871	O87	0.295370	0.377880	0.614920
O881	O88	0.333700	0.428270	0.593010
C3611	C361	0.231400	0.396760	0.596010
C3621	C362	0.311770	0.426350	0.685040
C3631	C363	0.304200	0.492390	0.626650
C3641	C364	0.197350	0.380000	0.580410
C3651	C365	0.320840	0.425990	0.718220
C3661	C366	0.310270	0.528210	0.626390
C3671	C367	0.167750	0.361380	0.599100
C3681	C368	0.193950	0.381700	0.547890
C3691	C369	0.354510	0.448100	0.728950
C3701	C370	0.295180	0.403990	0.739540
C3711	C371	0.339290	0.554350	0.610580
C3721	C372	0.287020	0.536370	0.641660
H2011	H201	0.170030	0.360270	0.620870
C3731	C373	0.134760	0.344460	0.585260
C3741	C374	0.160960	0.364780	0.534050
H2021	H202	0.213730	0.394170	0.535370
H2031	H203	0.371430	0.463470	0.714870
C3751	C375	0.363560	0.447890	0.760030
C3761	C376	0.304260	0.404070	0.770710
H2041	H204	0.272230	0.389470	0.732870
H2051	H205	0.354630	0.549170	0.600070
C3771	C377	0.344870	0.587440	0.610740
C3781	C378	0.292940	0.569700	0.640480
H2061	H206	0.267730	0.519170	0.652470
H2071	H207	0.114930	0.331970	0.597770
C3791	C379	0.131370	0.346170	0.552730
H2081	H208	0.158730	0.365970	0.512270
H2091	H209	0.386430	0.462470	0.766670
C3801	C380	0.338220	0.425660	0.781350
H2101	H210	0.287230	0.389270	0.784970
H2111	H211	0.364830	0.604870	0.600870
C3811	C381	0.321740	0.596570	0.625180
H2121	H212	0.277130	0.574770	0.650270
C3821	C382	0.095500	0.329000	0.538040
C3831	C383	0.346880	0.424020	0.815870
C3841	C384	0.327190	0.632370	0.623750
C3851	C385	0.090830	0.315870	0.507450
C3861	C386	0.067470	0.327580	0.554350
C3871	C387	0.370940	0.454240	0.831000
C3881	C388	0.330290	0.392530	0.831050
C3891	C389	0.299960	0.638970	0.624230
H2131	H213	0.109530	0.316770	0.496570
C3901	C390	0.058140	0.301360	0.493170
C3911	C391	0.034780	0.313070	0.540060
H2141	H214	0.070630	0.336370	0.574770
H2151	H215	0.381330	0.475570	0.820470
C3921	C392	0.379440	0.452280	0.862590
C3931	C393	0.338150	0.389990	0.862700
H2161	H216	0.313730	0.372770	0.820370
H2171	H217	0.277230	0.620170	0.624870
C3941	C394	0.030110	0.299950	0.509470
C3951	C395	0.053400	0.289240	0.459460
C3961	C396	0.004450	0.310170	0.558140
C3971	C397	0.362850	0.419990	0.877890
C3981	C398	0.404540	0.484160	0.880230
C3991	C399	0.320730	0.355920	0.879710
H2181	H218	0.008230	0.290170	0.499870
C4001	C400	0.022060	0.264040	0.447710
C4011	C401	0.081560	0.304700	0.439130
C4021	C402	0.006140	0.338040	0.574960
C4031	C403	0.973500	0.278150	0.557500
H2191	H219	0.368530	0.418570	0.898770
C4041	C404	0.410060	0.481040	0.912120
C4051	C405	0.424000	0.516150	0.865010
C4061	C406	0.339870	0.348300	0.901340
C4071	C407	0.286760	0.332200	0.874320
H2201	H220	0.002630	0.254170	0.460970
C4081	C408	0.018280	0.252740	0.416950
C4091	C409	0.077830	0.295670	0.408670
H2211	H221	0.103330	0.321570	0.446670
H2221	H222	0.026830	0.359470	0.575370
C4101	C410	0.976880	0.333890	0.591130
C4111	C411	0.944240	0.274010	0.573680
H2231	H223	0.972330	0.259470	0.546270
H2241	H224	0.397030	0.459670	0.922270
C4121	C412	0.435030	0.509870	0.928810
C4131	C413	0.448980	0.545020	0.881700
H2251	H225	0.420330	0.518270	0.843670
H2261	H226	0.363330	0.364270	0.904970
C4141	C414	0.323580	0.316680	0.917390
C4151	C415	0.270270	0.300750	0.890790
H2271	H227	0.274230	0.336970	0.859370
H2281	H228	0.996730	0.235170	0.409570
C4161	C416	0.046930	0.267880	0.397140
H2291	H229	0.096330	0.308170	0.394770
H2301	H230	0.978030	0.352570	0.602370
C4171	C417	0.945930	0.301880	0.590490
H2311	H231	0.923530	0.252570	0.573270
H2321	H232	0.438730	0.507770	0.950170
C4181	C418	0.454500	0.541900	0.913600
H2331	H233	0.462030	0.566470	0.871470
H2341	H234	0.336430	0.311370	0.931470
C4191	C419	0.288380	0.292950	0.912620
H2351	H235	0.246830	0.284970	0.886970
C4201	C420	0.044130	0.257450	0.363270
C4211	C421	0.915990	0.297230	0.608090
C4221	C422	0.484030	0.575070	0.930970
C4231	C423	0.269980	0.259390	0.929810
O891	O89	0.071610	0.268390	0.347180
O901	O90	0.014950	0.236080	0.351300
O911	O91	0.892930	0.266710	0.617540
O921	O92	0.908980	0.320120	0.613110
O931	O93	0.497240	0.602560	0.920870
O941	O94	0.485930	0.567070	0.959570
In121	In12	0.045080	0.238390	0.304490
O951	O95	0.005940	0.182140	0.296080
O961	O96	0.049070	0.194440	0.328000
C4241	C424	0.023450	0.172660	0.312170
C4251	C425	0.016250	0.135740	0.312140
C4261	C426	0.039210	0.127770	0.327560
C4271	C427	0.988780	0.110280	0.294400
H2361	H236	0.057630	0.144870	0.339470
C4281	C428	0.034700	0.094330	0.325240
C4291	C429	0.984280	0.076860	0.292090
H2371	H237	0.973430	0.115670	0.284070
H2381	H238	0.050030	0.088970	0.335570
C4301	C430	0.007240	0.068880	0.307500
H2391	H239	0.965930	0.059870	0.280170
C4311	C431	0.002730	0.032470	0.304470
C4321	C432	0.032530	0.029070	0.304610
H2401	H240	0.054530	0.048870	0.304770
In131	In13	0.239050	0.198620	0.959050
O971	O97	0.249270	0.175430	0.914130
O981	O98	0.275200	0.176840	0.958230
O991	O99	0.221480	0.221770	0.998110
O1001	O100	0.259750	0.206820	0.009260
O1011	O101	0.182780	0.172210	0.942890
O1021	O102	0.198820	0.144930	0.976120
O1031	O103	0.288790	0.250830	0.948250
O1041	O104	0.238400	0.238770	0.926340
C4331	C433	0.269910	0.167980	0.929340
C4341	C434	0.240320	0.218760	0.018370
C4351	C435	0.174280	0.145150	0.959980
C4361	C436	0.286670	0.150690	0.913740
C4371	C437	0.240680	0.228190	0.051550
C4381	C438	0.138460	0.115400	0.959720
C4391	C439	0.305290	0.139710	0.932430
C4401	C440	0.284970	0.145590	0.881220
C4411	C441	0.218570	0.239750	0.062280
C4421	C442	0.262680	0.224530	0.072870
C4431	C443	0.112320	0.118280	0.943910
C4441	C444	0.130300	0.083990	0.974990
H2411	H241	0.306400	0.143100	0.954200
C4451	C445	0.322210	0.123640	0.918590
C4461	C446	0.301890	0.129520	0.867380
H2421	H242	0.272500	0.152900	0.868700
H2431	H243	0.203200	0.241300	0.048200
C4471	C447	0.218780	0.249010	0.093360
C4481	C448	0.262600	0.233530	0.104040
H2441	H244	0.277200	0.216100	0.066200
H2451	H245	0.117500	0.138800	0.933400
C4491	C449	0.079230	0.090770	0.944070
C4501	C450	0.096970	0.056580	0.973810
H2461	H246	0.147500	0.081900	0.985800
H2471	H247	0.334700	0.116300	0.931100
C4511	C451	0.320500	0.118540	0.886060
H2481	H248	0.300700	0.126100	0.845600
H2491	H249	0.204200	0.257300	0.100000
C4521	C452	0.241010	0.245900	0.114680
H2501	H250	0.277400	0.231300	0.118300
H2511	H251	0.061800	0.093300	0.934200
C4531	C453	0.070100	0.058510	0.958510
H2521	H252	0.091900	0.035700	0.983600
C4541	C454	0.337670	0.099840	0.871370
C4551	C455	0.242650	0.256200	0.149200
C4561	C456	0.034300	0.028160	0.957080
C4571	C457	0.350800	0.108300	0.840780
C4581	C458	0.339090	0.073230	0.887680
C4591	C459	0.212430	0.250040	0.164330
C4601	C460	0.274140	0.271100	0.164380
C4611	C461	0.027700	0.994330	0.957560
H2531	H253	0.349900	0.126100	0.829900
C4621	C462	0.365310	0.090120	0.826500
C4631	C463	0.353600	0.055050	0.873390
H2541	H254	0.330300	0.067600	0.908100
H2551	H255	0.191100	0.239100	0.153800
C4641	C464	0.214390	0.260500	0.195920
C4651	C465	0.276680	0.281500	0.196030
H2561	H256	0.293900	0.274300	0.153700
H2571	H257	0.046500	0.990400	0.958200
C4661	C466	0.366720	0.063500	0.842800
C4671	C467	0.377430	0.097500	0.792790
C4681	C468	0.356500	0.027620	0.891470
C4691	C469	0.246680	0.276200	0.211220
C4701	C470	0.182510	0.253720	0.213560
C4711	C471	0.310750	0.298150	0.213040
H2581	H258	0.376500	0.051400	0.833200
C4721	C472	0.402630	0.091360	0.781040
C4731	C473	0.361970	0.110200	0.772460
C4741	C474	0.328630	0.001440	0.908290
C4751	C475	0.388520	0.028690	0.890830
H2591	H259	0.248100	0.283300	0.232100
C4761	C476	0.185630	0.262360	0.245450
C4771	C477	0.150520	0.241190	0.198340
C4781	C478	0.318370	0.324910	0.234670
C4791	C479	0.334470	0.287900	0.207650
H2601	H260	0.412500	0.081800	0.794300
C4801	C480	0.413930	0.098880	0.750280
C4811	C481	0.371000	0.115500	0.742000
H2611	H261	0.345100	0.115100	0.780000
H2621	H262	0.307200	0.000700	0.908700
C4821	C482	0.332780	0.976330	0.924460
C4831	C483	0.392660	0.003570	0.907010
H2631	H263	0.407200	0.046200	0.879600
H2641	H264	0.207000	0.270700	0.255600
C4841	C484	0.156800	0.258500	0.262140
C4851	C485	0.121650	0.237300	0.215030
H2651	H265	0.148400	0.235400	0.177000
H2661	H266	0.302400	0.332400	0.238300
C4861	C486	0.349990	0.340240	0.250720
C4871	C487	0.365920	0.302860	0.224120
H2671	H267	0.329700	0.270600	0.192700
H2681	H268	0.431500	0.094900	0.742900
C4881	C488	0.398790	0.112390	0.730470
H2691	H269	0.358500	0.121500	0.728100
H2701	H270	0.314100	0.958800	0.935700
C4891	C489	0.364790	0.977390	0.923820
H2711	H271	0.414100	0.004300	0.906600
H2721	H272	0.158900	0.264300	0.283500
C4901	C490	0.124770	0.245940	0.246930
H2731	H273	0.100200	0.228900	0.204800
H2741	H274	0.355300	0.358400	0.264800
C4911	C491	0.373720	0.328770	0.245950
H2751	H275	0.381700	0.295200	0.220300
C4921	C492	0.409220	0.120020	0.696600
C4931	C493	0.369440	0.952100	0.941420
C4941	C494	0.091600	0.242300	0.264300
C4951	C495	0.407280	0.343930	0.263140
O1051	O105	0.398280	0.136560	0.680510
O1061	O106	0.430590	0.112210	0.684630
O1071	O107	0.399960	0.959560	0.950870
O1081	O108	0.346550	0.922200	0.946440
O1091	O109	0.064110	0.228020	0.254200
O1101	O110	0.099600	0.252200	0.292900
In141	In14	0.428280	0.140020	0.637820
O1111	O111	0.484530	0.157140	0.629410
O1121	O112	0.472230	0.187970	0.661330
C4961	C496	0.494010	0.184130	0.645500
C4971	C497	0.530930	0.213850	0.645470
C4981	C498	0.538900	0.244780	0.660890
C4991	C499	0.556390	0.211840	0.627730
H2761	H276	0.521800	0.246100	0.672800
C5001	C500	0.572340	0.273710	0.658570
C5011	C501	0.589810	0.240760	0.625420
H2771	H277	0.551000	0.191100	0.617400
H2781	H278	0.577700	0.294400	0.668900
C5021	C502	0.597790	0.271700	0.640830
H2791	H279	0.606800	0.239400	0.613500
C5031	C503	0.634200	0.303600	0.637800
C5041	C504	0.637600	0.336800	0.637940
H2801	H280	0.617800	0.339000	0.638100
In151	In15	0.905720	0.531950	0.292390
O1131	O113	0.915940	0.508760	0.247460
O1141	O114	0.941870	0.510170	0.291560
O1151	O115	0.888150	0.555100	0.331440
O1161	O116	0.926420	0.540150	0.342590
O1171	O117	0.849450	0.505540	0.276220
O1181	O118	0.865490	0.478260	0.309450
O1191	O119	0.955460	0.584160	0.281580
O1201	O120	0.905070	0.572100	0.259670
C5051	C505	0.936580	0.501310	0.262670
C5061	C506	0.906990	0.552090	0.351700
C5071	C507	0.840950	0.478480	0.293310
C5081	C508	0.953340	0.484020	0.247070
C5091	C509	0.907350	0.561520	0.384880
C5101	C510	0.805130	0.448730	0.293050
C5111	C511	0.971960	0.473040	0.265760
C5121	C512	0.951640	0.478920	0.214550
C5131	C513	0.885240	0.573080	0.395610
C5141	C514	0.929350	0.557860	0.406200
C5151	C515	0.778990	0.451610	0.277240
C5161	C516	0.796970	0.417320	0.308320
H2811	H281	0.973070	0.476430	0.287530
C5171	C517	0.988880	0.456970	0.251920
C5181	C518	0.968560	0.462850	0.200710
H2821	H282	0.939170	0.486230	0.202030
H2831	H283	0.869870	0.574630	0.381530
C5191	C519	0.885450	0.582340	0.426690
C5201	C520	0.929270	0.566860	0.437370
H2841	H284	0.943870	0.549430	0.399530
H2851	H285	0.784170	0.472130	0.266730
C5211	C521	0.745900	0.424100	0.277400
C5221	C522	0.763640	0.389910	0.307140
H2861	H286	0.814170	0.415230	0.319130
H2871	H287	0.001370	0.449630	0.264430
C5231	C523	0.987170	0.451870	0.219390
H2881	H288	0.967370	0.459430	0.178930
H2891	H289	0.870870	0.590630	0.433330
C5241	C524	0.907680	0.579230	0.448010
H2901	H290	0.944070	0.564630	0.451630
H2911	H291	0.728470	0.426630	0.267530
C5251	C525	0.736770	0.391840	0.291840
H2921	H292	0.758570	0.369030	0.316930
C5261	C526	0.004340	0.433170	0.204700
C5271	C527	0.909320	0.589530	0.482530
C5281	C528	0.700970	0.361490	0.290410
C5291	C529	0.017470	0.441630	0.174110
C5301	C530	0.005760	0.406560	0.221010
C5311	C531	0.879100	0.583370	0.497660
C5321	C532	0.940810	0.604430	0.497710
C5331	C533	0.694370	0.327660	0.290890
H2931	H293	0.016570	0.459430	0.163230
C5341	C534	0.031980	0.423450	0.159830
C5351	C535	0.020270	0.388380	0.206720
H2941	H294	0.996970	0.400930	0.241430
H2951	H295	0.857770	0.572430	0.487130
C5361	C536	0.881060	0.593830	0.529250
C5371	C537	0.943350	0.614830	0.529360
H2961	H296	0.960570	0.607630	0.487030
H2971	H297	0.713170	0.323730	0.291530
C5381	C538	0.033390	0.396830	0.176130
C5391	C539	0.044100	0.430830	0.126120
C5401	C540	0.023170	0.360950	0.224800
C5411	C541	0.913350	0.609530	0.544550
C5421	C542	0.849180	0.587050	0.546890
C5431	C543	0.977420	0.631480	0.546370
H2981	H298	0.043170	0.384730	0.166530
C5441	C544	0.069300	0.424690	0.114370
C5451	C545	0.028640	0.443530	0.105790
C5461	C546	0.995300	0.334770	0.241620
C5471	C547	0.055190	0.362020	0.224160
H2991	H299	0.914770	0.616630	0.565430
C5481	C548	0.852300	0.595690	0.578780
C5491	C549	0.817190	0.574520	0.531670
C5501	C550	0.985040	0.658240	0.568000
C5511	C551	0.001140	0.621230	0.540980
H3001	H300	0.079170	0.415130	0.127630
C5521	C552	0.080600	0.432210	0.083610
C5531	C553	0.037670	0.448830	0.075330
H3011	H301	0.011770	0.448430	0.113330
H3021	H302	0.973870	0.334030	0.242030
C5541	C554	0.999450	0.309660	0.257790
C5551	C555	0.059330	0.336900	0.240340
H3031	H303	0.073870	0.379530	0.212930
H3041	H304	0.873670	0.604030	0.588930
C5561	C556	0.823470	0.591830	0.595470
C5571	C557	0.788320	0.570630	0.548360
H3051	H305	0.815070	0.568730	0.510330
H3061	H306	0.969070	0.665730	0.571630
C5581	C558	0.016660	0.673570	0.584050
C5591	C559	0.032590	0.636190	0.557450
H3071	H307	0.996370	0.603930	0.526030
H3081	H308	0.098170	0.428230	0.076230
C5601	C560	0.065460	0.445720	0.063800
H3091	H309	0.025170	0.454830	0.061430
H3101	H310	0.980770	0.292130	0.269030
C5611	C561	0.031460	0.310720	0.257150
H3111	H311	0.080770	0.337630	0.239930
H3121	H312	0.825570	0.597630	0.616830
C5621	C562	0.791440	0.579270	0.580260
H3131	H313	0.766870	0.562230	0.538130
H3141	H314	0.021970	0.691730	0.598130
C5631	C563	0.040390	0.662100	0.579280
H3151	H315	0.048370	0.628530	0.553630
C5641	C564	0.075890	0.453350	0.029930
C5651	C565	0.036110	0.285430	0.274750
C5661	C566	0.758270	0.575630	0.597630
C5671	C567	0.073950	0.677260	0.596470
O1211	O121	0.064950	0.469890	0.013840
O1221	O122	0.097260	0.445540	0.017960
O1231	O123	0.066630	0.292890	0.284200
O1241	O124	0.013220	0.255530	0.279770
O1251	O125	0.730780	0.561350	0.587530
O1261	O126	0.766270	0.585530	0.626230
In161	In16	0.094950	0.473360	0.971160
O1271	O127	0.151200	0.490470	0.962740
O1281	O128	0.138900	0.521300	0.994660
C5681	C568	0.160680	0.517460	0.978830
C5691	C569	0.197600	0.547180	0.978800
C5701	C570	0.205570	0.578110	0.994220
C5711	C571	0.223060	0.545170	0.961060
H3161	H316	0.188470	0.579430	0.006130
C5721	C572	0.239010	0.607040	0.991900
C5731	C573	0.256480	0.574090	0.958750
H3171	H317	0.217670	0.524430	0.950730
H3181	H318	0.244370	0.627730	0.002230
C5741	C574	0.264460	0.605030	0.974160
H3191	H319	0.273470	0.572730	0.946830
C5751	C575	0.300870	0.636930	0.971130
C5761	C576	0.304270	0.670130	0.971270
H3201	H320	0.284470	0.672330	0.971430
In171	In17	0.572380	0.865290	0.625720
O1291	O129	0.582600	0.842100	0.580800
O1301	O130	0.608530	0.843510	0.624900
O1311	O131	0.554810	0.888440	0.664780
O1321	O132	0.593080	0.873490	0.675930
O1331	O133	0.516110	0.838880	0.609560
O1341	O134	0.532150	0.811600	0.642790
O1351	O135	0.622120	0.917500	0.614920
O1361	O136	0.571730	0.905440	0.593010
C5771	C577	0.603240	0.834650	0.596010
C5781	C578	0.573650	0.885430	0.685040
C5791	C579	0.507610	0.811820	0.626650
C5801	C580	0.620000	0.817360	0.580410
C5811	C581	0.574010	0.894860	0.718220
C5821	C582	0.471790	0.782070	0.626390
C5831	C583	0.638620	0.806380	0.599100
C5841	C584	0.618300	0.812260	0.547890
C5851	C585	0.551900	0.906420	0.728950
C5861	C586	0.596010	0.891200	0.739540
C5871	C587	0.445650	0.784950	0.610580
C5881	C588	0.463630	0.750660	0.641660
H3211	H321	0.639730	0.809770	0.620870
C5891	C589	0.655540	0.790310	0.585260
C5901	C590	0.635220	0.796190	0.534050
H3221	H322	0.605830	0.819570	0.535370
H3231	H323	0.536530	0.907970	0.714870
C5911	C591	0.552110	0.915680	0.760030
C5921	C592	0.595930	0.900200	0.770710
H3241	H324	0.610530	0.882770	0.732870
H3251	H325	0.450830	0.805470	0.600070
C5931	C593	0.412560	0.757440	0.610740
C5941	C594	0.430300	0.723250	0.640480
H3261	H326	0.480830	0.748570	0.652470
H3271	H327	0.668030	0.782970	0.597770
C5951	C595	0.653830	0.785210	0.552730
H3281	H328	0.634030	0.792770	0.512270
H3291	H329	0.537530	0.923970	0.766670
C5961	C596	0.574340	0.912570	0.781350
H3301	H330	0.610730	0.897970	0.784970
H3311	H331	0.395130	0.759970	0.600870
C5971	C597	0.403430	0.725180	0.625180
H3321	H332	0.425230	0.702370	0.650270
C5981	C598	0.671000	0.766510	0.538040
C5991	C599	0.575980	0.922870	0.815870
C6001	C600	0.367630	0.694830	0.623750
C6011	C601	0.684130	0.774970	0.507450
C6021	C602	0.672420	0.739900	0.554350
C6031	C603	0.545760	0.916710	0.831000
C6041	C604	0.607470	0.937770	0.831050
C6051	C605	0.361030	0.661000	0.624230
H3331	H333	0.683230	0.792770	0.496570
C6061	C606	0.698640	0.756790	0.493170
C6071	C607	0.686930	0.721720	0.540060
H3341	H334	0.663630	0.734270	0.574770
H3351	H335	0.524430	0.905770	0.820470
C6081	C608	0.547720	0.927170	0.862590
C6091	C609	0.610010	0.948170	0.862700
H3361	H336	0.627230	0.940970	0.820370
H3371	H337	0.379830	0.657070	0.624870
C6101	C610	0.700050	0.730170	0.509470
C6111	C611	0.710760	0.764170	0.459460
C6121	C612	0.689830	0.694290	0.558140
C6131	C613	0.580010	0.942870	0.877890
C6141	C614	0.515840	0.920390	0.880230
C6151	C615	0.644080	0.964820	0.879710
H3381	H338	0.709830	0.718070	0.499870
C6161	C616	0.735960	0.758030	0.447710
C6171	C617	0.695300	0.776870	0.439130
C6181	C618	0.661960	0.668110	0.574960
C6191	C619	0.721850	0.695360	0.557500
H3391	H339	0.581430	0.949970	0.898770
C6201	C620	0.518960	0.929030	0.912120
C6211	C621	0.483850	0.907860	0.865010
C6221	C622	0.651700	0.991580	0.901340
C6231	C623	0.667800	0.954570	0.874320
H3401	H340	0.745830	0.748470	0.460970
C6241	C624	0.747260	0.765550	0.416950
C6251	C625	0.704330	0.782170	0.408670
H3411	H341	0.678430	0.781770	0.446670
H3421	H342	0.640530	0.667370	0.575370
C6261	C626	0.666110	0.643000	0.591130
C6271	C627	0.725990	0.670240	0.573680
H3431	H343	0.740530	0.712870	0.546270
H3441	H344	0.540330	0.937370	0.922270
C6281	C628	0.490130	0.925170	0.928810
C6291	C629	0.454980	0.903970	0.881700
H3451	H345	0.481730	0.902070	0.843670
H3461	H346	0.635730	0.999070	0.904970
C6301	C630	0.683320	0.006910	0.917390
C6311	C631	0.699250	0.969530	0.890790
H3471	H347	0.663030	0.937270	0.859370
H3481	H348	0.764830	0.761570	0.409570
C6321	C632	0.732120	0.779060	0.397140
H3491	H349	0.691830	0.788170	0.394770
H3501	H350	0.647430	0.625470	0.602370
C6331	C633	0.698120	0.644060	0.590490
H3511	H351	0.747430	0.670970	0.573270
H3521	H352	0.492230	0.930970	0.950170
C6341	C634	0.458100	0.912610	0.913600
H3531	H353	0.433530	0.895570	0.871470
H3541	H354	0.688630	0.025070	0.931470
C6351	C635	0.707050	0.995440	0.912620
H3551	H355	0.715030	0.961870	0.886970
C6361	C636	0.742550	0.786690	0.363270
C6371	C637	0.702770	0.618770	0.608090
C6381	C638	0.424930	0.908970	0.930970
C6391	C639	0.740610	0.010600	0.929810
O1371	O137	0.731610	0.803230	0.347180
O1381	O138	0.763920	0.778880	0.351300
O1391	O139	0.733290	0.626230	0.617540
O1401	O140	0.679880	0.588870	0.613110
O1411	O141	0.397440	0.894690	0.920870
O1421	O142	0.432930	0.918870	0.959570
In181	In18	0.761610	0.806690	0.304490
O1431	O143	0.817860	0.823810	0.296080
O1441	O144	0.805560	0.854640	0.328000
C6401	C640	0.827340	0.850800	0.312170
C6411	C641	0.864260	0.880520	0.312140
C6421	C642	0.872230	0.911450	0.327560
C6431	C643	0.889720	0.878510	0.294400
H3561	H356	0.855130	0.912770	0.339470
C6441	C644	0.905670	0.940380	0.325240
C6451	C645	0.923140	0.907430	0.292090
H3571	H357	0.884330	0.857770	0.284070
H3581	H358	0.911030	0.961070	0.335570
C6461	C646	0.931120	0.938370	0.307500
H3591	H359	0.940130	0.906070	0.280170
C6471	C647	0.967530	0.970270	0.304470
C6481	C648	0.970930	0.003470	0.304610
H3601	H360	0.951130	0.005670	0.304770
In191	In19	0.198620	0.959570	0.040950
O1451	O145	0.175430	0.926160	0.085870
O1461	O146	0.176840	0.901640	0.041770
O1471	O147	0.221770	0.000290	0.001890
O1481	O148	0.206820	0.947070	0.990740
O1491	O149	0.172210	0.989430	0.057110
O1501	O150	0.144930	0.946110	0.023880
O1511	O151	0.250830	0.962040	0.051750
O1521	O152	0.238770	0.000370	0.073660
C6491	C649	0.167980	0.898070	0.070660
C6501	C650	0.218760	0.978440	0.981630
C6511	C651	0.145150	0.970870	0.040020
C6521	C652	0.150690	0.864020	0.086260
C6531	C653	0.228190	0.987510	0.948450
C6541	C654	0.115400	0.976940	0.040280
C6551	C655	0.139710	0.834420	0.067570
C6561	C656	0.145590	0.860620	0.118780
C6571	C657	0.239750	0.021180	0.937720
C6581	C658	0.224530	0.961850	0.927130
C6591	C659	0.118280	0.005960	0.056090
C6601	C660	0.083990	0.953690	0.025010
H3611	H361	0.143100	0.836700	0.045800
C6611	C661	0.123640	0.801430	0.081410
C6621	C662	0.129520	0.827630	0.132620
H3621	H362	0.152900	0.880400	0.131300
H3631	H363	0.241300	0.038100	0.951800
C6631	C663	0.249010	0.030230	0.906640
C6641	C664	0.233530	0.970930	0.895960
H3641	H364	0.216100	0.938900	0.933800
H3651	H365	0.138800	0.021300	0.066600
C6651	C665	0.090770	0.011540	0.055930
C6661	C666	0.056580	0.959610	0.026190
H3661	H366	0.081900	0.934400	0.014200
H3671	H367	0.116300	0.781600	0.068900
C6671	C667	0.118540	0.798040	0.113940
H3681	H368	0.126100	0.825400	0.154400
H3691	H369	0.257300	0.053100	0.900000
C6681	C668	0.245900	0.004890	0.885320
H3701	H370	0.231300	0.953900	0.881700
H3711	H371	0.093300	0.031500	0.065800
C6691	C669	0.058510	0.988410	0.041490
H3721	H372	0.035700	0.943800	0.016400
C6701	C670	0.099840	0.762170	0.128630
C6711	C671	0.256200	0.013550	0.850800
C6721	C672	0.028160	0.993860	0.042920
C6731	C673	0.108300	0.757500	0.159220
C6741	C674	0.073230	0.734140	0.112320
C6751	C675	0.250040	0.037610	0.835670
C6761	C676	0.271100	0.996960	0.835620
C6771	C677	0.994330	0.966630	0.042440
H3731	H373	0.126100	0.776200	0.170100
C6781	C678	0.090120	0.724810	0.173500
C6791	C679	0.055050	0.701450	0.126610
H3741	H374	0.067600	0.737300	0.091900
H3751	H375	0.239100	0.048000	0.846200
C6801	C680	0.260500	0.046110	0.804080
C6811	C681	0.281500	0.004820	0.803970
H3761	H376	0.274300	0.980400	0.846300
H3771	H377	0.990400	0.943900	0.041800
C6821	C682	0.063500	0.696780	0.157200
C6831	C683	0.097500	0.720070	0.207210
C6841	C684	0.027620	0.671120	0.108530
C6851	C685	0.276200	0.029520	0.788780
C6861	C686	0.253720	0.071210	0.786440
C6871	C687	0.298150	0.987400	0.786960
H3781	H378	0.051400	0.674900	0.166800
C6881	C688	0.091360	0.688730	0.218960
C6891	C689	0.110200	0.748230	0.227540
C6901	C690	0.001440	0.672810	0.091710
C6911	C691	0.028690	0.640170	0.109170
H3791	H379	0.283300	0.035200	0.767900
C6921	C692	0.262360	0.076730	0.754550
C6931	C693	0.241190	0.090670	0.801660
C6941	C694	0.324910	0.006540	0.765330
C6951	C695	0.287900	0.953430	0.792350
H3801	H380	0.081800	0.669300	0.205700
C6961	C696	0.098880	0.684950	0.249720
C6971	C697	0.115500	0.744500	0.258000
H3811	H381	0.115100	0.770000	0.220000
H3821	H382	0.000700	0.693500	0.091300
C6981	C698	0.976330	0.643550	0.075540
C6991	C699	0.003570	0.610910	0.092990
H3831	H383	0.046200	0.639000	0.120400
H3841	H384	0.270700	0.063700	0.744400
C7001	C700	0.258500	0.101700	0.737860
C7011	C701	0.237300	0.115650	0.784970
H3851	H385	0.235400	0.087000	0.823000
H3861	H386	0.332400	0.030000	0.761700
C7021	C702	0.340240	0.990250	0.749280
C7031	C703	0.302860	0.936940	0.775880
H3871	H387	0.270600	0.940900	0.807300
H3881	H388	0.094900	0.663400	0.257100
C7041	C704	0.112390	0.713600	0.269530
H3891	H389	0.121500	0.763000	0.271900
H3901	H390	0.958800	0.644700	0.064300
C7051	C705	0.977390	0.612600	0.076180
H3911	H391	0.004300	0.590200	0.093400
H3921	H392	0.264300	0.105400	0.716500
C7061	C706	0.245940	0.121170	0.753070
H3931	H393	0.228900	0.128700	0.795200
H3941	H394	0.358400	0.003100	0.735200
C7071	C707	0.328770	0.955050	0.754050
H3951	H395	0.295200	0.913500	0.779700
C7081	C708	0.120020	0.710800	0.303400
C7091	C709	0.952100	0.582660	0.058580
C7101	C710	0.242300	0.150700	0.735700
C7111	C711	0.343930	0.936650	0.736860
O1531	O153	0.136560	0.738280	0.319490
O1541	O154	0.112210	0.681620	0.315370
O1551	O155	0.959560	0.559600	0.049130
O1561	O156	0.922200	0.575650	0.053560
O1571	O157	0.228020	0.163910	0.745800
O1581	O158	0.252200	0.152600	0.707100
In201	In20	0.140020	0.711740	0.362180
O1591	O159	0.157140	0.672610	0.370590
O1601	O160	0.187970	0.715740	0.338670
C7121	C712	0.184130	0.690120	0.354500
C7131	C713	0.213850	0.682920	0.354530
C7141	C714	0.244780	0.705880	0.339110
C7151	C715	0.211840	0.655450	0.372270
H3961	H396	0.246100	0.724300	0.327200
C7161	C716	0.273710	0.701370	0.341430
C7171	C717	0.240760	0.650950	0.374580
H3971	H397	0.191100	0.640100	0.382600
H3981	H398	0.294400	0.716700	0.331100
C7181	C718	0.271700	0.673910	0.359170
H3991	H399	0.239400	0.632600	0.386500
C7191	C719	0.303600	0.669400	0.362200
C7201	C720	0.336800	0.699200	0.362060
H4001	H400	0.339000	0.721200	0.361900
In211	In21	0.865290	0.292900	0.374280
O1611	O161	0.842100	0.259490	0.419200
O1621	O162	0.843510	0.234970	0.375100
O1631	O163	0.888440	0.333620	0.335220
O1641	O164	0.873490	0.280400	0.324070
O1651	O165	0.838880	0.322760	0.390440
O1661	O166	0.811600	0.279440	0.357210
O1671	O167	0.917500	0.295370	0.385080
O1681	O168	0.905440	0.333700	0.406990
C7211	C721	0.834650	0.231400	0.403990
C7221	C722	0.885430	0.311770	0.314960
C7231	C723	0.811820	0.304200	0.373350
C7241	C724	0.817360	0.197350	0.419590
C7251	C725	0.894860	0.320840	0.281780
C7261	C726	0.782070	0.310270	0.373610
C7271	C727	0.806380	0.167750	0.400900
C7281	C728	0.812260	0.193950	0.452110
C7291	C729	0.906420	0.354510	0.271050
C7301	C730	0.891200	0.295180	0.260460
C7311	C731	0.784950	0.339290	0.389420
C7321	C732	0.750660	0.287020	0.358340
H4011	H401	0.809770	0.170030	0.379130
C7331	C733	0.790310	0.134760	0.414740
C7341	C734	0.796190	0.160960	0.465950
H4021	H402	0.819570	0.213730	0.464630
H4031	H403	0.907970	0.371430	0.285130
C7351	C735	0.915680	0.363560	0.239970
C7361	C736	0.900200	0.304260	0.229290
H4041	H404	0.882770	0.272230	0.267130
H4051	H405	0.805470	0.354630	0.399930
C7371	C737	0.757440	0.344870	0.389260
C7381	C738	0.723250	0.292940	0.359520
H4061	H406	0.748570	0.267730	0.347530
H4071	H407	0.782970	0.114930	0.402230
C7391	C739	0.785210	0.131370	0.447270
H4081	H408	0.792770	0.158730	0.487730
H4091	H409	0.923970	0.386430	0.233330
C7401	C740	0.912570	0.338220	0.218650
H4101	H410	0.897970	0.287230	0.215030
H4111	H411	0.759970	0.364830	0.399130
C7411	C741	0.725180	0.321740	0.374820
H4121	H412	0.702370	0.277130	0.349730
C7421	C742	0.766510	0.095500	0.461960
C7431	C743	0.922870	0.346880	0.184130
C7441	C744	0.694830	0.327190	0.376250
C7451	C745	0.774970	0.090830	0.492550
C7461	C746	0.739900	0.067470	0.445650
C7471	C747	0.916710	0.370940	0.169000
C7481	C748	0.937770	0.330290	0.168950
C7491	C749	0.661000	0.299960	0.375770
H4131	H413	0.792770	0.109530	0.503430
C7501	C750	0.756790	0.058140	0.506830
C7511	C751	0.721720	0.034780	0.459940
H4141	H414	0.734270	0.070630	0.425230
H4151	H415	0.905770	0.381330	0.179530
C7521	C752	0.927170	0.379440	0.137410
C7531	C753	0.948170	0.338150	0.137300
H4161	H416	0.940970	0.313730	0.179630
H4171	H417	0.657070	0.277230	0.375130
C7541	C754	0.730170	0.030110	0.490530
C7551	C755	0.764170	0.053400	0.540540
C7561	C756	0.694290	0.004450	0.441860
C7571	C757	0.942870	0.362850	0.122110
C7581	C758	0.920390	0.404540	0.119770
C7591	C759	0.964820	0.320730	0.120290
H4181	H418	0.718070	0.008230	0.500130
C7601	C760	0.758030	0.022060	0.552290
C7611	C761	0.776870	0.081560	0.560870
C7621	C762	0.668110	0.006140	0.425040
C7631	C763	0.695360	0.973500	0.442500
H4191	H419	0.949970	0.368530	0.101230
C7641	C764	0.929030	0.410060	0.087880
C7651	C765	0.907860	0.424000	0.134990
C7661	C766	0.991580	0.339870	0.098660
C7671	C767	0.954570	0.286760	0.125680
H4201	H420	0.748470	0.002630	0.539030
C7681	C768	0.765550	0.018280	0.583050
C7691	C769	0.782170	0.077830	0.591330
H4211	H421	0.781770	0.103330	0.553330
H4221	H422	0.667370	0.026830	0.424630
C7701	C770	0.643000	0.976880	0.408870
C7711	C771	0.670240	0.944240	0.426320
H4231	H423	0.712870	0.972330	0.453730
H4241	H424	0.937370	0.397030	0.077730
C7721	C772	0.925170	0.435030	0.071190
C7731	C773	0.903970	0.448980	0.118300
H4251	H425	0.902070	0.420330	0.156330
H4261	H426	0.999070	0.363330	0.095030
C7741	C774	0.006910	0.323580	0.082610
C7751	C775	0.969530	0.270270	0.109210
H4271	H427	0.937270	0.274230	0.140630
H4281	H428	0.761570	0.996730	0.590430
C7761	C776	0.779060	0.046930	0.602860
H4291	H429	0.788170	0.096330	0.605230
H4301	H430	0.625470	0.978030	0.397630
C7771	C777	0.644060	0.945930	0.409510
H4311	H431	0.670970	0.923530	0.426730
H4321	H432	0.930970	0.438730	0.049830
C7781	C778	0.912610	0.454500	0.086400
H4331	H433	0.895570	0.462030	0.128530
H4341	H434	0.025070	0.336430	0.068530
C7791	C779	0.995440	0.288380	0.087380
H4351	H435	0.961870	0.246830	0.113030
C7801	C780	0.786690	0.044130	0.636730
C7811	C781	0.618770	0.915990	0.391910
C7821	C782	0.908970	0.484030	0.069030
C7831	C783	0.010600	0.269980	0.070190
O1691	O169	0.803230	0.071610	0.652820
O1701	O170	0.778880	0.014950	0.648700
O1711	O171	0.626230	0.892930	0.382460
O1721	O172	0.588870	0.908980	0.386890
O1731	O173	0.894690	0.497240	0.079130
O1741	O174	0.918870	0.485930	0.040430
In221	In22	0.806690	0.045080	0.695510
O1751	O175	0.823810	0.005940	0.703920
O1761	O176	0.854640	0.049070	0.672000
C7841	C784	0.850800	0.023450	0.687830
C7851	C785	0.880520	0.016250	0.687860
C7861	C786	0.911450	0.039210	0.672440
C7871	C787	0.878510	0.988780	0.705600
H4361	H436	0.912770	0.057630	0.660530
C7881	C788	0.940380	0.034700	0.674760
C7891	C789	0.907430	0.984280	0.707910
H4371	H437	0.857770	0.973430	0.715930
H4381	H438	0.961070	0.050030	0.664430
C7901	C790	0.938370	0.007240	0.692500
H4391	H439	0.906070	0.965930	0.719830
C7911	C791	0.970270	0.002730	0.695530
C7921	C792	0.003470	0.032530	0.695390
H4401	H440	0.005670	0.054530	0.695230
In231	In23	0.531950	0.626240	0.707610
O1771	O177	0.508760	0.592830	0.752540
O1781	O178	0.510170	0.568310	0.708440
O1791	O179	0.555100	0.666960	0.668560
O1801	O180	0.540150	0.613740	0.657410
O1811	O181	0.505540	0.656100	0.723780
O1821	O182	0.478260	0.612780	0.690550
O1831	O183	0.584160	0.628710	0.718420
O1841	O184	0.572100	0.667040	0.740330
C7931	C793	0.501310	0.564740	0.737330
C7941	C794	0.552090	0.645110	0.648300
C7951	C795	0.478480	0.637540	0.706690
C7961	C796	0.484020	0.530690	0.752930
C7971	C797	0.561520	0.654180	0.615120
C7981	C798	0.448730	0.643610	0.706950
C7991	C799	0.473040	0.501090	0.734240
C8001	C800	0.478920	0.527290	0.785450
C8011	C801	0.573080	0.687850	0.604390
C8021	C802	0.557860	0.628520	0.593800
C8031	C803	0.451610	0.672630	0.722760
C8041	C804	0.417320	0.620360	0.691680
H4411	H441	0.476430	0.503370	0.712470
C8051	C805	0.456970	0.468100	0.748080
C8061	C806	0.462850	0.494300	0.799290
H4421	H442	0.486230	0.547070	0.797970
H4431	H443	0.574630	0.704770	0.618470
C8071	C807	0.582340	0.696900	0.573310
C8081	C808	0.566860	0.637600	0.562630
H4441	H444	0.549430	0.605570	0.600470
H4451	H445	0.472130	0.687970	0.733270
C8091	C809	0.424100	0.678210	0.722600
C8101	C810	0.389910	0.626280	0.692860
H4461	H446	0.415230	0.601070	0.680870
H4471	H447	0.449630	0.448270	0.735570
C8111	C811	0.451870	0.464710	0.780610
H4481	H448	0.459430	0.492070	0.821070
H4491	H449	0.590630	0.719770	0.566670
C8121	C812	0.579230	0.671560	0.551990
H4501	H450	0.564630	0.620570	0.548370
H4511	H451	0.426630	0.698170	0.732470
C8131	C813	0.391840	0.655080	0.708160
H4521	H452	0.369030	0.610470	0.683070
C8141	C814	0.433170	0.428840	0.795300
C8151	C815	0.589530	0.680220	0.517470
C8161	C816	0.361490	0.660530	0.709590
C8171	C817	0.441630	0.424170	0.825890
C8181	C818	0.406560	0.400810	0.778990
C8191	C819	0.583370	0.704280	0.502340
C8201	C820	0.604430	0.663630	0.502290
C8211	C821	0.327660	0.633300	0.709110
H4531	H453	0.459430	0.442870	0.836770
C8221	C822	0.423450	0.391480	0.840170
C8231	C823	0.388380	0.368120	0.793280
H4541	H454	0.400930	0.403970	0.758570
H4551	H455	0.572430	0.714670	0.512870
C8241	C824	0.593830	0.712780	0.470750
C8251	C825	0.614830	0.671490	0.470640
H4561	H456	0.607630	0.647070	0.512970
H4571	H457	0.323730	0.610570	0.708470
C8261	C826	0.396830	0.363450	0.823870
C8271	C827	0.430830	0.386740	0.873880
C8281	C828	0.360950	0.337790	0.775200
C8291	C829	0.609530	0.696190	0.455450
C8301	C830	0.587050	0.737880	0.453110
C8311	C831	0.631480	0.654070	0.453630
H4581	H458	0.384730	0.341570	0.833470
C8321	C832	0.424690	0.355400	0.885630
C8331	C833	0.443530	0.414900	0.894210
C8341	C834	0.334770	0.339480	0.758380
C8351	C835	0.362020	0.306840	0.775840
H4591	H459	0.616630	0.701870	0.434570
C8361	C836	0.595690	0.743400	0.421220
C8371	C837	0.574520	0.757340	0.468330
C8381	C838	0.658240	0.673210	0.432000
C8391	C839	0.621230	0.620100	0.459020
H4601	H460	0.415130	0.335970	0.872370
C8401	C840	0.432210	0.351620	0.916390
C8411	C841	0.448830	0.411170	0.924670
H4611	H461	0.448430	0.436670	0.886670
H4621	H462	0.334030	0.360170	0.757970
C8421	C842	0.309660	0.310220	0.742210
C8431	C843	0.336900	0.277580	0.759660
H4631	H463	0.379530	0.305670	0.787070
H4641	H464	0.604030	0.730370	0.411070
C8441	C844	0.591830	0.768370	0.404530
C8451	C845	0.570630	0.782320	0.451640
H4651	H465	0.568730	0.753670	0.489670
H4661	H466	0.665730	0.696670	0.428370
C8461	C846	0.673570	0.656920	0.415950
C8471	C847	0.636190	0.603610	0.442550
H4671	H467	0.603930	0.607570	0.473970
H4681	H468	0.428230	0.330070	0.923770
C8481	C848	0.445720	0.380270	0.936200
H4691	H469	0.454830	0.429670	0.938570
H4701	H470	0.292130	0.311370	0.730970
C8491	C849	0.310720	0.279270	0.742850
H4711	H471	0.337630	0.256870	0.760070
H4721	H472	0.597630	0.772070	0.383170
C8501	C850	0.579270	0.787840	0.419740
H4731	H473	0.562230	0.795370	0.461870
H4741	H474	0.691730	0.669770	0.401870
C8511	C851	0.662100	0.621720	0.420720
H4751	H475	0.628530	0.580170	0.446370
C8521	C852	0.453350	0.377470	0.970070
C8531	C853	0.285430	0.249330	0.725250
C8541	C854	0.575630	0.817370	0.402370
C8551	C855	0.677260	0.603320	0.403530
O1851	O185	0.469890	0.404950	0.986160
O1861	O186	0.445540	0.348290	0.982040
O1871	O187	0.292890	0.226270	0.715800
O1881	O188	0.255530	0.242320	0.720230
O1891	O189	0.561350	0.830580	0.412470
O1901	O190	0.585530	0.819270	0.373770
In241	In24	0.473360	0.378410	0.028840
O1911	O191	0.490470	0.339280	0.037260
O1921	O192	0.521300	0.382410	0.005340
C8561	C856	0.517460	0.356790	0.021170
C8571	C857	0.547180	0.349590	0.021200
C8581	C858	0.578110	0.372550	0.005780
C8591	C859	0.545170	0.322120	0.038940
H4761	H476	0.579430	0.390970	0.993870
C8601	C860	0.607040	0.368040	0.008100
C8611	C861	0.574090	0.317620	0.041250
H4771	H477	0.524430	0.306770	0.049270
H4781	H478	0.627730	0.383370	0.997770
C8621	C862	0.605030	0.340580	0.025840
H4791	H479	0.572730	0.299270	0.053170
C8631	C863	0.636930	0.336070	0.028870
C8641	C864	0.670130	0.365870	0.028730
H4801	H480	0.672330	0.387870	0.028570
In251	In25	0.040430	0.239050	0.040950
O1931	O193	0.073840	0.249270	0.085870
O1941	O194	0.098360	0.275200	0.041770
O1951	O195	0.999710	0.221480	0.001890
O1961	O196	0.052930	0.259750	0.990740
O1971	O197	0.010570	0.182780	0.057110
O1981	O198	0.053890	0.198820	0.023880
O1991	O199	0.037960	0.288790	0.051750
O2001	O200	0.999630	0.238400	0.073660
C8651	C865	0.101930	0.269910	0.070660
C8661	C866	0.021560	0.240320	0.981630
C8671	C867	0.029130	0.174280	0.040020
C8681	C868	0.135980	0.286670	0.086260
C8691	C869	0.012490	0.240680	0.948450
C8701	C870	0.023060	0.138460	0.040280
C8711	C871	0.165580	0.305290	0.067570
C8721	C872	0.139380	0.284970	0.118780
C8731	C873	0.978820	0.218570	0.937720
C8741	C874	0.038150	0.262680	0.927130
C8751	C875	0.994040	0.112320	0.056090
C8761	C876	0.046310	0.130300	0.025010
H4811	H481	0.163300	0.306400	0.045800
C8771	C877	0.198570	0.322210	0.081410
C8781	C878	0.172370	0.301890	0.132620
H4821	H482	0.119600	0.272500	0.131300
H4831	H483	0.961900	0.203200	0.951800
C8791	C879	0.969770	0.218780	0.906640
C8801	C880	0.029070	0.262600	0.895960
H4841	H484	0.061100	0.277200	0.933800
H4851	H485	0.978700	0.117500	0.066600
C8811	C881	0.988460	0.079230	0.055930
C8821	C882	0.040390	0.096970	0.026190
H4861	H486	0.065600	0.147500	0.014200
H4871	H487	0.218400	0.334700	0.068900
C8831	C883	0.201960	0.320500	0.113940
H4881	H488	0.174600	0.300700	0.154400
H4891	H489	0.946900	0.204200	0.900000
C8841	C884	0.995110	0.241010	0.885320
H4901	H490	0.046100	0.277400	0.881700
H4911	H491	0.968500	0.061800	0.065800
C8851	C885	0.011590	0.070100	0.041490
H4921	H492	0.056200	0.091900	0.016400
C8861	C886	0.237830	0.337670	0.128630
C8871	C887	0.986450	0.242650	0.850800
C8881	C888	0.006140	0.034300	0.042920
C8891	C889	0.242500	0.350800	0.159220
C8901	C890	0.265860	0.339090	0.112320
C8911	C891	0.962390	0.212430	0.835670
C8921	C892	0.003040	0.274140	0.835620
C8931	C893	0.033370	0.027700	0.042440
H4931	H493	0.223800	0.349900	0.170100
C8941	C894	0.275190	0.365310	0.173500
C8951	C895	0.298550	0.353600	0.126610
H4941	H494	0.262700	0.330300	0.091900
H4951	H495	0.952000	0.191100	0.846200
C8961	C896	0.953890	0.214390	0.804080
C8971	C897	0.995180	0.276680	0.803970
H4961	H496	0.019600	0.293900	0.846300
H4971	H497	0.056100	0.046500	0.041800
C8981	C898	0.303220	0.366720	0.157200
C8991	C899	0.279930	0.377430	0.207210
C9001	C900	0.328880	0.356500	0.108530
C9011	C901	0.970480	0.246680	0.788780
C9021	C902	0.928790	0.182510	0.786440
C9031	C903	0.012600	0.310750	0.786960
H4981	H498	0.325100	0.376500	0.166800
C9041	C904	0.311270	0.402630	0.218960
C9051	C905	0.251770	0.361970	0.227540
C9061	C906	0.327190	0.328630	0.091710
C9071	C907	0.359830	0.388520	0.109170
H4991	H499	0.964800	0.248100	0.767900
C9081	C908	0.923270	0.185630	0.754550
C9091	C909	0.909330	0.150520	0.801660
C9101	C910	0.993460	0.318370	0.765330
C9111	C911	0.046570	0.334470	0.792350
H5001	H500	0.330700	0.412500	0.205700
C9121	C912	0.315050	0.413930	0.249720
C9131	C913	0.255500	0.371000	0.258000
H5011	H501	0.230000	0.345100	0.220000
H5021	H502	0.306500	0.307200	0.091300
C9141	C914	0.356450	0.332780	0.075540
C9151	C915	0.389090	0.392660	0.092990
H5031	H503	0.361000	0.407200	0.120400
H5041	H504	0.936300	0.207000	0.744400
C9161	C916	0.898300	0.156800	0.737860
C9171	C917	0.884350	0.121650	0.784970
H5051	H505	0.913000	0.148400	0.823000
H5061	H506	0.970000	0.302400	0.761700
C9181	C918	0.009750	0.349990	0.749280
C9191	C919	0.063060	0.365920	0.775880
H5071	H507	0.059100	0.329700	0.807300
H5081	H508	0.336600	0.431500	0.257100
C9201	C920	0.286400	0.398790	0.269530
H5091	H509	0.237000	0.358500	0.271900
H5101	H510	0.355300	0.314100	0.064300
C9211	C921	0.387400	0.364790	0.076180
H5111	H511	0.409800	0.414100	0.093400
H5121	H512	0.894600	0.158900	0.716500
C9221	C922	0.878830	0.124770	0.753070
H5131	H513	0.871300	0.100200	0.795200
H5141	H514	0.996900	0.355300	0.735200
C9231	C923	0.044950	0.373720	0.754050
H5151	H515	0.086500	0.381700	0.779700
C9241	C924	0.289200	0.409220	0.303400
C9251	C925	0.417340	0.369440	0.058580
C9261	C926	0.849300	0.091600	0.735700
C9271	C927	0.063350	0.407280	0.736860
O2011	O201	0.261720	0.398280	0.319490
O2021	O202	0.318380	0.430590	0.315370
O2031	O203	0.440400	0.399960	0.049130
O2041	O204	0.424350	0.346550	0.053560
O2051	O205	0.836090	0.064110	0.745800
O2061	O206	0.847400	0.099600	0.707100
In261	In26	0.288260	0.428280	0.362180
O2071	O207	0.327390	0.484530	0.370590
O2081	O208	0.284260	0.472230	0.338670
C9281	C928	0.309880	0.494010	0.354500
C9291	C929	0.317080	0.530930	0.354530
C9301	C930	0.294120	0.538900	0.339110
C9311	C931	0.344550	0.556390	0.372270
H5161	H516	0.275700	0.521800	0.327200
C9321	C932	0.298630	0.572340	0.341430
C9331	C933	0.349050	0.589810	0.374580
H5171	H517	0.359900	0.551000	0.382600
H5181	H518	0.283300	0.577700	0.331100
C9341	C934	0.326090	0.597790	0.359170
H5191	H519	0.367400	0.606800	0.386500
C9351	C935	0.330600	0.634200	0.362200
C9361	C936	0.300800	0.637600	0.362060
H5201	H520	0.278800	0.617800	0.361900
In271	In27	0.707100	0.572380	0.374280
O2091	O209	0.740510	0.582600	0.419200
O2101	O210	0.765030	0.608530	0.375100
O2111	O211	0.666380	0.554810	0.335220
O2121	O212	0.719600	0.593080	0.324070
O2131	O213	0.677240	0.516110	0.390440
O2141	O214	0.720560	0.532150	0.357210
O2151	O215	0.704630	0.622120	0.385080
O2161	O216	0.666300	0.571730	0.406990
C9371	C937	0.768600	0.603240	0.403990
C9381	C938	0.688230	0.573650	0.314960
C9391	C939	0.695800	0.507610	0.373350
C9401	C940	0.802650	0.620000	0.419590
C9411	C941	0.679160	0.574010	0.281780
C9421	C942	0.689730	0.471790	0.373610
C9431	C943	0.832250	0.638620	0.400900
C9441	C944	0.806050	0.618300	0.452110
C9451	C945	0.645490	0.551900	0.271050
C9461	C946	0.704820	0.596010	0.260460
C9471	C947	0.660710	0.445650	0.389420
C9481	C948	0.712980	0.463630	0.358340
H5211	H521	0.829970	0.639730	0.379130
C9491	C949	0.865240	0.655540	0.414740
C9501	C950	0.839040	0.635220	0.465950
H5221	H522	0.786270	0.605830	0.464630
H5231	H523	0.628570	0.536530	0.285130
C9511	C951	0.636440	0.552110	0.239970
C9521	C952	0.695740	0.595930	0.229290
H5241	H524	0.727770	0.610530	0.267130
H5251	H525	0.645370	0.450830	0.399930
C9531	C953	0.655130	0.412560	0.389260
C9541	C954	0.707060	0.430300	0.359520
H5261	H526	0.732270	0.480830	0.347530
H5271	H527	0.885070	0.668030	0.402230
C9551	C955	0.868630	0.653830	0.447270
H5281	H528	0.841270	0.634030	0.487730
H5291	H529	0.613570	0.537530	0.233330
C9561	C956	0.661780	0.574340	0.218650
H5301	H530	0.712770	0.610730	0.215030
H5311	H531	0.635170	0.395130	0.399130
C9571	C957	0.678260	0.403430	0.374820
H5321	H532	0.722870	0.425230	0.349730
C9581	C958	0.904500	0.671000	0.461960
C9591	C959	0.653120	0.575980	0.184130
C9601	C960	0.672810	0.367630	0.376250
C9611	C961	0.909170	0.684130	0.492550
C9621	C962	0.932530	0.672420	0.445650
C9631	C963	0.629060	0.545760	0.169000
C9641	C964	0.669710	0.607470	0.168950
C9651	C965	0.700040	0.361030	0.375770
H5331	H533	0.890470	0.683230	0.503430
C9661	C966	0.941860	0.698640	0.506830
C9671	C967	0.965220	0.686930	0.459940
H5341	H534	0.929370	0.663630	0.425230
H5351	H535	0.618670	0.524430	0.179530
C9681	C968	0.620560	0.547720	0.137410
C9691	C969	0.661850	0.610010	0.137300
H5361	H536	0.686270	0.627230	0.179630
H5371	H537	0.722770	0.379830	0.375130
C9701	C970	0.969890	0.700050	0.490530
C9711	C971	0.946600	0.710760	0.540540
C9721	C972	0.995550	0.689830	0.441860
C9731	C973	0.637150	0.580010	0.122110
C9741	C974	0.595460	0.515840	0.119770
C9751	C975	0.679270	0.644080	0.120290
H5381	H538	0.991770	0.709830	0.500130
C9761	C976	0.977940	0.735960	0.552290
C9771	C977	0.918440	0.695300	0.560870
C9781	C978	0.993860	0.661960	0.425040
C9791	C979	0.026500	0.721850	0.442500
H5391	H539	0.631470	0.581430	0.101230
C9801	C980	0.589940	0.518960	0.087880
C9811	C981	0.576000	0.483850	0.134990
C9821	C982	0.660130	0.651700	0.098660
C9831	C983	0.713240	0.667800	0.125680
H5401	H540	0.997370	0.745830	0.539030
C9841	C984	0.981720	0.747260	0.583050
C9851	C985	0.922170	0.704330	0.591330
H5411	H541	0.896670	0.678430	0.553330
H5421	H542	0.973170	0.640530	0.424630
C9861	C986	0.023120	0.666110	0.408870
C9871	C987	0.055760	0.725990	0.426320
H5431	H543	0.027670	0.740530	0.453730
H5441	H544	0.602970	0.540330	0.077730
C9881	C988	0.564970	0.490130	0.071190
C9891	C989	0.551020	0.454980	0.118300
H5451	H545	0.579670	0.481730	0.156330
H5461	H546	0.636670	0.635730	0.095030
C9901	C990	0.676420	0.683320	0.082610
C9911	C991	0.729730	0.699250	0.109210
H5471	H547	0.725770	0.663030	0.140630
H5481	H548	0.003270	0.764830	0.590430
C9921	C992	0.953070	0.732120	0.602860
H5491	H549	0.903670	0.691830	0.605230
H5501	H550	0.021970	0.647430	0.397630
C9931	C993	0.054070	0.698120	0.409510
H5511	H551	0.076470	0.747430	0.426730
H5521	H552	0.561270	0.492230	0.049830
C9941	C994	0.545500	0.458100	0.086400
H5531	H553	0.537970	0.433530	0.128530
H5541	H554	0.663570	0.688630	0.068530
C9951	C995	0.711620	0.707050	0.087380
H5551	H555	0.753170	0.715030	0.113030
C9961	C996	0.955870	0.742550	0.636730
C9971	C997	0.084010	0.702770	0.391910
C9981	C998	0.515970	0.424930	0.069030
C9991	C999	0.730020	0.740610	0.070190
O2171	O217	0.928390	0.731610	0.652820
O2181	O218	0.985050	0.763920	0.648700
O2191	O219	0.107070	0.733290	0.382460
O2201	O220	0.091020	0.679880	0.386890
O2211	O221	0.502760	0.397440	0.079130
O2221	O222	0.514070	0.432930	0.040430
In281	In28	0.954920	0.761610	0.695510
O2231	O223	0.994060	0.817860	0.703920
O2241	O224	0.950930	0.805560	0.672000
C10001	C1000	0.976550	0.827340	0.687830
C10011	C1001	0.983750	0.864260	0.687860
C10021	C1002	0.960790	0.872230	0.672440
C10031	C1003	0.011220	0.889720	0.705600
H5561	H556	0.942370	0.855130	0.660530
C10041	C1004	0.965300	0.905670	0.674760
C10051	C1005	0.015720	0.923140	0.707910
H5571	H557	0.026570	0.884330	0.715930
H5581	H558	0.949970	0.911030	0.664430
C10061	C1006	0.992760	0.931120	0.692500
H5591	H559	0.034070	0.940130	0.719830
C10071	C1007	0.997270	0.967530	0.695530
C10081	C1008	0.967470	0.970930	0.695390
H5601	H560	0.945470	0.951130	0.695230
In291	In29	0.373760	0.905720	0.707610
O2251	O225	0.407170	0.915940	0.752540
O2261	O226	0.431690	0.941870	0.708440
O2271	O227	0.333040	0.888150	0.668560
O2281	O228	0.386260	0.926420	0.657410
O2291	O229	0.343900	0.849450	0.723780
O2301	O230	0.387220	0.865490	0.690550
O2311	O231	0.371290	0.955460	0.718420
O2321	O232	0.332960	0.905070	0.740330
C10091	C1009	0.435260	0.936580	0.737330
C10101	C1010	0.354890	0.906990	0.648300
C10111	C1011	0.362460	0.840950	0.706690
C10121	C1012	0.469310	0.953340	0.752930
C10131	C1013	0.345820	0.907350	0.615120
C10141	C1014	0.356390	0.805130	0.706950
C10151	C1015	0.498910	0.971960	0.734240
C10161	C1016	0.472710	0.951640	0.785450
C10171	C1017	0.312150	0.885240	0.604390
C10181	C1018	0.371480	0.929350	0.593800
C10191	C1019	0.327370	0.778990	0.722760
C10201	C1020	0.379640	0.796970	0.691680
H5611	H561	0.496630	0.973070	0.712470
C10211	C1021	0.531900	0.988880	0.748080
C10221	C1022	0.505700	0.968560	0.799290
H5621	H562	0.452930	0.939170	0.797970
H5631	H563	0.295230	0.869870	0.618470
C10231	C1023	0.303100	0.885450	0.573310
C10241	C1024	0.362400	0.929270	0.562630
H5641	H564	0.394430	0.943870	0.600470
H5651	H565	0.312030	0.784170	0.733270
C10251	C1025	0.321790	0.745900	0.722600
C10261	C1026	0.373720	0.763640	0.692860
H5661	H566	0.398930	0.814170	0.680870
H5671	H567	0.551730	0.001370	0.735570
C10271	C1027	0.535290	0.987170	0.780610
H5681	H568	0.507930	0.967370	0.821070
H5691	H569	0.280230	0.870870	0.566670
C10281	C1028	0.328440	0.907680	0.551990
H5701	H570	0.379430	0.944070	0.548370
H5711	H571	0.301830	0.728470	0.732470
C10291	C1029	0.344920	0.736770	0.708160
H5721	H572	0.389530	0.758570	0.683070
C10301	C1030	0.571160	0.004340	0.795300
C10311	C1031	0.319780	0.909320	0.517470
C10321	C1032	0.339470	0.700970	0.709590
C10331	C1033	0.575830	0.017470	0.825890
C10341	C1034	0.599190	0.005760	0.778990
C10351	C1035	0.295720	0.879100	0.502340
C10361	C1036	0.336370	0.940810	0.502290
C10371	C1037	0.366700	0.694370	0.709110
H5731	H573	0.557130	0.016570	0.836770
C10381	C1038	0.608520	0.031980	0.840170
C10391	C1039	0.631880	0.020270	0.793280
H5741	H574	0.596030	0.996970	0.758570
H5751	H575	0.285330	0.857770	0.512870
C10401	C1040	0.287220	0.881060	0.470750
C10411	C1041	0.328510	0.943350	0.470640
H5761	H576	0.352930	0.960570	0.512970
H5771	H577	0.389430	0.713170	0.708470
C10421	C1042	0.636550	0.033390	0.823870
C10431	C1043	0.613260	0.044100	0.873880
C10441	C1044	0.662210	0.023170	0.775200
C10451	C1045	0.303810	0.913350	0.455450
C10461	C1046	0.262120	0.849180	0.453110
C10471	C1047	0.345930	0.977420	0.453630
H5781	H578	0.658430	0.043170	0.833470
C10481	C1048	0.644600	0.069300	0.885630
C10491	C1049	0.585100	0.028640	0.894210
C10501	C1050	0.660520	0.995300	0.758380
C10511	C1051	0.693160	0.055190	0.775840
H5791	H579	0.298130	0.914770	0.434570
C10521	C1052	0.256600	0.852300	0.421220
C10531	C1053	0.242660	0.817190	0.468330
C10541	C1054	0.326790	0.985040	0.432000
C10551	C1055	0.379900	0.001140	0.459020
H5801	H580	0.664030	0.079170	0.872370
C10561	C1056	0.648380	0.080600	0.916390
C10571	C1057	0.588830	0.037670	0.924670
H5811	H581	0.563330	0.011770	0.886670
H5821	H582	0.639830	0.973870	0.757970
C10581	C1058	0.689780	0.999450	0.742210
C10591	C1059	0.722420	0.059330	0.759660
H5831	H583	0.694330	0.073870	0.787070
H5841	H584	0.269630	0.873670	0.411070
C10601	C1060	0.231630	0.823470	0.404530
C10611	C1061	0.217680	0.788320	0.451640
H5851	H585	0.246330	0.815070	0.489670
H5861	H586	0.303330	0.969070	0.428370
C10621	C1062	0.343080	0.016660	0.415950
C10631	C1063	0.396390	0.032590	0.442550
H5871	H587	0.392430	0.996370	0.473970
H5881	H588	0.669930	0.098170	0.923770
C10641	C1064	0.619730	0.065460	0.936200
H5891	H589	0.570330	0.025170	0.938570
H5901	H590	0.688630	0.980770	0.730970
C10651	C1065	0.720730	0.031460	0.742850
H5911	H591	0.743130	0.080770	0.760070
H5921	H592	0.227930	0.825570	0.383170
C10661	C1066	0.212160	0.791440	0.419740
H5931	H593	0.204630	0.766870	0.461870
H5941	H594	0.330230	0.021970	0.401870
C10671	C1067	0.378280	0.040390	0.420720
H5951	H595	0.419830	0.048370	0.446370
C10681	C1068	0.622530	0.075890	0.970070
C10691	C1069	0.750670	0.036110	0.725250
C10701	C1070	0.182630	0.758270	0.402370
C10711	C1071	0.396680	0.073950	0.403530
O2331	O233	0.595050	0.064950	0.986160
O2341	O234	0.651710	0.097260	0.982040
O2351	O235	0.773730	0.066630	0.715800
O2361	O236	0.757680	0.013220	0.720230
O2371	O237	0.169420	0.730780	0.412470
O2381	O238	0.180730	0.766270	0.373770
In301	In30	0.621590	0.094950	0.028840
O2391	O239	0.660720	0.151200	0.037260
O2401	O240	0.617590	0.138900	0.005340
C10721	C1072	0.643210	0.160680	0.021170
C10731	C1073	0.650410	0.197600	0.021200
C10741	C1074	0.627450	0.205570	0.005780
C10751	C1075	0.677880	0.223060	0.038940
H5961	H596	0.609030	0.188470	0.993870
C10761	C1076	0.631960	0.239010	0.008100
C10771	C1077	0.682380	0.256480	0.041250
H5971	H597	0.693230	0.217670	0.049270
H5981	H598	0.616630	0.244370	0.997770
C10781	C1078	0.659420	0.264460	0.025840
H5991	H599	0.700730	0.273470	0.053170
C10791	C1079	0.663930	0.300870	0.028870
C10801	C1080	0.634130	0.304270	0.028730
H6001	H600	0.612130	0.284470	0.028570
In311	In31	0.760950	0.801380	0.040950
O2411	O241	0.750730	0.824570	0.085870
O2421	O242	0.724800	0.823160	0.041770
O2431	O243	0.778520	0.778230	0.001890
O2441	O244	0.740250	0.793180	0.990740
O2451	O245	0.817220	0.827790	0.057110
O2461	O246	0.801180	0.855070	0.023880
O2471	O247	0.711210	0.749170	0.051750
O2481	O248	0.761600	0.761230	0.073660
C10811	C1081	0.730090	0.832020	0.070660
C10821	C1082	0.759680	0.781240	0.981630
C10831	C1083	0.825720	0.854850	0.040020
C10841	C1084	0.713330	0.849310	0.086260
C10851	C1085	0.759320	0.771810	0.948450
C10861	C1086	0.861540	0.884600	0.040280
C10871	C1087	0.694710	0.860290	0.067570
C10881	C1088	0.715030	0.854410	0.118780
C10891	C1089	0.781430	0.760250	0.937720
C10901	C1090	0.737320	0.775470	0.927130
C10911	C1091	0.887680	0.881720	0.056090
C10921	C1092	0.869700	0.916010	0.025010
H6011	H601	0.693600	0.856900	0.045800
C10931	C1093	0.677790	0.876360	0.081410
C10941	C1094	0.698110	0.870480	0.132620
H6021	H602	0.727500	0.847100	0.131300
H6031	H603	0.796800	0.758700	0.951800
C10951	C1095	0.781220	0.750990	0.906640
C10961	C1096	0.737400	0.766470	0.895960
H6041	H604	0.722800	0.783900	0.933800
H6051	H605	0.882500	0.861200	0.066600
C10971	C1097	0.920770	0.909230	0.055930
C10981	C1098	0.903030	0.943420	0.026190
H6061	H606	0.852500	0.918100	0.014200
H6071	H607	0.665300	0.883700	0.068900
C10991	C1099	0.679500	0.881460	0.113940
H6081	H608	0.699300	0.873900	0.154400
H6091	H609	0.795800	0.742700	0.900000
C11001	C1100	0.758990	0.754100	0.885320
H6101	H610	0.722600	0.768700	0.881700
H6111	H611	0.938200	0.906700	0.065800
C11011	C1101	0.929900	0.941490	0.041490
H6121	H612	0.908100	0.964300	0.016400
C11021	C1102	0.662330	0.900160	0.128630
C11031	C1103	0.757350	0.743800	0.850800
C11041	C1104	0.965700	0.971840	0.042920
C11051	C1105	0.649200	0.891700	0.159220
C11061	C1106	0.660910	0.926770	0.112320
C11071	C1107	0.787570	0.749960	0.835670
C11081	C1108	0.725860	0.728900	0.835620
C11091	C1109	0.972300	0.005670	0.042440
H6131	H613	0.650100	0.873900	0.170100
C11101	C1110	0.634690	0.909880	0.173500
C11111	C1111	0.646400	0.944950	0.126610
H6141	H614	0.669700	0.932400	0.091900
H6151	H615	0.808900	0.760900	0.846200
C11121	C1112	0.785610	0.739500	0.804080
C11131	C1113	0.723320	0.718500	0.803970
H6161	H616	0.706100	0.725700	0.846300
H6171	H617	0.953500	0.009600	0.041800
C11141	C1114	0.633280	0.936500	0.157200
C11151	C1115	0.622570	0.902500	0.207210
C11161	C1116	0.643500	0.972380	0.108530
C11171	C1117	0.753320	0.723800	0.788780
C11181	C1118	0.817490	0.746280	0.786440
C11191	C1119	0.689250	0.701850	0.786960
H6181	H618	0.623500	0.948600	0.166800
C11201	C1120	0.597370	0.908640	0.218960
C11211	C1121	0.638030	0.889800	0.227540
C11221	C1122	0.671370	0.998560	0.091710
C11231	C1123	0.611480	0.971310	0.109170
H6191	H619	0.751900	0.716700	0.767900
C11241	C1124	0.814370	0.737640	0.754550
C11251	C1125	0.849480	0.758810	0.801660
C11261	C1126	0.681630	0.675090	0.765330
C11271	C1127	0.665530	0.712100	0.792350
H6201	H620	0.587500	0.918200	0.205700
C11281	C1128	0.586070	0.901120	0.249720
C11291	C1129	0.629000	0.884500	0.258000
H6211	H621	0.654900	0.884900	0.220000
H6221	H622	0.692800	0.999300	0.091300
C11301	C1130	0.667220	0.023670	0.075540
C11311	C1131	0.607340	0.996430	0.092990
H6231	H623	0.592800	0.953800	0.120400
H6241	H624	0.793000	0.729300	0.744400
C11321	C1132	0.843200	0.741500	0.737860
C11331	C1133	0.878350	0.762700	0.784970
H6251	H625	0.851600	0.764600	0.823000
H6261	H626	0.697600	0.667600	0.761700
C11341	C1134	0.650010	0.659760	0.749280
C11351	C1135	0.634080	0.697140	0.775880
H6271	H627	0.670300	0.729400	0.807300
H6281	H628	0.568500	0.905100	0.257100
C11361	C1136	0.601210	0.887610	0.269530
H6291	H629	0.641500	0.878500	0.271900
H6301	H630	0.685900	0.041200	0.064300
C11371	C1137	0.635210	0.022610	0.076180
H6311	H631	0.585900	0.995700	0.093400
H6321	H632	0.841100	0.735700	0.716500
C11381	C1138	0.875230	0.754060	0.753070
H6331	H633	0.899800	0.771100	0.795200
H6341	H634	0.644700	0.641600	0.735200
C11391	C1139	0.626280	0.671230	0.754050
H6351	H635	0.618300	0.704800	0.779700
C11401	C1140	0.590780	0.879980	0.303400
C11411	C1141	0.630560	0.047900	0.058580
C11421	C1142	0.908400	0.757700	0.735700
C11431	C1143	0.592720	0.656070	0.736860
O2491	O249	0.601720	0.863440	0.319490
O2501	O250	0.569410	0.887790	0.315370
O2511	O251	0.600040	0.040440	0.049130
O2521	O252	0.653450	0.077800	0.053560
O2531	O253	0.935890	0.771980	0.745800
O2541	O254	0.900400	0.747800	0.707100
In321	In32	0.571720	0.859980	0.362180
O2551	O255	0.515470	0.842860	0.370590
O2561	O256	0.527770	0.812030	0.338670
C11441	C1144	0.505990	0.815870	0.354500
C11451	C1145	0.469070	0.786150	0.354530
C11461	C1146	0.461100	0.755220	0.339110
C11471	C1147	0.443610	0.788160	0.372270
H6361	H636	0.478200	0.753900	0.327200
C11481	C1148	0.427660	0.726290	0.341430
C11491	C1149	0.410190	0.759240	0.374580
H6371	H637	0.449000	0.808900	0.382600
H6381	H638	0.422300	0.705600	0.331100
C11501	C1150	0.402210	0.728300	0.359170
H6391	H639	0.393200	0.760600	0.386500
C11511	C1151	0.365800	0.696400	0.362200
C11521	C1152	0.362400	0.663200	0.362060
H6401	H640	0.382200	0.661000	0.361900
In331	In33	0.427620	0.134710	0.374280
O2571	O257	0.417400	0.157900	0.419200
O2581	O258	0.391470	0.156490	0.375100
O2591	O259	0.445190	0.111560	0.335220
O2601	O260	0.406920	0.126510	0.324070
O2611	O261	0.483890	0.161120	0.390440
O2621	O262	0.467850	0.188400	0.357210
O2631	O263	0.377880	0.082500	0.385080
O2641	O264	0.428270	0.094560	0.406990
C11531	C1153	0.396760	0.165350	0.403990
C11541	C1154	0.426350	0.114570	0.314960
C11551	C1155	0.492390	0.188180	0.373350
C11561	C1156	0.380000	0.182640	0.419590
C11571	C1157	0.425990	0.105140	0.281780
C11581	C1158	0.528210	0.217930	0.373610
C11591	C1159	0.361380	0.193620	0.400900
C11601	C1160	0.381700	0.187740	0.452110
C11611	C1161	0.448100	0.093580	0.271050
C11621	C1162	0.403990	0.108800	0.260460
C11631	C1163	0.554350	0.215050	0.389420
C11641	C1164	0.536370	0.249340	0.358340
H6411	H641	0.360270	0.190230	0.379130
C11651	C1165	0.344460	0.209690	0.414740
C11661	C1166	0.364780	0.203810	0.465950
H6421	H642	0.394170	0.180430	0.464630
H6431	H643	0.463470	0.092030	0.285130
C11671	C1167	0.447890	0.084320	0.239970
C11681	C1168	0.404070	0.099800	0.229290
H6441	H644	0.389470	0.117230	0.267130
H6451	H645	0.549170	0.194530	0.399930
C11691	C1169	0.587440	0.242560	0.389260
C11701	C1170	0.569700	0.276750	0.359520
H6461	H646	0.519170	0.251430	0.347530
H6471	H647	0.331970	0.217030	0.402230
C11711	C1171	0.346170	0.214790	0.447270
H6481	H648	0.365970	0.207230	0.487730
H6491	H649	0.462470	0.076030	0.233330
C11721	C1172	0.425660	0.087430	0.218650
H6501	H650	0.389270	0.102030	0.215030
H6511	H651	0.604870	0.240030	0.399130
C11731	C1173	0.596570	0.274820	0.374820
H6521	H652	0.574770	0.297630	0.349730
C11741	C1174	0.329000	0.233490	0.461960
C11751	C1175	0.424020	0.077130	0.184130
C11761	C1176	0.632370	0.305170	0.376250
C11771	C1177	0.315870	0.225030	0.492550
C11781	C1178	0.327580	0.260100	0.445650
C11791	C1179	0.454240	0.083290	0.169000
C11801	C1180	0.392530	0.062230	0.168950
C11811	C1181	0.638970	0.339000	0.375770
H6531	H653	0.316770	0.207230	0.503430
C11821	C1182	0.301360	0.243210	0.506830
C11831	C1183	0.313070	0.278280	0.459940
H6541	H654	0.336370	0.265730	0.425230
H6551	H655	0.475570	0.094230	0.179530
C11841	C1184	0.452280	0.072830	0.137410
C11851	C1185	0.389990	0.051830	0.137300
H6561	H656	0.372770	0.059030	0.179630
H6571	H657	0.620170	0.342930	0.375130
C11861	C1186	0.299950	0.269830	0.490530
C11871	C1187	0.289240	0.235830	0.540540
C11881	C1188	0.310170	0.305710	0.441860
C11891	C1189	0.419990	0.057130	0.122110
C11901	C1190	0.484160	0.079610	0.119770
C11911	C1191	0.355920	0.035180	0.120290
H6581	H658	0.290170	0.281930	0.500130
C11921	C1192	0.264040	0.241970	0.552290
C11931	C1193	0.304700	0.223130	0.560870
C11941	C1194	0.338040	0.331890	0.425040
C11951	C1195	0.278150	0.304640	0.442500
H6591	H659	0.418570	0.050030	0.101230
C11961	C1196	0.481040	0.070970	0.087880
C11971	C1197	0.516150	0.092140	0.134990
C11981	C1198	0.348300	0.008420	0.098660
C11991	C1199	0.332200	0.045430	0.125680
H6601	H660	0.254170	0.251530	0.539030
C12001	C1200	0.252740	0.234450	0.583050
C12011	C1201	0.295670	0.217830	0.591330
H6611	H661	0.321570	0.218230	0.553330
H6621	H662	0.359470	0.332630	0.424630
C12021	C1202	0.333890	0.357000	0.408870
C12031	C1203	0.274010	0.329760	0.426320
H6631	H663	0.259470	0.287130	0.453730
H6641	H664	0.459670	0.062630	0.077730
C12041	C1204	0.509870	0.074830	0.071190
C12051	C1205	0.545020	0.096030	0.118300
H6651	H665	0.518270	0.097930	0.156330
H6661	H666	0.364270	0.000930	0.095030
C12061	C1206	0.316680	0.993090	0.082610
C12071	C1207	0.300750	0.030470	0.109210
H6671	H667	0.336970	0.062730	0.140630
H6681	H668	0.235170	0.238430	0.590430
C12081	C1208	0.267880	0.220940	0.602860
H6691	H669	0.308170	0.211830	0.605230
H6701	H670	0.352570	0.374530	0.397630
C12091	C1209	0.301880	0.355940	0.409510
H6711	H671	0.252570	0.329030	0.426730
H6721	H672	0.507770	0.069030	0.049830
C12101	C1210	0.541900	0.087390	0.086400
H6731	H673	0.566470	0.104430	0.128530
H6741	H674	0.311370	0.974930	0.068530
C12111	C1211	0.292950	0.004560	0.087380
H6751	H675	0.284970	0.038130	0.113030
C12121	C1212	0.257450	0.213310	0.636730
C12131	C1213	0.297230	0.381230	0.391910
C12141	C1214	0.575070	0.091030	0.069030
C12151	C1215	0.259390	0.989400	0.070190
O2651	O265	0.268390	0.196770	0.652820
O2661	O266	0.236080	0.221120	0.648700
O2671	O267	0.266710	0.373770	0.382460
O2681	O268	0.320120	0.411130	0.386890
O2691	O269	0.602560	0.105310	0.079130
O2701	O270	0.567070	0.081130	0.040430
In341	In34	0.238390	0.193310	0.695510
O2711	O271	0.182140	0.176190	0.703920
O2721	O272	0.194440	0.145360	0.672000
C12161	C1216	0.172660	0.149200	0.687830
C12171	C1217	0.135740	0.119480	0.687860
C12181	C1218	0.127770	0.088550	0.672440
C12191	C1219	0.110280	0.121490	0.705600
H6761	H676	0.144870	0.087230	0.660530
C12201	C1220	0.094330	0.059620	0.674760
C12211	C1221	0.076860	0.092570	0.707910
H6771	H677	0.115670	0.142230	0.715930
H6781	H678	0.088970	0.038930	0.664430
C12221	C1222	0.068880	0.061630	0.692500
H6791	H679	0.059870	0.093930	0.719830
C12231	C1223	0.032470	0.029730	0.695530
C12241	C1224	0.029070	0.996530	0.695390
H6801	H680	0.048870	0.994330	0.695230
In351	In35	0.094280	0.468050	0.707610
O2731	O273	0.084060	0.491240	0.752540
O2741	O274	0.058130	0.489830	0.708440
O2751	O275	0.111850	0.444900	0.668560
O2761	O276	0.073580	0.459850	0.657410
O2771	O277	0.150550	0.494460	0.723780
O2781	O278	0.134510	0.521740	0.690550
O2791	O279	0.044540	0.415840	0.718420
O2801	O280	0.094930	0.427900	0.740330
C12251	C1225	0.063420	0.498690	0.737330
C12261	C1226	0.093010	0.447910	0.648300
C12271	C1227	0.159050	0.521520	0.706690
C12281	C1228	0.046660	0.515980	0.752930
C12291	C1229	0.092650	0.438480	0.615120
C12301	C1230	0.194870	0.551270	0.706950
C12311	C1231	0.028040	0.526960	0.734240
C12321	C1232	0.048360	0.521080	0.785450
C12331	C1233	0.114760	0.426920	0.604390
C12341	C1234	0.070650	0.442140	0.593800
C12351	C1235	0.221010	0.548390	0.722760
C12361	C1236	0.203030	0.582680	0.691680
H6811	H681	0.026930	0.523570	0.712470
C12371	C1237	0.011120	0.543030	0.748080
C12381	C1238	0.031440	0.537150	0.799290
H6821	H682	0.060830	0.513770	0.797970
H6831	H683	0.130130	0.425370	0.618470
C12391	C1239	0.114550	0.417660	0.573310
C12401	C1240	0.070730	0.433140	0.562630
H6841	H684	0.056130	0.450570	0.600470
H6851	H685	0.215830	0.527870	0.733270
C12411	C1241	0.254100	0.575900	0.722600
C12421	C1242	0.236360	0.610090	0.692860
H6861	H686	0.185830	0.584770	0.680870
H6871	H687	0.998630	0.550370	0.735570
C12431	C1243	0.012830	0.548130	0.780610
H6881	H688	0.032630	0.540570	0.821070
H6891	H689	0.129130	0.409370	0.566670
C12441	C1244	0.092320	0.420770	0.551990
H6901	H690	0.055930	0.435370	0.548370
H6911	H691	0.271530	0.573370	0.732470
C12451	C1245	0.263230	0.608160	0.708160
H6921	H692	0.241430	0.630970	0.683070
C12461	C1246	0.995660	0.566830	0.795300
C12471	C1247	0.090680	0.410470	0.517470
C12481	C1248	0.299030	0.638510	0.709590
C12491	C1249	0.982530	0.558370	0.825890
C12501	C1250	0.994240	0.593440	0.778990
C12511	C1251	0.120900	0.416630	0.502340
C12521	C1252	0.059190	0.395570	0.502290
C12531	C1253	0.305630	0.672340	0.709110
H6931	H693	0.983430	0.540570	0.836770
C12541	C1254	0.968020	0.576550	0.840170
C12551	C1255	0.979730	0.611620	0.793280
H6941	H694	0.003030	0.599070	0.758570
H6951	H695	0.142230	0.427570	0.512870
C12561	C1256	0.118940	0.406170	0.470750
C12571	C1257	0.056650	0.385170	0.470640
H6961	H696	0.039430	0.392370	0.512970
H6971	H697	0.286830	0.676270	0.708470
C12581	C1258	0.966610	0.603170	0.823870
C12591	C1259	0.955900	0.569170	0.873880
C12601	C1260	0.976830	0.639050	0.775200
C12611	C1261	0.086650	0.390470	0.455450
C12621	C1262	0.150820	0.412950	0.453110
C12631	C1263	0.022580	0.368520	0.453630
H6981	H698	0.956830	0.615270	0.833470
C12641	C1264	0.930700	0.575310	0.885630
C12651	C1265	0.971360	0.556470	0.894210
C12661	C1266	0.004700	0.665230	0.758380
C12671	C1267	0.944810	0.637980	0.775840
H6991	H699	0.085230	0.383370	0.434570
C12681	C1268	0.147700	0.404310	0.421220
C12691	C1269	0.182810	0.425480	0.468330
C12701	C1270	0.014960	0.341760	0.432000
C12711	C1271	0.998860	0.378770	0.459020
H7001	H700	0.920830	0.584870	0.872370
C12721	C1272	0.919400	0.567790	0.916390
C12731	C1273	0.962330	0.551170	0.924670
H7011	H701	0.988230	0.551570	0.886670
H7021	H702	0.026130	0.665970	0.757970
C12741	C1274	0.000550	0.690340	0.742210
C12751	C1275	0.940670	0.663100	0.759660
H7031	H703	0.926130	0.620470	0.787070
H7041	H704	0.126330	0.395970	0.411070
C12761	C1276	0.176530	0.408170	0.404530
C12771	C1277	0.211680	0.429370	0.451640
H7051	H705	0.184930	0.431270	0.489670
H7061	H706	0.030930	0.334270	0.428370
C12781	C1278	0.983340	0.326430	0.415950
C12791	C1279	0.967410	0.363810	0.442550
H7071	H707	0.003630	0.396070	0.473970
H7081	H708	0.901830	0.571770	0.923770
C12801	C1280	0.934540	0.554280	0.936200
H7091	H709	0.974830	0.545170	0.938570
H7101	H710	0.019230	0.707870	0.730970
C12811	C1281	0.968540	0.689280	0.742850
H7111	H711	0.919230	0.662370	0.760070
H7121	H712	0.174430	0.402370	0.383170
C12821	C1282	0.208560	0.420730	0.419740
H7131	H713	0.233130	0.437770	0.461870
H7141	H714	0.978030	0.308270	0.401870
C12831	C1283	0.959610	0.337900	0.420720
H7151	H715	0.951630	0.371470	0.446370
C12841	C1284	0.924110	0.546650	0.970070
C12851	C1285	0.963890	0.714570	0.725250
C12861	C1286	0.241730	0.424370	0.402370
C12871	C1287	0.926050	0.322740	0.403530
O2811	O281	0.935050	0.530110	0.986160
O2821	O282	0.902740	0.554460	0.982040
O2831	O283	0.933370	0.707110	0.715800
O2841	O284	0.986780	0.744470	0.720230
O2851	O285	0.269220	0.438650	0.412470
O2861	O286	0.233730	0.414470	0.373770
In361	In36	0.905050	0.526640	0.028840
O2871	O287	0.848800	0.509530	0.037260
O2881	O288	0.861100	0.478700	0.005340
C12881	C1288	0.839320	0.482540	0.021170
C12891	C1289	0.802400	0.452820	0.021200
C12901	C1290	0.794430	0.421890	0.005780
C12911	C1291	0.776940	0.454830	0.038940
H7161	H716	0.811530	0.420570	0.993870
C12921	C1292	0.760990	0.392960	0.008100
C12931	C1293	0.743520	0.425910	0.041250
H7171	H717	0.782330	0.475570	0.049270
H7181	H718	0.755630	0.372270	0.997770
C12941	C1294	0.735540	0.394970	0.025840
H7191	H719	0.726530	0.427270	0.053170
C12951	C1295	0.699130	0.363070	0.028870
C12961	C1296	0.695730	0.329870	0.028730
H7201	H720	0.715530	0.327670	0.028570
