data_FOXHUX_freeONLY_PM
_symmetry_space_group_name_H-M	'P1'
_cell_length_a	16.417400
_cell_length_b	18.179800
_cell_length_c	18.179800
_cell_angle_alpha	90.000000
_cell_angle_beta	90.000000
_cell_angle_gamma	90.000000
_symmetry_Int_Tables_number 1

loop_
_symmetry_equiv_pos_as_xyz
'x,y,z'

loop_
_atom_site_label
_atom_site_type_symbol
_atom_site_fract_x
_atom_site_fract_y
_atom_site_fract_z
La11	La1	0.250000	0.715200	0.284800
La21	La2	0.750000	0.284800	0.715200
La31	La3	0.500000	0.215200	0.215200
La41	La4	0.000000	0.784800	0.784800
H11	H1	0.099000	0.887000	0.016000
H21	H2	0.283700	0.717400	0.910400
H31	H3	0.811300	0.897500	0.529200
H41	H4	0.499600	0.051300	0.805600
H51	H5	0.436500	0.928700	0.981100
H61	H6	0.388600	0.635400	0.917300
H71	H7	0.367100	0.140700	0.365500
H81	H8	0.181400	0.953000	0.094100
H91	H9	0.568100	0.292100	0.531600
H101	H10	0.857900	0.163300	0.916100
H111	H11	0.796600	0.506900	0.353700
H121	H12	0.277700	0.361100	0.320500
H131	H13	0.632900	0.365500	0.140700
H141	H14	0.063500	0.018900	0.071300
H151	H15	0.681400	0.047000	0.905900
H161	H16	0.145200	0.396200	0.102600
H171	H17	0.938700	0.397500	0.970800
H181	H18	0.658600	0.615000	0.615200
H191	H19	0.313500	0.428700	0.518900
H201	H20	0.296600	0.493100	0.646300
H211	H21	0.681900	0.207900	0.031600
H221	H22	0.138600	0.417300	0.864600
H231	H23	0.533700	0.589600	0.217400
H241	H24	0.607900	0.416100	0.336700
H251	H25	0.999600	0.948700	0.194400
H261	H26	0.895200	0.602600	0.103800
H271	H27	0.035000	0.112700	0.715000
H281	H28	0.465000	0.285000	0.887300
H291	H29	0.611400	0.917300	0.635400
H301	H30	0.703400	0.646300	0.493100
H311	H31	0.813500	0.571300	0.481100
H321	H32	0.361400	0.135400	0.582700
H331	H33	0.777700	0.638900	0.679500
H341	H34	0.216300	0.089600	0.282600
H351	H35	0.115300	0.851600	0.618000
H361	H36	0.750400	0.448700	0.305600
H371	H37	0.599000	0.113000	0.984000
H381	H38	0.311300	0.102500	0.470800
H391	H39	0.395200	0.397400	0.896200
H401	H40	0.453400	0.993100	0.853700
H411	H41	0.068600	0.547000	0.594100
H421	H42	0.188700	0.529200	0.897500
H431	H43	0.660000	0.533300	0.346900
H441	H44	0.417900	0.986300	0.540600
H451	H45	0.590000	0.966700	0.846900
H461	H46	0.867100	0.859300	0.634500
H471	H47	0.715000	0.612700	0.785000
H481	H48	0.091400	0.115000	0.884800
H491	H49	0.591400	0.885000	0.115200
H501	H50	0.168900	0.913300	0.516900
H511	H51	0.645200	0.603800	0.897400
H521	H52	0.617100	0.134500	0.640700
H531	H53	0.107900	0.583900	0.663300
H541	H54	0.061300	0.970800	0.397500
H551	H55	0.466300	0.217400	0.589600
H561	H56	0.401000	0.984000	0.113000
H571	H57	0.972300	0.138900	0.820500
H581	H58	0.861400	0.864600	0.417300
H591	H59	0.785000	0.215000	0.387300
H601	H60	0.535000	0.887300	0.285000
H611	H61	0.081100	0.586700	0.016900
H621	H62	0.546600	0.853700	0.993100
H631	H63	0.197600	0.454400	0.422600
H641	H64	0.447600	0.077400	0.954400
H651	H65	0.318100	0.031600	0.207900
H661	H66	0.582100	0.540600	0.986300
H671	H67	0.884700	0.618000	0.851600
H681	H68	0.104800	0.103800	0.602600
H691	H69	0.818100	0.968400	0.792100
H701	H70	0.966300	0.782600	0.410400
H711	H71	0.134700	0.648400	0.118000
H721	H72	0.918900	0.016900	0.586700
H731	H73	0.947600	0.922600	0.045600
H741	H74	0.638600	0.582700	0.135400
H751	H75	0.357900	0.836700	0.083900
H761	H76	0.384700	0.382000	0.148400
H771	H77	0.167900	0.040600	0.513700
H781	H78	0.027700	0.820500	0.138900
H791	H79	0.892100	0.663300	0.583900
H801	H80	0.722300	0.320500	0.361100
H811	H81	0.688700	0.470800	0.102500
H821	H82	0.697600	0.545600	0.577400
H831	H83	0.332100	0.486300	0.959400
H841	H84	0.651000	0.387000	0.484000
H851	H85	0.215000	0.387300	0.215000
H861	H86	0.615300	0.148400	0.382000
H871	H87	0.033700	0.410400	0.782600
H881	H88	0.865300	0.118000	0.648400
H891	H89	0.438700	0.602500	0.029200
H901	H90	0.392100	0.336700	0.416100
H911	H91	0.832100	0.513700	0.040600
H921	H92	0.841400	0.384800	0.385000
H931	H93	0.908600	0.884800	0.115000
H941	H94	0.749600	0.694400	0.551300
H951	H95	0.249600	0.305600	0.448700
H961	H96	0.382900	0.640700	0.134500
H971	H97	0.349000	0.484000	0.387000
H981	H98	0.561300	0.029200	0.602500
H991	H99	0.563500	0.981100	0.928700
H1001	H100	0.418900	0.983100	0.413300
H1011	H101	0.151000	0.613000	0.516000
H1021	H102	0.302400	0.577400	0.545600
H1031	H103	0.634700	0.351600	0.882000
H1041	H104	0.340000	0.346900	0.533300
H1051	H105	0.854800	0.102600	0.396200
H1061	H106	0.222300	0.679500	0.638900
H1071	H107	0.642100	0.083900	0.836700
H1081	H108	0.046600	0.146300	0.006900
H1091	H109	0.500400	0.805600	0.051300
H1101	H110	0.142100	0.916100	0.163300
H1111	H111	0.604800	0.896200	0.397400
H1121	H112	0.082100	0.459400	0.013700
H1131	H113	0.472300	0.861100	0.179500
H1141	H114	0.953400	0.006900	0.146300
H1151	H115	0.318600	0.905900	0.047000
H1161	H116	0.931900	0.468400	0.707900
H1171	H117	0.052400	0.045600	0.922600
H1181	H118	0.901000	0.016000	0.887000
H1191	H119	0.668900	0.086700	0.483100
H1201	H120	0.888600	0.364600	0.082700
H1211	H121	0.158600	0.385000	0.384800
H1221	H122	0.667900	0.959400	0.486300
H1231	H123	0.160000	0.466700	0.653100
H1241	H124	0.431400	0.405900	0.453000
H1251	H125	0.552400	0.954400	0.077400
H1261	H126	0.849000	0.516000	0.613000
H1271	H127	0.250400	0.551300	0.694400
H1281	H128	0.802400	0.422600	0.454400
H1291	H129	0.186500	0.481100	0.571300
H1301	H130	0.840000	0.653100	0.466700
H1311	H131	0.686500	0.518900	0.428700
H1321	H132	0.917900	0.013700	0.459400
H1331	H133	0.181900	0.792100	0.968400
H1341	H134	0.132900	0.634500	0.859300
H1351	H135	0.431900	0.531600	0.292100
H1361	H136	0.910000	0.153100	0.033300
H1371	H137	0.831100	0.516900	0.913300
H1381	H138	0.936500	0.071300	0.018900
H1391	H139	0.410000	0.846900	0.966700
H1401	H140	0.331100	0.483100	0.086700
H1411	H141	0.716300	0.910400	0.717400
H1421	H142	0.354800	0.897400	0.603800
H1431	H143	0.341400	0.615200	0.615000
H1441	H144	0.581100	0.413300	0.983100
H1451	H145	0.568600	0.453000	0.405900
H1461	H146	0.818600	0.094100	0.953000
H1471	H147	0.068100	0.707900	0.468400
H1481	H148	0.000400	0.194400	0.948700
H1491	H149	0.783700	0.282600	0.089600
H1501	H150	0.285000	0.785000	0.612700
H1511	H151	0.117100	0.865500	0.359300
H1521	H152	0.111400	0.082700	0.364600
H1531	H153	0.965000	0.715000	0.112700
H1541	H154	0.203400	0.353700	0.506900
H1551	H155	0.090000	0.033300	0.153100
H1561	H156	0.931400	0.594100	0.547000
H1571	H157	0.365300	0.882000	0.351600
H1581	H158	0.527700	0.179500	0.861100
H1591	H159	0.882900	0.359300	0.865500
H1601	H160	0.408600	0.115200	0.885000
C11	C1	0.037300	0.062400	0.723600
C21	C2	0.477900	0.910100	0.157600
C31	C3	0.426700	0.332600	0.981000
C41	C4	0.574200	0.060300	0.327200
C51	C5	0.630900	0.065900	0.885900
C61	C6	0.611300	0.409800	0.157300
C71	C7	0.522100	0.157600	0.910100
C81	C8	0.985900	0.772000	0.520600
C91	C9	0.354500	0.444800	0.060200
C101	C10	0.022100	0.842400	0.089900
C111	C11	0.947800	0.798300	0.456100
C121	C12	0.507100	0.855300	0.032700
C131	C13	0.893800	0.052700	0.484300
C141	C14	0.130900	0.934100	0.114100
C151	C15	0.450000	0.484700	0.279700
C161	C16	0.854500	0.555200	0.939800
C171	C17	0.647200	0.370200	0.432900
C181	C18	0.295200	0.705900	0.091500
C191	C19	0.462700	0.276400	0.937600
C201	C20	0.926700	0.667400	0.019000
C211	C21	0.712700	0.562400	0.776400
C221	C22	0.787300	0.223600	0.437600
C231	C23	0.397200	0.932900	0.129800
C241	C24	0.212700	0.437600	0.223600
C251	C25	0.855900	0.866100	0.527100
C261	C26	0.514100	0.479400	0.228000
C271	C27	0.704800	0.091500	0.705900
C281	C28	0.105900	0.972900	0.366100
C291	C29	0.492900	0.032700	0.855300
C301	C30	0.264100	0.728000	0.020600
C311	C31	0.395500	0.944800	0.439800
C321	C32	0.175800	0.560300	0.172800
C331	C33	0.204800	0.908500	0.294100
C341	C34	0.869100	0.114100	0.934100
C351	C35	0.958900	0.903700	0.094400
C361	C36	0.115300	0.460000	0.845900
C371	C37	0.757100	0.467300	0.355300
C381	C38	0.888000	0.616000	0.902600
C391	C39	0.394100	0.633900	0.027100
C401	C40	0.992900	0.967300	0.144700
C411	C41	0.820300	0.619200	0.503800
C421	C42	0.619100	0.434100	0.385900
C431	C43	0.727900	0.342400	0.410100
C441	C44	0.642500	0.552800	0.893800
C451	C45	0.300000	0.984700	0.220300
C461	C46	0.824200	0.172800	0.560300
C471	C47	0.380900	0.385900	0.434100
C481	C48	0.208900	0.405600	0.403700
C491	C49	0.357500	0.893800	0.552800
C501	C50	0.545200	0.408500	0.205900
C511	C51	0.356200	0.447300	0.984300
C521	C52	0.977900	0.089900	0.842400
C531	C53	0.142500	0.447200	0.106200
C541	C54	0.541100	0.905600	0.096300
C551	C55	0.134700	0.040000	0.345900
C561	C56	0.107500	0.052800	0.606200
C571	C57	0.605900	0.027100	0.633900
C581	C58	0.894100	0.366100	0.972900
C591	C59	0.795200	0.294100	0.908500
C601	C60	0.458900	0.096300	0.905600
C611	C61	0.287300	0.776400	0.562400
C621	C62	0.106200	0.484300	0.052700
C631	C63	0.675800	0.439700	0.827200
C641	C64	0.700000	0.220300	0.984700
C651	C65	0.014100	0.520600	0.772000
C661	C66	0.454800	0.205900	0.408500
C671	C67	0.291100	0.596300	0.594400
C681	C68	0.388700	0.157300	0.409800
C691	C69	0.929700	0.119200	0.996200
C701	C70	0.429700	0.880800	0.003800
C711	C71	0.895500	0.055200	0.560200
C721	C72	0.112000	0.902600	0.616000
C731	C73	0.200000	0.779700	0.015300
C741	C74	0.176700	0.481000	0.167400
C751	C75	0.800000	0.015300	0.779700
C761	C76	0.550000	0.279700	0.484700
C771	C77	0.880900	0.614100	0.565900
C781	C78	0.634700	0.960000	0.654100
C791	C79	0.570300	0.003800	0.880800
C801	C80	0.791100	0.403700	0.405600
C811	C81	0.862000	0.116000	0.597400
C821	C82	0.074200	0.939700	0.672800
C831	C83	0.735900	0.020600	0.728000
C841	C84	0.147200	0.629800	0.567100
C851	C85	0.227900	0.657600	0.589900
C861	C86	0.073300	0.019000	0.667400
C871	C87	0.302200	0.701700	0.956100
C881	C88	0.393800	0.947300	0.515700
C891	C89	0.861300	0.342700	0.909800
C901	C90	0.865300	0.345900	0.040000
C911	C91	0.388000	0.384000	0.097400
C921	C92	0.697800	0.956100	0.701700
C931	C93	0.644100	0.472900	0.133900
C941	C94	0.447800	0.201700	0.543900
C951	C95	0.138000	0.597400	0.116000
C961	C96	0.742900	0.644700	0.532700
C971	C97	0.324200	0.827200	0.439700
C981	C98	0.552200	0.543900	0.201700
C991	C99	0.369100	0.885900	0.065900
C1001	C100	0.104500	0.560200	0.055200
C1011	C101	0.197800	0.043900	0.298300
C1021	C102	0.823300	0.167400	0.481000
C1031	C103	0.852800	0.567100	0.629800
C1041	C104	0.320300	0.380800	0.496200
C1051	C105	0.392500	0.393800	0.947200
C1061	C106	0.111300	0.590200	0.842700
C1071	C107	0.144100	0.527100	0.866100
C1081	C108	0.612000	0.097400	0.384000
C1091	C109	0.950000	0.515300	0.720300
C1101	C110	0.425800	0.327200	0.060300
C1111	C111	0.638000	0.402600	0.884000
C1121	C112	0.537300	0.937600	0.276400
C1131	C113	0.679700	0.496200	0.380800
C1141	C114	0.643800	0.984300	0.447300
C1151	C115	0.615300	0.540000	0.154100
C1161	C116	0.119100	0.565900	0.614100
C1171	C117	0.045200	0.591500	0.794100
C1181	C118	0.179700	0.503800	0.619200
C1191	C119	0.856200	0.552700	0.015700
C1201	C120	0.676700	0.519000	0.832600
C1211	C121	0.638700	0.090200	0.657300
C1221	C122	0.041100	0.094400	0.903700
C1231	C123	0.954800	0.794100	0.591500
C1241	C124	0.242900	0.355300	0.467300
C1251	C125	0.362000	0.884000	0.402600
C1261	C126	0.606200	0.515700	0.947300
C1271	C127	0.604500	0.439800	0.944800
C1281	C128	0.272100	0.410100	0.342400
C1291	C129	0.962700	0.723600	0.062400
C1301	C130	0.257100	0.532700	0.644700
C1311	C131	0.007100	0.144700	0.967300
C1321	C132	0.772100	0.589900	0.657600
C1331	C133	0.857500	0.106200	0.447200
C1341	C134	0.897200	0.067100	0.870200
C1351	C135	0.323300	0.832600	0.519000
C1361	C136	0.365300	0.654100	0.960000
C1371	C137	0.235900	0.979400	0.272000
C1381	C138	0.352800	0.432900	0.370200
C1391	C139	0.102800	0.870200	0.067100
C1401	C140	0.573300	0.981000	0.332600
C1411	C141	0.384700	0.154100	0.540000
C1421	C142	0.070300	0.996200	0.119200
C1431	C143	0.602800	0.129800	0.932900
C1441	C144	0.138700	0.909800	0.342700
C1451	C145	0.645500	0.060200	0.444800
C1461	C146	0.888700	0.842700	0.590200
C1471	C147	0.708900	0.594400	0.596300
C1481	C148	0.355900	0.133900	0.472900
C1491	C149	0.884700	0.845900	0.460000
C1501	C150	0.607500	0.947200	0.393800
C1511	C151	0.764100	0.272000	0.979400
C1521	C152	0.052200	0.456100	0.798300
C1531	C153	0.892500	0.606200	0.052800
C1541	C154	0.925800	0.672800	0.939700
C1551	C155	0.145500	0.939800	0.555200
C1561	C156	0.143800	0.015700	0.552700
C1571	C157	0.802200	0.298300	0.043900
C1581	C158	0.485900	0.228000	0.479400
C1591	C159	0.361300	0.657300	0.090200
C1601	C160	0.050000	0.720300	0.515300
N11	N1	0.664500	0.188800	0.929200
N21	N2	0.914500	0.570800	0.688800
N31	N3	0.414500	0.429200	0.311200
N41	N4	0.564800	0.265800	0.722400
N51	N5	0.685200	0.234200	0.222400
N61	N6	0.164500	0.811200	0.070800
N71	N7	0.064800	0.734200	0.277600
N81	N8	0.742600	0.539800	0.714400
N91	N9	0.814800	0.777600	0.765800
N101	N10	0.435200	0.722400	0.265800
N111	N11	0.242600	0.460200	0.285600
N121	N12	0.085500	0.688800	0.570800
N131	N13	0.492600	0.214400	0.960200
N141	N14	0.585500	0.311200	0.429200
N151	N15	0.992600	0.785600	0.039800
N161	N16	0.185200	0.765800	0.777600
N171	N17	0.757400	0.285600	0.460200
N181	N18	0.007400	0.039800	0.785600
N191	N19	0.335500	0.929200	0.188800
N201	N20	0.935200	0.277600	0.734200
N211	N21	0.257400	0.714400	0.539800
N221	N22	0.314800	0.222400	0.234200
N231	N23	0.507400	0.960200	0.214400
N241	N24	0.835500	0.070800	0.811200
Cl11	Cl1	0.500000	0.103380	0.103380
Cl21	Cl2	0.250000	0.603380	0.396620
Cl31	Cl3	0.000000	0.896620	0.896620
Cl41	Cl4	0.750000	0.396620	0.603380
O11	O1	0.644000	0.239700	0.279000
O21	O2	0.264700	0.732100	0.150940
O31	O3	0.290600	0.771100	0.406100
O41	O4	0.991300	0.762600	0.275700
O51	O5	0.601300	0.279300	0.662500
O61	O6	0.758700	0.262600	0.224300
O71	O7	0.709400	0.406100	0.771100
O81	O8	0.040600	0.906100	0.728900
O91	O9	0.398700	0.662500	0.279300
O101	O10	0.985300	0.767900	0.650940
O111	O11	0.606000	0.260300	0.779000
O121	O12	0.241300	0.224300	0.262600
O131	O13	0.959400	0.728900	0.906100
O141	O14	0.459400	0.271100	0.093900
O151	O15	0.148700	0.779300	0.837500
O161	O16	0.101300	0.720700	0.337500
O171	O17	0.514700	0.349060	0.232100
O181	O18	0.735300	0.150940	0.732100
O191	O19	0.851300	0.837500	0.779300
O201	O20	0.894000	0.221000	0.739700
O211	O21	0.008700	0.275700	0.762600
O221	O22	0.508700	0.724300	0.237400
O231	O23	0.741300	0.775700	0.737400
O241	O24	0.898700	0.337500	0.720700
O251	O25	0.648700	0.220700	0.162500
O261	O26	0.014700	0.650940	0.767900
O271	O27	0.258700	0.737400	0.775700
O281	O28	0.491300	0.237400	0.724300
O291	O29	0.394000	0.779000	0.260300
O301	O30	0.351300	0.162500	0.220700
O311	O31	0.106000	0.739700	0.221000
O321	O32	0.540600	0.093900	0.271100
O331	O33	0.356000	0.279000	0.239700
O341	O34	0.235300	0.849060	0.267900
O351	O35	0.764700	0.267900	0.849060
O361	O36	0.856000	0.721000	0.760300
O371	O37	0.209400	0.593900	0.228900
O381	O38	0.485300	0.232100	0.349060
O391	O39	0.144000	0.760300	0.721000
O401	O40	0.790600	0.228900	0.593900
