data_FOXQIT_charged_PM
_symmetry_space_group_name_H-M	'P1'
_cell_length_a	9.333000
_cell_length_b	12.263100
_cell_length_c	20.479600
_cell_angle_alpha	75.986600
_cell_angle_beta	76.828800
_cell_angle_gamma	67.633400
_symmetry_Int_Tables_number 1

loop_
_symmetry_equiv_pos_as_xyz
'x,y,z'

loop_
_atom_site_label
_atom_site_type_symbol
_atom_site_fract_x
_atom_site_fract_y
_atom_site_fract_z
Cd11	Cd1	0.000000	0.000000	0.000000
Cd21	Cd2	0.000000	0.500000	0.500000
H11	H1	0.565800	0.820500	0.836100
H21	H2	0.881500	0.502900	0.799900
H31	H3	0.918700	0.654800	0.944200
H41	H4	0.664600	0.930400	0.904400
H51	H5	0.750100	0.844800	0.964800
H61	H6	0.568200	0.746900	0.068500
H71	H7	0.285500	0.809500	0.101900
H81	H8	0.367300	0.989000	0.921200
H91	H9	0.534600	0.738200	0.750000
H101	H10	0.591900	0.598000	0.763000
H111	H11	0.785800	0.818600	0.670200
H121	H12	0.949900	0.749600	0.566200
H131	H13	0.750200	0.513300	0.658300
H141	H14	0.093800	0.465100	0.933500
H151	H15	0.159300	0.478800	0.855600
H161	H16	0.221200	0.295000	0.799400
H171	H17	0.171500	0.107800	0.836600
H181	H18	0.943600	0.302900	0.976300
H191	H19	0.222400	0.679500	0.663900
H201	H20	0.184300	0.997100	0.700100
H211	H21	0.517700	0.845200	0.555800
H221	H22	0.499400	0.569600	0.595600
H231	H23	0.559700	0.655200	0.535200
H241	H24	0.383600	0.753100	0.431500
H251	H25	0.196900	0.690500	0.398100
H261	H26	0.277500	0.511000	0.578800
H271	H27	0.022800	0.761800	0.750000
H281	H28	0.952900	0.902000	0.737000
H291	H29	0.274600	0.681400	0.829800
H301	H30	0.265700	0.750400	0.933800
H311	H31	0.921800	0.986700	0.841700
H321	H32	0.492400	0.034900	0.566500
H331	H33	0.493700	0.021200	0.644400
H341	H34	0.315600	0.205000	0.700600
H351	H35	0.115900	0.392200	0.663400
H361	H36	0.222800	0.197100	0.523700
H371	H37	0.434200	0.179500	0.163900
H381	H38	0.118500	0.497100	0.200100
H391	H39	0.081300	0.345200	0.055800
H401	H40	0.335400	0.069600	0.095600
H411	H41	0.249900	0.155200	0.035200
H421	H42	0.431800	0.253100	0.931500
H431	H43	0.714500	0.190500	0.898100
H441	H44	0.632700	0.011000	0.078800
H451	H45	0.465400	0.261800	0.250000
H461	H46	0.408100	0.402000	0.237000
H471	H47	0.214200	0.181400	0.329800
H481	H48	0.050100	0.250400	0.433800
H491	H49	0.249800	0.486700	0.341700
H501	H50	0.906200	0.534900	0.066500
H511	H51	0.840700	0.521200	0.144400
H521	H52	0.778800	0.705000	0.200600
H531	H53	0.828500	0.892200	0.163400
H541	H54	0.056400	0.697100	0.023700
H551	H55	0.777600	0.320500	0.336100
H561	H56	0.815700	0.002900	0.299900
H571	H57	0.482300	0.154800	0.444200
H581	H58	0.500600	0.430400	0.404400
H591	H59	0.440300	0.344800	0.464800
H601	H60	0.616400	0.246900	0.568500
H611	H61	0.803100	0.309500	0.601900
H621	H62	0.722500	0.489000	0.421200
H631	H63	0.977200	0.238200	0.250000
H641	H64	0.047100	0.098000	0.263000
H651	H65	0.725400	0.318600	0.170200
H661	H66	0.734300	0.249600	0.066200
H671	H67	0.078200	0.013300	0.158300
H681	H68	0.507600	0.965100	0.433500
H691	H69	0.506300	0.978800	0.355600
H701	H70	0.684400	0.795000	0.299400
H711	H71	0.884100	0.607800	0.336600
H721	H72	0.777200	0.802900	0.476300
C11	C1	0.733000	0.753800	0.897000
C21	C2	0.655300	0.755700	0.845900
C31	C3	0.710100	0.661800	0.809400
C41	C4	0.844100	0.565800	0.824200
C51	C5	0.922850	0.562300	0.874600
C61	C6	0.865800	0.656900	0.910300
C71	C7	0.674000	0.856100	0.936300
C81	C8	0.493500	0.803200	0.042800
C91	C9	0.337600	0.838100	0.060900
C101	C10	0.381750	0.936300	0.962200
C111	C11	0.626500	0.666200	0.752800
C121	C12	0.798700	0.749100	0.655300
C131	C13	0.888800	0.710300	0.597700
C141	C14	0.780210	0.580580	0.647800
C151	C15	0.074500	0.463400	0.889200
C161	C16	0.159100	0.274100	0.839300
C171	C17	0.131400	0.171100	0.860500
C181	C18	0.006500	0.276700	0.936900
C191	C19	0.383800	0.746200	0.603000
C201	C20	0.256900	0.744300	0.654100
C211	C21	0.181300	0.838200	0.690600
C221	C22	0.234100	0.934200	0.675800
C231	C23	0.359750	0.937700	0.625400
C241	C24	0.433000	0.843100	0.589700
C251	C25	0.466400	0.643900	0.563700
C261	C26	0.339500	0.696800	0.457200
C271	C27	0.236600	0.661900	0.439100
C281	C28	0.280250	0.563700	0.537800
C291	C29	0.045500	0.833800	0.747200
C301	C30	0.203100	0.750900	0.844700
C311	C31	0.196800	0.789700	0.902300
C321	C32	0.008590	0.919420	0.852200
C331	C33	0.427100	0.036600	0.610800
C341	C34	0.272500	0.225900	0.660700
C351	C35	0.163000	0.328900	0.639500
C361	C36	0.220100	0.223300	0.563100
C371	C37	0.267000	0.246200	0.103000
C381	C38	0.344700	0.244300	0.154100
C391	C39	0.289900	0.338200	0.190600
C401	C40	0.155900	0.434200	0.175800
C411	C41	0.077150	0.437700	0.125400
C421	C42	0.134200	0.343100	0.089700
C431	C43	0.326000	0.143900	0.063700
C441	C44	0.506500	0.196800	0.957200
C451	C45	0.662400	0.161900	0.939100
C461	C46	0.618250	0.063700	0.037800
C471	C47	0.373500	0.333800	0.247200
C481	C48	0.201300	0.250900	0.344700
C491	C49	0.111200	0.289700	0.402300
C501	C50	0.219790	0.419420	0.352200
C511	C51	0.925500	0.536600	0.110800
C521	C52	0.840900	0.725900	0.160700
C531	C53	0.868600	0.828900	0.139500
C541	C54	0.993500	0.723300	0.063100
C551	C55	0.616200	0.253800	0.397000
C561	C56	0.743100	0.255700	0.345900
C571	C57	0.818700	0.161800	0.309400
C581	C58	0.765900	0.065800	0.324200
C591	C59	0.640250	0.062300	0.374600
C601	C60	0.567000	0.156900	0.410300
C611	C61	0.533600	0.356100	0.436300
C621	C62	0.660500	0.303200	0.542800
C631	C63	0.763400	0.338100	0.560900
C641	C64	0.719750	0.436300	0.462200
C651	C65	0.954500	0.166200	0.252800
C661	C66	0.796900	0.249100	0.155300
C671	C67	0.803200	0.210300	0.097700
C681	C68	0.991410	0.080580	0.147800
C691	C69	0.572900	0.963400	0.389200
C701	C70	0.727500	0.774100	0.339300
C711	C71	0.837000	0.671100	0.360500
C721	C72	0.779900	0.776700	0.436900
N11	N1	0.521730	0.866440	0.979100
N21	N2	0.266840	0.922420	0.009900
N31	N3	0.730870	0.665060	0.687000
N41	N4	0.876310	0.603980	0.592800
N51	N5	0.076970	0.342540	0.888720
N61	N6	0.035750	0.171270	0.922430
N71	N7	0.367270	0.633560	0.520900
N81	N8	0.199160	0.577580	0.490100
N91	N9	0.082930	0.834940	0.813000
N101	N10	0.073090	0.896020	0.907200
N111	N11	0.308230	0.157460	0.611280
N121	N12	0.129450	0.328730	0.577570
N131	N13	0.478270	0.133560	0.020900
N141	N14	0.733160	0.077580	0.990100
N151	N15	0.269130	0.334940	0.313000
N161	N16	0.123690	0.396020	0.407200
N171	N17	0.923030	0.657460	0.111280
N181	N18	0.964250	0.828730	0.077570
N191	N19	0.632730	0.366440	0.479100
N201	N20	0.800840	0.422420	0.509900
N211	N21	0.917070	0.165060	0.187000
N221	N22	0.926910	0.103980	0.092800
N231	N23	0.691770	0.842540	0.388720
N241	N24	0.870550	0.671270	0.422430
N251	N25	0.606500	0.043700	0.756900
O11	O1	0.478000	0.025900	0.770300
O21	O2	0.680000	0.032800	0.702200
O31	O3	0.654600	0.066700	0.798900
N261	N26	0.407100	0.456300	0.743100
O41	O4	0.274200	0.474100	0.729700
O51	O5	0.415000	0.467200	0.797800
O61	O6	0.520200	0.433300	0.701100
N271	N27	0.393500	0.956300	0.243100
O71	O7	0.522000	0.974100	0.229700
O81	O8	0.320000	0.967200	0.297800
O91	O9	0.345400	0.933300	0.201100
N281	N28	0.592900	0.543700	0.256900
O101	O10	0.725800	0.525900	0.270300
O111	O11	0.585000	0.532800	0.202200
O121	O12	0.479800	0.566700	0.298900
