data_FUBDEM_freeONLY_PM
_symmetry_space_group_name_H-M	'P1'
_cell_length_a	13.884400
_cell_length_b	28.357900
_cell_length_c	44.812500
_cell_angle_alpha	90.000000
_cell_angle_beta	90.000000
_cell_angle_gamma	90.000000
_symmetry_Int_Tables_number 1

loop_
_symmetry_equiv_pos_as_xyz
'x,y,z'

loop_
_atom_site_label
_atom_site_type_symbol
_atom_site_fract_x
_atom_site_fract_y
_atom_site_fract_z
Zn11	Zn1	0.143320	0.050840	0.581760
Zn21	Zn2	0.123920	0.519780	0.584420
Zn31	Zn3	0.167590	0.240080	0.316510
Zn41	Zn4	0.856680	0.449160	0.081760
Zn51	Zn5	0.876080	0.980220	0.084420
Zn61	Zn6	0.832410	0.259920	0.816510
Zn71	Zn7	0.643320	0.949160	0.918240
Zn81	Zn8	0.623920	0.480220	0.915580
Zn91	Zn9	0.667590	0.759920	0.183490
Zn101	Zn10	0.356680	0.550840	0.418240
Zn111	Zn11	0.376080	0.019780	0.415580
Zn121	Zn12	0.332410	0.740080	0.683490
H11	H1	0.517900	0.037200	0.465500
H21	H2	0.670700	0.066100	0.472500
H31	H3	0.528000	0.073000	0.380900
H41	H4	0.682500	0.101900	0.385600
H51	H5	0.960200	0.220600	0.332500
H61	H6	0.870500	0.181700	0.368500
H71	H7	0.201900	0.181300	0.369600
H81	H8	0.119700	0.142200	0.407300
H91	H9	0.196700	0.077800	0.518400
H101	H10	0.121900	0.097200	0.474100
H111	H11	0.951300	0.033200	0.552600
H121	H12	0.870500	0.053100	0.509200
H131	H13	0.066600	0.087300	0.639800
H141	H14	0.039100	0.156700	0.664500
H151	H15	0.129300	0.155600	0.565400
H161	H16	0.099700	0.227600	0.588400
H171	H17	0.106000	0.416300	0.568400
H181	H18	0.086900	0.343700	0.590900
H191	H19	0.062700	0.481500	0.644500
H201	H20	0.040200	0.410500	0.668700
H211	H21	0.890300	0.337000	0.774600
H221	H22	0.951300	0.346900	0.727500
H231	H23	0.943000	0.200900	0.772500
H241	H24	0.002900	0.206700	0.723900
H251	H25	0.482100	0.462800	0.965500
H261	H26	0.329300	0.433900	0.972500
H271	H27	0.472000	0.427000	0.880900
H281	H28	0.317500	0.398100	0.885600
H291	H29	0.039800	0.279400	0.832500
H301	H30	0.129500	0.318300	0.868500
H311	H31	0.798100	0.318700	0.869600
H321	H32	0.880300	0.357800	0.907300
H331	H33	0.803300	0.422200	0.018400
H341	H34	0.878100	0.402800	0.974100
H351	H35	0.048700	0.466800	0.052600
H361	H36	0.129500	0.446900	0.009200
H371	H37	0.933400	0.412700	0.139800
H381	H38	0.960900	0.343300	0.164500
H391	H39	0.870700	0.344400	0.065400
H401	H40	0.900300	0.272400	0.088400
H411	H41	0.894000	0.083700	0.068400
H421	H42	0.913100	0.156300	0.090900
H431	H43	0.937300	0.018500	0.144500
H441	H44	0.959800	0.089500	0.168700
H451	H45	0.109700	0.163000	0.274600
H461	H46	0.048700	0.153100	0.227500
H471	H47	0.057000	0.299100	0.272500
H481	H48	0.997100	0.293300	0.223900
H491	H49	0.017900	0.962800	0.034500
H501	H50	0.170700	0.933900	0.027500
H511	H51	0.028000	0.927000	0.119100
H521	H52	0.182500	0.898100	0.114400
H531	H53	0.460200	0.779400	0.167500
H541	H54	0.370500	0.818300	0.131500
H551	H55	0.701900	0.818700	0.130400
H561	H56	0.619700	0.857800	0.092700
H571	H57	0.696700	0.922200	0.981600
H581	H58	0.621900	0.902800	0.025900
H591	H59	0.451300	0.966800	0.947400
H601	H60	0.370500	0.946900	0.990800
H611	H61	0.566600	0.912700	0.860200
H621	H62	0.539100	0.843300	0.835500
H631	H63	0.629300	0.844400	0.934600
H641	H64	0.599700	0.772400	0.911600
H651	H65	0.606000	0.583700	0.931600
H661	H66	0.586900	0.656300	0.909100
H671	H67	0.562700	0.518500	0.855500
H681	H68	0.540200	0.589500	0.831300
H691	H69	0.390300	0.663000	0.725400
H701	H70	0.451300	0.653100	0.772500
H711	H71	0.443000	0.799100	0.727500
H721	H72	0.502900	0.793300	0.776100
H731	H73	0.982100	0.537200	0.534500
H741	H74	0.829300	0.566100	0.527500
H751	H75	0.972000	0.573000	0.619100
H761	H76	0.817500	0.601900	0.614400
H771	H77	0.539800	0.720600	0.667500
H781	H78	0.629500	0.681700	0.631500
H791	H79	0.298100	0.681300	0.630400
H801	H80	0.380300	0.642200	0.592700
H811	H81	0.303300	0.577800	0.481600
H821	H82	0.378100	0.597200	0.525900
H831	H83	0.548700	0.533200	0.447400
H841	H84	0.629500	0.553100	0.490800
H851	H85	0.433400	0.587300	0.360200
H861	H86	0.460900	0.656700	0.335500
H871	H87	0.370700	0.655600	0.434600
H881	H88	0.400300	0.727600	0.411600
H891	H89	0.394000	0.916300	0.431600
H901	H90	0.413100	0.843700	0.409100
H911	H91	0.437300	0.981500	0.355500
H921	H92	0.459800	0.910500	0.331300
H931	H93	0.609700	0.837000	0.225400
H941	H94	0.548700	0.846900	0.272500
H951	H95	0.557000	0.700900	0.227500
H961	H96	0.497100	0.706700	0.276100
C11	C1	0.551700	0.050300	0.448980
C21	C2	0.642700	0.066900	0.453190
C31	C3	0.558600	0.071200	0.399810
C41	C4	0.650200	0.088200	0.402160
C51	C5	0.693800	0.084600	0.429850
C61	C6	0.796900	0.098800	0.433280
C71	C7	0.993000	0.204000	0.347820
C81	C8	0.938900	0.181100	0.369290
C91	C9	0.133400	0.181300	0.369430
C101	C10	0.085000	0.157900	0.391970
C111	C11	0.985600	0.157600	0.391810
C121	C12	0.932700	0.132000	0.415710
C131	C13	0.129100	0.073400	0.516690
C141	C14	0.085200	0.085200	0.490300
C151	C15	0.985900	0.047500	0.536700
C161	C16	0.937600	0.059200	0.510840
C171	C17	0.985700	0.079300	0.487580
C181	C18	0.934700	0.094600	0.460470
C191	C19	0.074400	0.116100	0.629320
C201	C20	0.057800	0.157400	0.644080
C211	C21	0.110600	0.155900	0.585820
C221	C22	0.093800	0.199100	0.599390
C231	C23	0.068000	0.200000	0.629620
C241	C24	0.053400	0.244500	0.645710
C251	C25	0.094400	0.415400	0.589260
C261	C26	0.082100	0.371700	0.602460
C271	C27	0.068900	0.453100	0.633500
C281	C28	0.055100	0.410900	0.648030
C291	C29	0.062900	0.369400	0.632650
C301	C30	0.049900	0.323500	0.647530
C311	C31	0.913200	0.310200	0.764060
C321	C32	0.948900	0.316400	0.736170
C331	C33	0.943200	0.230800	0.762890
C341	C34	0.979900	0.234000	0.733960
C351	C35	0.982200	0.276900	0.720430
C361	C36	0.014300	0.281000	0.688030
C371	C37	0.448300	0.449700	0.948980
C381	C38	0.357300	0.433100	0.953190
C391	C39	0.441400	0.428800	0.899810
C401	C40	0.349800	0.411800	0.902160
C411	C41	0.306200	0.415400	0.929850
C421	C42	0.203100	0.401200	0.933280
C431	C43	0.007000	0.296000	0.847820
C441	C44	0.061100	0.318900	0.869290
C451	C45	0.866600	0.318700	0.869430
C461	C46	0.915000	0.342100	0.891970
C471	C47	0.014400	0.342400	0.891810
C481	C48	0.067300	0.368000	0.915710
C491	C49	0.870900	0.426600	0.016690
C501	C50	0.914800	0.414800	0.990300
C511	C51	0.014100	0.452500	0.036700
C521	C52	0.062400	0.440800	0.010840
C531	C53	0.014300	0.420700	0.987580
C541	C54	0.065300	0.405400	0.960470
C551	C55	0.925600	0.383900	0.129320
C561	C56	0.942200	0.342600	0.144080
C571	C57	0.889400	0.344100	0.085820
C581	C58	0.906200	0.300900	0.099390
C591	C59	0.932000	0.300000	0.129620
C601	C60	0.946600	0.255500	0.145710
C611	C61	0.905600	0.084600	0.089260
C621	C62	0.917900	0.128300	0.102460
C631	C63	0.931100	0.046900	0.133500
C641	C64	0.944900	0.089100	0.148030
C651	C65	0.937100	0.130600	0.132650
C661	C66	0.950100	0.176500	0.147530
C671	C67	0.086800	0.189800	0.264060
C681	C68	0.051100	0.183600	0.236170
C691	C69	0.056800	0.269200	0.262890
C701	C70	0.020100	0.266000	0.233960
C711	C71	0.017800	0.223100	0.220430
C721	C72	0.985700	0.219000	0.188030
C731	C73	0.051700	0.949700	0.051020
C741	C74	0.142700	0.933100	0.046810
C751	C75	0.058600	0.928800	0.100190
C761	C76	0.150200	0.911800	0.097840
C771	C77	0.193800	0.915400	0.070150
C781	C78	0.296900	0.901200	0.066720
C791	C79	0.493000	0.796000	0.152180
C801	C80	0.438900	0.818900	0.130710
C811	C81	0.633400	0.818700	0.130570
C821	C82	0.585000	0.842100	0.108030
C831	C83	0.485600	0.842400	0.108190
C841	C84	0.432700	0.868000	0.084290
C851	C85	0.629100	0.926600	0.983310
C861	C86	0.585200	0.914800	0.009700
C871	C87	0.485900	0.952500	0.963300
C881	C88	0.437600	0.940800	0.989160
C891	C89	0.485700	0.920700	0.012420
C901	C90	0.434700	0.905400	0.039530
C911	C91	0.574400	0.883900	0.870680
C921	C92	0.557800	0.842600	0.855920
C931	C93	0.610600	0.844100	0.914180
C941	C94	0.593800	0.800900	0.900610
C951	C95	0.568000	0.800000	0.870380
C961	C96	0.553400	0.755500	0.854290
C971	C97	0.594400	0.584600	0.910740
C981	C98	0.582100	0.628300	0.897540
C991	C99	0.568900	0.546900	0.866500
C1001	C100	0.555100	0.589100	0.851970
C1011	C101	0.562900	0.630600	0.867350
C1021	C102	0.549900	0.676500	0.852470
C1031	C103	0.413200	0.689800	0.735940
C1041	C104	0.448900	0.683600	0.763830
C1051	C105	0.443200	0.769200	0.737110
C1061	C106	0.479900	0.766000	0.766040
C1071	C107	0.482200	0.723100	0.779570
C1081	C108	0.514300	0.719000	0.811970
C1091	C109	0.948300	0.550300	0.551020
C1101	C110	0.857300	0.566900	0.546810
C1111	C111	0.941400	0.571200	0.600190
C1121	C112	0.849800	0.588200	0.597840
C1131	C113	0.806200	0.584600	0.570150
C1141	C114	0.703100	0.598800	0.566720
C1151	C115	0.507000	0.704000	0.652180
C1161	C116	0.561100	0.681100	0.630710
C1171	C117	0.366600	0.681300	0.630570
C1181	C118	0.415000	0.657900	0.608030
C1191	C119	0.514400	0.657600	0.608190
C1201	C120	0.567300	0.632000	0.584290
C1211	C121	0.370900	0.573400	0.483310
C1221	C122	0.414800	0.585200	0.509700
C1231	C123	0.514100	0.547500	0.463300
C1241	C124	0.562400	0.559200	0.489160
C1251	C125	0.514300	0.579300	0.512420
C1261	C126	0.565300	0.594600	0.539530
C1271	C127	0.425600	0.616100	0.370680
C1281	C128	0.442200	0.657400	0.355920
C1291	C129	0.389400	0.655900	0.414180
C1301	C130	0.406200	0.699100	0.400610
C1311	C131	0.432000	0.700000	0.370380
C1321	C132	0.446600	0.744500	0.354290
C1331	C133	0.405600	0.915400	0.410740
C1341	C134	0.417900	0.871700	0.397540
C1351	C135	0.431100	0.953100	0.366500
C1361	C136	0.444900	0.910900	0.351970
C1371	C137	0.437100	0.869400	0.367350
C1381	C138	0.450100	0.823500	0.352470
C1391	C139	0.586800	0.810200	0.235940
C1401	C140	0.551100	0.816400	0.263830
C1411	C141	0.556800	0.730800	0.237110
C1421	C142	0.520100	0.734000	0.266040
C1431	C143	0.517800	0.776900	0.279570
C1441	C144	0.485700	0.781000	0.311970
I11	I1	0.055810	0.987190	0.611170
I21	I2	0.325310	0.056840	0.576540
I31	I3	0.194540	0.502670	0.532660
I41	I4	0.217120	0.566630	0.622990
I51	I5	0.169700	0.326750	0.331590
I61	I6	0.327770	0.197010	0.309440
I71	I7	0.944190	0.512810	0.111170
I81	I8	0.674690	0.443160	0.076540
I91	I9	0.805460	0.997330	0.032660
I101	I10	0.782880	0.933370	0.122990
I111	I11	0.830300	0.173250	0.831590
I121	I12	0.672230	0.302990	0.809440
I131	I13	0.555810	0.012810	0.888830
I141	I14	0.825310	0.943160	0.923460
I151	I15	0.694540	0.497330	0.967340
I161	I16	0.717120	0.433370	0.877010
I171	I17	0.669700	0.673250	0.168410
I181	I18	0.827770	0.802990	0.190560
I191	I19	0.444190	0.487190	0.388830
I201	I20	0.174690	0.556840	0.423460
I211	I21	0.305460	0.002670	0.467340
I221	I22	0.282880	0.066630	0.377010
I231	I23	0.330300	0.826750	0.668410
I241	I24	0.172230	0.697010	0.690560
N11	N1	0.508600	0.052000	0.422440
N21	N2	0.087700	0.203800	0.347560
N31	N3	0.080800	0.055900	0.540160
N41	N4	0.838600	0.124300	0.411480
N51	N5	0.983900	0.118800	0.439800
N61	N6	0.841300	0.083500	0.458240
N71	N7	0.101700	0.114600	0.600100
N81	N8	0.091100	0.455700	0.603670
N91	N9	0.908600	0.267900	0.777620
N101	N10	0.065800	0.285000	0.631140
N111	N11	0.024700	0.324100	0.676730
N121	N12	0.027500	0.240000	0.674370
N131	N13	0.491400	0.448000	0.922440
N141	N14	0.912300	0.296200	0.847560
N151	N15	0.919200	0.444100	0.040160
N161	N16	0.161400	0.375700	0.911480
N171	N17	0.016100	0.381200	0.939800
N181	N18	0.158700	0.416500	0.958240
N191	N19	0.898300	0.385400	0.100100
N201	N20	0.908900	0.044300	0.103670
N211	N21	0.091400	0.232100	0.277620
N221	N22	0.934200	0.215000	0.131140
N231	N23	0.975300	0.175900	0.176730
N241	N24	0.972500	0.260000	0.174370
N251	N25	0.008600	0.948000	0.077560
N261	N26	0.587700	0.796200	0.152440
N271	N27	0.580800	0.944100	0.959840
N281	N28	0.338600	0.875700	0.088520
N291	N29	0.483900	0.881200	0.060200
N301	N30	0.341300	0.916500	0.041760
N311	N31	0.601700	0.885400	0.899900
N321	N32	0.591100	0.544300	0.896330
N331	N33	0.408600	0.732100	0.722380
N341	N34	0.565800	0.715000	0.868860
N351	N35	0.524700	0.675900	0.823270
N361	N36	0.527500	0.760000	0.825630
N371	N37	0.991400	0.552000	0.577560
N381	N38	0.412300	0.703800	0.652440
N391	N39	0.419200	0.555900	0.459840
N401	N40	0.661400	0.624300	0.588520
N411	N41	0.516100	0.618800	0.560200
N421	N42	0.658700	0.583500	0.541760
N431	N43	0.398300	0.614600	0.399900
N441	N44	0.408900	0.955700	0.396330
N451	N45	0.591400	0.767900	0.222380
N461	N46	0.434200	0.785000	0.368860
N471	N47	0.475300	0.824100	0.323270
N481	N48	0.472500	0.740000	0.325630
Zn131	Zn13	0.856680	0.949160	0.418240
Zn141	Zn14	0.876080	0.480220	0.415580
Zn151	Zn15	0.832410	0.759920	0.683490
Zn161	Zn16	0.143320	0.550840	0.918240
Zn171	Zn17	0.123920	0.019780	0.915580
Zn181	Zn18	0.167590	0.740080	0.183490
Zn191	Zn19	0.356680	0.050840	0.081760
Zn201	Zn20	0.376080	0.519780	0.084420
Zn211	Zn21	0.332410	0.240080	0.816510
Zn221	Zn22	0.643320	0.449160	0.581760
Zn231	Zn23	0.623920	0.980220	0.584420
Zn241	Zn24	0.667590	0.259920	0.316510
H971	H97	0.482100	0.962800	0.534500
H981	H98	0.329300	0.933900	0.527500
H991	H99	0.472000	0.927000	0.619100
H1001	H100	0.317500	0.898100	0.614400
H1011	H101	0.039800	0.779400	0.667500
H1021	H102	0.129500	0.818300	0.631500
H1031	H103	0.798100	0.818700	0.630400
H1041	H104	0.880300	0.857800	0.592700
H1051	H105	0.803300	0.922200	0.481600
H1061	H106	0.878100	0.902800	0.525900
H1071	H107	0.048700	0.966800	0.447400
H1081	H108	0.129500	0.946900	0.490800
H1091	H109	0.933400	0.912700	0.360200
H1101	H110	0.960900	0.843300	0.335500
H1111	H111	0.870700	0.844400	0.434600
H1121	H112	0.900300	0.772400	0.411600
H1131	H113	0.894000	0.583700	0.431600
H1141	H114	0.913100	0.656300	0.409100
H1151	H115	0.937300	0.518500	0.355500
H1161	H116	0.959800	0.589500	0.331300
H1171	H117	0.109700	0.663000	0.225400
H1181	H118	0.048700	0.653100	0.272500
H1191	H119	0.057000	0.799100	0.227500
H1201	H120	0.997100	0.793300	0.276100
H1211	H121	0.517900	0.537200	0.034500
H1221	H122	0.670700	0.566100	0.027500
H1231	H123	0.528000	0.573000	0.119100
H1241	H124	0.682500	0.601900	0.114400
H1251	H125	0.960200	0.720600	0.167500
H1261	H126	0.870500	0.681700	0.131500
H1271	H127	0.201900	0.681300	0.130400
H1281	H128	0.119700	0.642200	0.092700
H1291	H129	0.196700	0.577800	0.981600
H1301	H130	0.121900	0.597200	0.025900
H1311	H131	0.951300	0.533200	0.947400
H1321	H132	0.870500	0.553100	0.990800
H1331	H133	0.066600	0.587300	0.860200
H1341	H134	0.039100	0.656700	0.835500
H1351	H135	0.129300	0.655600	0.934600
H1361	H136	0.099700	0.727600	0.911600
H1371	H137	0.106000	0.916300	0.931600
H1381	H138	0.086900	0.843700	0.909100
H1391	H139	0.062700	0.981500	0.855500
H1401	H140	0.040200	0.910500	0.831300
H1411	H141	0.890300	0.837000	0.725400
H1421	H142	0.951300	0.846900	0.772500
H1431	H143	0.943000	0.700900	0.727500
H1441	H144	0.002900	0.706700	0.776100
H1451	H145	0.982100	0.037200	0.965500
H1461	H146	0.829300	0.066100	0.972500
H1471	H147	0.972000	0.073000	0.880900
H1481	H148	0.817500	0.101900	0.885600
H1491	H149	0.539800	0.220600	0.832500
H1501	H150	0.629500	0.181700	0.868500
H1511	H151	0.298100	0.181300	0.869600
H1521	H152	0.380300	0.142200	0.907300
H1531	H153	0.303300	0.077800	0.018400
H1541	H154	0.378100	0.097200	0.974100
H1551	H155	0.548700	0.033200	0.052600
H1561	H156	0.629500	0.053100	0.009200
H1571	H157	0.433400	0.087300	0.139800
H1581	H158	0.460900	0.156700	0.164500
H1591	H159	0.370700	0.155600	0.065400
H1601	H160	0.400300	0.227600	0.088400
H1611	H161	0.394000	0.416300	0.068400
H1621	H162	0.413100	0.343700	0.090900
H1631	H163	0.437300	0.481500	0.144500
H1641	H164	0.459800	0.410500	0.168700
H1651	H165	0.609700	0.337000	0.274600
H1661	H166	0.548700	0.346900	0.227500
H1671	H167	0.557000	0.200900	0.272500
H1681	H168	0.497100	0.206700	0.223900
H1691	H169	0.017900	0.462800	0.465500
H1701	H170	0.170700	0.433900	0.472500
H1711	H171	0.028000	0.427000	0.380900
H1721	H172	0.182500	0.398100	0.385600
H1731	H173	0.460200	0.279400	0.332500
H1741	H174	0.370500	0.318300	0.368500
H1751	H175	0.701900	0.318700	0.369600
H1761	H176	0.619700	0.357800	0.407300
H1771	H177	0.696700	0.422200	0.518400
H1781	H178	0.621900	0.402800	0.474100
H1791	H179	0.451300	0.466800	0.552600
H1801	H180	0.370500	0.446900	0.509200
H1811	H181	0.566600	0.412700	0.639800
H1821	H182	0.539100	0.343300	0.664500
H1831	H183	0.629300	0.344400	0.565400
H1841	H184	0.599700	0.272400	0.588400
H1851	H185	0.606000	0.083700	0.568400
H1861	H186	0.586900	0.156300	0.590900
H1871	H187	0.562700	0.018500	0.644500
H1881	H188	0.540200	0.089500	0.668700
H1891	H189	0.390300	0.163000	0.774600
H1901	H190	0.451300	0.153100	0.727500
H1911	H191	0.443000	0.299100	0.772500
H1921	H192	0.502900	0.293300	0.723900
C1451	C145	0.448300	0.949700	0.551020
C1461	C146	0.357300	0.933100	0.546810
C1471	C147	0.441400	0.928800	0.600190
C1481	C148	0.349800	0.911800	0.597840
C1491	C149	0.306200	0.915400	0.570150
C1501	C150	0.203100	0.901200	0.566720
C1511	C151	0.007000	0.796000	0.652180
C1521	C152	0.061100	0.818900	0.630710
C1531	C153	0.866600	0.818700	0.630570
C1541	C154	0.915000	0.842100	0.608030
C1551	C155	0.014400	0.842400	0.608190
C1561	C156	0.067300	0.868000	0.584290
C1571	C157	0.870900	0.926600	0.483310
C1581	C158	0.914800	0.914800	0.509700
C1591	C159	0.014100	0.952500	0.463300
C1601	C160	0.062400	0.940800	0.489160
C1611	C161	0.014300	0.920700	0.512420
C1621	C162	0.065300	0.905400	0.539530
C1631	C163	0.925600	0.883900	0.370680
C1641	C164	0.942200	0.842600	0.355920
C1651	C165	0.889400	0.844100	0.414180
C1661	C166	0.906200	0.800900	0.400610
C1671	C167	0.932000	0.800000	0.370380
C1681	C168	0.946600	0.755500	0.354290
C1691	C169	0.905600	0.584600	0.410740
C1701	C170	0.917900	0.628300	0.397540
C1711	C171	0.931100	0.546900	0.366500
C1721	C172	0.944900	0.589100	0.351970
C1731	C173	0.937100	0.630600	0.367350
C1741	C174	0.950100	0.676500	0.352470
C1751	C175	0.086800	0.689800	0.235940
C1761	C176	0.051100	0.683600	0.263830
C1771	C177	0.056800	0.769200	0.237110
C1781	C178	0.020100	0.766000	0.266040
C1791	C179	0.017800	0.723100	0.279570
C1801	C180	0.985700	0.719000	0.311970
C1811	C181	0.551700	0.550300	0.051020
C1821	C182	0.642700	0.566900	0.046810
C1831	C183	0.558600	0.571200	0.100190
C1841	C184	0.650200	0.588200	0.097840
C1851	C185	0.693800	0.584600	0.070150
C1861	C186	0.796900	0.598800	0.066720
C1871	C187	0.993000	0.704000	0.152180
C1881	C188	0.938900	0.681100	0.130710
C1891	C189	0.133400	0.681300	0.130570
C1901	C190	0.085000	0.657900	0.108030
C1911	C191	0.985600	0.657600	0.108190
C1921	C192	0.932700	0.632000	0.084290
C1931	C193	0.129100	0.573400	0.983310
C1941	C194	0.085200	0.585200	0.009700
C1951	C195	0.985900	0.547500	0.963300
C1961	C196	0.937600	0.559200	0.989160
C1971	C197	0.985700	0.579300	0.012420
C1981	C198	0.934700	0.594600	0.039530
C1991	C199	0.074400	0.616100	0.870680
C2001	C200	0.057800	0.657400	0.855920
C2011	C201	0.110600	0.655900	0.914180
C2021	C202	0.093800	0.699100	0.900610
C2031	C203	0.068000	0.700000	0.870380
C2041	C204	0.053400	0.744500	0.854290
C2051	C205	0.094400	0.915400	0.910740
C2061	C206	0.082100	0.871700	0.897540
C2071	C207	0.068900	0.953100	0.866500
C2081	C208	0.055100	0.910900	0.851970
C2091	C209	0.062900	0.869400	0.867350
C2101	C210	0.049900	0.823500	0.852470
C2111	C211	0.913200	0.810200	0.735940
C2121	C212	0.948900	0.816400	0.763830
C2131	C213	0.943200	0.730800	0.737110
C2141	C214	0.979900	0.734000	0.766040
C2151	C215	0.982200	0.776900	0.779570
C2161	C216	0.014300	0.781000	0.811970
C2171	C217	0.948300	0.050300	0.948980
C2181	C218	0.857300	0.066900	0.953190
C2191	C219	0.941400	0.071200	0.899810
C2201	C220	0.849800	0.088200	0.902160
C2211	C221	0.806200	0.084600	0.929850
C2221	C222	0.703100	0.098800	0.933280
C2231	C223	0.507000	0.204000	0.847820
C2241	C224	0.561100	0.181100	0.869290
C2251	C225	0.366600	0.181300	0.869430
C2261	C226	0.415000	0.157900	0.891970
C2271	C227	0.514400	0.157600	0.891810
C2281	C228	0.567300	0.132000	0.915710
C2291	C229	0.370900	0.073400	0.016690
C2301	C230	0.414800	0.085200	0.990300
C2311	C231	0.514100	0.047500	0.036700
C2321	C232	0.562400	0.059200	0.010840
C2331	C233	0.514300	0.079300	0.987580
C2341	C234	0.565300	0.094600	0.960470
C2351	C235	0.425600	0.116100	0.129320
C2361	C236	0.442200	0.157400	0.144080
C2371	C237	0.389400	0.155900	0.085820
C2381	C238	0.406200	0.199100	0.099390
C2391	C239	0.432000	0.200000	0.129620
C2401	C240	0.446600	0.244500	0.145710
C2411	C241	0.405600	0.415400	0.089260
C2421	C242	0.417900	0.371700	0.102460
C2431	C243	0.431100	0.453100	0.133500
C2441	C244	0.444900	0.410900	0.148030
C2451	C245	0.437100	0.369400	0.132650
C2461	C246	0.450100	0.323500	0.147530
C2471	C247	0.586800	0.310200	0.264060
C2481	C248	0.551100	0.316400	0.236170
C2491	C249	0.556800	0.230800	0.262890
C2501	C250	0.520100	0.234000	0.233960
C2511	C251	0.517800	0.276900	0.220430
C2521	C252	0.485700	0.281000	0.188030
C2531	C253	0.051700	0.449700	0.448980
C2541	C254	0.142700	0.433100	0.453190
C2551	C255	0.058600	0.428800	0.399810
C2561	C256	0.150200	0.411800	0.402160
C2571	C257	0.193800	0.415400	0.429850
C2581	C258	0.296900	0.401200	0.433280
C2591	C259	0.493000	0.296000	0.347820
C2601	C260	0.438900	0.318900	0.369290
C2611	C261	0.633400	0.318700	0.369430
C2621	C262	0.585000	0.342100	0.391970
C2631	C263	0.485600	0.342400	0.391810
C2641	C264	0.432700	0.368000	0.415710
C2651	C265	0.629100	0.426600	0.516690
C2661	C266	0.585200	0.414800	0.490300
C2671	C267	0.485900	0.452500	0.536700
C2681	C268	0.437600	0.440800	0.510840
C2691	C269	0.485700	0.420700	0.487580
C2701	C270	0.434700	0.405400	0.460470
C2711	C271	0.574400	0.383900	0.629320
C2721	C272	0.557800	0.342600	0.644080
C2731	C273	0.610600	0.344100	0.585820
C2741	C274	0.593800	0.300900	0.599390
C2751	C275	0.568000	0.300000	0.629620
C2761	C276	0.553400	0.255500	0.645710
C2771	C277	0.594400	0.084600	0.589260
C2781	C278	0.582100	0.128300	0.602460
C2791	C279	0.568900	0.046900	0.633500
C2801	C280	0.555100	0.089100	0.648030
C2811	C281	0.562900	0.130600	0.632650
C2821	C282	0.549900	0.176500	0.647530
C2831	C283	0.413200	0.189800	0.764060
C2841	C284	0.448900	0.183600	0.736170
C2851	C285	0.443200	0.269200	0.762890
C2861	C286	0.479900	0.266000	0.733960
C2871	C287	0.482200	0.223100	0.720430
C2881	C288	0.514300	0.219000	0.688030
I251	I25	0.944190	0.012810	0.388830
I261	I26	0.674690	0.943160	0.423460
I271	I27	0.805460	0.497330	0.467340
I281	I28	0.782880	0.433370	0.377010
I291	I29	0.830300	0.673250	0.668410
I301	I30	0.672230	0.802990	0.690560
I311	I31	0.055810	0.487190	0.888830
I321	I32	0.325310	0.556840	0.923460
I331	I33	0.194540	0.002670	0.967340
I341	I34	0.217120	0.066630	0.877010
I351	I35	0.169700	0.826750	0.168410
I361	I36	0.327770	0.697010	0.190560
I371	I37	0.444190	0.987190	0.111170
I381	I38	0.174690	0.056840	0.076540
I391	I39	0.305460	0.502670	0.032660
I401	I40	0.282880	0.566630	0.122990
I411	I41	0.330300	0.326750	0.831590
I421	I42	0.172230	0.197010	0.809440
I431	I43	0.555810	0.512810	0.611170
I441	I44	0.825310	0.443160	0.576540
I451	I45	0.694540	0.997330	0.532660
I461	I46	0.717120	0.933370	0.622990
I471	I47	0.669700	0.173250	0.331590
I481	I48	0.827770	0.302990	0.309440
N491	N49	0.491400	0.948000	0.577560
N501	N50	0.912300	0.796200	0.652440
N511	N51	0.919200	0.944100	0.459840
N521	N52	0.161400	0.875700	0.588520
N531	N53	0.016100	0.881200	0.560200
N541	N54	0.158700	0.916500	0.541760
N551	N55	0.898300	0.885400	0.399900
N561	N56	0.908900	0.544300	0.396330
N571	N57	0.091400	0.732100	0.222380
N581	N58	0.934200	0.715000	0.368860
N591	N59	0.975300	0.675900	0.323270
N601	N60	0.972500	0.760000	0.325630
N611	N61	0.508600	0.552000	0.077560
N621	N62	0.087700	0.703800	0.152440
N631	N63	0.080800	0.555900	0.959840
N641	N64	0.838600	0.624300	0.088520
N651	N65	0.983900	0.618800	0.060200
N661	N66	0.841300	0.583500	0.041760
N671	N67	0.101700	0.614600	0.899900
N681	N68	0.091100	0.955700	0.896330
N691	N69	0.908600	0.767900	0.722380
N701	N70	0.065800	0.785000	0.868860
N711	N71	0.024700	0.824100	0.823270
N721	N72	0.027500	0.740000	0.825630
N731	N73	0.991400	0.052000	0.922440
N741	N74	0.412300	0.203800	0.847560
N751	N75	0.419200	0.055900	0.040160
N761	N76	0.661400	0.124300	0.911480
N771	N77	0.516100	0.118800	0.939800
N781	N78	0.658700	0.083500	0.958240
N791	N79	0.398300	0.114600	0.100100
N801	N80	0.408900	0.455700	0.103670
N811	N81	0.591400	0.267900	0.277620
N821	N82	0.434200	0.285000	0.131140
N831	N83	0.475300	0.324100	0.176730
N841	N84	0.472500	0.240000	0.174370
N851	N85	0.008600	0.448000	0.422440
N861	N86	0.587700	0.296200	0.347560
N871	N87	0.580800	0.444100	0.540160
N881	N88	0.338600	0.375700	0.411480
N891	N89	0.483900	0.381200	0.439800
N901	N90	0.341300	0.416500	0.458240
N911	N91	0.601700	0.385400	0.600100
N921	N92	0.591100	0.044300	0.603670
N931	N93	0.408600	0.232100	0.777620
N941	N94	0.565800	0.215000	0.631140
N951	N95	0.524700	0.175900	0.676730
N961	N96	0.527500	0.260000	0.674370
