data_FUDGES_freeONLY_PM
_symmetry_space_group_name_H-M	'P1'
_cell_length_a	10.289000
_cell_length_b	15.763000
_cell_length_c	24.796000
_cell_angle_alpha	90.000000
_cell_angle_beta	112.650000
_cell_angle_gamma	90.000000
_symmetry_Int_Tables_number 1

loop_
_symmetry_equiv_pos_as_xyz
'x,y,z'

loop_
_atom_site_label
_atom_site_type_symbol
_atom_site_fract_x
_atom_site_fract_y
_atom_site_fract_z
Zn11	Zn1	0.742150	0.853770	0.735070
Zn21	Zn2	0.708400	0.982060	0.855490
O11	O1	0.618400	0.823700	0.784110
O21	O2	0.597300	0.884600	0.860390
O31	O3	0.380000	0.550400	0.713950
O41	O4	0.279600	0.483200	0.766210
O51	O5	0.920600	0.845000	0.809290
O61	O6	0.897700	0.941000	0.870920
O71	O7	0.232500	0.952700	0.072950
O81	O8	0.430000	0.878800	0.099710
O91	O9	0.342400	0.672930	0.934510
C11	C1	0.382900	0.678000	0.887140
C21	C2	0.457800	0.746800	0.880430
H11	H1	0.480600	0.791300	0.907100
C31	C3	0.498700	0.748800	0.833270
C41	C4	0.466100	0.681800	0.794080
H21	H2	0.494700	0.683200	0.762800
C51	C5	0.391100	0.612800	0.801210
C61	C6	0.349500	0.610700	0.848630
H31	H3	0.299900	0.564400	0.854200
C71	C7	0.579000	0.824400	0.824950
C81	C8	0.347600	0.542300	0.758030
C91	C9	0.272400	0.744700	0.942180
C101	C10	0.157700	0.775900	0.896770
H41	H4	0.128000	0.750600	0.860100
C111	C11	0.086000	0.845900	0.906000
C121	C12	0.134000	0.883400	0.961350
H51	H5	0.086100	0.929700	0.968000
C131	C13	0.252900	0.852300	0.006690
C141	C14	0.322500	0.781600	0.997600
H61	H6	0.400700	0.759300	0.027700
C151	C15	0.957700	0.879100	0.857590
C161	C16	0.312400	0.896800	0.065310
O101	O10	0.752400	0.724200	0.721300
N11	N1	0.835500	0.602100	0.707900
C171	C17	0.829000	0.688400	0.721400
H71	H7	0.915000	0.716400	0.732700
C181	C18	0.968000	0.578100	0.711700
H81	H8	0.028300	0.626900	0.720200
H91	H9	0.961200	0.553700	0.675200
H101	H10	0.006300	0.537000	0.742300
C191	C19	0.725700	0.545300	0.696700
H111	H11	0.734900	0.500300	0.672400
H121	H12	0.637800	0.574100	0.677100
H131	H13	0.728200	0.522100	0.732900
O111	O11	0.546900	0.851900	0.663500
N21	N2	0.320400	0.827000	0.653300
C201	C20	0.449300	0.807800	0.659700
H141	H14	0.468200	0.750000	0.661700
C211	C21	0.291200	0.916600	0.652500
H151	H15	0.197400	0.924700	0.651000
H161	H16	0.299400	0.942100	0.618800
H171	H17	0.357400	0.942500	0.687300
C221	C22	0.214100	0.769700	0.647700
H181	H18	0.130300	0.799900	0.644300
H191	H19	0.242800	0.733700	0.681500
H201	H20	0.195400	0.735700	0.613400
O121	O12	0.855000	0.872900	0.681510
H211	H21	0.829000	0.833000	0.653000
H221	H22	0.857000	0.920000	0.661000
Zn31	Zn3	0.257850	0.353770	0.764930
Zn41	Zn4	0.291600	0.482060	0.644510
O131	O13	0.381600	0.323700	0.715890
O141	O14	0.402700	0.384600	0.639610
O151	O15	0.620000	0.050400	0.786050
O161	O16	0.720400	0.983200	0.733790
O171	O17	0.079400	0.345000	0.690710
O181	O18	0.102300	0.441000	0.629080
O191	O19	0.767500	0.452700	0.427050
O201	O20	0.570000	0.378800	0.400290
O211	O21	0.657600	0.172930	0.565490
C231	C23	0.617100	0.178000	0.612860
C241	C24	0.542200	0.246800	0.619570
H231	H23	0.519400	0.291300	0.592900
C251	C25	0.501300	0.248800	0.666730
C261	C26	0.533900	0.181800	0.705920
H241	H24	0.505300	0.183200	0.737200
C271	C27	0.608900	0.112800	0.698790
C281	C28	0.650500	0.110700	0.651370
H251	H25	0.700100	0.064400	0.645800
C291	C29	0.421000	0.324400	0.675050
C301	C30	0.652400	0.042300	0.741970
C311	C31	0.727600	0.244700	0.557820
C321	C32	0.842300	0.275900	0.603230
H261	H26	0.872000	0.250600	0.639900
C331	C33	0.914000	0.345900	0.594000
C341	C34	0.866000	0.383400	0.538650
H271	H27	0.913900	0.429700	0.532000
C351	C35	0.747100	0.352300	0.493310
C361	C36	0.677500	0.281600	0.502400
H281	H28	0.599300	0.259300	0.472300
C371	C37	0.042300	0.379100	0.642410
C381	C38	0.687600	0.396800	0.434690
O221	O22	0.247600	0.224200	0.778700
N31	N3	0.164500	0.102100	0.792100
C391	C39	0.171000	0.188400	0.778600
H291	H29	0.085000	0.216400	0.767300
C401	C40	0.032000	0.078100	0.788300
H301	H30	0.971700	0.126900	0.779800
H311	H31	0.038800	0.053700	0.824800
H321	H32	0.993700	0.037000	0.757700
C411	C41	0.274300	0.045300	0.803300
H331	H33	0.265100	0.000300	0.827600
H341	H34	0.362200	0.074100	0.822900
H351	H35	0.271800	0.022100	0.767100
O231	O23	0.453100	0.351900	0.836500
N41	N4	0.679600	0.327000	0.846700
C421	C42	0.550700	0.307800	0.840300
H361	H36	0.531800	0.250000	0.838300
C431	C43	0.708800	0.416600	0.847500
H371	H37	0.802600	0.424700	0.849000
H381	H38	0.700600	0.442100	0.881200
H391	H39	0.642600	0.442500	0.812700
C441	C44	0.785900	0.269700	0.852300
H401	H40	0.869700	0.299900	0.855700
H411	H41	0.757200	0.233700	0.818500
H421	H42	0.804600	0.235700	0.886600
O241	O24	0.145000	0.372900	0.818490
H431	H43	0.171000	0.333000	0.847000
H441	H44	0.143000	0.420000	0.839000
Zn51	Zn5	0.257850	0.146230	0.264930
Zn61	Zn6	0.291600	0.017940	0.144510
O251	O25	0.381600	0.176300	0.215890
O261	O26	0.402700	0.115400	0.139610
O271	O27	0.620000	0.449600	0.286050
O281	O28	0.720400	0.516800	0.233790
O291	O29	0.079400	0.155000	0.190710
O301	O30	0.102300	0.059000	0.129080
O311	O31	0.767500	0.047300	0.927050
O321	O32	0.570000	0.121200	0.900290
O331	O33	0.657600	0.327070	0.065490
C451	C45	0.617100	0.322000	0.112860
C461	C46	0.542200	0.253200	0.119570
H451	H45	0.519400	0.208700	0.092900
C471	C47	0.501300	0.251200	0.166730
C481	C48	0.533900	0.318200	0.205920
H461	H46	0.505300	0.316800	0.237200
C491	C49	0.608900	0.387200	0.198790
C501	C50	0.650500	0.389300	0.151370
H471	H47	0.700100	0.435600	0.145800
C511	C51	0.421000	0.175600	0.175050
C521	C52	0.652400	0.457700	0.241970
C531	C53	0.727600	0.255300	0.057820
C541	C54	0.842300	0.224100	0.103230
H481	H48	0.872000	0.249400	0.139900
C551	C55	0.914000	0.154100	0.094000
C561	C56	0.866000	0.116600	0.038650
H491	H49	0.913900	0.070300	0.032000
C571	C57	0.747100	0.147700	0.993310
C581	C58	0.677500	0.218400	0.002400
H501	H50	0.599300	0.240700	0.972300
C591	C59	0.042300	0.120900	0.142410
C601	C60	0.687600	0.103200	0.934690
O341	O34	0.247600	0.275800	0.278700
N51	N5	0.164500	0.397900	0.292100
C611	C61	0.171000	0.311600	0.278600
H511	H51	0.085000	0.283600	0.267300
C621	C62	0.032000	0.421900	0.288300
H521	H52	0.971700	0.373100	0.279800
H531	H53	0.038800	0.446300	0.324800
H541	H54	0.993700	0.463000	0.257700
C631	C63	0.274300	0.454700	0.303300
H551	H55	0.265100	0.499700	0.327600
H561	H56	0.362200	0.425900	0.322900
H571	H57	0.271800	0.477900	0.267100
O351	O35	0.453100	0.148100	0.336500
N61	N6	0.679600	0.173000	0.346700
C641	C64	0.550700	0.192200	0.340300
H581	H58	0.531800	0.250000	0.338300
C651	C65	0.708800	0.083400	0.347500
H591	H59	0.802600	0.075300	0.349000
H601	H60	0.700600	0.057900	0.381200
H611	H61	0.642600	0.057500	0.312700
C661	C66	0.785900	0.230300	0.352300
H621	H62	0.869700	0.200100	0.355700
H631	H63	0.757200	0.266300	0.318500
H641	H64	0.804600	0.264300	0.386600
O361	O36	0.145000	0.127100	0.318490
H651	H65	0.171000	0.167000	0.347000
H661	H66	0.143000	0.080000	0.339000
Zn71	Zn7	0.742150	0.646230	0.235070
Zn81	Zn8	0.708400	0.517940	0.355490
O371	O37	0.618400	0.676300	0.284110
O381	O38	0.597300	0.615400	0.360390
O391	O39	0.380000	0.949600	0.213950
O401	O40	0.279600	0.016800	0.266210
O411	O41	0.920600	0.655000	0.309290
O421	O42	0.897700	0.559000	0.370920
O431	O43	0.232500	0.547300	0.572950
O441	O44	0.430000	0.621200	0.599710
O451	O45	0.342400	0.827070	0.434510
C671	C67	0.382900	0.822000	0.387140
C681	C68	0.457800	0.753200	0.380430
H671	H67	0.480600	0.708700	0.407100
C691	C69	0.498700	0.751200	0.333270
C701	C70	0.466100	0.818200	0.294080
H681	H68	0.494700	0.816800	0.262800
C711	C71	0.391100	0.887200	0.301210
C721	C72	0.349500	0.889300	0.348630
H691	H69	0.299900	0.935600	0.354200
C731	C73	0.579000	0.675600	0.324950
C741	C74	0.347600	0.957700	0.258030
C751	C75	0.272400	0.755300	0.442180
C761	C76	0.157700	0.724100	0.396770
H701	H70	0.128000	0.749400	0.360100
C771	C77	0.086000	0.654100	0.406000
C781	C78	0.134000	0.616600	0.461350
H711	H71	0.086100	0.570300	0.468000
C791	C79	0.252900	0.647700	0.506690
C801	C80	0.322500	0.718400	0.497600
H721	H72	0.400700	0.740700	0.527700
C811	C81	0.957700	0.620900	0.357590
C821	C82	0.312400	0.603200	0.565310
O461	O46	0.752400	0.775800	0.221300
N71	N7	0.835500	0.897900	0.207900
C831	C83	0.829000	0.811600	0.221400
H731	H73	0.915000	0.783600	0.232700
C841	C84	0.968000	0.921900	0.211700
H741	H74	0.028300	0.873100	0.220200
H751	H75	0.961200	0.946300	0.175200
H761	H76	0.006300	0.963000	0.242300
C851	C85	0.725700	0.954700	0.196700
H771	H77	0.734900	0.999700	0.172400
H781	H78	0.637800	0.925900	0.177100
H791	H79	0.728200	0.977900	0.232900
O471	O47	0.546900	0.648100	0.163500
N81	N8	0.320400	0.673000	0.153300
C861	C86	0.449300	0.692200	0.159700
H801	H80	0.468200	0.750000	0.161700
C871	C87	0.291200	0.583400	0.152500
H811	H81	0.197400	0.575300	0.151000
H821	H82	0.299400	0.557900	0.118800
H831	H83	0.357400	0.557500	0.187300
C881	C88	0.214100	0.730300	0.147700
H841	H84	0.130300	0.700100	0.144300
H851	H85	0.242800	0.766300	0.181500
H861	H86	0.195400	0.764300	0.113400
O481	O48	0.855000	0.627100	0.181510
H871	H87	0.829000	0.667000	0.153000
H881	H88	0.857000	0.580000	0.161000
