data_FUHNIH_freeONLY_PM
_symmetry_space_group_name_H-M	'P1'
_cell_length_a	15.115300
_cell_length_b	14.878600
_cell_length_c	21.861300
_cell_angle_alpha	90.000000
_cell_angle_beta	90.895000
_cell_angle_gamma	90.000000
_symmetry_Int_Tables_number 1

loop_
_symmetry_equiv_pos_as_xyz
'x,y,z'

loop_
_atom_site_label
_atom_site_type_symbol
_atom_site_fract_x
_atom_site_fract_y
_atom_site_fract_z
Zn11	Zn1	0.273930	0.314870	0.376130
Na11	Na1	0.252830	0.373080	0.517870
C11	C1	0.481100	0.265500	0.505090
C21	C2	0.474900	0.260000	0.568970
C31	C3	0.549500	0.275300	0.605010
H11	H1	0.545600	0.270900	0.647300
C41	C4	0.628800	0.297000	0.579400
H21	H2	0.677800	0.308400	0.604400
C51	C5	0.636200	0.302000	0.516900
H31	H3	0.689900	0.316600	0.499300
C61	C6	0.562600	0.284900	0.480570
C71	C7	0.404400	0.249800	0.461260
C81	C8	0.389800	0.235600	0.599980
C91	C9	0.610700	0.227500	0.384220
C101	C10	0.636200	0.145500	0.408480
H41	H4	0.625300	0.132100	0.449200
C111	C11	0.678500	0.082900	0.371340
C121	C12	0.694200	0.104000	0.310760
H51	H5	0.722600	0.062400	0.286000
C131	C13	0.668300	0.186200	0.286420
C141	C14	0.626900	0.248600	0.323790
H61	H6	0.610300	0.304400	0.308200
C151	C15	0.708000	0.993700	0.397270
C161	C16	0.688700	0.208400	0.220650
C171	C17	0.408900	0.493500	0.583800
H71	H7	0.440400	0.510000	0.549300
C181	C18	0.401500	0.461300	0.690600
H81	H8	0.342900	0.440800	0.680300
H91	H9	0.398000	0.510300	0.719000
H101	H10	0.434600	0.412900	0.708900
C191	C19	0.535700	0.522000	0.646900
H111	H11	0.563400	0.541600	0.610000
H121	H12	0.568800	0.473100	0.664400
H131	H13	0.533900	0.570800	0.675500
O11	O1	0.386100	0.172840	0.444850
O21	O2	0.365430	0.321830	0.443420
O31	O3	0.317690	0.241740	0.569810
O41	O4	0.392500	0.209500	0.653810
O51	O5	0.567040	0.293370	0.417140
O61	O6	0.747780	0.942660	0.360820
O71	O7	0.692500	0.976300	0.451030
O81	O8	0.712500	0.148400	0.185940
O91	O9	0.680000	0.290210	0.205030
O101	O10	0.325200	0.472300	0.576900
N11	N1	0.447300	0.492600	0.633000
Zn21	Zn2	0.773930	0.814870	0.376130
Na21	Na2	0.752830	0.873080	0.517870
C201	C20	0.981100	0.765500	0.505090
C211	C21	0.974900	0.760000	0.568970
C221	C22	0.049500	0.775300	0.605010
H141	H14	0.045600	0.770900	0.647300
C231	C23	0.128800	0.797000	0.579400
H151	H15	0.177800	0.808400	0.604400
C241	C24	0.136200	0.802000	0.516900
H161	H16	0.189900	0.816600	0.499300
C251	C25	0.062600	0.784900	0.480570
C261	C26	0.904400	0.749800	0.461260
C271	C27	0.889800	0.735600	0.599980
C281	C28	0.110700	0.727500	0.384220
C291	C29	0.136200	0.645500	0.408480
H171	H17	0.125300	0.632100	0.449200
C301	C30	0.178500	0.582900	0.371340
C311	C31	0.194200	0.604000	0.310760
H181	H18	0.222600	0.562400	0.286000
C321	C32	0.168300	0.686200	0.286420
C331	C33	0.126900	0.748600	0.323790
H191	H19	0.110300	0.804400	0.308200
C341	C34	0.208000	0.493700	0.397270
C351	C35	0.188700	0.708400	0.220650
C361	C36	0.908900	0.993500	0.583800
H201	H20	0.940400	0.010000	0.549300
C371	C37	0.901500	0.961300	0.690600
H211	H21	0.842900	0.940800	0.680300
H221	H22	0.898000	0.010300	0.719000
H231	H23	0.934600	0.912900	0.708900
C381	C38	0.035700	0.022000	0.646900
H241	H24	0.063400	0.041600	0.610000
H251	H25	0.068800	0.973100	0.664400
H261	H26	0.033900	0.070800	0.675500
O111	O11	0.886100	0.672840	0.444850
O121	O12	0.865430	0.821830	0.443420
O131	O13	0.817690	0.741740	0.569810
O141	O14	0.892500	0.709500	0.653810
O151	O15	0.067040	0.793370	0.417140
O161	O16	0.247780	0.442660	0.360820
O171	O17	0.192500	0.476300	0.451030
O181	O18	0.212500	0.648400	0.185940
O191	O19	0.180000	0.790210	0.205030
O201	O20	0.825200	0.972300	0.576900
N21	N2	0.947300	0.992600	0.633000
Zn31	Zn3	0.726070	0.314870	0.123870
Na31	Na3	0.747170	0.373080	0.982130
C391	C39	0.518900	0.265500	0.994910
C401	C40	0.525100	0.260000	0.931030
C411	C41	0.450500	0.275300	0.894990
H271	H27	0.454400	0.270900	0.852700
C421	C42	0.371200	0.297000	0.920600
H281	H28	0.322200	0.308400	0.895600
C431	C43	0.363800	0.302000	0.983100
H291	H29	0.310100	0.316600	0.000700
C441	C44	0.437400	0.284900	0.019430
C451	C45	0.595600	0.249800	0.038740
C461	C46	0.610200	0.235600	0.900020
C471	C47	0.389300	0.227500	0.115780
C481	C48	0.363800	0.145500	0.091520
H301	H30	0.374700	0.132100	0.050800
C491	C49	0.321500	0.082900	0.128660
C501	C50	0.305800	0.104000	0.189240
H311	H31	0.277400	0.062400	0.214000
C511	C51	0.331700	0.186200	0.213580
C521	C52	0.373100	0.248600	0.176210
H321	H32	0.389700	0.304400	0.191800
C531	C53	0.292000	0.993700	0.102730
C541	C54	0.311300	0.208400	0.279350
C551	C55	0.591100	0.493500	0.916200
H331	H33	0.559600	0.510000	0.950700
C561	C56	0.598500	0.461300	0.809400
H341	H34	0.657100	0.440800	0.819700
H351	H35	0.602000	0.510300	0.781000
H361	H36	0.565400	0.412900	0.791100
C571	C57	0.464300	0.522000	0.853100
H371	H37	0.436600	0.541600	0.890000
H381	H38	0.431200	0.473100	0.835600
H391	H39	0.466100	0.570800	0.824500
O211	O21	0.613900	0.172840	0.055150
O221	O22	0.634570	0.321830	0.056580
O231	O23	0.682310	0.241740	0.930190
O241	O24	0.607500	0.209500	0.846190
O251	O25	0.432960	0.293370	0.082860
O261	O26	0.252220	0.942660	0.139180
O271	O27	0.307500	0.976300	0.048970
O281	O28	0.287500	0.148400	0.314060
O291	O29	0.320000	0.290210	0.294970
O301	O30	0.674800	0.472300	0.923100
N31	N3	0.552700	0.492600	0.867000
Zn41	Zn4	0.226070	0.814870	0.123870
Na41	Na4	0.247170	0.873080	0.982130
C581	C58	0.018900	0.765500	0.994910
C591	C59	0.025100	0.760000	0.931030
C601	C60	0.950500	0.775300	0.894990
H401	H40	0.954400	0.770900	0.852700
C611	C61	0.871200	0.797000	0.920600
H411	H41	0.822200	0.808400	0.895600
C621	C62	0.863800	0.802000	0.983100
H421	H42	0.810100	0.816600	0.000700
C631	C63	0.937400	0.784900	0.019430
C641	C64	0.095600	0.749800	0.038740
C651	C65	0.110200	0.735600	0.900020
C661	C66	0.889300	0.727500	0.115780
C671	C67	0.863800	0.645500	0.091520
H431	H43	0.874700	0.632100	0.050800
C681	C68	0.821500	0.582900	0.128660
C691	C69	0.805800	0.604000	0.189240
H441	H44	0.777400	0.562400	0.214000
C701	C70	0.831700	0.686200	0.213580
C711	C71	0.873100	0.748600	0.176210
H451	H45	0.889700	0.804400	0.191800
C721	C72	0.792000	0.493700	0.102730
C731	C73	0.811300	0.708400	0.279350
C741	C74	0.091100	0.993500	0.916200
H461	H46	0.059600	0.010000	0.950700
C751	C75	0.098500	0.961300	0.809400
H471	H47	0.157100	0.940800	0.819700
H481	H48	0.102000	0.010300	0.781000
H491	H49	0.065400	0.912900	0.791100
C761	C76	0.964300	0.022000	0.853100
H501	H50	0.936600	0.041600	0.890000
H511	H51	0.931200	0.973100	0.835600
H521	H52	0.966100	0.070800	0.824500
O311	O31	0.113900	0.672840	0.055150
O321	O32	0.134570	0.821830	0.056580
O331	O33	0.182310	0.741740	0.930190
O341	O34	0.107500	0.709500	0.846190
O351	O35	0.932960	0.793370	0.082860
O361	O36	0.752220	0.442660	0.139180
O371	O37	0.807500	0.476300	0.048970
O381	O38	0.787500	0.648400	0.314060
O391	O39	0.820000	0.790210	0.294970
O401	O40	0.174800	0.972300	0.923100
N41	N4	0.052700	0.992600	0.867000
Zn51	Zn5	0.726070	0.685130	0.623870
Na51	Na5	0.747170	0.626920	0.482130
C771	C77	0.518900	0.734500	0.494910
C781	C78	0.525100	0.740000	0.431030
C791	C79	0.450500	0.724700	0.394990
H531	H53	0.454400	0.729100	0.352700
C801	C80	0.371200	0.703000	0.420600
H541	H54	0.322200	0.691600	0.395600
C811	C81	0.363800	0.698000	0.483100
H551	H55	0.310100	0.683400	0.500700
C821	C82	0.437400	0.715100	0.519430
C831	C83	0.595600	0.750200	0.538740
C841	C84	0.610200	0.764400	0.400020
C851	C85	0.389300	0.772500	0.615780
C861	C86	0.363800	0.854500	0.591520
H561	H56	0.374700	0.867900	0.550800
C871	C87	0.321500	0.917100	0.628660
C881	C88	0.305800	0.896000	0.689240
H571	H57	0.277400	0.937600	0.714000
C891	C89	0.331700	0.813800	0.713580
C901	C90	0.373100	0.751400	0.676210
H581	H58	0.389700	0.695600	0.691800
C911	C91	0.292000	0.006300	0.602730
C921	C92	0.311300	0.791600	0.779350
C931	C93	0.591100	0.506500	0.416200
H591	H59	0.559600	0.490000	0.450700
C941	C94	0.598500	0.538700	0.309400
H601	H60	0.657100	0.559200	0.319700
H611	H61	0.602000	0.489700	0.281000
H621	H62	0.565400	0.587100	0.291100
C951	C95	0.464300	0.478000	0.353100
H631	H63	0.436600	0.458400	0.390000
H641	H64	0.431200	0.526900	0.335600
H651	H65	0.466100	0.429200	0.324500
O411	O41	0.613900	0.827160	0.555150
O421	O42	0.634570	0.678170	0.556580
O431	O43	0.682310	0.758260	0.430190
O441	O44	0.607500	0.790500	0.346190
O451	O45	0.432960	0.706630	0.582860
O461	O46	0.252220	0.057340	0.639180
O471	O47	0.307500	0.023700	0.548970
O481	O48	0.287500	0.851600	0.814060
O491	O49	0.320000	0.709790	0.794970
O501	O50	0.674800	0.527700	0.423100
N51	N5	0.552700	0.507400	0.367000
Zn61	Zn6	0.226070	0.185130	0.623870
Na61	Na6	0.247170	0.126920	0.482130
C961	C96	0.018900	0.234500	0.494910
C971	C97	0.025100	0.240000	0.431030
C981	C98	0.950500	0.224700	0.394990
H661	H66	0.954400	0.229100	0.352700
C991	C99	0.871200	0.203000	0.420600
H671	H67	0.822200	0.191600	0.395600
C1001	C100	0.863800	0.198000	0.483100
H681	H68	0.810100	0.183400	0.500700
C1011	C101	0.937400	0.215100	0.519430
C1021	C102	0.095600	0.250200	0.538740
C1031	C103	0.110200	0.264400	0.400020
C1041	C104	0.889300	0.272500	0.615780
C1051	C105	0.863800	0.354500	0.591520
H691	H69	0.874700	0.367900	0.550800
C1061	C106	0.821500	0.417100	0.628660
C1071	C107	0.805800	0.396000	0.689240
H701	H70	0.777400	0.437600	0.714000
C1081	C108	0.831700	0.313800	0.713580
C1091	C109	0.873100	0.251400	0.676210
H711	H71	0.889700	0.195600	0.691800
C1101	C110	0.792000	0.506300	0.602730
C1111	C111	0.811300	0.291600	0.779350
C1121	C112	0.091100	0.006500	0.416200
H721	H72	0.059600	0.990000	0.450700
C1131	C113	0.098500	0.038700	0.309400
H731	H73	0.157100	0.059200	0.319700
H741	H74	0.102000	0.989700	0.281000
H751	H75	0.065400	0.087100	0.291100
C1141	C114	0.964300	0.978000	0.353100
H761	H76	0.936600	0.958400	0.390000
H771	H77	0.931200	0.026900	0.335600
H781	H78	0.966100	0.929200	0.324500
O511	O51	0.113900	0.327160	0.555150
O521	O52	0.134570	0.178170	0.556580
O531	O53	0.182310	0.258260	0.430190
O541	O54	0.107500	0.290500	0.346190
O551	O55	0.932960	0.206630	0.582860
O561	O56	0.752220	0.557340	0.639180
O571	O57	0.807500	0.523700	0.548970
O581	O58	0.787500	0.351600	0.814060
O591	O59	0.820000	0.209790	0.794970
O601	O60	0.174800	0.027700	0.423100
N61	N6	0.052700	0.007400	0.367000
Zn71	Zn7	0.273930	0.685130	0.876130
Na71	Na7	0.252830	0.626920	0.017870
C1151	C115	0.481100	0.734500	0.005090
C1161	C116	0.474900	0.740000	0.068970
C1171	C117	0.549500	0.724700	0.105010
H791	H79	0.545600	0.729100	0.147300
C1181	C118	0.628800	0.703000	0.079400
H801	H80	0.677800	0.691600	0.104400
C1191	C119	0.636200	0.698000	0.016900
H811	H81	0.689900	0.683400	0.999300
C1201	C120	0.562600	0.715100	0.980570
C1211	C121	0.404400	0.750200	0.961260
C1221	C122	0.389800	0.764400	0.099980
C1231	C123	0.610700	0.772500	0.884220
C1241	C124	0.636200	0.854500	0.908480
H821	H82	0.625300	0.867900	0.949200
C1251	C125	0.678500	0.917100	0.871340
C1261	C126	0.694200	0.896000	0.810760
H831	H83	0.722600	0.937600	0.786000
C1271	C127	0.668300	0.813800	0.786420
C1281	C128	0.626900	0.751400	0.823790
H841	H84	0.610300	0.695600	0.808200
C1291	C129	0.708000	0.006300	0.897270
C1301	C130	0.688700	0.791600	0.720650
C1311	C131	0.408900	0.506500	0.083800
H851	H85	0.440400	0.490000	0.049300
C1321	C132	0.401500	0.538700	0.190600
H861	H86	0.342900	0.559200	0.180300
H871	H87	0.398000	0.489700	0.219000
H881	H88	0.434600	0.587100	0.208900
C1331	C133	0.535700	0.478000	0.146900
H891	H89	0.563400	0.458400	0.110000
H901	H90	0.568800	0.526900	0.164400
H911	H91	0.533900	0.429200	0.175500
O611	O61	0.386100	0.827160	0.944850
O621	O62	0.365430	0.678170	0.943420
O631	O63	0.317690	0.758260	0.069810
O641	O64	0.392500	0.790500	0.153810
O651	O65	0.567040	0.706630	0.917140
O661	O66	0.747780	0.057340	0.860820
O671	O67	0.692500	0.023700	0.951030
O681	O68	0.712500	0.851600	0.685940
O691	O69	0.680000	0.709790	0.705030
O701	O70	0.325200	0.527700	0.076900
N71	N7	0.447300	0.507400	0.133000
Zn81	Zn8	0.773930	0.185130	0.876130
Na81	Na8	0.752830	0.126920	0.017870
C1341	C134	0.981100	0.234500	0.005090
C1351	C135	0.974900	0.240000	0.068970
C1361	C136	0.049500	0.224700	0.105010
H921	H92	0.045600	0.229100	0.147300
C1371	C137	0.128800	0.203000	0.079400
H931	H93	0.177800	0.191600	0.104400
C1381	C138	0.136200	0.198000	0.016900
H941	H94	0.189900	0.183400	0.999300
C1391	C139	0.062600	0.215100	0.980570
C1401	C140	0.904400	0.250200	0.961260
C1411	C141	0.889800	0.264400	0.099980
C1421	C142	0.110700	0.272500	0.884220
C1431	C143	0.136200	0.354500	0.908480
H951	H95	0.125300	0.367900	0.949200
C1441	C144	0.178500	0.417100	0.871340
C1451	C145	0.194200	0.396000	0.810760
H961	H96	0.222600	0.437600	0.786000
C1461	C146	0.168300	0.313800	0.786420
C1471	C147	0.126900	0.251400	0.823790
H971	H97	0.110300	0.195600	0.808200
C1481	C148	0.208000	0.506300	0.897270
C1491	C149	0.188700	0.291600	0.720650
C1501	C150	0.908900	0.006500	0.083800
H981	H98	0.940400	0.990000	0.049300
C1511	C151	0.901500	0.038700	0.190600
H991	H99	0.842900	0.059200	0.180300
H1001	H100	0.898000	0.989700	0.219000
H1011	H101	0.934600	0.087100	0.208900
C1521	C152	0.035700	0.978000	0.146900
H1021	H102	0.063400	0.958400	0.110000
H1031	H103	0.068800	0.026900	0.164400
H1041	H104	0.033900	0.929200	0.175500
O711	O71	0.886100	0.327160	0.944850
O721	O72	0.865430	0.178170	0.943420
O731	O73	0.817690	0.258260	0.069810
O741	O74	0.892500	0.290500	0.153810
O751	O75	0.067040	0.206630	0.917140
O761	O76	0.247780	0.557340	0.860820
O771	O77	0.192500	0.523700	0.951030
O781	O78	0.212500	0.351600	0.685940
O791	O79	0.180000	0.209790	0.705030
O801	O80	0.825200	0.027700	0.076900
N81	N8	0.947300	0.007400	0.133000
