data_FUMHEC_freeONLY_PM
_symmetry_space_group_name_H-M	'P1'
_cell_length_a	10.744000
_cell_length_b	11.971000
_cell_length_c	13.304000
_cell_angle_alpha	91.512000
_cell_angle_beta	111.418000
_cell_angle_gamma	106.334000
_symmetry_Int_Tables_number 1

loop_
_symmetry_equiv_pos_as_xyz
'x,y,z'

loop_
_atom_site_label
_atom_site_type_symbol
_atom_site_fract_x
_atom_site_fract_y
_atom_site_fract_z
N11	N1	0.757700	0.055100	0.679300
O11	O1	0.596200	0.869900	0.977900
O21	O2	0.818900	0.982400	0.025900
N21	N2	0.196300	0.929700	0.669900
N31	N3	0.346900	0.930500	0.835100
N41	N4	0.763800	0.297600	0.928200
N51	N5	0.875200	0.828200	0.918300
C11	C1	0.963400	0.882800	0.522000
C21	C2	0.718100	0.889300	0.981500
C31	C3	0.747900	0.794700	0.923300
C41	C4	0.253000	0.976900	0.775700
H11	H1	0.228300	0.035700	0.803400
N61	N6	0.912700	0.061400	0.845400
N71	N7	0.611300	0.133600	0.931900
C51	C5	0.854500	0.574200	0.733300
C61	C6	0.779900	0.019900	0.777400
H21	H2	0.709200	0.971500	0.795600
C71	C7	0.093900	0.964400	0.582100
C81	C8	0.991300	0.409100	0.929500
H31	H3	0.983100	0.346300	0.882300
C91	C9	0.883800	0.403200	0.966000
C101	C10	0.722300	0.221100	0.989600
H41	H4	0.767500	0.229300	0.065000
C111	C11	0.110500	0.507400	0.962500
C121	C12	0.625300	0.024400	0.586900
C131	C13	0.258500	0.845000	0.661600
H51	H5	0.240800	0.796900	0.598600
C141	C14	0.549000	0.908400	0.548500
C151	C15	0.884200	0.128600	0.686200
H61	H6	0.901800	0.169100	0.631600
C161	C16	0.419900	0.884900	0.458300
H71	H7	0.364800	0.807400	0.429100
O31	O3	0.979700	0.610300	0.744300
C171	C17	0.980000	0.131300	0.788100
H81	H8	0.075400	0.173600	0.814700
C181	C18	0.650800	0.686500	0.874500
H91	H9	0.564600	0.663400	0.881700
C191	C19	0.870000	0.921100	0.438300
H101	H10	0.782000	0.868900	0.395500
C201	C20	0.810900	0.647300	0.804000
C211	C21	0.906400	0.756100	0.858800
H111	H11	0.994100	0.779600	0.854200
C221	C22	0.578200	0.157000	0.825800
H121	H12	0.502200	0.110400	0.765400
C231	C23	0.672800	0.257600	0.822700
H131	H13	0.675100	0.292200	0.761300
C241	C24	0.349600	0.846300	0.763000
H141	H14	0.406100	0.797700	0.782100
O41	O4	0.757900	0.484000	0.674200
C251	C25	0.225900	0.511600	0.925500
H151	H15	0.227900	0.433100	0.911600
H161	H16	0.314100	0.557500	0.981200
H171	H17	0.210500	0.546700	0.859800
C261	C26	0.685500	0.612200	0.813500
H181	H18	0.621900	0.538400	0.779500
C271	C27	0.594300	0.805000	0.594900
H191	H19	0.694200	0.823200	0.616300
H201	H20	0.546800	0.736500	0.540400
H211	H21	0.570700	0.790000	0.657300
C281	C28	0.916500	0.756100	0.541400
H221	H22	0.978400	0.716200	0.532100
H231	H23	0.822200	0.717400	0.490200
H241	H24	0.919300	0.754800	0.614300
N81	N8	0.242300	0.944900	0.320700
O51	O5	0.403800	0.130100	0.022100
O61	O6	0.181100	0.017600	0.974100
N91	N9	0.803700	0.070300	0.330100
N101	N10	0.653100	0.069500	0.164900
N111	N11	0.236200	0.702400	0.071800
N121	N12	0.124800	0.171800	0.081700
C291	C29	0.036600	0.117200	0.478000
C301	C30	0.281900	0.110700	0.018500
C311	C31	0.252100	0.205300	0.076700
C321	C32	0.747000	0.023100	0.224300
H251	H25	0.771700	0.964300	0.196600
N131	N13	0.087300	0.938600	0.154600
N141	N14	0.388700	0.866400	0.068100
C331	C33	0.145500	0.425800	0.266700
C341	C34	0.220100	0.980100	0.222600
H261	H26	0.290800	0.028500	0.204400
C351	C35	0.906100	0.035600	0.417900
C361	C36	0.008700	0.590900	0.070500
H271	H27	0.016900	0.653700	0.117700
C371	C37	0.116200	0.596800	0.034000
C381	C38	0.277700	0.778900	0.010400
H281	H28	0.232500	0.770700	0.935000
C391	C39	0.889500	0.492600	0.037500
C401	C40	0.374700	0.975600	0.413100
C411	C41	0.741500	0.155000	0.338400
H291	H29	0.759200	0.203100	0.401400
C421	C42	0.451000	0.091600	0.451500
C431	C43	0.115800	0.871400	0.313800
H301	H30	0.098200	0.830900	0.368400
C441	C44	0.580100	0.115100	0.541700
H311	H31	0.635200	0.192600	0.570900
O71	O7	0.020300	0.389700	0.255700
C451	C45	0.020000	0.868700	0.211900
H321	H32	0.924600	0.826400	0.185300
C461	C46	0.349200	0.313500	0.125500
H331	H33	0.435400	0.336600	0.118300
C471	C47	0.130000	0.078900	0.561700
H341	H34	0.218000	0.131100	0.604500
C481	C48	0.189100	0.352700	0.196000
C491	C49	0.093600	0.243900	0.141200
H351	H35	0.005900	0.220400	0.145800
C501	C50	0.421800	0.843000	0.174200
H361	H36	0.497800	0.889600	0.234600
C511	C51	0.327200	0.742400	0.177300
H371	H37	0.324900	0.707800	0.238700
C521	C52	0.650400	0.153700	0.237000
H381	H38	0.593900	0.202300	0.217900
O81	O8	0.242100	0.516000	0.325800
C531	C53	0.774100	0.488400	0.074500
H391	H39	0.772100	0.566900	0.088400
H401	H40	0.685900	0.442500	0.018800
H411	H41	0.789500	0.453300	0.140200
C541	C54	0.314500	0.387800	0.186500
H421	H42	0.378100	0.461600	0.220500
C551	C55	0.405700	0.195000	0.405100
H431	H43	0.305800	0.176800	0.383700
H441	H44	0.453200	0.263500	0.459600
H451	H45	0.429300	0.210000	0.342700
C561	C56	0.083500	0.243900	0.458600
H461	H46	0.021600	0.283800	0.467900
H471	H47	0.177800	0.282600	0.509800
H481	H48	0.080700	0.245200	0.385700
Co11	Co1	0.500000	0.000000	0.000000
Co21	Co2	0.000000	0.000000	0.000000
