data_FUMJAA_freeONLY_PM
_symmetry_space_group_name_H-M	'P1'
_cell_length_a	10.241000
_cell_length_b	13.769000
_cell_length_c	13.326000
_cell_angle_alpha	90.000000
_cell_angle_beta	90.768000
_cell_angle_gamma	90.000000
_symmetry_Int_Tables_number 1

loop_
_symmetry_equiv_pos_as_xyz
'x,y,z'

loop_
_atom_site_label
_atom_site_type_symbol
_atom_site_fract_x
_atom_site_fract_y
_atom_site_fract_z
Cd11	Cd1	0.144040	0.424120	0.061830
O11	O1	0.622680	0.546920	0.922710
O21	O2	0.713020	0.656490	0.825740
O31	O3	0.017450	0.648620	0.851620
O41	O4	0.437650	0.832450	0.573180
O51	O5	0.127530	0.545450	0.946730
O61	O6	0.230480	0.793800	0.559100
O71	O7	0.114480	0.552870	0.174930
H11	H1	0.064600	0.595600	0.148300
H21	H2	0.079600	0.531300	0.228300
C11	C1	0.349700	0.730740	0.698930
C21	C2	0.246200	0.643350	0.833160
C31	C3	0.481100	0.645420	0.822330
C41	C4	0.121600	0.610410	0.881380
C51	C5	0.237300	0.700980	0.747060
H31	H3	0.155900	0.719400	0.722000
C61	C6	0.614100	0.614550	0.859380
C71	C7	0.368100	0.614870	0.869700
H41	H4	0.374100	0.575200	0.926100
C81	C8	0.471100	0.704740	0.737750
H51	H5	0.546400	0.727100	0.707100
C91	C9	0.337800	0.790260	0.604250
Cd21	Cd2	0.355970	0.924120	0.438170
O81	O8	0.877320	0.046920	0.577290
O91	O9	0.786980	0.156490	0.674260
O101	O10	0.482550	0.148620	0.648380
O111	O11	0.062350	0.332450	0.926820
O121	O12	0.372470	0.045450	0.553270
O131	O13	0.269520	0.293800	0.940900
O141	O14	0.385520	0.052870	0.325070
H61	H6	0.435400	0.095600	0.351700
H71	H7	0.420400	0.031300	0.271700
C101	C10	0.150300	0.230740	0.801070
C111	C11	0.253800	0.143350	0.666840
C121	C12	0.018900	0.145420	0.677670
C131	C13	0.378400	0.110410	0.618620
C141	C14	0.262700	0.200980	0.752940
H81	H8	0.344100	0.219400	0.778000
C151	C15	0.885900	0.114550	0.640620
C161	C16	0.131900	0.114870	0.630300
H91	H9	0.125900	0.075200	0.573900
C171	C17	0.028900	0.204740	0.762250
H101	H10	0.953600	0.227100	0.792900
C181	C18	0.162200	0.290260	0.895750
Cd31	Cd3	0.855970	0.575880	0.938170
O151	O15	0.377320	0.453080	0.077290
O161	O16	0.286980	0.343510	0.174260
O171	O17	0.982550	0.351380	0.148380
O181	O18	0.562350	0.167550	0.426820
O191	O19	0.872470	0.454550	0.053270
O201	O20	0.769520	0.206200	0.440900
O211	O21	0.885520	0.447130	0.825070
H111	H11	0.935400	0.404400	0.851700
H121	H12	0.920400	0.468700	0.771700
C191	C19	0.650300	0.269260	0.301070
C201	C20	0.753800	0.356650	0.166840
C211	C21	0.518900	0.354580	0.177670
C221	C22	0.878400	0.389590	0.118620
C231	C23	0.762700	0.299020	0.252940
H131	H13	0.844100	0.280600	0.278000
C241	C24	0.385900	0.385450	0.140620
C251	C25	0.631900	0.385130	0.130300
H141	H14	0.625900	0.424800	0.073900
C261	C26	0.528900	0.295260	0.262250
H151	H15	0.453600	0.272900	0.292900
C271	C27	0.662200	0.209740	0.395750
Cd41	Cd4	0.644040	0.075880	0.561830
O221	O22	0.122680	0.953080	0.422710
O231	O23	0.213020	0.843510	0.325740
O241	O24	0.517450	0.851380	0.351620
O251	O25	0.937650	0.667550	0.073180
O261	O26	0.627530	0.954550	0.446730
O271	O27	0.730480	0.706200	0.059100
O281	O28	0.614480	0.947130	0.674930
H161	H16	0.564600	0.904400	0.648300
H171	H17	0.579600	0.968700	0.728300
C281	C28	0.849700	0.769260	0.198930
C291	C29	0.746200	0.856650	0.333160
C301	C30	0.981100	0.854580	0.322330
C311	C31	0.621600	0.889590	0.381380
C321	C32	0.737300	0.799020	0.247060
H181	H18	0.655900	0.780600	0.222000
C331	C33	0.114100	0.885450	0.359380
C341	C34	0.868100	0.885130	0.369700
H191	H19	0.874100	0.924800	0.426100
C351	C35	0.971100	0.795260	0.237750
H201	H20	0.046400	0.772900	0.207100
C361	C36	0.837800	0.709740	0.104250
