data_FUNLAD_freeONLY_PM
_symmetry_space_group_name_H-M	'P1'
_cell_length_a	15.084000
_cell_length_b	27.430000
_cell_length_c	15.799000
_cell_angle_alpha	90.000000
_cell_angle_beta	95.447000
_cell_angle_gamma	90.000000
_symmetry_Int_Tables_number 1

loop_
_symmetry_equiv_pos_as_xyz
'x,y,z'

loop_
_atom_site_label
_atom_site_type_symbol
_atom_site_fract_x
_atom_site_fract_y
_atom_site_fract_z
Zn11	Zn1	0.063490	0.503730	0.435430
O11	O1	0.104000	0.440270	0.494200
O21	O2	0.008300	0.435000	0.592600
O31	O3	0.374200	0.039090	0.962500
O41	O4	0.470600	0.036190	0.865200
N11	N1	0.159700	0.509620	0.355400
C11	C1	0.071500	0.419200	0.554300
C21	C2	0.112100	0.371530	0.582700
C31	C3	0.080200	0.346400	0.649600
H11	H1	0.032100	0.359400	0.677200
C41	C4	0.118200	0.302500	0.676400
H21	H2	0.096600	0.285700	0.722900
C51	C5	0.188200	0.282600	0.635300
C61	C6	0.218900	0.308400	0.569400
H31	H3	0.267500	0.295800	0.542000
C71	C7	0.181100	0.351650	0.542400
H41	H4	0.202500	0.368200	0.495600
C81	C8	0.231800	0.236100	0.662700
H51	H5	0.283300	0.226900	0.636300
C91	C9	0.205300	0.207000	0.719900
H61	H6	0.150200	0.214700	0.741300
C101	C10	0.251900	0.163000	0.755300
C111	C11	0.224900	0.144800	0.829800
H71	H7	0.173500	0.157800	0.852000
C121	C12	0.271700	0.108060	0.872200
H81	H8	0.253000	0.096400	0.924300
C131	C13	0.346200	0.087440	0.840600
C141	C14	0.370300	0.103420	0.762900
H91	H9	0.418900	0.088500	0.738800
C151	C15	0.324000	0.141000	0.720100
H101	H10	0.341000	0.151900	0.667000
C161	C16	0.400900	0.051200	0.893300
C171	C17	0.235600	0.485700	0.376000
H111	H11	0.242100	0.467700	0.427700
C181	C18	0.305100	0.485900	0.325200
H121	H12	0.359200	0.469600	0.342900
C191	C19	0.294800	0.510300	0.247800
C201	C20	0.213600	0.529850	0.224100
H131	H13	0.201800	0.544500	0.169700
C211	C21	0.148600	0.528260	0.279000
H141	H14	0.092000	0.541500	0.260400
C221	C22	0.368000	0.507200	0.191700
H151	H15	0.426900	0.504200	0.218500
C231	C23	0.359100	0.508280	0.111300
H161	H16	0.300500	0.512300	0.084500
C241	C24	0.431900	0.503800	0.055400
C251	C25	0.447200	0.542110	0.000400
C261	C26	0.515700	0.538100	0.943400
C271	C27	0.528900	0.578900	0.889900
H171	H17	0.575500	0.577800	0.853600
C281	C28	0.477300	0.618900	0.889400
H181	H18	0.486400	0.644800	0.851300
C291	C29	0.409100	0.622700	0.945500
H191	H19	0.372900	0.651100	0.944700
C301	C30	0.396100	0.586000	0.999600
H201	H20	0.351900	0.589400	0.038300
Zn21	Zn2	0.436510	0.003730	0.064570
O51	O5	0.396000	0.940270	0.005800
O61	O6	0.491700	0.935000	0.907400
O71	O7	0.125800	0.539090	0.537500
O81	O8	0.029400	0.536190	0.634800
N21	N2	0.340300	0.009620	0.144600
C311	C31	0.428500	0.919200	0.945700
C321	C32	0.387900	0.871530	0.917300
C331	C33	0.419800	0.846400	0.850400
H211	H21	0.467900	0.859400	0.822800
C341	C34	0.381800	0.802500	0.823600
H221	H22	0.403400	0.785700	0.777100
C351	C35	0.311800	0.782600	0.864700
C361	C36	0.281100	0.808400	0.930600
H231	H23	0.232500	0.795800	0.958000
C371	C37	0.318900	0.851650	0.957600
H241	H24	0.297500	0.868200	0.004400
C381	C38	0.268200	0.736100	0.837300
H251	H25	0.216700	0.726900	0.863700
C391	C39	0.294700	0.707000	0.780100
H261	H26	0.349800	0.714700	0.758700
C401	C40	0.248100	0.663000	0.744700
C411	C41	0.275100	0.644800	0.670200
H271	H27	0.326500	0.657800	0.648000
C421	C42	0.228300	0.608060	0.627800
H281	H28	0.247000	0.596400	0.575700
C431	C43	0.153800	0.587440	0.659400
C441	C44	0.129700	0.603420	0.737100
H291	H29	0.081100	0.588500	0.761200
C451	C45	0.176000	0.641000	0.779900
H301	H30	0.159000	0.651900	0.833000
C461	C46	0.099100	0.551200	0.606700
C471	C47	0.264400	0.985700	0.124000
H311	H31	0.257900	0.967700	0.072300
C481	C48	0.194900	0.985900	0.174800
H321	H32	0.140800	0.969600	0.157100
C491	C49	0.205200	0.010300	0.252200
C501	C50	0.286400	0.029850	0.275900
H331	H33	0.298200	0.044500	0.330300
C511	C51	0.351400	0.028260	0.221000
H341	H34	0.408000	0.041500	0.239600
C521	C52	0.132000	0.007200	0.308300
H351	H35	0.073100	0.004200	0.281500
C531	C53	0.140900	0.008280	0.388700
H361	H36	0.199500	0.012300	0.415500
C541	C54	0.068100	0.003800	0.444600
C551	C55	0.052800	0.042110	0.499600
C561	C56	0.984300	0.038100	0.556600
C571	C57	0.971100	0.078900	0.610100
H371	H37	0.924500	0.077800	0.646400
C581	C58	0.022700	0.118900	0.610600
H381	H38	0.013600	0.144800	0.648700
C591	C59	0.090900	0.122700	0.554500
H391	H39	0.127100	0.151100	0.555300
C601	C60	0.103900	0.086000	0.500400
H401	H40	0.148100	0.089400	0.461700
Zn31	Zn3	0.936510	0.496270	0.564570
O91	O9	0.896000	0.559730	0.505800
O101	O10	0.991700	0.565000	0.407400
O111	O11	0.625800	0.960910	0.037500
O121	O12	0.529400	0.963810	0.134800
N31	N3	0.840300	0.490380	0.644600
C611	C61	0.928500	0.580800	0.445700
C621	C62	0.887900	0.628470	0.417300
C631	C63	0.919800	0.653600	0.350400
H411	H41	0.967900	0.640600	0.322800
C641	C64	0.881800	0.697500	0.323600
H421	H42	0.903400	0.714300	0.277100
C651	C65	0.811800	0.717400	0.364700
C661	C66	0.781100	0.691600	0.430600
H431	H43	0.732500	0.704200	0.458000
C671	C67	0.818900	0.648350	0.457600
H441	H44	0.797500	0.631800	0.504400
C681	C68	0.768200	0.763900	0.337300
H451	H45	0.716700	0.773100	0.363700
C691	C69	0.794700	0.793000	0.280100
H461	H46	0.849800	0.785300	0.258700
C701	C70	0.748100	0.837000	0.244700
C711	C71	0.775100	0.855200	0.170200
H471	H47	0.826500	0.842200	0.148000
C721	C72	0.728300	0.891940	0.127800
H481	H48	0.747000	0.903600	0.075700
C731	C73	0.653800	0.912560	0.159400
C741	C74	0.629700	0.896580	0.237100
H491	H49	0.581100	0.911500	0.261200
C751	C75	0.676000	0.859000	0.279900
H501	H50	0.659000	0.848100	0.333000
C761	C76	0.599100	0.948800	0.106700
C771	C77	0.764400	0.514300	0.624000
H511	H51	0.757900	0.532300	0.572300
C781	C78	0.694900	0.514100	0.674800
H521	H52	0.640800	0.530400	0.657100
C791	C79	0.705200	0.489700	0.752200
C801	C80	0.786400	0.470150	0.775900
H531	H53	0.798200	0.455500	0.830300
C811	C81	0.851400	0.471740	0.721000
H541	H54	0.908000	0.458500	0.739600
C821	C82	0.632000	0.492800	0.808300
H551	H55	0.573100	0.495800	0.781500
C831	C83	0.640900	0.491720	0.888700
H561	H56	0.699500	0.487700	0.915500
C841	C84	0.568100	0.496200	0.944600
C851	C85	0.552800	0.457890	0.999600
C861	C86	0.484300	0.461900	0.056600
C871	C87	0.471100	0.421100	0.110100
H571	H57	0.424500	0.422200	0.146400
C881	C88	0.522700	0.381100	0.110600
H581	H58	0.513600	0.355200	0.148700
C891	C89	0.590900	0.377300	0.054500
H591	H59	0.627100	0.348900	0.055300
C901	C90	0.603900	0.414000	0.000400
H601	H60	0.648100	0.410600	0.961700
Zn41	Zn4	0.563490	0.996270	0.935430
O131	O13	0.604000	0.059730	0.994200
O141	O14	0.508300	0.065000	0.092600
O151	O15	0.874200	0.460910	0.462500
O161	O16	0.970600	0.463810	0.365200
N41	N4	0.659700	0.990380	0.855400
C911	C91	0.571500	0.080800	0.054300
C921	C92	0.612100	0.128470	0.082700
C931	C93	0.580200	0.153600	0.149600
H611	H61	0.532100	0.140600	0.177200
C941	C94	0.618200	0.197500	0.176400
H621	H62	0.596600	0.214300	0.222900
C951	C95	0.688200	0.217400	0.135300
C961	C96	0.718900	0.191600	0.069400
H631	H63	0.767500	0.204200	0.042000
C971	C97	0.681100	0.148350	0.042400
H641	H64	0.702500	0.131800	0.995600
C981	C98	0.731800	0.263900	0.162700
H651	H65	0.783300	0.273100	0.136300
C991	C99	0.705300	0.293000	0.219900
H661	H66	0.650200	0.285300	0.241300
C1001	C100	0.751900	0.337000	0.255300
C1011	C101	0.724900	0.355200	0.329800
H671	H67	0.673500	0.342200	0.352000
C1021	C102	0.771700	0.391940	0.372200
H681	H68	0.753000	0.403600	0.424300
C1031	C103	0.846200	0.412560	0.340600
C1041	C104	0.870300	0.396580	0.262900
H691	H69	0.918900	0.411500	0.238800
C1051	C105	0.824000	0.359000	0.220100
H701	H70	0.841000	0.348100	0.167000
C1061	C106	0.900900	0.448800	0.393300
C1071	C107	0.735600	0.014300	0.876000
H711	H71	0.742100	0.032300	0.927700
C1081	C108	0.805100	0.014100	0.825200
H721	H72	0.859200	0.030400	0.842900
C1091	C109	0.794800	0.989700	0.747800
C1101	C110	0.713600	0.970150	0.724100
H731	H73	0.701800	0.955500	0.669700
C1111	C111	0.648600	0.971740	0.779000
H741	H74	0.592000	0.958500	0.760400
C1121	C112	0.868000	0.992800	0.691700
H751	H75	0.926900	0.995800	0.718500
C1131	C113	0.859100	0.991720	0.611300
H761	H76	0.800500	0.987700	0.584500
C1141	C114	0.931900	0.996200	0.555400
C1151	C115	0.947200	0.957890	0.500400
C1161	C116	0.015700	0.961900	0.443400
C1171	C117	0.028900	0.921100	0.389900
H771	H77	0.075500	0.922200	0.353600
C1181	C118	0.977300	0.881100	0.389400
H781	H78	0.986400	0.855200	0.351300
C1191	C119	0.909100	0.877300	0.445500
H791	H79	0.872900	0.848900	0.444700
C1201	C120	0.896100	0.914000	0.499600
H801	H80	0.851900	0.910600	0.538300
Zn51	Zn5	0.563490	0.003730	0.435430
O171	O17	0.604000	0.940270	0.494200
O181	O18	0.508300	0.935000	0.592600
O191	O19	0.874200	0.539090	0.962500
O201	O20	0.970600	0.536190	0.865200
N51	N5	0.659700	0.009620	0.355400
C1211	C121	0.571500	0.919200	0.554300
C1221	C122	0.612100	0.871530	0.582700
C1231	C123	0.580200	0.846400	0.649600
H811	H81	0.532100	0.859400	0.677200
C1241	C124	0.618200	0.802500	0.676400
H821	H82	0.596600	0.785700	0.722900
C1251	C125	0.688200	0.782600	0.635300
C1261	C126	0.718900	0.808400	0.569400
H831	H83	0.767500	0.795800	0.542000
C1271	C127	0.681100	0.851650	0.542400
H841	H84	0.702500	0.868200	0.495600
C1281	C128	0.731800	0.736100	0.662700
H851	H85	0.783300	0.726900	0.636300
C1291	C129	0.705300	0.707000	0.719900
H861	H86	0.650200	0.714700	0.741300
C1301	C130	0.751900	0.663000	0.755300
C1311	C131	0.724900	0.644800	0.829800
H871	H87	0.673500	0.657800	0.852000
C1321	C132	0.771700	0.608060	0.872200
H881	H88	0.753000	0.596400	0.924300
C1331	C133	0.846200	0.587440	0.840600
C1341	C134	0.870300	0.603420	0.762900
H891	H89	0.918900	0.588500	0.738800
C1351	C135	0.824000	0.641000	0.720100
H901	H90	0.841000	0.651900	0.667000
C1361	C136	0.900900	0.551200	0.893300
C1371	C137	0.735600	0.985700	0.376000
H911	H91	0.742100	0.967700	0.427700
C1381	C138	0.805100	0.985900	0.325200
H921	H92	0.859200	0.969600	0.342900
C1391	C139	0.794800	0.010300	0.247800
C1401	C140	0.713600	0.029850	0.224100
H931	H93	0.701800	0.044500	0.169700
C1411	C141	0.648600	0.028260	0.279000
H941	H94	0.592000	0.041500	0.260400
C1421	C142	0.868000	0.007200	0.191700
H951	H95	0.926900	0.004200	0.218500
C1431	C143	0.859100	0.008280	0.111300
H961	H96	0.800500	0.012300	0.084500
C1441	C144	0.931900	0.003800	0.055400
C1451	C145	0.947200	0.042110	0.000400
C1461	C146	0.015700	0.038100	0.943400
C1471	C147	0.028900	0.078900	0.889900
H971	H97	0.075500	0.077800	0.853600
C1481	C148	0.977300	0.118900	0.889400
H981	H98	0.986400	0.144800	0.851300
C1491	C149	0.909100	0.122700	0.945500
H991	H99	0.872900	0.151100	0.944700
C1501	C150	0.896100	0.086000	0.999600
H1001	H100	0.851900	0.089400	0.038300
Zn61	Zn6	0.936510	0.503730	0.064570
O211	O21	0.896000	0.440270	0.005800
O221	O22	0.991700	0.435000	0.907400
O231	O23	0.625800	0.039090	0.537500
O241	O24	0.529400	0.036190	0.634800
N61	N6	0.840300	0.509620	0.144600
C1511	C151	0.928500	0.419200	0.945700
C1521	C152	0.887900	0.371530	0.917300
C1531	C153	0.919800	0.346400	0.850400
H1011	H101	0.967900	0.359400	0.822800
C1541	C154	0.881800	0.302500	0.823600
H1021	H102	0.903400	0.285700	0.777100
C1551	C155	0.811800	0.282600	0.864700
C1561	C156	0.781100	0.308400	0.930600
H1031	H103	0.732500	0.295800	0.958000
C1571	C157	0.818900	0.351650	0.957600
H1041	H104	0.797500	0.368200	0.004400
C1581	C158	0.768200	0.236100	0.837300
H1051	H105	0.716700	0.226900	0.863700
C1591	C159	0.794700	0.207000	0.780100
H1061	H106	0.849800	0.214700	0.758700
C1601	C160	0.748100	0.163000	0.744700
C1611	C161	0.775100	0.144800	0.670200
H1071	H107	0.826500	0.157800	0.648000
C1621	C162	0.728300	0.108060	0.627800
H1081	H108	0.747000	0.096400	0.575700
C1631	C163	0.653800	0.087440	0.659400
C1641	C164	0.629700	0.103420	0.737100
H1091	H109	0.581100	0.088500	0.761200
C1651	C165	0.676000	0.141000	0.779900
H1101	H110	0.659000	0.151900	0.833000
C1661	C166	0.599100	0.051200	0.606700
C1671	C167	0.764400	0.485700	0.124000
H1111	H111	0.757900	0.467700	0.072300
C1681	C168	0.694900	0.485900	0.174800
H1121	H112	0.640800	0.469600	0.157100
C1691	C169	0.705200	0.510300	0.252200
C1701	C170	0.786400	0.529850	0.275900
H1131	H113	0.798200	0.544500	0.330300
C1711	C171	0.851400	0.528260	0.221000
H1141	H114	0.908000	0.541500	0.239600
C1721	C172	0.632000	0.507200	0.308300
H1151	H115	0.573100	0.504200	0.281500
C1731	C173	0.640900	0.508280	0.388700
H1161	H116	0.699500	0.512300	0.415500
C1741	C174	0.568100	0.503800	0.444600
C1751	C175	0.552800	0.542110	0.499600
C1761	C176	0.484300	0.538100	0.556600
C1771	C177	0.471100	0.578900	0.610100
H1171	H117	0.424500	0.577800	0.646400
C1781	C178	0.522700	0.618900	0.610600
H1181	H118	0.513600	0.644800	0.648700
C1791	C179	0.590900	0.622700	0.554500
H1191	H119	0.627100	0.651100	0.555300
C1801	C180	0.603900	0.586000	0.500400
H1201	H120	0.648100	0.589400	0.461700
Zn71	Zn7	0.436510	0.996270	0.564570
O251	O25	0.396000	0.059730	0.505800
O261	O26	0.491700	0.065000	0.407400
O271	O27	0.125800	0.460910	0.037500
O281	O28	0.029400	0.463810	0.134800
N71	N7	0.340300	0.990380	0.644600
C1811	C181	0.428500	0.080800	0.445700
C1821	C182	0.387900	0.128470	0.417300
C1831	C183	0.419800	0.153600	0.350400
H1211	H121	0.467900	0.140600	0.322800
C1841	C184	0.381800	0.197500	0.323600
H1221	H122	0.403400	0.214300	0.277100
C1851	C185	0.311800	0.217400	0.364700
C1861	C186	0.281100	0.191600	0.430600
H1231	H123	0.232500	0.204200	0.458000
C1871	C187	0.318900	0.148350	0.457600
H1241	H124	0.297500	0.131800	0.504400
C1881	C188	0.268200	0.263900	0.337300
H1251	H125	0.216700	0.273100	0.363700
C1891	C189	0.294700	0.293000	0.280100
H1261	H126	0.349800	0.285300	0.258700
C1901	C190	0.248100	0.337000	0.244700
C1911	C191	0.275100	0.355200	0.170200
H1271	H127	0.326500	0.342200	0.148000
C1921	C192	0.228300	0.391940	0.127800
H1281	H128	0.247000	0.403600	0.075700
C1931	C193	0.153800	0.412560	0.159400
C1941	C194	0.129700	0.396580	0.237100
H1291	H129	0.081100	0.411500	0.261200
C1951	C195	0.176000	0.359000	0.279900
H1301	H130	0.159000	0.348100	0.333000
C1961	C196	0.099100	0.448800	0.106700
C1971	C197	0.264400	0.014300	0.624000
H1311	H131	0.257900	0.032300	0.572300
C1981	C198	0.194900	0.014100	0.674800
H1321	H132	0.140800	0.030400	0.657100
C1991	C199	0.205200	0.989700	0.752200
C2001	C200	0.286400	0.970150	0.775900
H1331	H133	0.298200	0.955500	0.830300
C2011	C201	0.351400	0.971740	0.721000
H1341	H134	0.408000	0.958500	0.739600
C2021	C202	0.132000	0.992800	0.808300
H1351	H135	0.073100	0.995800	0.781500
C2031	C203	0.140900	0.991720	0.888700
H1361	H136	0.199500	0.987700	0.915500
C2041	C204	0.068100	0.996200	0.944600
C2051	C205	0.052800	0.957890	0.999600
C2061	C206	0.984300	0.961900	0.056600
C2071	C207	0.971100	0.921100	0.110100
H1371	H137	0.924500	0.922200	0.146400
C2081	C208	0.022700	0.881100	0.110600
H1381	H138	0.013600	0.855200	0.148700
C2091	C209	0.090900	0.877300	0.054500
H1391	H139	0.127100	0.848900	0.055300
C2101	C210	0.103900	0.914000	0.000400
H1401	H140	0.148100	0.910600	0.961700
Zn81	Zn8	0.063490	0.496270	0.935430
O291	O29	0.104000	0.559730	0.994200
O301	O30	0.008300	0.565000	0.092600
O311	O31	0.374200	0.960910	0.462500
O321	O32	0.470600	0.963810	0.365200
N81	N8	0.159700	0.490380	0.855400
C2111	C211	0.071500	0.580800	0.054300
C2121	C212	0.112100	0.628470	0.082700
C2131	C213	0.080200	0.653600	0.149600
H1411	H141	0.032100	0.640600	0.177200
C2141	C214	0.118200	0.697500	0.176400
H1421	H142	0.096600	0.714300	0.222900
C2151	C215	0.188200	0.717400	0.135300
C2161	C216	0.218900	0.691600	0.069400
H1431	H143	0.267500	0.704200	0.042000
C2171	C217	0.181100	0.648350	0.042400
H1441	H144	0.202500	0.631800	0.995600
C2181	C218	0.231800	0.763900	0.162700
H1451	H145	0.283300	0.773100	0.136300
C2191	C219	0.205300	0.793000	0.219900
H1461	H146	0.150200	0.785300	0.241300
C2201	C220	0.251900	0.837000	0.255300
C2211	C221	0.224900	0.855200	0.329800
H1471	H147	0.173500	0.842200	0.352000
C2221	C222	0.271700	0.891940	0.372200
H1481	H148	0.253000	0.903600	0.424300
C2231	C223	0.346200	0.912560	0.340600
C2241	C224	0.370300	0.896580	0.262900
H1491	H149	0.418900	0.911500	0.238800
C2251	C225	0.324000	0.859000	0.220100
H1501	H150	0.341000	0.848100	0.167000
C2261	C226	0.400900	0.948800	0.393300
C2271	C227	0.235600	0.514300	0.876000
H1511	H151	0.242100	0.532300	0.927700
C2281	C228	0.305100	0.514100	0.825200
H1521	H152	0.359200	0.530400	0.842900
C2291	C229	0.294800	0.489700	0.747800
C2301	C230	0.213600	0.470150	0.724100
H1531	H153	0.201800	0.455500	0.669700
C2311	C231	0.148600	0.471740	0.779000
H1541	H154	0.092000	0.458500	0.760400
C2321	C232	0.368000	0.492800	0.691700
H1551	H155	0.426900	0.495800	0.718500
C2331	C233	0.359100	0.491720	0.611300
H1561	H156	0.300500	0.487700	0.584500
C2341	C234	0.431900	0.496200	0.555400
C2351	C235	0.447200	0.457890	0.500400
C2361	C236	0.515700	0.461900	0.443400
C2371	C237	0.528900	0.421100	0.389900
H1571	H157	0.575500	0.422200	0.353600
C2381	C238	0.477300	0.381100	0.389400
H1581	H158	0.486400	0.355200	0.351300
C2391	C239	0.409100	0.377300	0.445500
H1591	H159	0.372900	0.348900	0.444700
C2401	C240	0.396100	0.414000	0.499600
H1601	H160	0.351900	0.410600	0.538300
