data_FURQUF_ion_b_PM
_symmetry_space_group_name_H-M	'P1'
_cell_length_a	34.091000
_cell_length_b	34.091000
_cell_length_c	8.508200
_cell_angle_alpha	90.000000
_cell_angle_beta	90.000000
_cell_angle_gamma	120.000000
_symmetry_Int_Tables_number 1

loop_
_symmetry_equiv_pos_as_xyz
'x,y,z'

loop_
_atom_site_label
_atom_site_type_symbol
_atom_site_fract_x
_atom_site_fract_y
_atom_site_fract_z
Ag11	Ag1	0.851460	0.171000	0.496330
O21	O2	0.330460	0.325250	0.560930
N31	N3	0.793120	0.131350	0.342400
N41	N4	0.721730	0.917380	0.388800
C51	C5	0.780520	0.153340	0.242600
H61	H6	0.797600	0.185500	0.240900
C71	C7	0.410820	0.465200	0.475430
H81	H8	0.069830	0.815470	0.739370
C91	C9	0.385670	0.418600	0.477230
H101	H10	0.359970	0.402930	0.411230
C111	C11	0.398760	0.395110	0.577830
C121	C12	0.769040	0.085890	0.341200
H131	H13	0.777800	0.069600	0.409800
C141	C14	0.371050	0.344460	0.582730
C151	C15	0.727790	0.984910	0.279100
C161	C16	0.436870	0.330920	0.553430
H171	H17	0.453470	0.358330	0.495930
C181	C18	0.788050	0.969730	0.246200
H191	H19	0.817100	0.977500	0.206600
C201	C20	0.763220	0.930460	0.330400
H211	H21	0.775900	0.911600	0.348300
C221	C22	0.704660	0.944410	0.362100
H231	H23	0.675300	0.935600	0.401400
C241	C24	0.847000	0.257310	0.533200
O251	O25	0.180710	0.904470	0.320770
O261	O26	0.851920	0.249360	0.396100
C271	C27	0.171080	0.963210	0.226370
F281	F28	0.848430	0.324240	0.437000
F291	F29	0.126830	0.947010	0.254970
F301	F30	0.193760	0.988890	0.349570
Ag311	Ag31	0.518130	0.504330	0.829660
O321	O32	0.997120	0.658590	0.894270
N331	N33	0.459790	0.464680	0.675730
N341	N34	0.388400	0.250710	0.722130
C351	C35	0.447190	0.486670	0.575930
H361	H36	0.464270	0.518830	0.574230
C371	C37	0.077480	0.798540	0.808770
H381	H38	0.736500	0.148800	0.072700
C391	C39	0.052330	0.751940	0.810570
H401	H40	0.026630	0.736270	0.744570
C411	C41	0.065420	0.728450	0.911170
C421	C42	0.435710	0.419220	0.674530
H431	H43	0.444470	0.402930	0.743130
C441	C44	0.037710	0.677800	0.916070
C451	C45	0.394460	0.318240	0.612430
C461	C46	0.103530	0.664260	0.886770
H471	H47	0.120130	0.691670	0.829270
C481	C48	0.454720	0.303060	0.579530
H491	H49	0.483770	0.310830	0.539930
C501	C50	0.429890	0.263790	0.663730
H511	H51	0.442570	0.244930	0.681630
C521	C52	0.371330	0.277740	0.695430
H531	H53	0.341970	0.268930	0.734730
C541	C54	0.513670	0.590640	0.866530
O551	O55	0.847380	0.237800	0.654100
O561	O56	0.518590	0.582690	0.729430
C571	C57	0.837750	0.296540	0.559700
F581	F58	0.515100	0.657570	0.770330
F591	F59	0.793500	0.280340	0.588300
F601	F60	0.860430	0.322220	0.682900
Ag611	Ag61	0.184790	0.837670	0.163000
O621	O62	0.663790	0.991920	0.227600
N631	N63	0.126450	0.798020	0.009070
N641	N64	0.055060	0.584050	0.055470
C651	C65	0.113850	0.820010	0.909270
H661	H66	0.130930	0.852170	0.907570
C671	C67	0.744150	0.131870	0.142100
H681	H68	0.403170	0.482130	0.406030
C691	C69	0.719000	0.085270	0.143900
H701	H70	0.693300	0.069600	0.077900
C711	C71	0.732090	0.061780	0.244500
C721	C72	0.102370	0.752560	0.007870
H731	H73	0.111130	0.736270	0.076470
C741	C74	0.704380	0.011130	0.249400
C751	C75	0.061120	0.651580	0.945770
C761	C76	0.770200	0.997590	0.220100
H771	H77	0.786800	0.025000	0.162600
C781	C78	0.121380	0.636400	0.912870
H791	H79	0.150430	0.644170	0.873270
C801	C80	0.096550	0.597130	0.997070
H811	H81	0.109230	0.578270	0.014970
C821	C82	0.037990	0.611080	0.028770
H831	H83	0.008630	0.602270	0.068070
C841	C84	0.180330	0.923980	0.199870
O851	O85	0.514050	0.571130	0.987430
O861	O86	0.185250	0.916030	0.062770
C871	C87	0.504420	0.629870	0.893030
F881	F88	0.181760	0.990910	0.103670
F891	F89	0.460170	0.613670	0.921630
F901	F90	0.527100	0.655550	0.016230
Ag911	Ag91	0.829000	0.680460	0.496330
O921	O92	0.674750	0.005200	0.560930
N931	N93	0.868650	0.661770	0.342400
N941	N94	0.082620	0.804350	0.388800
C951	C95	0.846660	0.627180	0.242600
H961	H96	0.814500	0.612100	0.240900
C971	C97	0.534800	0.945610	0.475430
H981	H98	0.184530	0.254370	0.739370
C991	C99	0.581400	0.967060	0.477230
H1001	H100	0.597070	0.957030	0.411230
C1011	C101	0.604890	0.003640	0.577830
C1021	C102	0.914110	0.683150	0.341200
H1031	H103	0.930400	0.708200	0.409800
C1041	C104	0.655540	0.026580	0.582730
C1051	C105	0.015090	0.742880	0.279100
C1061	C106	0.669080	0.105940	0.553430
H1071	H107	0.641670	0.095130	0.495930
C1081	C108	0.030270	0.818320	0.246200
H1091	H109	0.022500	0.839600	0.206600
C1101	C110	0.069540	0.832760	0.330400
H1111	H111	0.088400	0.864300	0.348300
C1121	C112	0.055590	0.760250	0.362100
H1131	H113	0.064400	0.739700	0.401400
C1141	C114	0.742690	0.589690	0.533200
O1151	O115	0.095530	0.276250	0.320770
O1161	O116	0.750640	0.602560	0.396100
C1171	C117	0.036790	0.207880	0.226370
F1181	F118	0.675760	0.524190	0.437000
F1191	F119	0.052990	0.179830	0.254970
F1201	F120	0.011110	0.204880	0.349570
Ag1211	Ag121	0.495670	0.013790	0.829660
O1221	O122	0.341410	0.338540	0.894270
N1231	N123	0.535320	0.995100	0.675730
N1241	N124	0.749290	0.137680	0.722130
C1251	C125	0.513330	0.960510	0.575930
H1261	H126	0.481170	0.945430	0.574230
C1271	C127	0.201460	0.278950	0.808770
H1281	H128	0.851200	0.587700	0.072700
C1291	C129	0.248060	0.300400	0.810570
H1301	H130	0.263730	0.290370	0.744570
C1311	C131	0.271550	0.336980	0.911170
C1321	C132	0.580780	0.016480	0.674530
H1331	H133	0.597070	0.041530	0.743130
C1341	C134	0.322200	0.359920	0.916070
C1351	C135	0.681760	0.076210	0.612430
C1361	C136	0.335740	0.439280	0.886770
H1371	H137	0.308330	0.428470	0.829270
C1381	C138	0.696940	0.151650	0.579530
H1391	H139	0.689170	0.172930	0.539930
C1401	C140	0.736210	0.166090	0.663730
H1411	H141	0.755070	0.197630	0.681630
C1421	C142	0.722260	0.093580	0.695430
H1431	H143	0.731070	0.073030	0.734730
C1441	C144	0.409360	0.923020	0.866530
O1451	O145	0.762200	0.609580	0.654100
O1461	O146	0.417310	0.935890	0.729430
C1471	C147	0.703460	0.541210	0.559700
F1481	F148	0.342430	0.857520	0.770330
F1491	F149	0.719660	0.513160	0.588300
F1501	F150	0.677780	0.538210	0.682900
Ag1511	Ag151	0.162330	0.347130	0.163000
O1521	O152	0.008080	0.671870	0.227600
N1531	N153	0.201980	0.328440	0.009070
N1541	N154	0.415950	0.471020	0.055470
C1551	C155	0.179990	0.293850	0.909270
H1561	H156	0.147830	0.278770	0.907570
C1571	C157	0.868130	0.612280	0.142100
H1581	H158	0.517870	0.921030	0.406030
C1591	C159	0.914730	0.633730	0.143900
H1601	H160	0.930400	0.623700	0.077900
C1611	C161	0.938220	0.670310	0.244500
C1621	C162	0.247440	0.349820	0.007870
H1631	H163	0.263730	0.374870	0.076470
C1641	C164	0.988870	0.693250	0.249400
C1651	C165	0.348420	0.409550	0.945770
C1661	C166	0.002410	0.772610	0.220100
H1671	H167	0.975000	0.761800	0.162600
C1681	C168	0.363600	0.484990	0.912870
H1691	H169	0.355830	0.506270	0.873270
C1701	C170	0.402870	0.499430	0.997070
H1711	H171	0.421730	0.530970	0.014970
C1721	C172	0.388920	0.426920	0.028770
H1731	H173	0.397730	0.406370	0.068070
C1741	C174	0.076020	0.256360	0.199870
O1751	O175	0.428870	0.942910	0.987430
O1761	O176	0.083970	0.269230	0.062770
C1771	C177	0.370130	0.874540	0.893030
F1781	F178	0.009090	0.190860	0.103670
F1791	F179	0.386330	0.846490	0.921630
F1801	F180	0.344450	0.871540	0.016230
Ag1811	Ag181	0.319540	0.148540	0.496330
O1821	O182	0.994800	0.669540	0.560930
N1831	N183	0.338230	0.206880	0.342400
N1841	N184	0.195650	0.278270	0.388800
C1851	C185	0.372820	0.219480	0.242600
H1861	H186	0.387900	0.202400	0.240900
C1871	C187	0.054390	0.589180	0.475430
H1881	H188	0.745630	0.930170	0.739370
C1891	C189	0.032940	0.614330	0.477230
H1901	H190	0.042970	0.640030	0.411230
C1911	C191	0.996360	0.601240	0.577830
C1921	C192	0.316850	0.230960	0.341200
H1931	H193	0.291800	0.222200	0.409800
C1941	C194	0.973420	0.628950	0.582730
C1951	C195	0.257120	0.272210	0.279100
C1961	C196	0.894060	0.563130	0.553430
H1971	H197	0.904870	0.546530	0.495930
C1981	C198	0.181680	0.211950	0.246200
H1991	H199	0.160400	0.182900	0.206600
C2001	C200	0.167240	0.236780	0.330400
H2011	H201	0.135700	0.224100	0.348300
C2021	C202	0.239750	0.295340	0.362100
H2031	H203	0.260300	0.324700	0.401400
C2041	C204	0.410310	0.153000	0.533200
O2051	O205	0.723750	0.819290	0.320770
O2061	O206	0.397440	0.148080	0.396100
C2071	C207	0.792120	0.828920	0.226370
F2081	F208	0.475810	0.151570	0.437000
F2091	F209	0.820170	0.873170	0.254970
F2101	F210	0.795120	0.806240	0.349570
Ag2111	Ag211	0.986210	0.481870	0.829660
O2121	O212	0.661460	0.002880	0.894270
N2131	N213	0.004900	0.540210	0.675730
N2141	N214	0.862320	0.611600	0.722130
C2151	C215	0.039490	0.552810	0.575930
H2161	H216	0.054570	0.535730	0.574230
C2171	C217	0.721050	0.922520	0.808770
H2181	H218	0.412300	0.263500	0.072700
C2191	C219	0.699600	0.947670	0.810570
H2201	H220	0.709630	0.973370	0.744570
C2211	C221	0.663020	0.934580	0.911170
C2221	C222	0.983520	0.564290	0.674530
H2231	H223	0.958470	0.555530	0.743130
C2241	C224	0.640080	0.962290	0.916070
C2251	C225	0.923790	0.605540	0.612430
C2261	C226	0.560720	0.896470	0.886770
H2271	H227	0.571530	0.879870	0.829270
C2281	C228	0.848350	0.545280	0.579530
H2291	H229	0.827070	0.516230	0.539930
C2301	C230	0.833910	0.570110	0.663730
H2311	H231	0.802370	0.557430	0.681630
C2321	C232	0.906420	0.628670	0.695430
H2331	H233	0.926970	0.658030	0.734730
C2341	C234	0.076980	0.486330	0.866530
O2351	O235	0.390420	0.152620	0.654100
O2361	O236	0.064110	0.481410	0.729430
C2371	C237	0.458790	0.162250	0.559700
F2381	F238	0.142480	0.484900	0.770330
F2391	F239	0.486840	0.206500	0.588300
F2401	F240	0.461790	0.139570	0.682900
Ag2411	Ag241	0.652870	0.815210	0.163000
O2421	O242	0.328130	0.336210	0.227600
N2431	N243	0.671560	0.873550	0.009070
N2441	N244	0.528980	0.944940	0.055470
C2451	C245	0.706150	0.886150	0.909270
H2461	H246	0.721230	0.869070	0.907570
C2471	C247	0.387720	0.255850	0.142100
H2481	H248	0.078970	0.596830	0.406030
C2491	C249	0.366270	0.281000	0.143900
H2501	H250	0.376300	0.306700	0.077900
C2511	C251	0.329690	0.267910	0.244500
C2521	C252	0.650180	0.897630	0.007870
H2531	H253	0.625130	0.888870	0.076470
C2541	C254	0.306750	0.295620	0.249400
C2551	C255	0.590450	0.938880	0.945770
C2561	C256	0.227390	0.229800	0.220100
H2571	H257	0.238200	0.213200	0.162600
C2581	C258	0.515010	0.878620	0.912870
H2591	H259	0.493730	0.849570	0.873270
C2601	C260	0.500570	0.903450	0.997070
H2611	H261	0.469030	0.890770	0.014970
C2621	C262	0.573080	0.962010	0.028770
H2631	H263	0.593630	0.991370	0.068070
C2641	C264	0.743640	0.819670	0.199870
O2651	O265	0.057090	0.485950	0.987430
O2661	O266	0.730770	0.814750	0.062770
C2671	C267	0.125460	0.495580	0.893030
F2681	F268	0.809140	0.818240	0.103670
F2691	F269	0.153510	0.539830	0.921630
F2701	F270	0.128460	0.472900	0.016230
Ag2711	Ag271	0.148540	0.829000	0.503670
O2721	O272	0.669540	0.674750	0.439070
N2731	N273	0.206880	0.868650	0.657600
N2741	N274	0.278270	0.082620	0.611200
C2751	C275	0.219480	0.846660	0.757400
H2761	H276	0.202400	0.814500	0.759100
C2771	C277	0.589180	0.534800	0.524570
H2781	H278	0.930170	0.184530	0.260630
C2791	C279	0.614330	0.581400	0.522770
H2801	H280	0.640030	0.597070	0.588770
C2811	C281	0.601240	0.604890	0.422170
C2821	C282	0.230960	0.914110	0.658800
H2831	H283	0.222200	0.930400	0.590200
C2841	C284	0.628950	0.655540	0.417270
C2851	C285	0.272210	0.015090	0.720900
C2861	C286	0.563130	0.669080	0.446570
H2871	H287	0.546530	0.641670	0.504070
C2881	C288	0.211950	0.030270	0.753800
H2891	H289	0.182900	0.022500	0.793400
C2901	C290	0.236780	0.069540	0.669600
H2911	H291	0.224100	0.088400	0.651700
C2921	C292	0.295340	0.055590	0.637900
H2931	H293	0.324700	0.064400	0.598600
C2941	C294	0.153000	0.742690	0.466800
O2951	O295	0.819290	0.095530	0.679230
O2961	O296	0.148080	0.750640	0.603900
C2971	C297	0.828920	0.036790	0.773630
F2981	F298	0.151570	0.675760	0.563000
F2991	F299	0.873170	0.052990	0.745030
F3001	F300	0.806240	0.011110	0.650430
Ag3011	Ag301	0.815210	0.162330	0.837000
O3021	O302	0.336210	0.008080	0.772400
N3031	N303	0.873550	0.201980	0.990930
N3041	N304	0.944940	0.415950	0.944530
C3051	C305	0.886150	0.179990	0.090730
H3061	H306	0.869070	0.147830	0.092430
C3071	C307	0.255850	0.868130	0.857900
H3081	H308	0.596830	0.517870	0.593970
C3091	C309	0.281000	0.914730	0.856100
H3101	H310	0.306700	0.930400	0.922100
C3111	C311	0.267910	0.938220	0.755500
C3121	C312	0.897630	0.247440	0.992130
H3131	H313	0.888870	0.263730	0.923530
C3141	C314	0.295620	0.988870	0.750600
C3151	C315	0.938880	0.348420	0.054230
C3161	C316	0.229800	0.002410	0.779900
H3171	H317	0.213200	0.975000	0.837400
C3181	C318	0.878620	0.363600	0.087130
H3191	H319	0.849570	0.355830	0.126730
C3201	C320	0.903450	0.402870	0.002930
H3211	H321	0.890770	0.421730	0.985030
C3221	C322	0.962010	0.388920	0.971230
H3231	H323	0.991370	0.397730	0.931930
C3241	C324	0.819670	0.076020	0.800130
O3251	O325	0.485950	0.428870	0.012570
O3261	O326	0.814750	0.083970	0.937230
C3271	C327	0.495580	0.370130	0.106970
F3281	F328	0.818240	0.009090	0.896330
F3291	F329	0.539830	0.386330	0.078370
F3301	F330	0.472900	0.344450	0.983770
Ag3311	Ag331	0.481870	0.495670	0.170340
O3321	O332	0.002880	0.341410	0.105730
N3331	N333	0.540210	0.535320	0.324270
N3341	N334	0.611600	0.749290	0.277870
C3351	C335	0.552810	0.513330	0.424070
H3361	H336	0.535730	0.481170	0.425770
C3371	C337	0.922520	0.201460	0.191230
H3381	H338	0.263500	0.851200	0.927300
C3391	C339	0.947670	0.248060	0.189430
H3401	H340	0.973370	0.263730	0.255430
C3411	C341	0.934580	0.271550	0.088830
C3421	C342	0.564290	0.580780	0.325470
H3431	H343	0.555530	0.597070	0.256870
C3441	C344	0.962290	0.322200	0.083930
C3451	C345	0.605540	0.681760	0.387570
C3461	C346	0.896470	0.335740	0.113230
H3471	H347	0.879870	0.308330	0.170730
C3481	C348	0.545280	0.696940	0.420470
H3491	H349	0.516230	0.689170	0.460070
C3501	C350	0.570110	0.736210	0.336270
H3511	H351	0.557430	0.755070	0.318370
C3521	C352	0.628670	0.722260	0.304570
H3531	H353	0.658030	0.731070	0.265270
C3541	C354	0.486330	0.409360	0.133470
O3551	O355	0.152620	0.762200	0.345900
O3561	O356	0.481410	0.417310	0.270570
C3571	C357	0.162250	0.703460	0.440300
F3581	F358	0.484900	0.342430	0.229670
F3591	F359	0.206500	0.719660	0.411700
F3601	F360	0.139570	0.677780	0.317100
Ag3611	Ag361	0.171000	0.319540	0.503670
O3621	O362	0.325250	0.994800	0.439070
N3631	N363	0.131350	0.338230	0.657600
N3641	N364	0.917380	0.195650	0.611200
C3651	C365	0.153340	0.372820	0.757400
H3661	H366	0.185500	0.387900	0.759100
C3671	C367	0.465200	0.054390	0.524570
H3681	H368	0.815470	0.745630	0.260630
C3691	C369	0.418600	0.032940	0.522770
H3701	H370	0.402930	0.042970	0.588770
C3711	C371	0.395110	0.996360	0.422170
C3721	C372	0.085890	0.316850	0.658800
H3731	H373	0.069600	0.291800	0.590200
C3741	C374	0.344460	0.973420	0.417270
C3751	C375	0.984910	0.257120	0.720900
C3761	C376	0.330920	0.894060	0.446570
H3771	H377	0.358330	0.904870	0.504070
C3781	C378	0.969730	0.181680	0.753800
H3791	H379	0.977500	0.160400	0.793400
C3801	C380	0.930460	0.167240	0.669600
H3811	H381	0.911600	0.135700	0.651700
C3821	C382	0.944410	0.239750	0.637900
H3831	H383	0.935600	0.260300	0.598600
C3841	C384	0.257310	0.410310	0.466800
O3851	O385	0.904470	0.723750	0.679230
O3861	O386	0.249360	0.397440	0.603900
C3871	C387	0.963210	0.792120	0.773630
F3881	F388	0.324240	0.475810	0.563000
F3891	F389	0.947010	0.820170	0.745030
F3901	F390	0.988890	0.795120	0.650430
Ag3911	Ag391	0.837670	0.652870	0.837000
O3921	O392	0.991920	0.328130	0.772400
N3931	N393	0.798020	0.671560	0.990930
N3941	N394	0.584050	0.528980	0.944530
C3951	C395	0.820010	0.706150	0.090730
H3961	H396	0.852170	0.721230	0.092430
C3971	C397	0.131870	0.387720	0.857900
H3981	H398	0.482130	0.078970	0.593970
C3991	C399	0.085270	0.366270	0.856100
H4001	H400	0.069600	0.376300	0.922100
C4011	C401	0.061780	0.329690	0.755500
C4021	C402	0.752560	0.650180	0.992130
H4031	H403	0.736270	0.625130	0.923530
C4041	C404	0.011130	0.306750	0.750600
C4051	C405	0.651580	0.590450	0.054230
C4061	C406	0.997590	0.227390	0.779900
H4071	H407	0.025000	0.238200	0.837400
C4081	C408	0.636400	0.515010	0.087130
H4091	H409	0.644170	0.493730	0.126730
C4101	C410	0.597130	0.500570	0.002930
H4111	H411	0.578270	0.469030	0.985030
C4121	C412	0.611080	0.573080	0.971230
H4131	H413	0.602270	0.593630	0.931930
C4141	C414	0.923980	0.743640	0.800130
O4151	O415	0.571130	0.057090	0.012570
O4161	O416	0.916030	0.730770	0.937230
C4171	C417	0.629870	0.125460	0.106970
F4181	F418	0.990910	0.809140	0.896330
F4191	F419	0.613670	0.153510	0.078370
F4201	F420	0.655550	0.128460	0.983770
Ag4211	Ag421	0.504330	0.986210	0.170340
O4221	O422	0.658590	0.661460	0.105730
N4231	N423	0.464680	0.004900	0.324270
N4241	N424	0.250710	0.862320	0.277870
C4251	C425	0.486670	0.039490	0.424070
H4261	H426	0.518830	0.054570	0.425770
C4271	C427	0.798540	0.721050	0.191230
H4281	H428	0.148800	0.412300	0.927300
C4291	C429	0.751940	0.699600	0.189430
H4301	H430	0.736270	0.709630	0.255430
C4311	C431	0.728450	0.663020	0.088830
C4321	C432	0.419220	0.983520	0.325470
H4331	H433	0.402930	0.958470	0.256870
C4341	C434	0.677800	0.640080	0.083930
C4351	C435	0.318240	0.923790	0.387570
C4361	C436	0.664260	0.560720	0.113230
H4371	H437	0.691670	0.571530	0.170730
C4381	C438	0.303060	0.848350	0.420470
H4391	H439	0.310830	0.827070	0.460070
C4401	C440	0.263790	0.833910	0.336270
H4411	H441	0.244930	0.802370	0.318370
C4421	C442	0.277740	0.906420	0.304570
H4431	H443	0.268930	0.926970	0.265270
C4441	C444	0.590640	0.076980	0.133470
O4451	O445	0.237800	0.390420	0.345900
O4461	O446	0.582690	0.064110	0.270570
C4471	C447	0.296540	0.458790	0.440300
F4481	F448	0.657570	0.142480	0.229670
F4491	F449	0.280340	0.486840	0.411700
F4501	F450	0.322220	0.461790	0.317100
Ag4511	Ag451	0.680460	0.851460	0.503670
O4521	O452	0.005200	0.330460	0.439070
N4531	N453	0.661770	0.793120	0.657600
N4541	N454	0.804350	0.721730	0.611200
C4551	C455	0.627180	0.780520	0.757400
H4561	H456	0.612100	0.797600	0.759100
C4571	C457	0.945610	0.410820	0.524570
H4581	H458	0.254370	0.069830	0.260630
C4591	C459	0.967060	0.385670	0.522770
H4601	H460	0.957030	0.359970	0.588770
C4611	C461	0.003640	0.398760	0.422170
C4621	C462	0.683150	0.769040	0.658800
H4631	H463	0.708200	0.777800	0.590200
C4641	C464	0.026580	0.371050	0.417270
C4651	C465	0.742880	0.727790	0.720900
C4661	C466	0.105940	0.436870	0.446570
H4671	H467	0.095130	0.453470	0.504070
C4681	C468	0.818320	0.788050	0.753800
H4691	H469	0.839600	0.817100	0.793400
C4701	C470	0.832760	0.763220	0.669600
H4711	H471	0.864300	0.775900	0.651700
C4721	C472	0.760250	0.704660	0.637900
H4731	H473	0.739700	0.675300	0.598600
C4741	C474	0.589690	0.847000	0.466800
O4751	O475	0.276250	0.180710	0.679230
O4761	O476	0.602560	0.851920	0.603900
C4771	C477	0.207880	0.171080	0.773630
F4781	F478	0.524190	0.848430	0.563000
F4791	F479	0.179830	0.126830	0.745030
F4801	F480	0.204880	0.193760	0.650430
Ag4811	Ag481	0.347130	0.184790	0.837000
O4821	O482	0.671870	0.663790	0.772400
N4831	N483	0.328440	0.126450	0.990930
N4841	N484	0.471020	0.055060	0.944530
C4851	C485	0.293850	0.113850	0.090730
H4861	H486	0.278770	0.130930	0.092430
C4871	C487	0.612280	0.744150	0.857900
H4881	H488	0.921030	0.403170	0.593970
C4891	C489	0.633730	0.719000	0.856100
H4901	H490	0.623700	0.693300	0.922100
C4911	C491	0.670310	0.732090	0.755500
C4921	C492	0.349820	0.102370	0.992130
H4931	H493	0.374870	0.111130	0.923530
C4941	C494	0.693250	0.704380	0.750600
C4951	C495	0.409550	0.061120	0.054230
C4961	C496	0.772610	0.770200	0.779900
H4971	H497	0.761800	0.786800	0.837400
C4981	C498	0.484990	0.121380	0.087130
H4991	H499	0.506270	0.150430	0.126730
C5001	C500	0.499430	0.096550	0.002930
H5011	H501	0.530970	0.109230	0.985030
C5021	C502	0.426920	0.037990	0.971230
H5031	H503	0.406370	0.008630	0.931930
C5041	C504	0.256360	0.180330	0.800130
O5051	O505	0.942910	0.514050	0.012570
O5061	O506	0.269230	0.185250	0.937230
C5071	C507	0.874540	0.504420	0.106970
F5081	F508	0.190860	0.181760	0.896330
F5091	F509	0.846490	0.460170	0.078370
F5101	F510	0.871540	0.527100	0.983770
Ag5111	Ag511	0.013790	0.518130	0.170340
O5121	O512	0.338540	0.997120	0.105730
N5131	N513	0.995100	0.459790	0.324270
N5141	N514	0.137680	0.388400	0.277870
C5151	C515	0.960510	0.447190	0.424070
H5161	H516	0.945430	0.464270	0.425770
C5171	C517	0.278950	0.077480	0.191230
H5181	H518	0.587700	0.736500	0.927300
C5191	C519	0.300400	0.052330	0.189430
H5201	H520	0.290370	0.026630	0.255430
C5211	C521	0.336980	0.065420	0.088830
C5221	C522	0.016480	0.435710	0.325470
H5231	H523	0.041530	0.444470	0.256870
C5241	C524	0.359920	0.037710	0.083930
C5251	C525	0.076210	0.394460	0.387570
C5261	C526	0.439280	0.103530	0.113230
H5271	H527	0.428470	0.120130	0.170730
C5281	C528	0.151650	0.454720	0.420470
H5291	H529	0.172930	0.483770	0.460070
C5301	C530	0.166090	0.429890	0.336270
H5311	H531	0.197630	0.442570	0.318370
C5321	C532	0.093580	0.371330	0.304570
H5331	H533	0.073030	0.341970	0.265270
C5341	C534	0.923020	0.513670	0.133470
O5351	O535	0.609580	0.847380	0.345900
O5361	O536	0.935890	0.518590	0.270570
C5371	C537	0.541210	0.837750	0.440300
F5381	F538	0.857520	0.515100	0.229670
F5391	F539	0.513160	0.793500	0.411700
F5401	F540	0.538210	0.860430	0.317100
