data_FURROA_freeONLY_PM
_symmetry_space_group_name_H-M	'P1'
_cell_length_a	34.638000
_cell_length_b	34.638000
_cell_length_c	8.395400
_cell_angle_alpha	90.000000
_cell_angle_beta	90.000000
_cell_angle_gamma	120.000000
_symmetry_Int_Tables_number 1

loop_
_symmetry_equiv_pos_as_xyz
'x,y,z'

loop_
_atom_site_label
_atom_site_type_symbol
_atom_site_fract_x
_atom_site_fract_y
_atom_site_fract_z
Ag11	Ag1	0.856840	0.682450	0.490300
O11	O1	0.664500	0.664600	0.285800
N11	N1	0.796500	0.661400	0.345000
N21	N2	0.721800	0.799100	0.398000
C11	C1	0.782700	0.626100	0.249000
H11	H1	0.800200	0.612000	0.241700
C21	C2	0.744100	0.609400	0.159700
H21	H2	0.735500	0.584600	0.091500
C31	C3	0.718300	0.629000	0.170400
H31	H3	0.691200	0.617500	0.112900
C41	C4	0.732800	0.666200	0.267400
C51	C5	0.772000	0.681200	0.350900
H41	H4	0.782100	0.706900	0.416000
C61	C6	0.704700	0.687500	0.286300
C71	C7	0.726700	0.736700	0.298900
C81	C8	0.765700	0.765100	0.218700
H51	H5	0.781400	0.753900	0.159500
C91	C9	0.781000	0.810200	0.227400
H61	H6	0.806700	0.830400	0.168500
C101	C10	0.759700	0.826200	0.319900
H71	H7	0.772000	0.857500	0.329200
C111	C11	0.705900	0.755700	0.386600
H81	H8	0.679000	0.736300	0.440800
Ag21	Ag2	0.523510	0.015780	0.823630
O21	O2	0.331170	0.997930	0.619130
N31	N3	0.463170	0.994730	0.678330
N41	N4	0.388470	0.132430	0.731330
C121	C12	0.449370	0.959430	0.582330
H91	H9	0.466870	0.945330	0.575030
C131	C13	0.410770	0.942730	0.493030
H101	H10	0.402170	0.917930	0.424830
C141	C14	0.384970	0.962330	0.503730
H111	H11	0.357870	0.950830	0.446230
C151	C15	0.399470	0.999530	0.600730
C161	C16	0.438670	0.014530	0.684230
H121	H12	0.448770	0.040230	0.749330
C171	C17	0.371370	0.020830	0.619630
C181	C18	0.393370	0.070030	0.632230
C191	C19	0.432370	0.098430	0.552030
H131	H13	0.448070	0.087230	0.492830
C201	C20	0.447670	0.143530	0.560730
H141	H14	0.473370	0.163730	0.501830
C211	C21	0.426370	0.159530	0.653230
H151	H15	0.438670	0.190830	0.662530
C221	C22	0.372570	0.089030	0.719930
H161	H16	0.345670	0.069630	0.774130
Ag31	Ag3	0.190170	0.349120	0.156970
O31	O3	0.997830	0.331270	0.952470
N51	N5	0.129830	0.328070	0.011670
N61	N6	0.055130	0.465770	0.064670
C231	C23	0.116030	0.292770	0.915670
H171	H17	0.133530	0.278670	0.908370
C241	C24	0.077430	0.276070	0.826370
H181	H18	0.068830	0.251270	0.758170
C251	C25	0.051630	0.295670	0.837070
H191	H19	0.024530	0.284170	0.779570
C261	C26	0.066130	0.332870	0.934070
C271	C27	0.105330	0.347870	0.017570
H201	H20	0.115430	0.373570	0.082670
C281	C28	0.038030	0.354170	0.952970
C291	C29	0.060030	0.403370	0.965570
C301	C30	0.099030	0.431770	0.885370
H211	H21	0.114730	0.420570	0.826170
C311	C31	0.114330	0.476870	0.894070
H221	H22	0.140030	0.497070	0.835170
C321	C32	0.093030	0.492870	0.986570
H231	H23	0.105330	0.524170	0.995870
C331	C33	0.039230	0.422370	0.053270
H241	H24	0.012330	0.402970	0.107470
Ag41	Ag4	0.317550	0.174390	0.490300
O41	O4	0.335400	0.999900	0.285800
N71	N7	0.338600	0.135100	0.345000
N81	N8	0.200900	0.922700	0.398000
C341	C34	0.373900	0.156600	0.249000
H251	H25	0.388000	0.188200	0.241700
C351	C35	0.390600	0.134700	0.159700
H261	H26	0.415400	0.150900	0.091500
C361	C36	0.371000	0.089300	0.170400
H271	H27	0.382500	0.073700	0.112900
C371	C37	0.333800	0.066600	0.267400
C381	C38	0.318800	0.090800	0.350900
H281	H28	0.293100	0.075200	0.416000
C391	C39	0.312500	0.017200	0.286300
C401	C40	0.263300	0.990000	0.298900
C411	C41	0.234900	0.000600	0.218700
H291	H29	0.246100	0.027500	0.159500
C421	C42	0.189800	0.970800	0.227400
H301	H30	0.169600	0.976300	0.168500
C431	C43	0.173800	0.933500	0.319900
H311	H31	0.142500	0.914500	0.329200
C441	C44	0.244300	0.950200	0.386600
H321	H32	0.263700	0.942700	0.440800
Ag51	Ag5	0.984220	0.507720	0.823630
O51	O5	0.002070	0.333230	0.619130
N91	N9	0.005270	0.468430	0.678330
N101	N10	0.867570	0.256030	0.731330
C451	C45	0.040570	0.489930	0.582330
H331	H33	0.054670	0.521530	0.575030
C461	C46	0.057270	0.468030	0.493030
H341	H34	0.082070	0.484230	0.424830
C471	C47	0.037670	0.422630	0.503730
H351	H35	0.049170	0.407030	0.446230
C481	C48	0.000470	0.399930	0.600730
C491	C49	0.985470	0.424130	0.684230
H361	H36	0.959770	0.408530	0.749330
C501	C50	0.979170	0.350530	0.619630
C511	C51	0.929970	0.323330	0.632230
C521	C52	0.901570	0.333930	0.552030
H371	H37	0.912770	0.360830	0.492830
C531	C53	0.856470	0.304130	0.560730
H381	H38	0.836270	0.309630	0.501830
C541	C54	0.840470	0.266830	0.653230
H391	H39	0.809170	0.247830	0.662530
C551	C55	0.910970	0.283530	0.719930
H401	H40	0.930370	0.276030	0.774130
Ag61	Ag6	0.650880	0.841060	0.156970
O61	O6	0.668730	0.666570	0.952470
N111	N11	0.671930	0.801770	0.011670
N121	N12	0.534230	0.589370	0.064670
C561	C56	0.707230	0.823270	0.915670
H411	H41	0.721330	0.854870	0.908370
C571	C57	0.723930	0.801370	0.826370
H421	H42	0.748730	0.817570	0.758170
C581	C58	0.704330	0.755970	0.837070
H431	H43	0.715830	0.740370	0.779570
C591	C59	0.667130	0.733270	0.934070
C601	C60	0.652130	0.757470	0.017570
H441	H44	0.626430	0.741870	0.082670
C611	C61	0.645830	0.683870	0.952970
C621	C62	0.596630	0.656670	0.965570
C631	C63	0.568230	0.667270	0.885370
H451	H45	0.579430	0.694170	0.826170
C641	C64	0.523130	0.637470	0.894070
H461	H46	0.502930	0.642970	0.835170
C651	C65	0.507130	0.600170	0.986570
H471	H47	0.475830	0.581170	0.995870
C661	C66	0.577630	0.616870	0.053270
H481	H48	0.597030	0.609370	0.107470
Ag71	Ag7	0.825610	0.143160	0.490300
O71	O7	0.000100	0.335500	0.285800
N131	N13	0.864900	0.203500	0.345000
N141	N14	0.077300	0.278200	0.398000
C671	C67	0.843400	0.217300	0.249000
H491	H49	0.811800	0.199800	0.241700
C681	C68	0.865300	0.255900	0.159700
H501	H50	0.849100	0.264500	0.091500
C691	C69	0.910700	0.281700	0.170400
H511	H51	0.926300	0.308800	0.112900
C701	C70	0.933400	0.267200	0.267400
C711	C71	0.909200	0.228000	0.350900
H521	H52	0.924800	0.217900	0.416000
C721	C72	0.982800	0.295300	0.286300
C731	C73	0.010000	0.273300	0.298900
C741	C74	0.999400	0.234300	0.218700
H531	H53	0.972500	0.218600	0.159500
C751	C75	0.029200	0.219000	0.227400
H541	H54	0.023700	0.193300	0.168500
C761	C76	0.066500	0.240300	0.319900
H551	H55	0.085500	0.228000	0.329200
C771	C77	0.049800	0.294100	0.386600
H561	H56	0.057300	0.321000	0.440800
Ag81	Ag8	0.492280	0.476490	0.823630
O81	O8	0.666770	0.668830	0.619130
N151	N15	0.531570	0.536830	0.678330
N161	N16	0.743970	0.611530	0.731330
C781	C78	0.510070	0.550630	0.582330
H571	H57	0.478470	0.533130	0.575030
C791	C79	0.531970	0.589230	0.493030
H581	H58	0.515770	0.597830	0.424830
C801	C80	0.577370	0.615030	0.503730
H591	H59	0.592970	0.642130	0.446230
C811	C81	0.600070	0.600530	0.600730
C821	C82	0.575870	0.561330	0.684230
H601	H60	0.591470	0.551230	0.749330
C831	C83	0.649470	0.628630	0.619630
C841	C84	0.676670	0.606630	0.632230
C851	C85	0.666070	0.567630	0.552030
H611	H61	0.639170	0.551930	0.492830
C861	C86	0.695870	0.552330	0.560730
H621	H62	0.690370	0.526630	0.501830
C871	C87	0.733170	0.573630	0.653230
H631	H63	0.752170	0.561330	0.662530
C881	C88	0.716470	0.627430	0.719930
H641	H64	0.723970	0.654330	0.774130
Ag91	Ag9	0.158940	0.809830	0.156970
O91	O9	0.333430	0.002170	0.952470
N171	N17	0.198230	0.870170	0.011670
N181	N18	0.410630	0.944870	0.064670
C891	C89	0.176730	0.883970	0.915670
H651	H65	0.145130	0.866470	0.908370
C901	C90	0.198630	0.922570	0.826370
H661	H66	0.182430	0.931170	0.758170
C911	C91	0.244030	0.948370	0.837070
H671	H67	0.259630	0.975470	0.779570
C921	C92	0.266730	0.933870	0.934070
C931	C93	0.242530	0.894670	0.017570
H681	H68	0.258130	0.884570	0.082670
C941	C94	0.316130	0.961970	0.952970
C951	C95	0.343330	0.939970	0.965570
C961	C96	0.332730	0.900970	0.885370
H691	H69	0.305830	0.885270	0.826170
C971	C97	0.362530	0.885670	0.894070
H701	H70	0.357030	0.859970	0.835170
C981	C98	0.399830	0.906970	0.986570
H711	H71	0.418830	0.894670	0.995870
C991	C99	0.383130	0.960770	0.053270
H721	H72	0.390630	0.987670	0.107470
Ag101	Ag10	0.143160	0.317550	0.509700
O101	O10	0.335500	0.335400	0.714200
N191	N19	0.203500	0.338600	0.655000
N201	N20	0.278200	0.200900	0.602000
C1001	C100	0.217300	0.373900	0.751000
H731	H73	0.199800	0.388000	0.758300
C1011	C101	0.255900	0.390600	0.840300
H741	H74	0.264500	0.415400	0.908500
C1021	C102	0.281700	0.371000	0.829600
H751	H75	0.308800	0.382500	0.887100
C1031	C103	0.267200	0.333800	0.732600
C1041	C104	0.228000	0.318800	0.649100
H761	H76	0.217900	0.293100	0.584000
C1051	C105	0.295300	0.312500	0.713700
C1061	C106	0.273300	0.263300	0.701100
C1071	C107	0.234300	0.234900	0.781300
H771	H77	0.218600	0.246100	0.840500
C1081	C108	0.219000	0.189800	0.772600
H781	H78	0.193300	0.169600	0.831500
C1091	C109	0.240300	0.173800	0.680100
H791	H79	0.228000	0.142500	0.670800
C1101	C110	0.294100	0.244300	0.613400
H801	H80	0.321000	0.263700	0.559200
Ag111	Ag11	0.809830	0.650880	0.843030
O111	O11	0.002170	0.668730	0.047530
N211	N21	0.870170	0.671930	0.988330
N221	N22	0.944870	0.534230	0.935330
C1111	C111	0.883970	0.707230	0.084330
H811	H81	0.866470	0.721330	0.091630
C1121	C112	0.922570	0.723930	0.173630
H821	H82	0.931170	0.748730	0.241830
C1131	C113	0.948370	0.704330	0.162930
H831	H83	0.975470	0.715830	0.220430
C1141	C114	0.933870	0.667130	0.065930
C1151	C115	0.894670	0.652130	0.982430
H841	H84	0.884570	0.626430	0.917330
C1161	C116	0.961970	0.645830	0.047030
C1171	C117	0.939970	0.596630	0.034430
C1181	C118	0.900970	0.568230	0.114630
H851	H85	0.885270	0.579430	0.173830
C1191	C119	0.885670	0.523130	0.105930
H861	H86	0.859970	0.502930	0.164830
C1201	C120	0.906970	0.507130	0.013430
H871	H87	0.894670	0.475830	0.004130
C1211	C121	0.960770	0.577630	0.946730
H881	H88	0.987670	0.597030	0.892530
Ag121	Ag12	0.476490	0.984220	0.176370
O121	O12	0.668830	0.002070	0.380870
N231	N23	0.536830	0.005270	0.321670
N241	N24	0.611530	0.867570	0.268670
C1221	C122	0.550630	0.040570	0.417670
H891	H89	0.533130	0.054670	0.424970
C1231	C123	0.589230	0.057270	0.506970
H901	H90	0.597830	0.082070	0.575170
C1241	C124	0.615030	0.037670	0.496270
H911	H91	0.642130	0.049170	0.553770
C1251	C125	0.600530	0.000470	0.399270
C1261	C126	0.561330	0.985470	0.315770
H921	H92	0.551230	0.959770	0.250670
C1271	C127	0.628630	0.979170	0.380370
C1281	C128	0.606630	0.929970	0.367770
C1291	C129	0.567630	0.901570	0.447970
H931	H93	0.551930	0.912770	0.507170
C1301	C130	0.552330	0.856470	0.439270
H941	H94	0.526630	0.836270	0.498170
C1311	C131	0.573630	0.840470	0.346770
H951	H95	0.561330	0.809170	0.337470
C1321	C132	0.627430	0.910970	0.280070
H961	H96	0.654330	0.930370	0.225870
Ag131	Ag13	0.682450	0.825610	0.509700
O131	O13	0.664600	0.000100	0.714200
N251	N25	0.661400	0.864900	0.655000
N261	N26	0.799100	0.077300	0.602000
C1331	C133	0.626100	0.843400	0.751000
H971	H97	0.612000	0.811800	0.758300
C1341	C134	0.609400	0.865300	0.840300
H981	H98	0.584600	0.849100	0.908500
C1351	C135	0.629000	0.910700	0.829600
H991	H99	0.617500	0.926300	0.887100
C1361	C136	0.666200	0.933400	0.732600
C1371	C137	0.681200	0.909200	0.649100
H1001	H100	0.706900	0.924800	0.584000
C1381	C138	0.687500	0.982800	0.713700
C1391	C139	0.736700	0.010000	0.701100
C1401	C140	0.765100	0.999400	0.781300
H1011	H101	0.753900	0.972500	0.840500
C1411	C141	0.810200	0.029200	0.772600
H1021	H102	0.830400	0.023700	0.831500
C1421	C142	0.826200	0.066500	0.680100
H1031	H103	0.857500	0.085500	0.670800
C1431	C143	0.755700	0.049800	0.613400
H1041	H104	0.736300	0.057300	0.559200
Ag141	Ag14	0.349120	0.158940	0.843030
O141	O14	0.331270	0.333430	0.047530
N271	N27	0.328070	0.198230	0.988330
N281	N28	0.465770	0.410630	0.935330
C1441	C144	0.292770	0.176730	0.084330
H1051	H105	0.278670	0.145130	0.091630
C1451	C145	0.276070	0.198630	0.173630
H1061	H106	0.251270	0.182430	0.241830
C1461	C146	0.295670	0.244030	0.162930
H1071	H107	0.284170	0.259630	0.220430
C1471	C147	0.332870	0.266730	0.065930
C1481	C148	0.347870	0.242530	0.982430
H1081	H108	0.373570	0.258130	0.917330
C1491	C149	0.354170	0.316130	0.047030
C1501	C150	0.403370	0.343330	0.034430
C1511	C151	0.431770	0.332730	0.114630
H1091	H109	0.420570	0.305830	0.173830
C1521	C152	0.476870	0.362530	0.105930
H1101	H110	0.497070	0.357030	0.164830
C1531	C153	0.492870	0.399830	0.013430
H1111	H111	0.524170	0.418830	0.004130
C1541	C154	0.422370	0.383130	0.946730
H1121	H112	0.402970	0.390630	0.892530
Ag151	Ag15	0.015780	0.492280	0.176370
O151	O15	0.997930	0.666770	0.380870
N291	N29	0.994730	0.531570	0.321670
N301	N30	0.132430	0.743970	0.268670
C1551	C155	0.959430	0.510070	0.417670
H1131	H113	0.945330	0.478470	0.424970
C1561	C156	0.942730	0.531970	0.506970
H1141	H114	0.917930	0.515770	0.575170
C1571	C157	0.962330	0.577370	0.496270
H1151	H115	0.950830	0.592970	0.553770
C1581	C158	0.999530	0.600070	0.399270
C1591	C159	0.014530	0.575870	0.315770
H1161	H116	0.040230	0.591470	0.250670
C1601	C160	0.020830	0.649470	0.380370
C1611	C161	0.070030	0.676670	0.367770
C1621	C162	0.098430	0.666070	0.447970
H1171	H117	0.087230	0.639170	0.507170
C1631	C163	0.143530	0.695870	0.439270
H1181	H118	0.163730	0.690370	0.498170
C1641	C164	0.159530	0.733170	0.346770
H1191	H119	0.190830	0.752170	0.337470
C1651	C165	0.089030	0.716470	0.280070
H1201	H120	0.069630	0.723970	0.225870
Ag161	Ag16	0.174390	0.856840	0.509700
O161	O16	0.999900	0.664500	0.714200
N311	N31	0.135100	0.796500	0.655000
N321	N32	0.922700	0.721800	0.602000
C1661	C166	0.156600	0.782700	0.751000
H1211	H121	0.188200	0.800200	0.758300
C1671	C167	0.134700	0.744100	0.840300
H1221	H122	0.150900	0.735500	0.908500
C1681	C168	0.089300	0.718300	0.829600
H1231	H123	0.073700	0.691200	0.887100
C1691	C169	0.066600	0.732800	0.732600
C1701	C170	0.090800	0.772000	0.649100
H1241	H124	0.075200	0.782100	0.584000
C1711	C171	0.017200	0.704700	0.713700
C1721	C172	0.990000	0.726700	0.701100
C1731	C173	0.000600	0.765700	0.781300
H1251	H125	0.027500	0.781400	0.840500
C1741	C174	0.970800	0.781000	0.772600
H1261	H126	0.976300	0.806700	0.831500
C1751	C175	0.933500	0.759700	0.680100
H1271	H127	0.914500	0.772000	0.670800
C1761	C176	0.950200	0.705900	0.613400
H1281	H128	0.942700	0.679000	0.559200
Ag171	Ag17	0.841060	0.190170	0.843030
O171	O17	0.666570	0.997830	0.047530
N331	N33	0.801770	0.129830	0.988330
N341	N34	0.589370	0.055130	0.935330
C1771	C177	0.823270	0.116030	0.084330
H1291	H129	0.854870	0.133530	0.091630
C1781	C178	0.801370	0.077430	0.173630
H1301	H130	0.817570	0.068830	0.241830
C1791	C179	0.755970	0.051630	0.162930
H1311	H131	0.740370	0.024530	0.220430
C1801	C180	0.733270	0.066130	0.065930
C1811	C181	0.757470	0.105330	0.982430
H1321	H132	0.741870	0.115430	0.917330
C1821	C182	0.683870	0.038030	0.047030
C1831	C183	0.656670	0.060030	0.034430
C1841	C184	0.667270	0.099030	0.114630
H1331	H133	0.694170	0.114730	0.173830
C1851	C185	0.637470	0.114330	0.105930
H1341	H134	0.642970	0.140030	0.164830
C1861	C186	0.600170	0.093030	0.013430
H1351	H135	0.581170	0.105330	0.004130
C1871	C187	0.616870	0.039230	0.946730
H1361	H136	0.609370	0.012330	0.892530
Ag181	Ag18	0.507720	0.523510	0.176370
O181	O18	0.333230	0.331170	0.380870
N351	N35	0.468430	0.463170	0.321670
N361	N36	0.256030	0.388470	0.268670
C1881	C188	0.489930	0.449370	0.417670
H1371	H137	0.521530	0.466870	0.424970
C1891	C189	0.468030	0.410770	0.506970
H1381	H138	0.484230	0.402170	0.575170
C1901	C190	0.422630	0.384970	0.496270
H1391	H139	0.407030	0.357870	0.553770
C1911	C191	0.399930	0.399470	0.399270
C1921	C192	0.424130	0.438670	0.315770
H1401	H140	0.408530	0.448770	0.250670
C1931	C193	0.350530	0.371370	0.380370
C1941	C194	0.323330	0.393370	0.367770
C1951	C195	0.333930	0.432370	0.447970
H1411	H141	0.360830	0.448070	0.507170
C1961	C196	0.304130	0.447670	0.439270
H1421	H142	0.309630	0.473370	0.498170
C1971	C197	0.266830	0.426370	0.346770
H1431	H143	0.247830	0.438670	0.337470
C1981	C198	0.283530	0.372570	0.280070
H1441	H144	0.276030	0.345670	0.225870
