data_FURRUG_ion_b_PM
_symmetry_space_group_name_H-M	'P1'
_cell_length_a	34.697000
_cell_length_b	34.697000
_cell_length_c	8.405700
_cell_angle_alpha	90.000000
_cell_angle_beta	90.000000
_cell_angle_gamma	120.000000
_symmetry_Int_Tables_number 1

loop_
_symmetry_equiv_pos_as_xyz
'x,y,z'

loop_
_atom_site_label
_atom_site_type_symbol
_atom_site_fract_x
_atom_site_fract_y
_atom_site_fract_z
Ag11	Ag1	0.861000	0.182870	0.499550
O21	O2	0.332930	0.344040	0.647930
N31	N3	0.800500	0.143700	0.355100
N41	N4	0.718000	0.927600	0.396000
C51	C5	0.786800	0.164800	0.258500
H61	H6	0.804300	0.195500	0.248600
C71	C7	0.414770	0.476630	0.506430
H81	H8	0.073030	0.825970	0.773670
C91	C9	0.388770	0.431730	0.519130
H101	H10	0.362170	0.416830	0.463430
C111	C11	0.735800	0.075300	0.282500
C121	C12	0.775600	0.099500	0.364100
H131	H13	0.785400	0.084200	0.427900
C141	C14	0.706500	0.026300	0.304100
C151	C15	0.726900	0.997600	0.310600
C161	C16	0.431470	0.340230	0.565130
H171	H17	0.447170	0.366730	0.508830
C181	C18	0.779900	0.976800	0.235900
H191	H19	0.472470	0.315930	0.516430
C201	C20	0.755800	0.938400	0.319400
H211	H21	0.766200	0.918400	0.323100
C221	C22	0.703600	0.956600	0.390300
H231	H23	0.677000	0.949400	0.440900
C241	C24	0.842400	0.257300	0.558500
O251	O25	0.166530	0.897370	0.325770
O261	O26	0.860200	0.259500	0.429700
C271	C27	0.166030	0.964370	0.268270
F281	F28	0.197530	0.992770	0.371170
F291	F29	0.842900	0.322800	0.469000
C301	C30	0.128430	0.955670	0.380670
F311	F31	0.138430	0.940570	0.508670
F321	F32	0.132530	0.995570	0.394670
F331	F33	0.092830	0.925970	0.301670
Ag341	Ag34	0.527670	0.516200	0.832880
O351	O35	0.999590	0.677380	0.981270
N361	N36	0.467170	0.477030	0.688430
N371	N37	0.384670	0.260930	0.729330
C381	C38	0.453470	0.498130	0.591830
H391	H39	0.470970	0.528830	0.581930
C401	C40	0.081430	0.809970	0.839770
H411	H41	0.739700	0.159300	0.107000
C421	C42	0.055430	0.765070	0.852470
H431	H43	0.028830	0.750170	0.796770
C441	C44	0.402470	0.408630	0.615830
C451	C45	0.442270	0.432830	0.697430
H461	H46	0.452070	0.417530	0.761230
C471	C47	0.373170	0.359630	0.637430
C481	C48	0.393570	0.330930	0.643930
C491	C49	0.098130	0.673570	0.898470
H501	H50	0.113830	0.700070	0.842170
C511	C51	0.446570	0.310130	0.569230
H521	H52	0.139130	0.649270	0.849770
C531	C53	0.422470	0.271730	0.652730
H541	H54	0.432870	0.251730	0.656430
C551	C55	0.370270	0.289930	0.723630
H561	H56	0.343670	0.282730	0.774230
C571	C57	0.509070	0.590630	0.891830
O581	O58	0.833200	0.230700	0.659100
O591	O59	0.526870	0.592830	0.763030
C601	C60	0.832700	0.297700	0.601600
F611	F61	0.864200	0.326100	0.704500
F621	F62	0.509570	0.656130	0.802330
C631	C63	0.795100	0.289000	0.714000
F641	F64	0.805100	0.273900	0.842000
F651	F65	0.799200	0.328900	0.728000
F661	F66	0.759500	0.259300	0.635000
Ag671	Ag67	0.194330	0.849540	0.166220
O681	O68	0.666260	0.010710	0.314600
N691	N69	0.133830	0.810370	0.021770
N701	N70	0.051330	0.594270	0.062670
C711	C71	0.120130	0.831470	0.925170
H721	H72	0.137630	0.862170	0.915270
C731	C73	0.748100	0.143300	0.173100
H741	H74	0.406370	0.492630	0.440330
C751	C75	0.722100	0.098400	0.185800
H761	H76	0.695500	0.083500	0.130100
C771	C77	0.069130	0.741970	0.949170
C781	C78	0.108930	0.766170	0.030770
H791	H79	0.118730	0.750870	0.094570
C801	C80	0.039830	0.692970	0.970770
C811	C81	0.060230	0.664270	0.977270
C821	C82	0.764800	0.006900	0.231800
H831	H83	0.780500	0.033400	0.175500
C841	C84	0.113230	0.643470	0.902570
H851	H85	0.805800	0.982600	0.183100
C861	C86	0.089130	0.605070	0.986070
H871	H87	0.099530	0.585070	0.989770
C881	C88	0.036930	0.623270	0.056970
H891	H89	0.010330	0.616070	0.107570
C901	C90	0.175730	0.923970	0.225170
O911	O91	0.499870	0.564030	0.992430
O921	O92	0.193530	0.926170	0.096370
C931	C93	0.499370	0.631030	0.934930
F941	F94	0.530870	0.659430	0.037830
F951	F95	0.176230	0.989470	0.135670
C961	C96	0.461770	0.622330	0.047330
F971	F97	0.471770	0.607230	0.175330
F981	F98	0.465870	0.662230	0.061330
F991	F99	0.426170	0.592630	0.968330
Ag1001	Ag100	0.817130	0.678130	0.499550
O1011	O101	0.655960	0.988880	0.647930
N1021	N102	0.856300	0.656800	0.355100
N1031	N103	0.072400	0.790400	0.396000
C1041	C104	0.835200	0.622000	0.258500
H1051	H105	0.804500	0.608800	0.248600
C1061	C106	0.523370	0.938130	0.506430
H1071	H107	0.174030	0.247070	0.773670
C1081	C108	0.568270	0.957030	0.519130
H1091	H109	0.583170	0.945330	0.463430
C1101	C110	0.924700	0.660500	0.282500
C1111	C111	0.900500	0.676100	0.364100
H1121	H112	0.915800	0.701200	0.427900
C1131	C113	0.973700	0.680200	0.304100
C1141	C114	0.002400	0.729300	0.310600
C1151	C115	0.659770	0.091230	0.565130
H1161	H116	0.633270	0.080430	0.508830
C1171	C117	0.023200	0.803100	0.235900
H1181	H118	0.684070	0.156530	0.516430
C1191	C119	0.061600	0.817400	0.319400
H1201	H120	0.081600	0.847800	0.323100
C1211	C121	0.043400	0.747000	0.390300
H1221	H122	0.050600	0.727600	0.440900
C1231	C123	0.742700	0.585100	0.558500
O1241	O124	0.102630	0.269170	0.325770
O1251	O125	0.740500	0.600700	0.429700
C1261	C126	0.035630	0.201670	0.268270
F1271	F127	0.007230	0.204770	0.371170
F1281	F128	0.677200	0.520100	0.469000
C1291	C129	0.044330	0.172770	0.380670
F1301	F130	0.059430	0.197870	0.508670
F1311	F131	0.004430	0.136970	0.394670
F1321	F132	0.074030	0.166870	0.301670
Ag1331	Ag133	0.483800	0.011460	0.832880
O1341	O134	0.322620	0.322220	0.981270
N1351	N135	0.522970	0.990130	0.688430
N1361	N136	0.739070	0.123730	0.729330
C1371	C137	0.501870	0.955330	0.591830
H1381	H138	0.471170	0.942130	0.581930
C1391	C139	0.190030	0.271470	0.839770
H1401	H140	0.840700	0.580400	0.107000
C1411	C141	0.234930	0.290370	0.852470
H1421	H142	0.249830	0.278670	0.796770
C1431	C143	0.591370	0.993830	0.615830
C1441	C144	0.567170	0.009430	0.697430
H1451	H145	0.582470	0.034530	0.761230
C1461	C146	0.640370	0.013530	0.637430
C1471	C147	0.669070	0.062630	0.643930
C1481	C148	0.326430	0.424570	0.898470
H1491	H149	0.299930	0.413770	0.842170
C1501	C150	0.689870	0.136430	0.569230
H1511	H151	0.350730	0.489870	0.849770
C1521	C152	0.728270	0.150730	0.652730
H1531	H153	0.748270	0.181130	0.656430
C1541	C154	0.710070	0.080330	0.723630
H1551	H155	0.717270	0.060930	0.774230
C1561	C156	0.409370	0.918430	0.891830
O1571	O157	0.769300	0.602500	0.659100
O1581	O158	0.407170	0.934030	0.763030
C1591	C159	0.702300	0.535000	0.601600
F1601	F160	0.673900	0.538100	0.704500
F1611	F161	0.343870	0.853430	0.802330
C1621	C162	0.711000	0.506100	0.714000
F1631	F163	0.726100	0.531200	0.842000
F1641	F164	0.671100	0.470300	0.728000
F1651	F165	0.740700	0.500200	0.635000
Ag1661	Ag166	0.150460	0.344800	0.166220
O1671	O167	0.989290	0.655550	0.314600
N1681	N168	0.189630	0.323470	0.021770
N1691	N169	0.405730	0.457070	0.062670
C1701	C170	0.168530	0.288670	0.925170
H1711	H171	0.137830	0.275470	0.915270
C1721	C172	0.856700	0.604800	0.173100
H1731	H173	0.507370	0.913730	0.440330
C1741	C174	0.901600	0.623700	0.185800
H1751	H175	0.916500	0.612000	0.130100
C1761	C176	0.258030	0.327170	0.949170
C1771	C177	0.233830	0.342770	0.030770
H1781	H178	0.249130	0.367870	0.094570
C1791	C179	0.307030	0.346870	0.970770
C1801	C180	0.335730	0.395970	0.977270
C1811	C181	0.993100	0.757900	0.231800
H1821	H182	0.966600	0.747100	0.175500
C1831	C183	0.356530	0.469770	0.902570
H1841	H184	0.017400	0.823200	0.183100
C1851	C185	0.394930	0.484070	0.986070
H1861	H186	0.414930	0.514470	0.989770
C1871	C187	0.376730	0.413670	0.056970
H1881	H188	0.383930	0.394270	0.107570
C1891	C189	0.076030	0.251770	0.225170
O1901	O190	0.435970	0.935830	0.992430
O1911	O191	0.073830	0.267370	0.096370
C1921	C192	0.368970	0.868330	0.934930
F1931	F193	0.340570	0.871430	0.037830
F1941	F194	0.010530	0.186770	0.135670
C1951	C195	0.377670	0.839430	0.047330
F1961	F196	0.392770	0.864530	0.175330
F1971	F197	0.337770	0.803630	0.061330
F1981	F198	0.407370	0.833530	0.968330
Ag1991	Ag199	0.321870	0.139000	0.499550
O2001	O200	0.011120	0.667070	0.647930
N2011	N201	0.343200	0.199500	0.355100
N2021	N202	0.209600	0.282000	0.396000
C2031	C203	0.378000	0.213200	0.258500
H2041	H204	0.391200	0.195700	0.248600
C2051	C205	0.061870	0.585230	0.506430
H2061	H206	0.752930	0.926970	0.773670
C2071	C207	0.042970	0.611230	0.519130
H2081	H208	0.054670	0.637830	0.463430
C2091	C209	0.339500	0.264200	0.282500
C2101	C210	0.323900	0.224400	0.364100
H2111	H211	0.298800	0.214600	0.427900
C2121	C212	0.319800	0.293500	0.304100
C2131	C213	0.270700	0.273100	0.310600
C2141	C214	0.908770	0.568530	0.565130
H2151	H215	0.919570	0.552830	0.508830
C2161	C216	0.196900	0.220100	0.235900
H2171	H217	0.843470	0.527530	0.516430
C2181	C218	0.182600	0.244200	0.319400
H2191	H219	0.152200	0.233800	0.323100
C2201	C220	0.253000	0.296400	0.390300
H2211	H221	0.272400	0.323000	0.440900
C2221	C222	0.414900	0.157600	0.558500
O2231	O223	0.730830	0.833470	0.325770
O2241	O224	0.399300	0.139800	0.429700
C2251	C225	0.798330	0.833970	0.268270
F2261	F226	0.795230	0.802470	0.371170
F2271	F227	0.479900	0.157100	0.469000
C2281	C228	0.827230	0.871570	0.380670
F2291	F229	0.802130	0.861570	0.508670
F2301	F230	0.863030	0.867470	0.394670
F2311	F231	0.833130	0.907170	0.301670
Ag2321	Ag232	0.988540	0.472330	0.832880
O2331	O233	0.677780	0.000410	0.981270
N2341	N234	0.009870	0.532830	0.688430
N2351	N235	0.876270	0.615330	0.729330
C2361	C236	0.044670	0.546530	0.591830
H2371	H237	0.057870	0.529030	0.581930
C2381	C238	0.728530	0.918570	0.839770
H2391	H239	0.419600	0.260300	0.107000
C2401	C240	0.709630	0.944570	0.852470
H2411	H241	0.721330	0.971170	0.796770
C2421	C242	0.006170	0.597530	0.615830
C2431	C243	0.990570	0.557730	0.697430
H2441	H244	0.965470	0.547930	0.761230
C2451	C245	0.986470	0.626830	0.637430
C2461	C246	0.937370	0.606430	0.643930
C2471	C247	0.575430	0.901870	0.898470
H2481	H248	0.586230	0.886170	0.842170
C2491	C249	0.863570	0.553430	0.569230
H2501	H250	0.510130	0.860870	0.849770
C2511	C251	0.849270	0.577530	0.652730
H2521	H252	0.818870	0.567130	0.656430
C2531	C253	0.919670	0.629730	0.723630
H2541	H254	0.939070	0.656330	0.774230
C2551	C255	0.081570	0.490930	0.891830
O2561	O256	0.397500	0.166800	0.659100
O2571	O257	0.065970	0.473130	0.763030
C2581	C258	0.465000	0.167300	0.601600
F2591	F259	0.461900	0.135800	0.704500
F2601	F260	0.146570	0.490430	0.802330
C2611	C261	0.493900	0.204900	0.714000
F2621	F262	0.468800	0.194900	0.842000
F2631	F263	0.529700	0.200800	0.728000
F2641	F264	0.499800	0.240500	0.635000
Ag2651	Ag265	0.655200	0.805670	0.166220
O2661	O266	0.344450	0.333740	0.314600
N2671	N267	0.676530	0.866170	0.021770
N2681	N268	0.542930	0.948670	0.062670
C2691	C269	0.711330	0.879870	0.925170
H2701	H270	0.724530	0.862370	0.915270
C2711	C271	0.395200	0.251900	0.173100
H2721	H272	0.086270	0.593630	0.440330
C2731	C273	0.376300	0.277900	0.185800
H2741	H274	0.388000	0.304500	0.130100
C2751	C275	0.672830	0.930870	0.949170
C2761	C276	0.657230	0.891070	0.030770
H2771	H277	0.632130	0.881270	0.094570
C2781	C278	0.653130	0.960170	0.970770
C2791	C279	0.604030	0.939770	0.977270
C2801	C280	0.242100	0.235200	0.231800
H2811	H281	0.252900	0.219500	0.175500
C2821	C282	0.530230	0.886770	0.902570
H2831	H283	0.176800	0.194200	0.183100
C2841	C284	0.515930	0.910870	0.986070
H2851	H285	0.485530	0.900470	0.989770
C2861	C286	0.586330	0.963070	0.056970
H2871	H287	0.605730	0.989670	0.107570
C2881	C288	0.748230	0.824270	0.225170
O2891	O289	0.064170	0.500130	0.992430
O2901	O290	0.732630	0.806470	0.096370
C2911	C291	0.131670	0.500630	0.934930
F2921	F292	0.128570	0.469130	0.037830
F2931	F293	0.813230	0.823770	0.135670
C2941	C294	0.160570	0.538230	0.047330
F2951	F295	0.135470	0.528230	0.175330
F2961	F296	0.196370	0.534130	0.061330
F2971	F297	0.166470	0.573830	0.968330
Ag2981	Ag298	0.139000	0.817130	0.500450
O2991	O299	0.667070	0.655960	0.352070
N3001	N300	0.199500	0.856300	0.644900
N3011	N301	0.282000	0.072400	0.604000
C3021	C302	0.213200	0.835200	0.741500
H3031	H303	0.195700	0.804500	0.751400
C3041	C304	0.585230	0.523370	0.493570
H3051	H305	0.926970	0.174030	0.226330
C3061	C306	0.611230	0.568270	0.480870
H3071	H307	0.637830	0.583170	0.536570
C3081	C308	0.264200	0.924700	0.717500
C3091	C309	0.224400	0.900500	0.635900
H3101	H310	0.214600	0.915800	0.572100
C3111	C311	0.293500	0.973700	0.695900
C3121	C312	0.273100	0.002400	0.689400
C3131	C313	0.568530	0.659770	0.434870
H3141	H314	0.552830	0.633270	0.491170
C3151	C315	0.220100	0.023200	0.764100
H3161	H316	0.527530	0.684070	0.483570
C3171	C317	0.244200	0.061600	0.680600
H3181	H318	0.233800	0.081600	0.676900
C3191	C319	0.296400	0.043400	0.609700
H3201	H320	0.323000	0.050600	0.559100
C3211	C321	0.157600	0.742700	0.441500
O3221	O322	0.833470	0.102630	0.674230
O3231	O323	0.139800	0.740500	0.570300
C3241	C324	0.833970	0.035630	0.731730
F3251	F325	0.802470	0.007230	0.628830
F3261	F326	0.157100	0.677200	0.531000
C3271	C327	0.871570	0.044330	0.619330
F3281	F328	0.861570	0.059430	0.491330
F3291	F329	0.867470	0.004430	0.605330
F3301	F330	0.907170	0.074030	0.698330
Ag3311	Ag331	0.805670	0.150460	0.833780
O3321	O332	0.333740	0.989290	0.685400
N3331	N333	0.866170	0.189630	0.978230
N3341	N334	0.948670	0.405730	0.937330
C3351	C335	0.879870	0.168530	0.074830
H3361	H336	0.862370	0.137830	0.084730
C3371	C337	0.251900	0.856700	0.826900
H3381	H338	0.593630	0.507370	0.559670
C3391	C339	0.277900	0.901600	0.814200
H3401	H340	0.304500	0.916500	0.869900
C3411	C341	0.930870	0.258030	0.050830
C3421	C342	0.891070	0.233830	0.969230
H3431	H343	0.881270	0.249130	0.905430
C3441	C344	0.960170	0.307030	0.029230
C3451	C345	0.939770	0.335730	0.022730
C3461	C346	0.235200	0.993100	0.768200
H3471	H347	0.219500	0.966600	0.824500
C3481	C348	0.886770	0.356530	0.097430
H3491	H349	0.194200	0.017400	0.816900
C3501	C350	0.910870	0.394930	0.013930
H3511	H351	0.900470	0.414930	0.010230
C3521	C352	0.963070	0.376730	0.943030
H3531	H353	0.989670	0.383930	0.892430
C3541	C354	0.824270	0.076030	0.774830
O3551	O355	0.500130	0.435970	0.007570
O3561	O356	0.806470	0.073830	0.903630
C3571	C357	0.500630	0.368970	0.065070
F3581	F358	0.469130	0.340570	0.962170
F3591	F359	0.823770	0.010530	0.864330
C3601	C360	0.538230	0.377670	0.952670
F3611	F361	0.528230	0.392770	0.824670
F3621	F362	0.534130	0.337770	0.938670
F3631	F363	0.573830	0.407370	0.031670
Ag3641	Ag364	0.472330	0.483800	0.167120
O3651	O365	0.000410	0.322620	0.018730
N3661	N366	0.532830	0.522970	0.311570
N3671	N367	0.615330	0.739070	0.270670
C3681	C368	0.546530	0.501870	0.408170
H3691	H369	0.529030	0.471170	0.418070
C3701	C370	0.918570	0.190030	0.160230
H3711	H371	0.260300	0.840700	0.893000
C3721	C372	0.944570	0.234930	0.147530
H3731	H373	0.971170	0.249830	0.203230
C3741	C374	0.597530	0.591370	0.384170
C3751	C375	0.557730	0.567170	0.302570
H3761	H376	0.547930	0.582470	0.238770
C3771	C377	0.626830	0.640370	0.362570
C3781	C378	0.606430	0.669070	0.356070
C3791	C379	0.901870	0.326430	0.101530
H3801	H380	0.886170	0.299930	0.157830
C3811	C381	0.553430	0.689870	0.430770
H3821	H382	0.860870	0.350730	0.150230
C3831	C383	0.577530	0.728270	0.347270
H3841	H384	0.567130	0.748270	0.343570
C3851	C385	0.629730	0.710070	0.276370
H3861	H386	0.656330	0.717270	0.225770
C3871	C387	0.490930	0.409370	0.108170
O3881	O388	0.166800	0.769300	0.340900
O3891	O389	0.473130	0.407170	0.236970
C3901	C390	0.167300	0.702300	0.398400
F3911	F391	0.135800	0.673900	0.295500
F3921	F392	0.490430	0.343870	0.197670
C3931	C393	0.204900	0.711000	0.286000
F3941	F394	0.194900	0.726100	0.158000
F3951	F395	0.200800	0.671100	0.272000
F3961	F396	0.240500	0.740700	0.365000
Ag3971	Ag397	0.182870	0.321870	0.500450
O3981	O398	0.344040	0.011120	0.352070
N3991	N399	0.143700	0.343200	0.644900
N4001	N400	0.927600	0.209600	0.604000
C4011	C401	0.164800	0.378000	0.741500
H4021	H402	0.195500	0.391200	0.751400
C4031	C403	0.476630	0.061870	0.493570
H4041	H404	0.825970	0.752930	0.226330
C4051	C405	0.431730	0.042970	0.480870
H4061	H406	0.416830	0.054670	0.536570
C4071	C407	0.075300	0.339500	0.717500
C4081	C408	0.099500	0.323900	0.635900
H4091	H409	0.084200	0.298800	0.572100
C4101	C410	0.026300	0.319800	0.695900
C4111	C411	0.997600	0.270700	0.689400
C4121	C412	0.340230	0.908770	0.434870
H4131	H413	0.366730	0.919570	0.491170
C4141	C414	0.976800	0.196900	0.764100
H4151	H415	0.315930	0.843470	0.483570
C4161	C416	0.938400	0.182600	0.680600
H4171	H417	0.918400	0.152200	0.676900
C4181	C418	0.956600	0.253000	0.609700
H4191	H419	0.949400	0.272400	0.559100
C4201	C420	0.257300	0.414900	0.441500
O4211	O421	0.897370	0.730830	0.674230
O4221	O422	0.259500	0.399300	0.570300
C4231	C423	0.964370	0.798330	0.731730
F4241	F424	0.992770	0.795230	0.628830
F4251	F425	0.322800	0.479900	0.531000
C4261	C426	0.955670	0.827230	0.619330
F4271	F427	0.940570	0.802130	0.491330
F4281	F428	0.995570	0.863030	0.605330
F4291	F429	0.925970	0.833130	0.698330
Ag4301	Ag430	0.849540	0.655200	0.833780
O4311	O431	0.010710	0.344450	0.685400
N4321	N432	0.810370	0.676530	0.978230
N4331	N433	0.594270	0.542930	0.937330
C4341	C434	0.831470	0.711330	0.074830
H4351	H435	0.862170	0.724530	0.084730
C4361	C436	0.143300	0.395200	0.826900
H4371	H437	0.492630	0.086270	0.559670
C4381	C438	0.098400	0.376300	0.814200
H4391	H439	0.083500	0.388000	0.869900
C4401	C440	0.741970	0.672830	0.050830
C4411	C441	0.766170	0.657230	0.969230
H4421	H442	0.750870	0.632130	0.905430
C4431	C443	0.692970	0.653130	0.029230
C4441	C444	0.664270	0.604030	0.022730
C4451	C445	0.006900	0.242100	0.768200
H4461	H446	0.033400	0.252900	0.824500
C4471	C447	0.643470	0.530230	0.097430
H4481	H448	0.982600	0.176800	0.816900
C4491	C449	0.605070	0.515930	0.013930
H4501	H450	0.585070	0.485530	0.010230
C4511	C451	0.623270	0.586330	0.943030
H4521	H452	0.616070	0.605730	0.892430
C4531	C453	0.923970	0.748230	0.774830
O4541	O454	0.564030	0.064170	0.007570
O4551	O455	0.926170	0.732630	0.903630
C4561	C456	0.631030	0.131670	0.065070
F4571	F457	0.659430	0.128570	0.962170
F4581	F458	0.989470	0.813230	0.864330
C4591	C459	0.622330	0.160570	0.952670
F4601	F460	0.607230	0.135470	0.824670
F4611	F461	0.662230	0.196370	0.938670
F4621	F462	0.592630	0.166470	0.031670
Ag4631	Ag463	0.516200	0.988540	0.167120
O4641	O464	0.677380	0.677780	0.018730
N4651	N465	0.477030	0.009870	0.311570
N4661	N466	0.260930	0.876270	0.270670
C4671	C467	0.498130	0.044670	0.408170
H4681	H468	0.528830	0.057870	0.418070
C4691	C469	0.809970	0.728530	0.160230
H4701	H470	0.159300	0.419600	0.893000
C4711	C471	0.765070	0.709630	0.147530
H4721	H472	0.750170	0.721330	0.203230
C4731	C473	0.408630	0.006170	0.384170
C4741	C474	0.432830	0.990570	0.302570
H4751	H475	0.417530	0.965470	0.238770
C4761	C476	0.359630	0.986470	0.362570
C4771	C477	0.330930	0.937370	0.356070
C4781	C478	0.673570	0.575430	0.101530
H4791	H479	0.700070	0.586230	0.157830
C4801	C480	0.310130	0.863570	0.430770
H4811	H481	0.649270	0.510130	0.150230
C4821	C482	0.271730	0.849270	0.347270
H4831	H483	0.251730	0.818870	0.343570
C4841	C484	0.289930	0.919670	0.276370
H4851	H485	0.282730	0.939070	0.225770
C4861	C486	0.590630	0.081570	0.108170
O4871	O487	0.230700	0.397500	0.340900
O4881	O488	0.592830	0.065970	0.236970
C4891	C489	0.297700	0.465000	0.398400
F4901	F490	0.326100	0.461900	0.295500
F4911	F491	0.656130	0.146570	0.197670
C4921	C492	0.289000	0.493900	0.286000
F4931	F493	0.273900	0.468800	0.158000
F4941	F494	0.328900	0.529700	0.272000
F4951	F495	0.259300	0.499800	0.365000
Ag4961	Ag496	0.678130	0.861000	0.500450
O4971	O497	0.988880	0.332930	0.352070
N4981	N498	0.656800	0.800500	0.644900
N4991	N499	0.790400	0.718000	0.604000
C5001	C500	0.622000	0.786800	0.741500
H5011	H501	0.608800	0.804300	0.751400
C5021	C502	0.938130	0.414770	0.493570
H5031	H503	0.247070	0.073030	0.226330
C5041	C504	0.957030	0.388770	0.480870
H5051	H505	0.945330	0.362170	0.536570
C5061	C506	0.660500	0.735800	0.717500
C5071	C507	0.676100	0.775600	0.635900
H5081	H508	0.701200	0.785400	0.572100
C5091	C509	0.680200	0.706500	0.695900
C5101	C510	0.729300	0.726900	0.689400
C5111	C511	0.091230	0.431470	0.434870
H5121	H512	0.080430	0.447170	0.491170
C5131	C513	0.803100	0.779900	0.764100
H5141	H514	0.156530	0.472470	0.483570
C5151	C515	0.817400	0.755800	0.680600
H5161	H516	0.847800	0.766200	0.676900
C5171	C517	0.747000	0.703600	0.609700
H5181	H518	0.727600	0.677000	0.559100
C5191	C519	0.585100	0.842400	0.441500
O5201	O520	0.269170	0.166530	0.674230
O5211	O521	0.600700	0.860200	0.570300
C5221	C522	0.201670	0.166030	0.731730
F5231	F523	0.204770	0.197530	0.628830
F5241	F524	0.520100	0.842900	0.531000
C5251	C525	0.172770	0.128430	0.619330
F5261	F526	0.197870	0.138430	0.491330
F5271	F527	0.136970	0.132530	0.605330
F5281	F528	0.166870	0.092830	0.698330
Ag5291	Ag529	0.344800	0.194330	0.833780
O5301	O530	0.655550	0.666260	0.685400
N5311	N531	0.323470	0.133830	0.978230
N5321	N532	0.457070	0.051330	0.937330
C5331	C533	0.288670	0.120130	0.074830
H5341	H534	0.275470	0.137630	0.084730
C5351	C535	0.604800	0.748100	0.826900
H5361	H536	0.913730	0.406370	0.559670
C5371	C537	0.623700	0.722100	0.814200
H5381	H538	0.612000	0.695500	0.869900
C5391	C539	0.327170	0.069130	0.050830
C5401	C540	0.342770	0.108930	0.969230
H5411	H541	0.367870	0.118730	0.905430
C5421	C542	0.346870	0.039830	0.029230
C5431	C543	0.395970	0.060230	0.022730
C5441	C544	0.757900	0.764800	0.768200
H5451	H545	0.747100	0.780500	0.824500
C5461	C546	0.469770	0.113230	0.097430
H5471	H547	0.823200	0.805800	0.816900
C5481	C548	0.484070	0.089130	0.013930
H5491	H549	0.514470	0.099530	0.010230
C5501	C550	0.413670	0.036930	0.943030
H5511	H551	0.394270	0.010330	0.892430
C5521	C552	0.251770	0.175730	0.774830
O5531	O553	0.935830	0.499870	0.007570
O5541	O554	0.267370	0.193530	0.903630
C5551	C555	0.868330	0.499370	0.065070
F5561	F556	0.871430	0.530870	0.962170
F5571	F557	0.186770	0.176230	0.864330
C5581	C558	0.839430	0.461770	0.952670
F5591	F559	0.864530	0.471770	0.824670
F5601	F560	0.803630	0.465870	0.938670
F5611	F561	0.833530	0.426170	0.031670
Ag5621	Ag562	0.011460	0.527670	0.167120
O5631	O563	0.322220	0.999590	0.018730
N5641	N564	0.990130	0.467170	0.311570
N5651	N565	0.123730	0.384670	0.270670
C5661	C566	0.955330	0.453470	0.408170
H5671	H567	0.942130	0.470970	0.418070
C5681	C568	0.271470	0.081430	0.160230
H5691	H569	0.580400	0.739700	0.893000
C5701	C570	0.290370	0.055430	0.147530
H5711	H571	0.278670	0.028830	0.203230
C5721	C572	0.993830	0.402470	0.384170
C5731	C573	0.009430	0.442270	0.302570
H5741	H574	0.034530	0.452070	0.238770
C5751	C575	0.013530	0.373170	0.362570
C5761	C576	0.062630	0.393570	0.356070
C5771	C577	0.424570	0.098130	0.101530
H5781	H578	0.413770	0.113830	0.157830
C5791	C579	0.136430	0.446570	0.430770
H5801	H580	0.489870	0.139130	0.150230
C5811	C581	0.150730	0.422470	0.347270
H5821	H582	0.181130	0.432870	0.343570
C5831	C583	0.080330	0.370270	0.276370
H5841	H584	0.060930	0.343670	0.225770
C5851	C585	0.918430	0.509070	0.108170
O5861	O586	0.602500	0.833200	0.340900
O5871	O587	0.934030	0.526870	0.236970
C5881	C588	0.535000	0.832700	0.398400
F5891	F589	0.538100	0.864200	0.295500
F5901	F590	0.853430	0.509570	0.197670
C5911	C591	0.506100	0.795100	0.286000
F5921	F592	0.531200	0.805100	0.158000
F5931	F593	0.470300	0.799200	0.272000
F5941	F594	0.500200	0.759500	0.365000
