data_FUSGOR_freeONLY_PM
_symmetry_space_group_name_H-M	'P1'
_cell_length_a	10.179200
_cell_length_b	6.727900
_cell_length_c	12.815800
_cell_angle_alpha	90.000000
_cell_angle_beta	111.698000
_cell_angle_gamma	90.000000
_symmetry_Int_Tables_number 1

loop_
_symmetry_equiv_pos_as_xyz
'x,y,z'

loop_
_atom_site_label
_atom_site_type_symbol
_atom_site_fract_x
_atom_site_fract_y
_atom_site_fract_z
N11	N1	0.875100	0.414200	0.742620
N21	N2	0.934900	0.345900	0.847770
O11	O1	0.218700	0.465500	0.025300
H11	H1	0.255000	0.575300	0.028800
H21	H2	0.283000	0.376700	0.033900
N31	N3	0.124900	0.914200	0.257380
N41	N4	0.065100	0.845900	0.152230
O21	O2	0.781300	0.965500	0.974700
H31	H3	0.745000	0.075300	0.971200
H41	H4	0.717000	0.876700	0.966100
N51	N5	0.124900	0.585800	0.257380
N61	N6	0.065100	0.654100	0.152230
O31	O3	0.781300	0.534500	0.974700
H51	H5	0.745000	0.424700	0.971200
H61	H6	0.717000	0.623300	0.966100
N71	N7	0.875100	0.085800	0.742620
N81	N8	0.934900	0.154100	0.847770
O41	O4	0.218700	0.034500	0.025300
H71	H7	0.255000	0.924700	0.028800
H81	H8	0.283000	0.123300	0.033900
Co11	Co1	0.131200	0.250000	0.266000
C11	C1	0.393700	0.250000	0.341600
C21	C2	0.552100	0.250000	0.391500
C31	C3	0.630200	0.250000	0.322800
H91	H9	0.584200	0.250000	0.245200
C41	C4	0.777300	0.250000	0.370000
C51	C5	0.845700	0.250000	0.486400
H101	H10	0.943900	0.250000	0.518100
C61	C6	0.767600	0.250000	0.555400
C71	C7	0.620700	0.250000	0.508000
H111	H11	0.568300	0.250000	0.554000
C81	C8	0.863000	0.250000	0.295300
C91	C9	0.839600	0.250000	0.679300
O51	O5	0.330600	0.250000	0.236300
O61	O6	0.324600	0.250000	0.404600
O71	O7	0.800800	0.250000	0.192400
O81	O8	0.994000	0.250000	0.344000
O91	O9	0.005200	0.250000	0.095370
H121	H12	0.939000	0.250000	0.108000
Co21	Co2	0.868800	0.750000	0.734000
C101	C10	0.606300	0.750000	0.658400
C111	C11	0.447900	0.750000	0.608500
C121	C12	0.369800	0.750000	0.677200
H131	H13	0.415800	0.750000	0.754800
C131	C13	0.222700	0.750000	0.630000
C141	C14	0.154300	0.750000	0.513600
H141	H14	0.056100	0.750000	0.481900
C151	C15	0.232400	0.750000	0.444600
C161	C16	0.379300	0.750000	0.492000
H151	H15	0.431700	0.750000	0.446000
C171	C17	0.137000	0.750000	0.704700
C181	C18	0.160400	0.750000	0.320700
O101	O10	0.669400	0.750000	0.763700
O111	O11	0.675400	0.750000	0.595400
O121	O12	0.199200	0.750000	0.807600
O131	O13	0.006000	0.750000	0.656000
O141	O14	0.994800	0.750000	0.904630
H161	H16	0.061000	0.750000	0.892000
Co31	Co3	0.000000	0.500000	0.000000
Co41	Co4	0.000000	0.000000	0.000000
