data_FUSMIQ_freeONLY_PM
_symmetry_space_group_name_H-M	'P1'
_cell_length_a	34.029700
_cell_length_b	34.029700
_cell_length_c	8.364300
_cell_angle_alpha	90.000000
_cell_angle_beta	90.000000
_cell_angle_gamma	120.000000
_symmetry_Int_Tables_number 1

loop_
_symmetry_equiv_pos_as_xyz
'x,y,z'

loop_
_atom_site_label
_atom_site_type_symbol
_atom_site_fract_x
_atom_site_fract_y
_atom_site_fract_z
Ag11	Ag1	0.147860	0.320770	0.506770
O11	O1	0.335010	0.327890	0.779600
N11	N1	0.206600	0.339970	0.661600
N21	N2	0.278240	0.196390	0.611300
C11	C1	0.220360	0.375450	0.760800
H11	H1	0.203900	0.391300	0.761300
C21	C2	0.257150	0.390230	0.862300
H21	H2	0.265400	0.415300	0.931500
C31	C3	0.281590	0.367960	0.861200
H31	H3	0.307700	0.378000	0.926700
C41	C4	0.266990	0.330060	0.761100
C51	C5	0.229590	0.317160	0.665000
H41	H4	0.219600	0.291200	0.598600
C61	C6	0.294370	0.306820	0.755800
C71	C7	0.271210	0.257240	0.723900
C81	C8	0.228110	0.227010	0.780800
H51	H5	0.210900	0.237400	0.838200
C91	C9	0.210800	0.180960	0.751200
H61	H6	0.181500	0.159200	0.788700
C101	C10	0.236880	0.167190	0.666600
H71	H7	0.224800	0.135700	0.647100
C111	C11	0.295080	0.240430	0.640600
H81	H8	0.324700	0.261300	0.602900
Ag21	Ag2	0.814520	0.654100	0.840100
O21	O2	0.001680	0.661220	0.112930
N31	N3	0.873270	0.673300	0.994930
N41	N4	0.944910	0.529720	0.944630
C121	C12	0.887030	0.708780	0.094130
H91	H9	0.870570	0.724630	0.094630
C131	C13	0.923820	0.723560	0.195630
H101	H10	0.932070	0.748630	0.264830
C141	C14	0.948260	0.701290	0.194530
H111	H11	0.974370	0.711330	0.260030
C151	C15	0.933660	0.663390	0.094430
C161	C16	0.896260	0.650490	0.998330
H121	H12	0.886270	0.624530	0.931930
C171	C17	0.961040	0.640150	0.089130
C181	C18	0.937880	0.590570	0.057230
C191	C19	0.894780	0.560340	0.114130
H131	H13	0.877570	0.570730	0.171530
C201	C20	0.877470	0.514290	0.084530
H141	H14	0.848170	0.492530	0.122030
C211	C21	0.903550	0.500520	0.999930
H151	H15	0.891470	0.469030	0.980430
C221	C22	0.961750	0.573760	0.973930
H161	H16	0.991370	0.594630	0.936230
Ag31	Ag3	0.481190	0.987440	0.173440
O31	O3	0.668340	0.994560	0.446270
N51	N5	0.539930	0.006640	0.328270
N61	N6	0.611570	0.863060	0.277970
C231	C23	0.553690	0.042120	0.427470
H171	H17	0.537230	0.057970	0.427970
C241	C24	0.590480	0.056900	0.528970
H181	H18	0.598730	0.081970	0.598170
C251	C25	0.614920	0.034630	0.527870
H191	H19	0.641030	0.044670	0.593370
C261	C26	0.600320	0.996730	0.427770
C271	C27	0.562920	0.983830	0.331670
H201	H20	0.552930	0.957870	0.265270
C281	C28	0.627700	0.973490	0.422470
C291	C29	0.604540	0.923910	0.390570
C301	C30	0.561440	0.893680	0.447470
H211	H21	0.544230	0.904070	0.504870
C311	C31	0.544130	0.847630	0.417870
H221	H22	0.514830	0.825870	0.455370
C321	C32	0.570210	0.833860	0.333270
H231	H23	0.558130	0.802370	0.313770
C331	C33	0.628410	0.907100	0.307270
H241	H24	0.658030	0.927970	0.269570
Ag41	Ag4	0.679230	0.827090	0.506770
O41	O4	0.672110	0.007120	0.779600
N71	N7	0.660030	0.866630	0.661600
N81	N8	0.803610	0.081850	0.611300
C341	C34	0.624550	0.844910	0.760800
H251	H25	0.608700	0.812600	0.761300
C351	C35	0.609770	0.866920	0.862300
H261	H26	0.584700	0.850100	0.931500
C361	C36	0.632040	0.913630	0.861200
H271	H27	0.622000	0.929700	0.926700
C371	C37	0.669940	0.936930	0.761100
C381	C38	0.682840	0.912430	0.665000
H281	H28	0.708800	0.928400	0.598600
C391	C39	0.693180	0.987550	0.755800
C401	C40	0.742760	0.013970	0.723900
C411	C41	0.772990	0.001100	0.780800
H291	H29	0.762600	0.973500	0.838200
C421	C42	0.819040	0.029840	0.751200
H301	H30	0.840800	0.022300	0.788700
C431	C43	0.832810	0.069690	0.666600
H311	H31	0.864300	0.089100	0.647100
C441	C44	0.759570	0.054650	0.640600
H321	H32	0.738700	0.063400	0.602900
Ag51	Ag5	0.345900	0.160420	0.840100
O51	O5	0.338780	0.340450	0.112930
N91	N9	0.326700	0.199960	0.994930
N101	N10	0.470280	0.415180	0.944630
C451	C45	0.291220	0.178240	0.094130
H331	H33	0.275370	0.145930	0.094630
C461	C46	0.276440	0.200250	0.195630
H341	H34	0.251370	0.183430	0.264830
C471	C47	0.298710	0.246960	0.194530
H351	H35	0.288670	0.263030	0.260030
C481	C48	0.336610	0.270260	0.094430
C491	C49	0.349510	0.245760	0.998330
H361	H36	0.375470	0.261730	0.931930
C501	C50	0.359850	0.320880	0.089130
C511	C51	0.409430	0.347300	0.057230
C521	C52	0.439660	0.334430	0.114130
H371	H37	0.429270	0.306830	0.171530
C531	C53	0.485710	0.363170	0.084530
H381	H38	0.507470	0.355630	0.122030
C541	C54	0.499480	0.403020	0.999930
H391	H39	0.530970	0.422430	0.980430
C551	C55	0.426240	0.387980	0.973930
H401	H40	0.405370	0.396730	0.936230
Ag61	Ag6	0.012560	0.493750	0.173440
O61	O6	0.005440	0.673790	0.446270
N111	N11	0.993360	0.533300	0.328270
N121	N12	0.136940	0.748520	0.277970
C561	C56	0.957880	0.511580	0.427470
H411	H41	0.942030	0.479270	0.427970
C571	C57	0.943100	0.533590	0.528970
H421	H42	0.918030	0.516770	0.598170
C581	C58	0.965370	0.580300	0.527870
H431	H43	0.955330	0.596370	0.593370
C591	C59	0.003270	0.603600	0.427770
C601	C60	0.016170	0.579100	0.331670
H441	H44	0.042130	0.595070	0.265270
C611	C61	0.026510	0.654220	0.422470
C621	C62	0.076090	0.680640	0.390570
C631	C63	0.106320	0.667770	0.447470
H451	H45	0.095930	0.640170	0.504870
C641	C64	0.152370	0.696510	0.417870
H461	H46	0.174130	0.688970	0.455370
C651	C65	0.166140	0.736360	0.333270
H471	H47	0.197630	0.755770	0.313770
C661	C66	0.092900	0.721320	0.307270
H481	H48	0.072030	0.730070	0.269570
Ag71	Ag7	0.172910	0.852140	0.506770
O71	O7	0.992880	0.664990	0.779600
N131	N13	0.133370	0.793400	0.661600
N141	N14	0.918150	0.721760	0.611300
C671	C67	0.155090	0.779640	0.760800
H491	H49	0.187400	0.796100	0.761300
C681	C68	0.133080	0.742850	0.862300
H501	H50	0.149900	0.734600	0.931500
C691	C69	0.086370	0.718410	0.861200
H511	H51	0.070300	0.692300	0.926700
C701	C70	0.063070	0.733010	0.761100
C711	C71	0.087570	0.770410	0.665000
H521	H52	0.071600	0.780400	0.598600
C721	C72	0.012450	0.705630	0.755800
C731	C73	0.986030	0.728790	0.723900
C741	C74	0.998900	0.771890	0.780800
H531	H53	0.026500	0.789100	0.838200
C751	C75	0.970160	0.789200	0.751200
H541	H54	0.977700	0.818500	0.788700
C761	C76	0.930310	0.763120	0.666600
H551	H55	0.910900	0.775200	0.647100
C771	C77	0.945350	0.704920	0.640600
H561	H56	0.936600	0.675300	0.602900
Ag81	Ag8	0.839580	0.185480	0.840100
O81	O8	0.659550	0.998320	0.112930
N151	N15	0.800040	0.126730	0.994930
N161	N16	0.584820	0.055090	0.944630
C781	C78	0.821760	0.112970	0.094130
H571	H57	0.854070	0.129430	0.094630
C791	C79	0.799750	0.076180	0.195630
H581	H58	0.816570	0.067930	0.264830
C801	C80	0.753040	0.051740	0.194530
H591	H59	0.736970	0.025630	0.260030
C811	C81	0.729740	0.066340	0.094430
C821	C82	0.754240	0.103740	0.998330
H601	H60	0.738270	0.113730	0.931930
C831	C83	0.679120	0.038960	0.089130
C841	C84	0.652700	0.062120	0.057230
C851	C85	0.665570	0.105220	0.114130
H611	H61	0.693170	0.122430	0.171530
C861	C86	0.636830	0.122530	0.084530
H621	H62	0.644370	0.151830	0.122030
C871	C87	0.596980	0.096450	0.999930
H631	H63	0.577570	0.108530	0.980430
C881	C88	0.612020	0.038250	0.973930
H641	H64	0.603270	0.008630	0.936230
Ag91	Ag9	0.506250	0.518810	0.173440
O91	O9	0.326210	0.331660	0.446270
N171	N17	0.466700	0.460070	0.328270
N181	N18	0.251480	0.388430	0.277970
C891	C89	0.488420	0.446310	0.427470
H651	H65	0.520730	0.462770	0.427970
C901	C90	0.466410	0.409520	0.528970
H661	H66	0.483230	0.401270	0.598170
C911	C91	0.419700	0.385080	0.527870
H671	H67	0.403630	0.358970	0.593370
C921	C92	0.396400	0.399680	0.427770
C931	C93	0.420900	0.437080	0.331670
H681	H68	0.404930	0.447070	0.265270
C941	C94	0.345780	0.372300	0.422470
C951	C95	0.319360	0.395460	0.390570
C961	C96	0.332230	0.438560	0.447470
H691	H69	0.359830	0.455770	0.504870
C971	C97	0.303490	0.455870	0.417870
H701	H70	0.311030	0.485170	0.455370
C981	C98	0.263640	0.429790	0.333270
H711	H71	0.244230	0.441870	0.313770
C991	C99	0.278680	0.371590	0.307270
H721	H72	0.269930	0.341970	0.269570
Ag101	Ag10	0.852140	0.679230	0.493230
O101	O10	0.664990	0.672110	0.220400
N191	N19	0.793400	0.660030	0.338400
N201	N20	0.721760	0.803610	0.388700
C1001	C100	0.779640	0.624550	0.239200
H731	H73	0.796100	0.608700	0.238700
C1011	C101	0.742850	0.609770	0.137700
H741	H74	0.734600	0.584700	0.068500
C1021	C102	0.718410	0.632040	0.138800
H751	H75	0.692300	0.622000	0.073300
C1031	C103	0.733010	0.669940	0.238900
C1041	C104	0.770410	0.682840	0.335000
H761	H76	0.780400	0.708800	0.401400
C1051	C105	0.705630	0.693180	0.244200
C1061	C106	0.728790	0.742760	0.276100
C1071	C107	0.771890	0.772990	0.219200
H771	H77	0.789100	0.762600	0.161800
C1081	C108	0.789200	0.819040	0.248800
H781	H78	0.818500	0.840800	0.211300
C1091	C109	0.763120	0.832810	0.333400
H791	H79	0.775200	0.864300	0.352900
C1101	C110	0.704920	0.759570	0.359400
H801	H80	0.675300	0.738700	0.397100
Ag111	Ag11	0.518810	0.012560	0.826560
O111	O11	0.331660	0.005440	0.553730
N211	N21	0.460070	0.993360	0.671730
N221	N22	0.388430	0.136940	0.722030
C1111	C111	0.446310	0.957880	0.572530
H811	H81	0.462770	0.942030	0.572030
C1121	C112	0.409520	0.943100	0.471030
H821	H82	0.401270	0.918030	0.401830
C1131	C113	0.385080	0.965370	0.472130
H831	H83	0.358970	0.955330	0.406630
C1141	C114	0.399680	0.003270	0.572230
C1151	C115	0.437080	0.016170	0.668330
H841	H84	0.447070	0.042130	0.734730
C1161	C116	0.372300	0.026510	0.577530
C1171	C117	0.395460	0.076090	0.609430
C1181	C118	0.438560	0.106320	0.552530
H851	H85	0.455770	0.095930	0.495130
C1191	C119	0.455870	0.152370	0.582130
H861	H86	0.485170	0.174130	0.544630
C1201	C120	0.429790	0.166140	0.666730
H871	H87	0.441870	0.197630	0.686230
C1211	C121	0.371590	0.092900	0.692730
H881	H88	0.341970	0.072030	0.730430
Ag121	Ag12	0.185480	0.345900	0.159900
O121	O12	0.998320	0.338780	0.887070
N231	N23	0.126730	0.326700	0.005070
N241	N24	0.055090	0.470280	0.055370
C1221	C122	0.112970	0.291220	0.905870
H891	H89	0.129430	0.275370	0.905370
C1231	C123	0.076180	0.276440	0.804370
H901	H90	0.067930	0.251370	0.735170
C1241	C124	0.051740	0.298710	0.805470
H911	H91	0.025630	0.288670	0.739970
C1251	C125	0.066340	0.336610	0.905570
C1261	C126	0.103740	0.349510	0.001670
H921	H92	0.113730	0.375470	0.068070
C1271	C127	0.038960	0.359850	0.910870
C1281	C128	0.062120	0.409430	0.942770
C1291	C129	0.105220	0.439660	0.885870
H931	H93	0.122430	0.429270	0.828470
C1301	C130	0.122530	0.485710	0.915470
H941	H94	0.151830	0.507470	0.877970
C1311	C131	0.096450	0.499480	0.000070
H951	H95	0.108530	0.530970	0.019570
C1321	C132	0.038250	0.426240	0.026070
H961	H96	0.008630	0.405370	0.063770
Ag131	Ag13	0.320770	0.172910	0.493230
O131	O13	0.327890	0.992880	0.220400
N251	N25	0.339970	0.133370	0.338400
N261	N26	0.196390	0.918150	0.388700
C1331	C133	0.375450	0.155090	0.239200
H971	H97	0.391300	0.187400	0.238700
C1341	C134	0.390230	0.133080	0.137700
H981	H98	0.415300	0.149900	0.068500
C1351	C135	0.367960	0.086370	0.138800
H991	H99	0.378000	0.070300	0.073300
C1361	C136	0.330060	0.063070	0.238900
C1371	C137	0.317160	0.087570	0.335000
H1001	H100	0.291200	0.071600	0.401400
C1381	C138	0.306820	0.012450	0.244200
C1391	C139	0.257240	0.986030	0.276100
C1401	C140	0.227010	0.998900	0.219200
H1011	H101	0.237400	0.026500	0.161800
C1411	C141	0.180960	0.970160	0.248800
H1021	H102	0.159200	0.977700	0.211300
C1421	C142	0.167190	0.930310	0.333400
H1031	H103	0.135700	0.910900	0.352900
C1431	C143	0.240430	0.945350	0.359400
H1041	H104	0.261300	0.936600	0.397100
Ag141	Ag14	0.987440	0.506250	0.826560
O141	O14	0.994560	0.326210	0.553730
N271	N27	0.006640	0.466700	0.671730
N281	N28	0.863060	0.251480	0.722030
C1441	C144	0.042120	0.488420	0.572530
H1051	H105	0.057970	0.520730	0.572030
C1451	C145	0.056900	0.466410	0.471030
H1061	H106	0.081970	0.483230	0.401830
C1461	C146	0.034630	0.419700	0.472130
H1071	H107	0.044670	0.403630	0.406630
C1471	C147	0.996730	0.396400	0.572230
C1481	C148	0.983830	0.420900	0.668330
H1081	H108	0.957870	0.404930	0.734730
C1491	C149	0.973490	0.345780	0.577530
C1501	C150	0.923910	0.319360	0.609430
C1511	C151	0.893680	0.332230	0.552530
H1091	H109	0.904070	0.359830	0.495130
C1521	C152	0.847630	0.303490	0.582130
H1101	H110	0.825870	0.311030	0.544630
C1531	C153	0.833860	0.263640	0.666730
H1111	H111	0.802370	0.244230	0.686230
C1541	C154	0.907100	0.278680	0.692730
H1121	H112	0.927970	0.269930	0.730430
Ag151	Ag15	0.654100	0.839580	0.159900
O151	O15	0.661220	0.659550	0.887070
N291	N29	0.673300	0.800040	0.005070
N301	N30	0.529720	0.584820	0.055370
C1551	C155	0.708780	0.821760	0.905870
H1131	H113	0.724630	0.854070	0.905370
C1561	C156	0.723560	0.799750	0.804370
H1141	H114	0.748630	0.816570	0.735170
C1571	C157	0.701290	0.753040	0.805470
H1151	H115	0.711330	0.736970	0.739970
C1581	C158	0.663390	0.729740	0.905570
C1591	C159	0.650490	0.754240	0.001670
H1161	H116	0.624530	0.738270	0.068070
C1601	C160	0.640150	0.679120	0.910870
C1611	C161	0.590570	0.652700	0.942770
C1621	C162	0.560340	0.665570	0.885870
H1171	H117	0.570730	0.693170	0.828470
C1631	C163	0.514290	0.636830	0.915470
H1181	H118	0.492530	0.644370	0.877970
C1641	C164	0.500520	0.596980	0.000070
H1191	H119	0.469030	0.577570	0.019570
C1651	C165	0.573760	0.612020	0.026070
H1201	H120	0.594630	0.603270	0.063770
Ag161	Ag16	0.827090	0.147860	0.493230
O161	O16	0.007120	0.335010	0.220400
N311	N31	0.866630	0.206600	0.338400
N321	N32	0.081850	0.278240	0.388700
C1661	C166	0.844910	0.220360	0.239200
H1211	H121	0.812600	0.203900	0.238700
C1671	C167	0.866920	0.257150	0.137700
H1221	H122	0.850100	0.265400	0.068500
C1681	C168	0.913630	0.281590	0.138800
H1231	H123	0.929700	0.307700	0.073300
C1691	C169	0.936930	0.266990	0.238900
C1701	C170	0.912430	0.229590	0.335000
H1241	H124	0.928400	0.219600	0.401400
C1711	C171	0.987550	0.294370	0.244200
C1721	C172	0.013970	0.271210	0.276100
C1731	C173	0.001100	0.228110	0.219200
H1251	H125	0.973500	0.210900	0.161800
C1741	C174	0.029840	0.210800	0.248800
H1261	H126	0.022300	0.181500	0.211300
C1751	C175	0.069690	0.236880	0.333400
H1271	H127	0.089100	0.224800	0.352900
C1761	C176	0.054650	0.295080	0.359400
H1281	H128	0.063400	0.324700	0.397100
Ag171	Ag17	0.493750	0.481190	0.826560
O171	O17	0.673790	0.668340	0.553730
N331	N33	0.533300	0.539930	0.671730
N341	N34	0.748520	0.611570	0.722030
C1771	C177	0.511580	0.553690	0.572530
H1291	H129	0.479270	0.537230	0.572030
C1781	C178	0.533590	0.590480	0.471030
H1301	H130	0.516770	0.598730	0.401830
C1791	C179	0.580300	0.614920	0.472130
H1311	H131	0.596370	0.641030	0.406630
C1801	C180	0.603600	0.600320	0.572230
C1811	C181	0.579100	0.562920	0.668330
H1321	H132	0.595070	0.552930	0.734730
C1821	C182	0.654220	0.627700	0.577530
C1831	C183	0.680640	0.604540	0.609430
C1841	C184	0.667770	0.561440	0.552530
H1331	H133	0.640170	0.544230	0.495130
C1851	C185	0.696510	0.544130	0.582130
H1341	H134	0.688970	0.514830	0.544630
C1861	C186	0.736360	0.570210	0.666730
H1351	H135	0.755770	0.558130	0.686230
C1871	C187	0.721320	0.628410	0.692730
H1361	H136	0.730070	0.658030	0.730430
Ag181	Ag18	0.160420	0.814520	0.159900
O181	O18	0.340450	0.001680	0.887070
N351	N35	0.199960	0.873270	0.005070
N361	N36	0.415180	0.944910	0.055370
C1881	C188	0.178240	0.887030	0.905870
H1371	H137	0.145930	0.870570	0.905370
C1891	C189	0.200250	0.923820	0.804370
H1381	H138	0.183430	0.932070	0.735170
C1901	C190	0.246960	0.948260	0.805470
H1391	H139	0.263030	0.974370	0.739970
C1911	C191	0.270260	0.933660	0.905570
C1921	C192	0.245760	0.896260	0.001670
H1401	H140	0.261730	0.886270	0.068070
C1931	C193	0.320880	0.961040	0.910870
C1941	C194	0.347300	0.937880	0.942770
C1951	C195	0.334430	0.894780	0.885870
H1411	H141	0.306830	0.877570	0.828470
C1961	C196	0.363170	0.877470	0.915470
H1421	H142	0.355630	0.848170	0.877970
C1971	C197	0.403020	0.903550	0.000070
H1431	H143	0.422430	0.891470	0.019570
C1981	C198	0.387980	0.961750	0.026070
H1441	H144	0.396730	0.991370	0.063770
