data_FUSQUH_freeONLY_PM
_symmetry_space_group_name_H-M	'P1'
_cell_length_a	38.226000
_cell_length_b	13.456000
_cell_length_c	33.945000
_cell_angle_alpha	90.000000
_cell_angle_beta	110.132000
_cell_angle_gamma	90.000000
_symmetry_Int_Tables_number 1

loop_
_symmetry_equiv_pos_as_xyz
'x,y,z'

loop_
_atom_site_label
_atom_site_type_symbol
_atom_site_fract_x
_atom_site_fract_y
_atom_site_fract_z
Co11	Co1	0.009610	0.315450	0.042140
Co21	Co2	0.289750	0.382020	0.467330
O11	O1	0.262130	0.368900	0.400310
O21	O2	0.218290	0.335700	0.984240
O31	O3	0.118500	0.285900	0.041940
H11	H1	0.098200	0.298800	0.044000
O41	O4	0.223920	0.380500	0.320960
H21	H2	0.240500	0.393400	0.343200
O51	O5	0.024230	0.376100	0.098890
O61	O6	0.048670	0.321500	0.017380
N11	N1	0.956000	0.419400	0.968680
H31	H3	0.970900	0.413200	0.954800
O71	O7	0.016320	0.345300	0.949950
O81	O8	0.063440	0.258300	0.107290
O91	O9	0.237390	0.298200	0.441700
C11	C1	0.206790	0.274200	0.369230
N21	N2	0.965710	0.398300	0.009860
O101	O10	0.121980	0.247300	0.172590
H41	H4	0.107300	0.232800	0.149300
C21	C2	0.935280	0.419000	0.019600
C31	C3	0.181630	0.232100	0.028200
H51	H5	0.197400	0.188900	0.018700
H61	H6	0.176200	0.197900	0.050600
C41	C4	0.220820	0.373900	0.021700
C51	C5	0.236770	0.317300	0.404860
C61	C6	0.166670	0.316500	0.250400
H71	H7	0.170700	0.264000	0.232900
H81	H8	0.185700	0.366500	0.253300
N31	N3	0.989700	0.176800	0.040490
C71	C7	0.145300	0.247500	0.992100
C81	C8	0.045680	0.324000	0.978600
C91	C9	0.079740	0.296300	0.969000
C101	C10	0.114630	0.276700	0.001200
C111	C11	0.051900	0.329400	0.121500
C121	C12	0.932920	0.952700	0.999500
H91	H9	0.943000	0.927700	0.978800
H101	H10	0.933200	0.898300	0.018400
C131	C13	0.958280	0.033700	0.024300
C141	C14	0.201610	0.308600	0.327300
C151	C15	0.141340	0.227200	0.949900
C161	C16	0.203570	0.326800	0.046300
C171	C17	0.227060	0.457000	0.099000
N41	N4	0.996610	0.118400	0.074300
H111	H11	0.011500	0.134500	0.098900
C181	C18	0.150100	0.194600	0.299300
C191	C19	0.966670	0.123700	0.009500
C201	C20	0.207180	0.367900	0.086200
C211	C21	0.244820	0.501800	0.073700
H121	H12	0.258500	0.559600	0.082800
C221	C22	0.073560	0.367000	0.164100
C231	C23	0.129200	0.363000	0.227400
C241	C24	0.172710	0.273300	0.293260
C251	C25	0.106800	0.249200	0.916200
C261	C26	0.921400	0.450400	0.952000
C271	C27	0.190010	0.324200	0.113100
H131	H13	0.176300	0.266000	0.105000
C281	C28	0.170100	0.182600	0.937300
H141	H14	0.192800	0.166000	0.957700
C291	C29	0.108130	0.326400	0.188300
C301	C30	0.893420	0.983200	0.977400
C311	C31	0.242310	0.461900	0.035900
C321	C32	0.903800	0.476800	0.906800
H151	H15	0.921400	0.466700	0.892700
H161	H16	0.896200	0.545200	0.904400
H171	H17	0.882400	0.435400	0.894200
C331	C33	0.101400	0.230300	0.873800
H181	H18	0.078900	0.244500	0.852600
C341	C34	0.077170	0.285200	0.928100
H191	H19	0.054900	0.302200	0.907200
C351	C35	0.155700	0.158800	0.339800
C361	C36	0.133200	0.084200	0.347400
H201	H20	0.137300	0.061600	0.374500
C371	C37	0.906760	0.452800	0.984400
C381	C38	0.952400	0.160700	0.964300
H211	H21	0.962800	0.225000	0.962900
H221	H22	0.925700	0.165400	0.954800
H231	H23	0.959700	0.115100	0.946800
C391	C39	0.231100	0.498400	0.138300
H241	H24	0.245000	0.556100	0.147100
C401	C40	0.978100	0.033300	0.066000
C411	C41	0.131100	0.189600	0.864900
H251	H25	0.128700	0.178600	0.837000
C421	C42	0.121200	0.152000	0.266000
H261	H26	0.116900	0.173500	0.238700
C431	C43	0.193700	0.367900	0.151000
H271	H27	0.181900	0.339200	0.168000
C441	C44	0.183200	0.201700	0.373900
H281	H28	0.185700	0.180600	0.400800
C451	C45	0.164700	0.164400	0.896500
H291	H29	0.183500	0.134700	0.889200
C461	C46	0.099300	0.079600	0.273200
H301	H30	0.080200	0.052700	0.250700
C471	C47	0.934800	0.407000	0.063100
H311	H31	0.958500	0.382400	0.081000
H321	H32	0.915600	0.360700	0.062900
H331	H33	0.929900	0.470000	0.073400
C481	C48	0.079400	0.481100	0.221600
C491	C49	0.059500	0.442600	0.180500
H341	H34	0.036600	0.470100	0.164800
C501	C50	0.214200	0.452800	0.164100
H351	H35	0.216900	0.479900	0.190200
C511	C51	0.115100	0.443400	0.243700
C521	C52	0.064700	0.560500	0.238600
H361	H36	0.041100	0.585000	0.223900
C531	C53	0.981000	0.960400	0.100800
H371	H37	0.998100	0.985500	0.126800
H381	H38	0.989900	0.897700	0.094500
H391	H39	0.956900	0.951500	0.103200
C541	C54	0.104600	0.044600	0.313500
H401	H40	0.089300	0.995300	0.317700
C551	C55	0.134500	0.487600	0.283100
H411	H41	0.158000	0.464500	0.299100
C561	C56	0.118800	0.563700	0.297600
H421	H42	0.131900	0.591300	0.323700
C571	C57	0.084700	0.600400	0.275500
H431	H43	0.075200	0.653700	0.286000
C581	C58	0.869090	0.025000	0.995500
C591	C59	0.873310	0.972700	0.936100
N51	N5	0.838490	0.007500	0.929720
H441	H44	0.820900	0.008800	0.905700
N61	N6	0.835000	0.040100	0.966070
C601	C60	0.875260	0.054700	0.038600
H451	H45	0.852600	0.081100	0.040600
H461	H46	0.894300	0.104600	0.047000
H471	H47	0.882900	0.998000	0.056700
C611	C61	0.883000	0.930000	0.900400
H481	H48	0.861900	0.935500	0.874900
H491	H49	0.889700	0.861300	0.905900
H501	H50	0.903700	0.965900	0.897400
C621	C62	0.261440	0.513600	0.009000
O111	O11	0.281460	0.589100	0.023580
O121	O12	0.257260	0.479300	0.973300
C631	C63	0.867510	0.481000	0.981600
H511	H51	0.868900	0.534500	0.001200
H521	H52	0.854100	0.505700	0.953600
C641	C64	0.846460	0.397400	0.990700
C651	C65	0.833180	0.389600	0.023500
C661	C66	0.834370	0.310800	0.966700
N71	N7	0.814830	0.300800	0.018550
H531	H53	0.804200	0.278700	0.035400
N81	N8	0.815310	0.252200	0.984280
C671	C67	0.836520	0.455600	0.060000
H541	H54	0.850100	0.514400	0.058300
H551	H55	0.849500	0.421000	0.085600
H561	H56	0.812100	0.473800	0.059500
C681	C68	0.841200	0.281800	0.927300
H571	H57	0.829600	0.219000	0.917600
H581	H58	0.867600	0.276400	0.933000
H591	H59	0.831000	0.331400	0.906200
Co31	Co3	0.509610	0.815450	0.042140
Co41	Co4	0.789750	0.882020	0.467330
O131	O13	0.762130	0.868900	0.400310
O141	O14	0.718290	0.835700	0.984240
O151	O15	0.618500	0.785900	0.041940
H601	H60	0.598200	0.798800	0.044000
O161	O16	0.723920	0.880500	0.320960
H611	H61	0.740500	0.893400	0.343200
O171	O17	0.524230	0.876100	0.098890
O181	O18	0.548670	0.821500	0.017380
N91	N9	0.456000	0.919400	0.968680
H621	H62	0.470900	0.913200	0.954800
O191	O19	0.516320	0.845300	0.949950
O201	O20	0.563440	0.758300	0.107290
O211	O21	0.737390	0.798200	0.441700
C691	C69	0.706790	0.774200	0.369230
N101	N10	0.465710	0.898300	0.009860
O221	O22	0.621980	0.747300	0.172590
H631	H63	0.607300	0.732800	0.149300
C701	C70	0.435280	0.919000	0.019600
C711	C71	0.681630	0.732100	0.028200
H641	H64	0.697400	0.688900	0.018700
H651	H65	0.676200	0.697900	0.050600
C721	C72	0.720820	0.873900	0.021700
C731	C73	0.736770	0.817300	0.404860
C741	C74	0.666670	0.816500	0.250400
H661	H66	0.670700	0.764000	0.232900
H671	H67	0.685700	0.866500	0.253300
N111	N11	0.489700	0.676800	0.040490
C751	C75	0.645300	0.747500	0.992100
C761	C76	0.545680	0.824000	0.978600
C771	C77	0.579740	0.796300	0.969000
C781	C78	0.614630	0.776700	0.001200
C791	C79	0.551900	0.829400	0.121500
C801	C80	0.432920	0.452700	0.999500
H681	H68	0.443000	0.427700	0.978800
H691	H69	0.433200	0.398300	0.018400
C811	C81	0.458280	0.533700	0.024300
C821	C82	0.701610	0.808600	0.327300
C831	C83	0.641340	0.727200	0.949900
C841	C84	0.703570	0.826800	0.046300
C851	C85	0.727060	0.957000	0.099000
N121	N12	0.496610	0.618400	0.074300
H701	H70	0.511500	0.634500	0.098900
C861	C86	0.650100	0.694600	0.299300
C871	C87	0.466670	0.623700	0.009500
C881	C88	0.707180	0.867900	0.086200
C891	C89	0.744820	0.001800	0.073700
H711	H71	0.758500	0.059600	0.082800
C901	C90	0.573560	0.867000	0.164100
C911	C91	0.629200	0.863000	0.227400
C921	C92	0.672710	0.773300	0.293260
C931	C93	0.606800	0.749200	0.916200
C941	C94	0.421400	0.950400	0.952000
C951	C95	0.690010	0.824200	0.113100
H721	H72	0.676300	0.766000	0.105000
C961	C96	0.670100	0.682600	0.937300
H731	H73	0.692800	0.666000	0.957700
C971	C97	0.608130	0.826400	0.188300
C981	C98	0.393420	0.483200	0.977400
C991	C99	0.742310	0.961900	0.035900
C1001	C100	0.403800	0.976800	0.906800
H741	H74	0.421400	0.966700	0.892700
H751	H75	0.396200	0.045200	0.904400
H761	H76	0.382400	0.935400	0.894200
C1011	C101	0.601400	0.730300	0.873800
H771	H77	0.578900	0.744500	0.852600
C1021	C102	0.577170	0.785200	0.928100
H781	H78	0.554900	0.802200	0.907200
C1031	C103	0.655700	0.658800	0.339800
C1041	C104	0.633200	0.584200	0.347400
H791	H79	0.637300	0.561600	0.374500
C1051	C105	0.406760	0.952800	0.984400
C1061	C106	0.452400	0.660700	0.964300
H801	H80	0.462800	0.725000	0.962900
H811	H81	0.425700	0.665400	0.954800
H821	H82	0.459700	0.615100	0.946800
C1071	C107	0.731100	0.998400	0.138300
H831	H83	0.745000	0.056100	0.147100
C1081	C108	0.478100	0.533300	0.066000
C1091	C109	0.631100	0.689600	0.864900
H841	H84	0.628700	0.678600	0.837000
C1101	C110	0.621200	0.652000	0.266000
H851	H85	0.616900	0.673500	0.238700
C1111	C111	0.693700	0.867900	0.151000
H861	H86	0.681900	0.839200	0.168000
C1121	C112	0.683200	0.701700	0.373900
H871	H87	0.685700	0.680600	0.400800
C1131	C113	0.664700	0.664400	0.896500
H881	H88	0.683500	0.634700	0.889200
C1141	C114	0.599300	0.579600	0.273200
H891	H89	0.580200	0.552700	0.250700
C1151	C115	0.434800	0.907000	0.063100
H901	H90	0.458500	0.882400	0.081000
H911	H91	0.415600	0.860700	0.062900
H921	H92	0.429900	0.970000	0.073400
C1161	C116	0.579400	0.981100	0.221600
C1171	C117	0.559500	0.942600	0.180500
H931	H93	0.536600	0.970100	0.164800
C1181	C118	0.714200	0.952800	0.164100
H941	H94	0.716900	0.979900	0.190200
C1191	C119	0.615100	0.943400	0.243700
C1201	C120	0.564700	0.060500	0.238600
H951	H95	0.541100	0.085000	0.223900
C1211	C121	0.481000	0.460400	0.100800
H961	H96	0.498100	0.485500	0.126800
H971	H97	0.489900	0.397700	0.094500
H981	H98	0.456900	0.451500	0.103200
C1221	C122	0.604600	0.544600	0.313500
H991	H99	0.589300	0.495300	0.317700
C1231	C123	0.634500	0.987600	0.283100
H1001	H100	0.658000	0.964500	0.299100
C1241	C124	0.618800	0.063700	0.297600
H1011	H101	0.631900	0.091300	0.323700
C1251	C125	0.584700	0.100400	0.275500
H1021	H102	0.575200	0.153700	0.286000
C1261	C126	0.369090	0.525000	0.995500
C1271	C127	0.373310	0.472700	0.936100
N131	N13	0.338490	0.507500	0.929720
H1031	H103	0.320900	0.508800	0.905700
N141	N14	0.335000	0.540100	0.966070
C1281	C128	0.375260	0.554700	0.038600
H1041	H104	0.352600	0.581100	0.040600
H1051	H105	0.394300	0.604600	0.047000
H1061	H106	0.382900	0.498000	0.056700
C1291	C129	0.383000	0.430000	0.900400
H1071	H107	0.361900	0.435500	0.874900
H1081	H108	0.389700	0.361300	0.905900
H1091	H109	0.403700	0.465900	0.897400
C1301	C130	0.761440	0.013600	0.009000
O231	O23	0.781460	0.089100	0.023580
O241	O24	0.757260	0.979300	0.973300
C1311	C131	0.367510	0.981000	0.981600
H1101	H110	0.368900	0.034500	0.001200
H1111	H111	0.354100	0.005700	0.953600
C1321	C132	0.346460	0.897400	0.990700
C1331	C133	0.333180	0.889600	0.023500
C1341	C134	0.334370	0.810800	0.966700
N151	N15	0.314830	0.800800	0.018550
H1121	H112	0.304200	0.778700	0.035400
N161	N16	0.315310	0.752200	0.984280
C1351	C135	0.336520	0.955600	0.060000
H1131	H113	0.350100	0.014400	0.058300
H1141	H114	0.349500	0.921000	0.085600
H1151	H115	0.312100	0.973800	0.059500
C1361	C136	0.341200	0.781800	0.927300
H1161	H116	0.329600	0.719000	0.917600
H1171	H117	0.367600	0.776400	0.933000
H1181	H118	0.331000	0.831400	0.906200
Co51	Co5	0.009610	0.684550	0.542140
Co61	Co6	0.289750	0.617980	0.967330
O251	O25	0.262130	0.631100	0.900310
O261	O26	0.218290	0.664300	0.484240
O271	O27	0.118500	0.714100	0.541940
H1191	H119	0.098200	0.701200	0.544000
O281	O28	0.223920	0.619500	0.820960
H1201	H120	0.240500	0.606600	0.843200
O291	O29	0.024230	0.623900	0.598890
O301	O30	0.048670	0.678500	0.517380
N171	N17	0.956000	0.580600	0.468680
H1211	H121	0.970900	0.586800	0.454800
O311	O31	0.016320	0.654700	0.449950
O321	O32	0.063440	0.741700	0.607290
O331	O33	0.237390	0.701800	0.941700
C1371	C137	0.206790	0.725800	0.869230
N181	N18	0.965710	0.601700	0.509860
O341	O34	0.121980	0.752700	0.672590
H1221	H122	0.107300	0.767200	0.649300
C1381	C138	0.935280	0.581000	0.519600
C1391	C139	0.181630	0.767900	0.528200
H1231	H123	0.197400	0.811100	0.518700
H1241	H124	0.176200	0.802100	0.550600
C1401	C140	0.220820	0.626100	0.521700
C1411	C141	0.236770	0.682700	0.904860
C1421	C142	0.166670	0.683500	0.750400
H1251	H125	0.170700	0.736000	0.732900
H1261	H126	0.185700	0.633500	0.753300
N191	N19	0.989700	0.823200	0.540490
C1431	C143	0.145300	0.752500	0.492100
C1441	C144	0.045680	0.676000	0.478600
C1451	C145	0.079740	0.703700	0.469000
C1461	C146	0.114630	0.723300	0.501200
C1471	C147	0.051900	0.670600	0.621500
C1481	C148	0.932920	0.047300	0.499500
H1271	H127	0.943000	0.072300	0.478800
H1281	H128	0.933200	0.101700	0.518400
C1491	C149	0.958280	0.966300	0.524300
C1501	C150	0.201610	0.691400	0.827300
C1511	C151	0.141340	0.772800	0.449900
C1521	C152	0.203570	0.673200	0.546300
C1531	C153	0.227060	0.543000	0.599000
N201	N20	0.996610	0.881600	0.574300
H1291	H129	0.011500	0.865500	0.598900
C1541	C154	0.150100	0.805400	0.799300
C1551	C155	0.966670	0.876300	0.509500
C1561	C156	0.207180	0.632100	0.586200
C1571	C157	0.244820	0.498200	0.573700
H1301	H130	0.258500	0.440400	0.582800
C1581	C158	0.073560	0.633000	0.664100
C1591	C159	0.129200	0.637000	0.727400
C1601	C160	0.172710	0.726700	0.793260
C1611	C161	0.106800	0.750800	0.416200
C1621	C162	0.921400	0.549600	0.452000
C1631	C163	0.190010	0.675800	0.613100
H1311	H131	0.176300	0.734000	0.605000
C1641	C164	0.170100	0.817400	0.437300
H1321	H132	0.192800	0.834000	0.457700
C1651	C165	0.108130	0.673600	0.688300
C1661	C166	0.893420	0.016800	0.477400
C1671	C167	0.242310	0.538100	0.535900
C1681	C168	0.903800	0.523200	0.406800
H1331	H133	0.921400	0.533300	0.392700
H1341	H134	0.896200	0.454800	0.404400
H1351	H135	0.882400	0.564600	0.394200
C1691	C169	0.101400	0.769700	0.373800
H1361	H136	0.078900	0.755500	0.352600
C1701	C170	0.077170	0.714800	0.428100
H1371	H137	0.054900	0.697800	0.407200
C1711	C171	0.155700	0.841200	0.839800
C1721	C172	0.133200	0.915800	0.847400
H1381	H138	0.137300	0.938400	0.874500
C1731	C173	0.906760	0.547200	0.484400
C1741	C174	0.952400	0.839300	0.464300
H1391	H139	0.962800	0.775000	0.462900
H1401	H140	0.925700	0.834600	0.454800
H1411	H141	0.959700	0.884900	0.446800
C1751	C175	0.231100	0.501600	0.638300
H1421	H142	0.245000	0.443900	0.647100
C1761	C176	0.978100	0.966700	0.566000
C1771	C177	0.131100	0.810400	0.364900
H1431	H143	0.128700	0.821400	0.337000
C1781	C178	0.121200	0.848000	0.766000
H1441	H144	0.116900	0.826500	0.738700
C1791	C179	0.193700	0.632100	0.651000
H1451	H145	0.181900	0.660800	0.668000
C1801	C180	0.183200	0.798300	0.873900
H1461	H146	0.185700	0.819400	0.900800
C1811	C181	0.164700	0.835600	0.396500
H1471	H147	0.183500	0.865300	0.389200
C1821	C182	0.099300	0.920400	0.773200
H1481	H148	0.080200	0.947300	0.750700
C1831	C183	0.934800	0.593000	0.563100
H1491	H149	0.958500	0.617600	0.581000
H1501	H150	0.915600	0.639300	0.562900
H1511	H151	0.929900	0.530000	0.573400
C1841	C184	0.079400	0.518900	0.721600
C1851	C185	0.059500	0.557400	0.680500
H1521	H152	0.036600	0.529900	0.664800
C1861	C186	0.214200	0.547200	0.664100
H1531	H153	0.216900	0.520100	0.690200
C1871	C187	0.115100	0.556600	0.743700
C1881	C188	0.064700	0.439500	0.738600
H1541	H154	0.041100	0.415000	0.723900
C1891	C189	0.981000	0.039600	0.600800
H1551	H155	0.998100	0.014500	0.626800
H1561	H156	0.989900	0.102300	0.594500
H1571	H157	0.956900	0.048500	0.603200
C1901	C190	0.104600	0.955400	0.813500
H1581	H158	0.089300	0.004700	0.817700
C1911	C191	0.134500	0.512400	0.783100
H1591	H159	0.158000	0.535500	0.799100
C1921	C192	0.118800	0.436300	0.797600
H1601	H160	0.131900	0.408700	0.823700
C1931	C193	0.084700	0.399600	0.775500
H1611	H161	0.075200	0.346300	0.786000
C1941	C194	0.869090	0.975000	0.495500
C1951	C195	0.873310	0.027300	0.436100
N211	N21	0.838490	0.992500	0.429720
H1621	H162	0.820900	0.991200	0.405700
N221	N22	0.835000	0.959900	0.466070
C1961	C196	0.875260	0.945300	0.538600
H1631	H163	0.852600	0.918900	0.540600
H1641	H164	0.894300	0.895400	0.547000
H1651	H165	0.882900	0.002000	0.556700
C1971	C197	0.883000	0.070000	0.400400
H1661	H166	0.861900	0.064500	0.374900
H1671	H167	0.889700	0.138700	0.405900
H1681	H168	0.903700	0.034100	0.397400
C1981	C198	0.261440	0.486400	0.509000
O351	O35	0.281460	0.410900	0.523580
O361	O36	0.257260	0.520700	0.473300
C1991	C199	0.867510	0.519000	0.481600
H1691	H169	0.868900	0.465500	0.501200
H1701	H170	0.854100	0.494300	0.453600
C2001	C200	0.846460	0.602600	0.490700
C2011	C201	0.833180	0.610400	0.523500
C2021	C202	0.834370	0.689200	0.466700
N231	N23	0.814830	0.699200	0.518550
H1711	H171	0.804200	0.721300	0.535400
N241	N24	0.815310	0.747800	0.484280
C2031	C203	0.836520	0.544400	0.560000
H1721	H172	0.850100	0.485600	0.558300
H1731	H173	0.849500	0.579000	0.585600
H1741	H174	0.812100	0.526200	0.559500
C2041	C204	0.841200	0.718200	0.427300
H1751	H175	0.829600	0.781000	0.417600
H1761	H176	0.867600	0.723600	0.433000
H1771	H177	0.831000	0.668600	0.406200
Co71	Co7	0.509610	0.184550	0.542140
Co81	Co8	0.789750	0.117980	0.967330
O371	O37	0.762130	0.131100	0.900310
O381	O38	0.718290	0.164300	0.484240
O391	O39	0.618500	0.214100	0.541940
H1781	H178	0.598200	0.201200	0.544000
O401	O40	0.723920	0.119500	0.820960
H1791	H179	0.740500	0.106600	0.843200
O411	O41	0.524230	0.123900	0.598890
O421	O42	0.548670	0.178500	0.517380
N251	N25	0.456000	0.080600	0.468680
H1801	H180	0.470900	0.086800	0.454800
O431	O43	0.516320	0.154700	0.449950
O441	O44	0.563440	0.241700	0.607290
O451	O45	0.737390	0.201800	0.941700
C2051	C205	0.706790	0.225800	0.869230
N261	N26	0.465710	0.101700	0.509860
O461	O46	0.621980	0.252700	0.672590
H1811	H181	0.607300	0.267200	0.649300
C2061	C206	0.435280	0.081000	0.519600
C2071	C207	0.681630	0.267900	0.528200
H1821	H182	0.697400	0.311100	0.518700
H1831	H183	0.676200	0.302100	0.550600
C2081	C208	0.720820	0.126100	0.521700
C2091	C209	0.736770	0.182700	0.904860
C2101	C210	0.666670	0.183500	0.750400
H1841	H184	0.670700	0.236000	0.732900
H1851	H185	0.685700	0.133500	0.753300
N271	N27	0.489700	0.323200	0.540490
C2111	C211	0.645300	0.252500	0.492100
C2121	C212	0.545680	0.176000	0.478600
C2131	C213	0.579740	0.203700	0.469000
C2141	C214	0.614630	0.223300	0.501200
C2151	C215	0.551900	0.170600	0.621500
C2161	C216	0.432920	0.547300	0.499500
H1861	H186	0.443000	0.572300	0.478800
H1871	H187	0.433200	0.601700	0.518400
C2171	C217	0.458280	0.466300	0.524300
C2181	C218	0.701610	0.191400	0.827300
C2191	C219	0.641340	0.272800	0.449900
C2201	C220	0.703570	0.173200	0.546300
C2211	C221	0.727060	0.043000	0.599000
N281	N28	0.496610	0.381600	0.574300
H1881	H188	0.511500	0.365500	0.598900
C2221	C222	0.650100	0.305400	0.799300
C2231	C223	0.466670	0.376300	0.509500
C2241	C224	0.707180	0.132100	0.586200
C2251	C225	0.744820	0.998200	0.573700
H1891	H189	0.758500	0.940400	0.582800
C2261	C226	0.573560	0.133000	0.664100
C2271	C227	0.629200	0.137000	0.727400
C2281	C228	0.672710	0.226700	0.793260
C2291	C229	0.606800	0.250800	0.416200
C2301	C230	0.421400	0.049600	0.452000
C2311	C231	0.690010	0.175800	0.613100
H1901	H190	0.676300	0.234000	0.605000
C2321	C232	0.670100	0.317400	0.437300
H1911	H191	0.692800	0.334000	0.457700
C2331	C233	0.608130	0.173600	0.688300
C2341	C234	0.393420	0.516800	0.477400
C2351	C235	0.742310	0.038100	0.535900
C2361	C236	0.403800	0.023200	0.406800
H1921	H192	0.421400	0.033300	0.392700
H1931	H193	0.396200	0.954800	0.404400
H1941	H194	0.382400	0.064600	0.394200
C2371	C237	0.601400	0.269700	0.373800
H1951	H195	0.578900	0.255500	0.352600
C2381	C238	0.577170	0.214800	0.428100
H1961	H196	0.554900	0.197800	0.407200
C2391	C239	0.655700	0.341200	0.839800
C2401	C240	0.633200	0.415800	0.847400
H1971	H197	0.637300	0.438400	0.874500
C2411	C241	0.406760	0.047200	0.484400
C2421	C242	0.452400	0.339300	0.464300
H1981	H198	0.462800	0.275000	0.462900
H1991	H199	0.425700	0.334600	0.454800
H2001	H200	0.459700	0.384900	0.446800
C2431	C243	0.731100	0.001600	0.638300
H2011	H201	0.745000	0.943900	0.647100
C2441	C244	0.478100	0.466700	0.566000
C2451	C245	0.631100	0.310400	0.364900
H2021	H202	0.628700	0.321400	0.337000
C2461	C246	0.621200	0.348000	0.766000
H2031	H203	0.616900	0.326500	0.738700
C2471	C247	0.693700	0.132100	0.651000
H2041	H204	0.681900	0.160800	0.668000
C2481	C248	0.683200	0.298300	0.873900
H2051	H205	0.685700	0.319400	0.900800
C2491	C249	0.664700	0.335600	0.396500
H2061	H206	0.683500	0.365300	0.389200
C2501	C250	0.599300	0.420400	0.773200
H2071	H207	0.580200	0.447300	0.750700
C2511	C251	0.434800	0.093000	0.563100
H2081	H208	0.458500	0.117600	0.581000
H2091	H209	0.415600	0.139300	0.562900
H2101	H210	0.429900	0.030000	0.573400
C2521	C252	0.579400	0.018900	0.721600
C2531	C253	0.559500	0.057400	0.680500
H2111	H211	0.536600	0.029900	0.664800
C2541	C254	0.714200	0.047200	0.664100
H2121	H212	0.716900	0.020100	0.690200
C2551	C255	0.615100	0.056600	0.743700
C2561	C256	0.564700	0.939500	0.738600
H2131	H213	0.541100	0.915000	0.723900
C2571	C257	0.481000	0.539600	0.600800
H2141	H214	0.498100	0.514500	0.626800
H2151	H215	0.489900	0.602300	0.594500
H2161	H216	0.456900	0.548500	0.603200
C2581	C258	0.604600	0.455400	0.813500
H2171	H217	0.589300	0.504700	0.817700
C2591	C259	0.634500	0.012400	0.783100
H2181	H218	0.658000	0.035500	0.799100
C2601	C260	0.618800	0.936300	0.797600
H2191	H219	0.631900	0.908700	0.823700
C2611	C261	0.584700	0.899600	0.775500
H2201	H220	0.575200	0.846300	0.786000
C2621	C262	0.369090	0.475000	0.495500
C2631	C263	0.373310	0.527300	0.436100
N291	N29	0.338490	0.492500	0.429720
H2211	H221	0.320900	0.491200	0.405700
N301	N30	0.335000	0.459900	0.466070
C2641	C264	0.375260	0.445300	0.538600
H2221	H222	0.352600	0.418900	0.540600
H2231	H223	0.394300	0.395400	0.547000
H2241	H224	0.382900	0.502000	0.556700
C2651	C265	0.383000	0.570000	0.400400
H2251	H225	0.361900	0.564500	0.374900
H2261	H226	0.389700	0.638700	0.405900
H2271	H227	0.403700	0.534100	0.397400
C2661	C266	0.761440	0.986400	0.509000
O471	O47	0.781460	0.910900	0.523580
O481	O48	0.757260	0.020700	0.473300
C2671	C267	0.367510	0.019000	0.481600
H2281	H228	0.368900	0.965500	0.501200
H2291	H229	0.354100	0.994300	0.453600
C2681	C268	0.346460	0.102600	0.490700
C2691	C269	0.333180	0.110400	0.523500
C2701	C270	0.334370	0.189200	0.466700
N311	N31	0.314830	0.199200	0.518550
H2301	H230	0.304200	0.221300	0.535400
N321	N32	0.315310	0.247800	0.484280
C2711	C271	0.336520	0.044400	0.560000
H2311	H231	0.350100	0.985600	0.558300
H2321	H232	0.349500	0.079000	0.585600
H2331	H233	0.312100	0.026200	0.559500
C2721	C272	0.341200	0.218200	0.427300
H2341	H234	0.329600	0.281000	0.417600
H2351	H235	0.367600	0.223600	0.433000
H2361	H236	0.331000	0.168600	0.406200
Co91	Co9	0.990390	0.315450	0.457860
Co101	Co10	0.710250	0.382020	0.032670
O491	O49	0.737870	0.368900	0.099690
O501	O50	0.781710	0.335700	0.515760
O511	O51	0.881500	0.285900	0.458060
H2371	H237	0.901800	0.298800	0.456000
O521	O52	0.776080	0.380500	0.179040
H2381	H238	0.759500	0.393400	0.156800
O531	O53	0.975770	0.376100	0.401110
O541	O54	0.951330	0.321500	0.482620
N331	N33	0.044000	0.419400	0.531320
H2391	H239	0.029100	0.413200	0.545200
O551	O55	0.983680	0.345300	0.550050
O561	O56	0.936560	0.258300	0.392710
O571	O57	0.762610	0.298200	0.058300
C2731	C273	0.793210	0.274200	0.130770
N341	N34	0.034290	0.398300	0.490140
O581	O58	0.878020	0.247300	0.327410
H2401	H240	0.892700	0.232800	0.350700
C2741	C274	0.064720	0.419000	0.480400
C2751	C275	0.818370	0.232100	0.471800
H2411	H241	0.802600	0.188900	0.481300
H2421	H242	0.823800	0.197900	0.449400
C2761	C276	0.779180	0.373900	0.478300
C2771	C277	0.763230	0.317300	0.095140
C2781	C278	0.833330	0.316500	0.249600
H2431	H243	0.829300	0.264000	0.267100
H2441	H244	0.814300	0.366500	0.246700
N351	N35	0.010300	0.176800	0.459510
C2791	C279	0.854700	0.247500	0.507900
C2801	C280	0.954320	0.324000	0.521400
C2811	C281	0.920260	0.296300	0.531000
C2821	C282	0.885370	0.276700	0.498800
C2831	C283	0.948100	0.329400	0.378500
C2841	C284	0.067080	0.952700	0.500500
H2451	H245	0.057000	0.927700	0.521200
H2461	H246	0.066800	0.898300	0.481600
C2851	C285	0.041720	0.033700	0.475700
C2861	C286	0.798390	0.308600	0.172700
C2871	C287	0.858660	0.227200	0.550100
C2881	C288	0.796430	0.326800	0.453700
C2891	C289	0.772940	0.457000	0.401000
N361	N36	0.003390	0.118400	0.425700
H2471	H247	0.988500	0.134500	0.401100
C2901	C290	0.849900	0.194600	0.200700
C2911	C291	0.033330	0.123700	0.490500
C2921	C292	0.792820	0.367900	0.413800
C2931	C293	0.755180	0.501800	0.426300
H2481	H248	0.741500	0.559600	0.417200
C2941	C294	0.926440	0.367000	0.335900
C2951	C295	0.870800	0.363000	0.272600
C2961	C296	0.827290	0.273300	0.206740
C2971	C297	0.893200	0.249200	0.583800
C2981	C298	0.078600	0.450400	0.548000
C2991	C299	0.809990	0.324200	0.386900
H2491	H249	0.823700	0.266000	0.395000
C3001	C300	0.829900	0.182600	0.562700
H2501	H250	0.807200	0.166000	0.542300
C3011	C301	0.891870	0.326400	0.311700
C3021	C302	0.106580	0.983200	0.522600
C3031	C303	0.757690	0.461900	0.464100
C3041	C304	0.096200	0.476800	0.593200
H2511	H251	0.078600	0.466700	0.607300
H2521	H252	0.103800	0.545200	0.595600
H2531	H253	0.117600	0.435400	0.605800
C3051	C305	0.898600	0.230300	0.626200
H2541	H254	0.921100	0.244500	0.647400
C3061	C306	0.922830	0.285200	0.571900
H2551	H255	0.945100	0.302200	0.592800
C3071	C307	0.844300	0.158800	0.160200
C3081	C308	0.866800	0.084200	0.152600
H2561	H256	0.862700	0.061600	0.125500
C3091	C309	0.093240	0.452800	0.515600
C3101	C310	0.047600	0.160700	0.535700
H2571	H257	0.037200	0.225000	0.537100
H2581	H258	0.074300	0.165400	0.545200
H2591	H259	0.040300	0.115100	0.553200
C3111	C311	0.768900	0.498400	0.361700
H2601	H260	0.755000	0.556100	0.352900
C3121	C312	0.021900	0.033300	0.434000
C3131	C313	0.868900	0.189600	0.635100
H2611	H261	0.871300	0.178600	0.663000
C3141	C314	0.878800	0.152000	0.234000
H2621	H262	0.883100	0.173500	0.261300
C3151	C315	0.806300	0.367900	0.349000
H2631	H263	0.818100	0.339200	0.332000
C3161	C316	0.816800	0.201700	0.126100
H2641	H264	0.814300	0.180600	0.099200
C3171	C317	0.835300	0.164400	0.603500
H2651	H265	0.816500	0.134700	0.610800
C3181	C318	0.900700	0.079600	0.226800
H2661	H266	0.919800	0.052700	0.249300
C3191	C319	0.065200	0.407000	0.436900
H2671	H267	0.041500	0.382400	0.419000
H2681	H268	0.084400	0.360700	0.437100
H2691	H269	0.070100	0.470000	0.426600
C3201	C320	0.920600	0.481100	0.278400
C3211	C321	0.940500	0.442600	0.319500
H2701	H270	0.963400	0.470100	0.335200
C3221	C322	0.785800	0.452800	0.335900
H2711	H271	0.783100	0.479900	0.309800
C3231	C323	0.884900	0.443400	0.256300
C3241	C324	0.935300	0.560500	0.261400
H2721	H272	0.958900	0.585000	0.276100
C3251	C325	0.019000	0.960400	0.399200
H2731	H273	0.001900	0.985500	0.373200
H2741	H274	0.010100	0.897700	0.405500
H2751	H275	0.043100	0.951500	0.396800
C3261	C326	0.895400	0.044600	0.186500
H2761	H276	0.910700	0.995300	0.182300
C3271	C327	0.865500	0.487600	0.216900
H2771	H277	0.842000	0.464500	0.200900
C3281	C328	0.881200	0.563700	0.202400
H2781	H278	0.868100	0.591300	0.176300
C3291	C329	0.915300	0.600400	0.224500
H2791	H279	0.924800	0.653700	0.214000
C3301	C330	0.130910	0.025000	0.504500
C3311	C331	0.126690	0.972700	0.563900
N371	N37	0.161510	0.007500	0.570280
H2801	H280	0.179100	0.008800	0.594300
N381	N38	0.165000	0.040100	0.533930
C3321	C332	0.124740	0.054700	0.461400
H2811	H281	0.147400	0.081100	0.459400
H2821	H282	0.105700	0.104600	0.453000
H2831	H283	0.117100	0.998000	0.443300
C3331	C333	0.117000	0.930000	0.599600
H2841	H284	0.138100	0.935500	0.625100
H2851	H285	0.110300	0.861300	0.594100
H2861	H286	0.096300	0.965900	0.602600
C3341	C334	0.738560	0.513600	0.491000
O591	O59	0.718540	0.589100	0.476420
O601	O60	0.742740	0.479300	0.526700
C3351	C335	0.132490	0.481000	0.518400
H2871	H287	0.131100	0.534500	0.498800
H2881	H288	0.145900	0.505700	0.546400
C3361	C336	0.153540	0.397400	0.509300
C3371	C337	0.166820	0.389600	0.476500
C3381	C338	0.165630	0.310800	0.533300
N391	N39	0.185170	0.300800	0.481450
H2891	H289	0.195800	0.278700	0.464600
N401	N40	0.184690	0.252200	0.515720
C3391	C339	0.163480	0.455600	0.440000
H2901	H290	0.149900	0.514400	0.441700
H2911	H291	0.150500	0.421000	0.414400
H2921	H292	0.187900	0.473800	0.440500
C3401	C340	0.158800	0.281800	0.572700
H2931	H293	0.170400	0.219000	0.582400
H2941	H294	0.132400	0.276400	0.567000
H2951	H295	0.169000	0.331400	0.593800
Co111	Co11	0.490390	0.815450	0.457860
Co121	Co12	0.210250	0.882020	0.032670
O611	O61	0.237870	0.868900	0.099690
O621	O62	0.281710	0.835700	0.515760
O631	O63	0.381500	0.785900	0.458060
H2961	H296	0.401800	0.798800	0.456000
O641	O64	0.276080	0.880500	0.179040
H2971	H297	0.259500	0.893400	0.156800
O651	O65	0.475770	0.876100	0.401110
O661	O66	0.451330	0.821500	0.482620
N411	N41	0.544000	0.919400	0.531320
H2981	H298	0.529100	0.913200	0.545200
O671	O67	0.483680	0.845300	0.550050
O681	O68	0.436560	0.758300	0.392710
O691	O69	0.262610	0.798200	0.058300
C3411	C341	0.293210	0.774200	0.130770
N421	N42	0.534290	0.898300	0.490140
O701	O70	0.378020	0.747300	0.327410
H2991	H299	0.392700	0.732800	0.350700
C3421	C342	0.564720	0.919000	0.480400
C3431	C343	0.318370	0.732100	0.471800
H3001	H300	0.302600	0.688900	0.481300
H3011	H301	0.323800	0.697900	0.449400
C3441	C344	0.279180	0.873900	0.478300
C3451	C345	0.263230	0.817300	0.095140
C3461	C346	0.333330	0.816500	0.249600
H3021	H302	0.329300	0.764000	0.267100
H3031	H303	0.314300	0.866500	0.246700
N431	N43	0.510300	0.676800	0.459510
C3471	C347	0.354700	0.747500	0.507900
C3481	C348	0.454320	0.824000	0.521400
C3491	C349	0.420260	0.796300	0.531000
C3501	C350	0.385370	0.776700	0.498800
C3511	C351	0.448100	0.829400	0.378500
C3521	C352	0.567080	0.452700	0.500500
H3041	H304	0.557000	0.427700	0.521200
H3051	H305	0.566800	0.398300	0.481600
C3531	C353	0.541720	0.533700	0.475700
C3541	C354	0.298390	0.808600	0.172700
C3551	C355	0.358660	0.727200	0.550100
C3561	C356	0.296430	0.826800	0.453700
C3571	C357	0.272940	0.957000	0.401000
N441	N44	0.503390	0.618400	0.425700
H3061	H306	0.488500	0.634500	0.401100
C3581	C358	0.349900	0.694600	0.200700
C3591	C359	0.533330	0.623700	0.490500
C3601	C360	0.292820	0.867900	0.413800
C3611	C361	0.255180	0.001800	0.426300
H3071	H307	0.241500	0.059600	0.417200
C3621	C362	0.426440	0.867000	0.335900
C3631	C363	0.370800	0.863000	0.272600
C3641	C364	0.327290	0.773300	0.206740
C3651	C365	0.393200	0.749200	0.583800
C3661	C366	0.578600	0.950400	0.548000
C3671	C367	0.309990	0.824200	0.386900
H3081	H308	0.323700	0.766000	0.395000
C3681	C368	0.329900	0.682600	0.562700
H3091	H309	0.307200	0.666000	0.542300
C3691	C369	0.391870	0.826400	0.311700
C3701	C370	0.606580	0.483200	0.522600
C3711	C371	0.257690	0.961900	0.464100
C3721	C372	0.596200	0.976800	0.593200
H3101	H310	0.578600	0.966700	0.607300
H3111	H311	0.603800	0.045200	0.595600
H3121	H312	0.617600	0.935400	0.605800
C3731	C373	0.398600	0.730300	0.626200
H3131	H313	0.421100	0.744500	0.647400
C3741	C374	0.422830	0.785200	0.571900
H3141	H314	0.445100	0.802200	0.592800
C3751	C375	0.344300	0.658800	0.160200
C3761	C376	0.366800	0.584200	0.152600
H3151	H315	0.362700	0.561600	0.125500
C3771	C377	0.593240	0.952800	0.515600
C3781	C378	0.547600	0.660700	0.535700
H3161	H316	0.537200	0.725000	0.537100
H3171	H317	0.574300	0.665400	0.545200
H3181	H318	0.540300	0.615100	0.553200
C3791	C379	0.268900	0.998400	0.361700
H3191	H319	0.255000	0.056100	0.352900
C3801	C380	0.521900	0.533300	0.434000
C3811	C381	0.368900	0.689600	0.635100
H3201	H320	0.371300	0.678600	0.663000
C3821	C382	0.378800	0.652000	0.234000
H3211	H321	0.383100	0.673500	0.261300
C3831	C383	0.306300	0.867900	0.349000
H3221	H322	0.318100	0.839200	0.332000
C3841	C384	0.316800	0.701700	0.126100
H3231	H323	0.314300	0.680600	0.099200
C3851	C385	0.335300	0.664400	0.603500
H3241	H324	0.316500	0.634700	0.610800
C3861	C386	0.400700	0.579600	0.226800
H3251	H325	0.419800	0.552700	0.249300
C3871	C387	0.565200	0.907000	0.436900
H3261	H326	0.541500	0.882400	0.419000
H3271	H327	0.584400	0.860700	0.437100
H3281	H328	0.570100	0.970000	0.426600
C3881	C388	0.420600	0.981100	0.278400
C3891	C389	0.440500	0.942600	0.319500
H3291	H329	0.463400	0.970100	0.335200
C3901	C390	0.285800	0.952800	0.335900
H3301	H330	0.283100	0.979900	0.309800
C3911	C391	0.384900	0.943400	0.256300
C3921	C392	0.435300	0.060500	0.261400
H3311	H331	0.458900	0.085000	0.276100
C3931	C393	0.519000	0.460400	0.399200
H3321	H332	0.501900	0.485500	0.373200
H3331	H333	0.510100	0.397700	0.405500
H3341	H334	0.543100	0.451500	0.396800
C3941	C394	0.395400	0.544600	0.186500
H3351	H335	0.410700	0.495300	0.182300
C3951	C395	0.365500	0.987600	0.216900
H3361	H336	0.342000	0.964500	0.200900
C3961	C396	0.381200	0.063700	0.202400
H3371	H337	0.368100	0.091300	0.176300
C3971	C397	0.415300	0.100400	0.224500
H3381	H338	0.424800	0.153700	0.214000
C3981	C398	0.630910	0.525000	0.504500
C3991	C399	0.626690	0.472700	0.563900
N451	N45	0.661510	0.507500	0.570280
H3391	H339	0.679100	0.508800	0.594300
N461	N46	0.665000	0.540100	0.533930
C4001	C400	0.624740	0.554700	0.461400
H3401	H340	0.647400	0.581100	0.459400
H3411	H341	0.605700	0.604600	0.453000
H3421	H342	0.617100	0.498000	0.443300
C4011	C401	0.617000	0.430000	0.599600
H3431	H343	0.638100	0.435500	0.625100
H3441	H344	0.610300	0.361300	0.594100
H3451	H345	0.596300	0.465900	0.602600
C4021	C402	0.238560	0.013600	0.491000
O711	O71	0.218540	0.089100	0.476420
O721	O72	0.242740	0.979300	0.526700
C4031	C403	0.632490	0.981000	0.518400
H3461	H346	0.631100	0.034500	0.498800
H3471	H347	0.645900	0.005700	0.546400
C4041	C404	0.653540	0.897400	0.509300
C4051	C405	0.666820	0.889600	0.476500
C4061	C406	0.665630	0.810800	0.533300
N471	N47	0.685170	0.800800	0.481450
H3481	H348	0.695800	0.778700	0.464600
N481	N48	0.684690	0.752200	0.515720
C4071	C407	0.663480	0.955600	0.440000
H3491	H349	0.649900	0.014400	0.441700
H3501	H350	0.650500	0.921000	0.414400
H3511	H351	0.687900	0.973800	0.440500
C4081	C408	0.658800	0.781800	0.572700
H3521	H352	0.670400	0.719000	0.582400
H3531	H353	0.632400	0.776400	0.567000
H3541	H354	0.669000	0.831400	0.593800
Co131	Co13	0.990390	0.684550	0.957860
Co141	Co14	0.710250	0.617980	0.532670
O731	O73	0.737870	0.631100	0.599690
O741	O74	0.781710	0.664300	0.015760
O751	O75	0.881500	0.714100	0.958060
H3551	H355	0.901800	0.701200	0.956000
O761	O76	0.776080	0.619500	0.679040
H3561	H356	0.759500	0.606600	0.656800
O771	O77	0.975770	0.623900	0.901110
O781	O78	0.951330	0.678500	0.982620
N491	N49	0.044000	0.580600	0.031320
H3571	H357	0.029100	0.586800	0.045200
O791	O79	0.983680	0.654700	0.050050
O801	O80	0.936560	0.741700	0.892710
O811	O81	0.762610	0.701800	0.558300
C4091	C409	0.793210	0.725800	0.630770
N501	N50	0.034290	0.601700	0.990140
O821	O82	0.878020	0.752700	0.827410
H3581	H358	0.892700	0.767200	0.850700
C4101	C410	0.064720	0.581000	0.980400
C4111	C411	0.818370	0.767900	0.971800
H3591	H359	0.802600	0.811100	0.981300
H3601	H360	0.823800	0.802100	0.949400
C4121	C412	0.779180	0.626100	0.978300
C4131	C413	0.763230	0.682700	0.595140
C4141	C414	0.833330	0.683500	0.749600
H3611	H361	0.829300	0.736000	0.767100
H3621	H362	0.814300	0.633500	0.746700
N511	N51	0.010300	0.823200	0.959510
C4151	C415	0.854700	0.752500	0.007900
C4161	C416	0.954320	0.676000	0.021400
C4171	C417	0.920260	0.703700	0.031000
C4181	C418	0.885370	0.723300	0.998800
C4191	C419	0.948100	0.670600	0.878500
C4201	C420	0.067080	0.047300	0.000500
H3631	H363	0.057000	0.072300	0.021200
H3641	H364	0.066800	0.101700	0.981600
C4211	C421	0.041720	0.966300	0.975700
C4221	C422	0.798390	0.691400	0.672700
C4231	C423	0.858660	0.772800	0.050100
C4241	C424	0.796430	0.673200	0.953700
C4251	C425	0.772940	0.543000	0.901000
N521	N52	0.003390	0.881600	0.925700
H3651	H365	0.988500	0.865500	0.901100
C4261	C426	0.849900	0.805400	0.700700
C4271	C427	0.033330	0.876300	0.990500
C4281	C428	0.792820	0.632100	0.913800
C4291	C429	0.755180	0.498200	0.926300
H3661	H366	0.741500	0.440400	0.917200
C4301	C430	0.926440	0.633000	0.835900
C4311	C431	0.870800	0.637000	0.772600
C4321	C432	0.827290	0.726700	0.706740
C4331	C433	0.893200	0.750800	0.083800
C4341	C434	0.078600	0.549600	0.048000
C4351	C435	0.809990	0.675800	0.886900
H3671	H367	0.823700	0.734000	0.895000
C4361	C436	0.829900	0.817400	0.062700
H3681	H368	0.807200	0.834000	0.042300
C4371	C437	0.891870	0.673600	0.811700
C4381	C438	0.106580	0.016800	0.022600
C4391	C439	0.757690	0.538100	0.964100
C4401	C440	0.096200	0.523200	0.093200
H3691	H369	0.078600	0.533300	0.107300
H3701	H370	0.103800	0.454800	0.095600
H3711	H371	0.117600	0.564600	0.105800
C4411	C441	0.898600	0.769700	0.126200
H3721	H372	0.921100	0.755500	0.147400
C4421	C442	0.922830	0.714800	0.071900
H3731	H373	0.945100	0.697800	0.092800
C4431	C443	0.844300	0.841200	0.660200
C4441	C444	0.866800	0.915800	0.652600
H3741	H374	0.862700	0.938400	0.625500
C4451	C445	0.093240	0.547200	0.015600
C4461	C446	0.047600	0.839300	0.035700
H3751	H375	0.037200	0.775000	0.037100
H3761	H376	0.074300	0.834600	0.045200
H3771	H377	0.040300	0.884900	0.053200
C4471	C447	0.768900	0.501600	0.861700
H3781	H378	0.755000	0.443900	0.852900
C4481	C448	0.021900	0.966700	0.934000
C4491	C449	0.868900	0.810400	0.135100
H3791	H379	0.871300	0.821400	0.163000
C4501	C450	0.878800	0.848000	0.734000
H3801	H380	0.883100	0.826500	0.761300
C4511	C451	0.806300	0.632100	0.849000
H3811	H381	0.818100	0.660800	0.832000
C4521	C452	0.816800	0.798300	0.626100
H3821	H382	0.814300	0.819400	0.599200
C4531	C453	0.835300	0.835600	0.103500
H3831	H383	0.816500	0.865300	0.110800
C4541	C454	0.900700	0.920400	0.726800
H3841	H384	0.919800	0.947300	0.749300
C4551	C455	0.065200	0.593000	0.936900
H3851	H385	0.041500	0.617600	0.919000
H3861	H386	0.084400	0.639300	0.937100
H3871	H387	0.070100	0.530000	0.926600
C4561	C456	0.920600	0.518900	0.778400
C4571	C457	0.940500	0.557400	0.819500
H3881	H388	0.963400	0.529900	0.835200
C4581	C458	0.785800	0.547200	0.835900
H3891	H389	0.783100	0.520100	0.809800
C4591	C459	0.884900	0.556600	0.756300
C4601	C460	0.935300	0.439500	0.761400
H3901	H390	0.958900	0.415000	0.776100
C4611	C461	0.019000	0.039600	0.899200
H3911	H391	0.001900	0.014500	0.873200
H3921	H392	0.010100	0.102300	0.905500
H3931	H393	0.043100	0.048500	0.896800
C4621	C462	0.895400	0.955400	0.686500
H3941	H394	0.910700	0.004700	0.682300
C4631	C463	0.865500	0.512400	0.716900
H3951	H395	0.842000	0.535500	0.700900
C4641	C464	0.881200	0.436300	0.702400
H3961	H396	0.868100	0.408700	0.676300
C4651	C465	0.915300	0.399600	0.724500
H3971	H397	0.924800	0.346300	0.714000
C4661	C466	0.130910	0.975000	0.004500
C4671	C467	0.126690	0.027300	0.063900
N531	N53	0.161510	0.992500	0.070280
H3981	H398	0.179100	0.991200	0.094300
N541	N54	0.165000	0.959900	0.033930
C4681	C468	0.124740	0.945300	0.961400
H3991	H399	0.147400	0.918900	0.959400
H4001	H400	0.105700	0.895400	0.953000
H4011	H401	0.117100	0.002000	0.943300
C4691	C469	0.117000	0.070000	0.099600
H4021	H402	0.138100	0.064500	0.125100
H4031	H403	0.110300	0.138700	0.094100
H4041	H404	0.096300	0.034100	0.102600
C4701	C470	0.738560	0.486400	0.991000
O831	O83	0.718540	0.410900	0.976420
O841	O84	0.742740	0.520700	0.026700
C4711	C471	0.132490	0.519000	0.018400
H4051	H405	0.131100	0.465500	0.998800
H4061	H406	0.145900	0.494300	0.046400
C4721	C472	0.153540	0.602600	0.009300
C4731	C473	0.166820	0.610400	0.976500
C4741	C474	0.165630	0.689200	0.033300
N551	N55	0.185170	0.699200	0.981450
H4071	H407	0.195800	0.721300	0.964600
N561	N56	0.184690	0.747800	0.015720
C4751	C475	0.163480	0.544400	0.940000
H4081	H408	0.149900	0.485600	0.941700
H4091	H409	0.150500	0.579000	0.914400
H4101	H410	0.187900	0.526200	0.940500
C4761	C476	0.158800	0.718200	0.072700
H4111	H411	0.170400	0.781000	0.082400
H4121	H412	0.132400	0.723600	0.067000
H4131	H413	0.169000	0.668600	0.093800
Co151	Co15	0.490390	0.184550	0.957860
Co161	Co16	0.210250	0.117980	0.532670
O851	O85	0.237870	0.131100	0.599690
O861	O86	0.281710	0.164300	0.015760
O871	O87	0.381500	0.214100	0.958060
H4141	H414	0.401800	0.201200	0.956000
O881	O88	0.276080	0.119500	0.679040
H4151	H415	0.259500	0.106600	0.656800
O891	O89	0.475770	0.123900	0.901110
O901	O90	0.451330	0.178500	0.982620
N571	N57	0.544000	0.080600	0.031320
H4161	H416	0.529100	0.086800	0.045200
O911	O91	0.483680	0.154700	0.050050
O921	O92	0.436560	0.241700	0.892710
O931	O93	0.262610	0.201800	0.558300
C4771	C477	0.293210	0.225800	0.630770
N581	N58	0.534290	0.101700	0.990140
O941	O94	0.378020	0.252700	0.827410
H4171	H417	0.392700	0.267200	0.850700
C4781	C478	0.564720	0.081000	0.980400
C4791	C479	0.318370	0.267900	0.971800
H4181	H418	0.302600	0.311100	0.981300
H4191	H419	0.323800	0.302100	0.949400
C4801	C480	0.279180	0.126100	0.978300
C4811	C481	0.263230	0.182700	0.595140
C4821	C482	0.333330	0.183500	0.749600
H4201	H420	0.329300	0.236000	0.767100
H4211	H421	0.314300	0.133500	0.746700
N591	N59	0.510300	0.323200	0.959510
C4831	C483	0.354700	0.252500	0.007900
C4841	C484	0.454320	0.176000	0.021400
C4851	C485	0.420260	0.203700	0.031000
C4861	C486	0.385370	0.223300	0.998800
C4871	C487	0.448100	0.170600	0.878500
C4881	C488	0.567080	0.547300	0.000500
H4221	H422	0.557000	0.572300	0.021200
H4231	H423	0.566800	0.601700	0.981600
C4891	C489	0.541720	0.466300	0.975700
C4901	C490	0.298390	0.191400	0.672700
C4911	C491	0.358660	0.272800	0.050100
C4921	C492	0.296430	0.173200	0.953700
C4931	C493	0.272940	0.043000	0.901000
N601	N60	0.503390	0.381600	0.925700
H4241	H424	0.488500	0.365500	0.901100
C4941	C494	0.349900	0.305400	0.700700
C4951	C495	0.533330	0.376300	0.990500
C4961	C496	0.292820	0.132100	0.913800
C4971	C497	0.255180	0.998200	0.926300
H4251	H425	0.241500	0.940400	0.917200
C4981	C498	0.426440	0.133000	0.835900
C4991	C499	0.370800	0.137000	0.772600
C5001	C500	0.327290	0.226700	0.706740
C5011	C501	0.393200	0.250800	0.083800
C5021	C502	0.578600	0.049600	0.048000
C5031	C503	0.309990	0.175800	0.886900
H4261	H426	0.323700	0.234000	0.895000
C5041	C504	0.329900	0.317400	0.062700
H4271	H427	0.307200	0.334000	0.042300
C5051	C505	0.391870	0.173600	0.811700
C5061	C506	0.606580	0.516800	0.022600
C5071	C507	0.257690	0.038100	0.964100
C5081	C508	0.596200	0.023200	0.093200
H4281	H428	0.578600	0.033300	0.107300
H4291	H429	0.603800	0.954800	0.095600
H4301	H430	0.617600	0.064600	0.105800
C5091	C509	0.398600	0.269700	0.126200
H4311	H431	0.421100	0.255500	0.147400
C5101	C510	0.422830	0.214800	0.071900
H4321	H432	0.445100	0.197800	0.092800
C5111	C511	0.344300	0.341200	0.660200
C5121	C512	0.366800	0.415800	0.652600
H4331	H433	0.362700	0.438400	0.625500
C5131	C513	0.593240	0.047200	0.015600
C5141	C514	0.547600	0.339300	0.035700
H4341	H434	0.537200	0.275000	0.037100
H4351	H435	0.574300	0.334600	0.045200
H4361	H436	0.540300	0.384900	0.053200
C5151	C515	0.268900	0.001600	0.861700
H4371	H437	0.255000	0.943900	0.852900
C5161	C516	0.521900	0.466700	0.934000
C5171	C517	0.368900	0.310400	0.135100
H4381	H438	0.371300	0.321400	0.163000
C5181	C518	0.378800	0.348000	0.734000
H4391	H439	0.383100	0.326500	0.761300
C5191	C519	0.306300	0.132100	0.849000
H4401	H440	0.318100	0.160800	0.832000
C5201	C520	0.316800	0.298300	0.626100
H4411	H441	0.314300	0.319400	0.599200
C5211	C521	0.335300	0.335600	0.103500
H4421	H442	0.316500	0.365300	0.110800
C5221	C522	0.400700	0.420400	0.726800
H4431	H443	0.419800	0.447300	0.749300
C5231	C523	0.565200	0.093000	0.936900
H4441	H444	0.541500	0.117600	0.919000
H4451	H445	0.584400	0.139300	0.937100
H4461	H446	0.570100	0.030000	0.926600
C5241	C524	0.420600	0.018900	0.778400
C5251	C525	0.440500	0.057400	0.819500
H4471	H447	0.463400	0.029900	0.835200
C5261	C526	0.285800	0.047200	0.835900
H4481	H448	0.283100	0.020100	0.809800
C5271	C527	0.384900	0.056600	0.756300
C5281	C528	0.435300	0.939500	0.761400
H4491	H449	0.458900	0.915000	0.776100
C5291	C529	0.519000	0.539600	0.899200
H4501	H450	0.501900	0.514500	0.873200
H4511	H451	0.510100	0.602300	0.905500
H4521	H452	0.543100	0.548500	0.896800
C5301	C530	0.395400	0.455400	0.686500
H4531	H453	0.410700	0.504700	0.682300
C5311	C531	0.365500	0.012400	0.716900
H4541	H454	0.342000	0.035500	0.700900
C5321	C532	0.381200	0.936300	0.702400
H4551	H455	0.368100	0.908700	0.676300
C5331	C533	0.415300	0.899600	0.724500
H4561	H456	0.424800	0.846300	0.714000
C5341	C534	0.630910	0.475000	0.004500
C5351	C535	0.626690	0.527300	0.063900
N611	N61	0.661510	0.492500	0.070280
H4571	H457	0.679100	0.491200	0.094300
N621	N62	0.665000	0.459900	0.033930
C5361	C536	0.624740	0.445300	0.961400
H4581	H458	0.647400	0.418900	0.959400
H4591	H459	0.605700	0.395400	0.953000
H4601	H460	0.617100	0.502000	0.943300
C5371	C537	0.617000	0.570000	0.099600
H4611	H461	0.638100	0.564500	0.125100
H4621	H462	0.610300	0.638700	0.094100
H4631	H463	0.596300	0.534100	0.102600
C5381	C538	0.238560	0.986400	0.991000
O951	O95	0.218540	0.910900	0.976420
O961	O96	0.242740	0.020700	0.026700
C5391	C539	0.632490	0.019000	0.018400
H4641	H464	0.631100	0.965500	0.998800
H4651	H465	0.645900	0.994300	0.046400
C5401	C540	0.653540	0.102600	0.009300
C5411	C541	0.666820	0.110400	0.976500
C5421	C542	0.665630	0.189200	0.033300
N631	N63	0.685170	0.199200	0.981450
H4661	H466	0.695800	0.221300	0.964600
N641	N64	0.684690	0.247800	0.015720
C5431	C543	0.663480	0.044400	0.940000
H4671	H467	0.649900	0.985600	0.941700
H4681	H468	0.650500	0.079000	0.914400
H4691	H469	0.687900	0.026200	0.940500
C5441	C544	0.658800	0.218200	0.072700
H4701	H470	0.670400	0.281000	0.082400
H4711	H471	0.632400	0.223600	0.067000
H4721	H472	0.669000	0.168600	0.093800
