data_FUTDII_freeONLY_PM
_symmetry_space_group_name_H-M	'P1'
_cell_length_a	16.541300
_cell_length_b	16.595700
_cell_length_c	16.595700
_cell_angle_alpha	70.462500
_cell_angle_beta	70.595100
_cell_angle_gamma	109.405000
_symmetry_Int_Tables_number 1

loop_
_symmetry_equiv_pos_as_xyz
'x,y,z'

loop_
_atom_site_label
_atom_site_type_symbol
_atom_site_fract_x
_atom_site_fract_y
_atom_site_fract_z
Fe11	Fe1	0.072410	0.598570	0.401430
Fe21	Fe2	0.473840	0.401430	0.000000
Fe31	Fe3	0.473840	0.000000	0.598570
Fe41	Fe4	0.526160	0.000000	0.401430
Fe51	Fe5	0.526160	0.598570	0.000000
Fe61	Fe6	0.927590	0.401430	0.598570
H11	H1	0.969100	0.503600	0.232500
H21	H2	0.040000	0.362300	0.174000
H31	H3	0.170400	0.350100	0.073000
H41	H4	0.201600	0.232500	0.263900
H51	H5	0.214000	0.174000	0.463700
H61	H6	0.243400	0.073000	0.576900
H71	H7	0.465500	0.263900	0.503600
H81	H8	0.677700	0.463700	0.362300
H91	H9	0.820300	0.576900	0.350100
H101	H10	0.798400	0.263900	0.232500
H111	H11	0.786000	0.463700	0.174000
H121	H12	0.756600	0.576900	0.073000
H131	H13	0.534500	0.503600	0.263900
H141	H14	0.322300	0.362300	0.463700
H151	H15	0.179700	0.350100	0.576900
H161	H16	0.030900	0.232500	0.503600
H171	H17	0.960000	0.174000	0.362300
H181	H18	0.829600	0.073000	0.350100
H191	H19	0.030900	0.496400	0.767500
H201	H20	0.960000	0.637700	0.826000
H211	H21	0.829600	0.649900	0.927000
H221	H22	0.798400	0.767500	0.736100
H231	H23	0.786000	0.826000	0.536300
H241	H24	0.756600	0.927000	0.423100
H251	H25	0.534500	0.736100	0.496400
H261	H26	0.322300	0.536300	0.637700
H271	H27	0.179700	0.423100	0.649900
H281	H28	0.201600	0.736100	0.767500
H291	H29	0.214000	0.536300	0.826000
H301	H30	0.243400	0.423100	0.927000
H311	H31	0.465500	0.496400	0.736100
H321	H32	0.677700	0.637700	0.536300
H331	H33	0.820300	0.649900	0.423100
H341	H34	0.969100	0.767500	0.496400
H351	H35	0.040000	0.826000	0.637700
H361	H36	0.170400	0.927000	0.649900
H371	H37	0.754600	0.254600	0.490800
H381	H38	0.245400	0.490800	0.254600
H391	H39	0.500000	0.254600	0.254600
H401	H40	0.245400	0.745400	0.509200
H411	H41	0.754600	0.509200	0.745400
H421	H42	0.500000	0.745400	0.745400
C11	C1	0.904900	0.430800	0.423400
C21	C2	0.870900	0.385000	0.369200
C31	C3	0.918200	0.436600	0.267200
C41	C4	0.034500	0.446500	0.053600
C51	C5	0.068300	0.393600	0.104200
C61	C6	0.149100	0.391100	0.041700
C71	C7	0.328300	0.423400	0.145800
C81	C8	0.240100	0.369200	0.245800
C91	C9	0.185400	0.267200	0.296200
C101	C10	0.088100	0.053600	0.499900
C111	C11	0.172500	0.104200	0.502200
C121	C12	0.190800	0.041700	0.567200
C131	C13	0.474100	0.145800	0.430800
C141	C14	0.485900	0.245800	0.385000
C151	C15	0.481600	0.296200	0.436600
C161	C16	0.588000	0.499900	0.446500
C171	C17	0.674700	0.502200	0.393600
C181	C18	0.758000	0.567200	0.391100
C191	C19	0.671700	0.145800	0.423400
C201	C20	0.759900	0.245800	0.369200
C211	C21	0.814600	0.296200	0.267200
C221	C22	0.911900	0.499900	0.053600
C231	C23	0.827500	0.502200	0.104200
C241	C24	0.809200	0.567200	0.041700
C251	C25	0.525900	0.430800	0.145800
C261	C26	0.514100	0.385000	0.245800
C271	C27	0.518400	0.436600	0.296200
C281	C28	0.412000	0.446500	0.499900
C291	C29	0.325300	0.393600	0.502200
C301	C30	0.242000	0.391100	0.567200
C311	C31	0.095100	0.423400	0.430800
C321	C32	0.129100	0.369200	0.385000
C331	C33	0.081800	0.267200	0.436600
C341	C34	0.965500	0.053600	0.446500
C351	C35	0.931700	0.104200	0.393600
C361	C36	0.850900	0.041700	0.391100
C371	C37	0.095100	0.569200	0.576600
C381	C38	0.129100	0.615000	0.630800
C391	C39	0.081800	0.563400	0.732800
C401	C40	0.965500	0.553500	0.946400
C411	C41	0.931700	0.606400	0.895800
C421	C42	0.850900	0.608900	0.958300
C431	C43	0.671700	0.576600	0.854200
C441	C44	0.759900	0.630800	0.754200
C451	C45	0.814600	0.732800	0.703800
C461	C46	0.911900	0.946400	0.500100
C471	C47	0.827500	0.895800	0.497800
C481	C48	0.809200	0.958300	0.432800
C491	C49	0.525900	0.854200	0.569200
C501	C50	0.514100	0.754200	0.615000
C511	C51	0.518400	0.703800	0.563400
C521	C52	0.412000	0.500100	0.553500
C531	C53	0.325300	0.497800	0.606400
C541	C54	0.242000	0.432800	0.608900
C551	C55	0.328300	0.854200	0.576600
C561	C56	0.240100	0.754200	0.630800
C571	C57	0.185400	0.703800	0.732800
C581	C58	0.088100	0.500100	0.946400
C591	C59	0.172500	0.497800	0.895800
C601	C60	0.190800	0.432800	0.958300
C611	C61	0.474100	0.569200	0.854200
C621	C62	0.485900	0.615000	0.754200
C631	C63	0.481600	0.563400	0.703800
C641	C64	0.588000	0.553500	0.500100
C651	C65	0.674700	0.606400	0.497800
C661	C66	0.758000	0.608900	0.432800
C671	C67	0.904900	0.576600	0.569200
C681	C68	0.870900	0.630800	0.615000
C691	C69	0.918200	0.732800	0.563400
C701	C70	0.034500	0.946400	0.553500
C711	C71	0.068300	0.895800	0.606400
C721	C72	0.149100	0.958300	0.608900
C731	C73	0.789600	0.289600	0.420800
C741	C74	0.893100	0.393100	0.213800
C751	C75	0.948500	0.448500	0.103000
C761	C76	0.210400	0.420800	0.289600
C771	C77	0.106900	0.213800	0.393100
C781	C78	0.051500	0.103000	0.448500
C791	C79	0.500000	0.289600	0.289600
C801	C80	0.500000	0.393100	0.393100
C811	C81	0.500000	0.448500	0.448500
C821	C82	0.210400	0.710400	0.579200
C831	C83	0.106900	0.606900	0.786200
C841	C84	0.051500	0.551500	0.897000
C851	C85	0.789600	0.579200	0.710400
C861	C86	0.893100	0.786200	0.606900
C871	C87	0.948500	0.897000	0.551500
C881	C88	0.500000	0.710400	0.710400
C891	C89	0.500000	0.606900	0.606900
C901	C90	0.500000	0.551500	0.551500
O11	O1	0.970770	0.519090	0.374380
O21	O2	0.862600	0.376800	0.516400
O31	O3	0.345150	0.374380	0.106530
O41	O4	0.379000	0.516400	0.106800
O51	O5	0.451680	0.106530	0.519090
O61	O6	0.485800	0.106800	0.376800
O71	O7	0.654850	0.106530	0.374380
O81	O8	0.621000	0.106800	0.516400
O91	O9	0.548320	0.519090	0.106530
O101	O10	0.514200	0.376800	0.106800
O111	O11	0.029230	0.374380	0.519090
O121	O12	0.137400	0.516400	0.376800
O131	O13	0.029230	0.480910	0.625620
O141	O14	0.137400	0.623200	0.483600
O151	O15	0.654850	0.625620	0.893470
O161	O16	0.621000	0.483600	0.893200
O171	O17	0.548320	0.893470	0.480910
O181	O18	0.514200	0.893200	0.623200
O191	O19	0.345150	0.893470	0.625620
O201	O20	0.379000	0.893200	0.483600
O211	O21	0.451680	0.480910	0.893470
O221	O22	0.485800	0.623200	0.893200
O231	O23	0.970770	0.625620	0.480910
O241	O24	0.862600	0.483600	0.623200
