data_FUTJOV_freeONLY_PM
_symmetry_space_group_name_H-M	'P1'
_cell_length_a	6.720000
_cell_length_b	9.494000
_cell_length_c	10.682000
_cell_angle_alpha	111.979000
_cell_angle_beta	96.879000
_cell_angle_gamma	106.678000
_symmetry_Int_Tables_number 1

loop_
_symmetry_equiv_pos_as_xyz
'x,y,z'

loop_
_atom_site_label
_atom_site_type_symbol
_atom_site_fract_x
_atom_site_fract_y
_atom_site_fract_z
Cu11	Cu1	0.168190	0.396240	0.292100
Cu21	Cu2	0.010500	0.149080	0.769270
C11	C1	0.144200	0.722600	0.309800
C21	C2	0.275500	0.116300	0.331400
C31	C3	0.055900	0.232500	0.968600
C41	C4	0.223500	0.088600	0.672200
C51	C5	0.118900	0.594800	0.297200
C61	C6	0.091900	0.289100	0.087800
C71	C7	0.247700	0.217800	0.309200
C81	C8	0.352100	0.056800	0.620000
O11	O1	0.245100	0.503300	0.495800
H11	H1	0.372600	0.569000	0.540300
H21	H2	0.151300	0.484500	0.540100
Cu31	Cu3	0.359540	0.963580	0.390010
N11	N1	0.855800	0.277400	0.690200
N21	N2	0.724500	0.883700	0.668600
N31	N3	0.647900	0.943200	0.380000
Cu41	Cu4	0.831810	0.603760	0.707900
Cu51	Cu5	0.989500	0.850920	0.230730
C91	C9	0.944100	0.767500	0.031400
C101	C10	0.776500	0.911400	0.327800
C111	C11	0.881100	0.405200	0.702800
C121	C12	0.908100	0.710900	0.912200
C131	C13	0.752300	0.782200	0.690800
O21	O2	0.754900	0.496700	0.504200
H31	H3	0.627400	0.431000	0.459700
H41	H4	0.848700	0.515500	0.459900
Cu61	Cu6	0.640460	0.036420	0.609990
