data_FUTZOL_freeONLY_PM
_symmetry_space_group_name_H-M	'P1'
_cell_length_a	23.310000
_cell_length_b	18.952000
_cell_length_c	26.570000
_cell_angle_alpha	90.000000
_cell_angle_beta	94.757000
_cell_angle_gamma	90.000000
_symmetry_Int_Tables_number 1

loop_
_symmetry_equiv_pos_as_xyz
'x,y,z'

loop_
_atom_site_label
_atom_site_type_symbol
_atom_site_fract_x
_atom_site_fract_y
_atom_site_fract_z
Zn11	Zn1	0.959320	0.278080	0.193230
Zn21	Zn2	0.034220	0.260880	0.318040
Zn31	Zn3	0.868250	0.775680	0.318840
Zn41	Zn4	0.129530	0.763050	0.178810
Zn51	Zn5	0.722630	0.409890	0.501600
O11	O1	0.922200	0.224100	0.139000
O21	O2	0.922700	0.308800	0.079800
O31	O3	0.898500	0.393500	0.207900
O41	O4	0.988700	0.375200	0.193500
O51	O5	0.914600	0.249700	0.250400
O61	O6	0.958900	0.308700	0.315700
O71	O7	0.035800	0.231000	0.200600
O81	O8	0.083300	0.288100	0.265400
O91	O9	0.934800	0.724300	0.612100
O101	O10	0.011300	0.162300	0.313100
O111	O11	0.905700	0.619000	0.635300
O121	O12	0.104500	0.141900	0.306900
O131	O13	0.087600	0.841400	0.205800
O141	O14	0.161700	0.903500	0.241900
O151	O15	0.871400	0.951500	0.302100
O161	O16	0.922600	0.852500	0.314100
O171	O17	0.914700	0.794400	0.430700
O181	O18	0.840000	0.750400	0.383200
O191	O19	0.917900	0.698400	0.302100
O201	O20	0.845500	0.622300	0.285500
O211	O21	0.872900	0.231200	0.896400
O221	O22	0.829100	0.128600	0.885000
O231	O23	0.072000	0.688200	0.183200
O241	O24	0.125200	0.588000	0.192200
O251	O25	0.652900	0.288300	0.286700
O261	O26	0.704600	0.288900	0.219500
O271	O27	0.341100	0.225700	0.218700
O281	O28	0.294500	0.243800	0.287300
O291	O29	0.772900	0.489800	0.517600
O301	O30	0.757800	0.521200	0.436000
O311	O31	0.854100	0.947400	0.017400
O321	O32	0.892500	0.980500	0.093600
O331	O33	0.225500	0.134800	0.067700
O341	O34	0.142600	0.190500	0.046000
O351	O35	0.843700	0.352400	0.464100
O361	O36	0.748500	0.346700	0.451000
C11	C1	0.914400	0.247900	0.092200
C21	C2	0.893500	0.191000	0.053900
C31	C3	0.915000	0.282600	0.291200
C41	C4	0.882800	0.210900	0.001800
H11	H1	0.888600	0.257000	0.991300
C51	C5	0.863400	0.158100	0.967500
C61	C6	0.856700	0.090100	0.984300
H21	H2	0.842300	0.056300	0.961200
C71	C7	0.870300	0.069300	0.034100
C81	C8	0.888900	0.123100	0.069200
H31	H3	0.898000	0.111600	0.103000
C91	C9	0.948700	0.411500	0.206300
C101	C10	0.858100	0.291300	0.312600
C111	C11	0.855400	0.308300	0.363900
H41	H4	0.888900	0.310500	0.385400
C121	C12	0.081100	0.256200	0.223700
C131	C13	0.136900	0.241500	0.200800
C141	C14	0.137000	0.223000	0.150300
H51	H5	0.102900	0.225000	0.129600
C151	C15	0.187600	0.246400	0.228800
H61	H6	0.187700	0.262600	0.261900
C161	C16	0.910100	0.665600	0.603300
C171	C17	0.052900	0.123200	0.305100
C181	C18	0.038800	0.046700	0.292000
C191	C19	0.984100	0.019900	0.298900
H71	H7	0.956300	0.048900	0.311300
C201	C20	0.971400	0.951000	0.287200
C211	C21	0.012200	0.908600	0.265000
H81	H8	0.002600	0.862800	0.254800
C221	C22	0.066400	0.935000	0.258300
C231	C23	0.079500	0.001900	0.273800
H91	H9	0.116900	0.018200	0.272200
C241	C24	0.916200	0.917500	0.302100
C251	C25	0.296800	0.231900	0.238600
C261	C26	0.108700	0.890600	0.233600
C271	C27	0.873400	0.753200	0.422900
C281	C28	0.236900	0.205000	0.160700
H101	H10	0.270700	0.190700	0.147400
C291	C29	0.863800	0.701700	0.464100
C301	C30	0.891200	0.708100	0.512500
H111	H11	0.916700	0.745200	0.519300
C311	C31	0.881600	0.661200	0.550900
C321	C32	0.845100	0.604700	0.539600
H121	H12	0.839000	0.572000	0.564700
C331	C33	0.816700	0.595000	0.491000
C341	C34	0.826700	0.643900	0.454300
H131	H13	0.808400	0.638500	0.422000
C351	C35	0.779300	0.532400	0.479700
C361	C36	0.698700	0.292500	0.268100
C371	C37	0.754400	0.299500	0.300900
C381	C38	0.807700	0.289400	0.282600
H141	H14	0.809200	0.280800	0.248300
C391	C39	0.896300	0.643300	0.282200
C401	C40	0.937800	0.602400	0.252300
C411	C41	0.923100	0.532600	0.239900
H151	H15	0.887400	0.514500	0.246600
C421	C42	0.963200	0.490600	0.217400
C431	C43	0.015300	0.518700	0.205300
H161	H16	0.042600	0.490100	0.191800
C441	C44	0.026500	0.590300	0.213700
C451	C45	0.988000	0.630500	0.237800
H171	H17	0.996300	0.677800	0.244500
C461	C46	0.080100	0.622000	0.195100
C471	C47	0.872000	0.993800	0.051600
C481	C48	0.799300	0.342700	0.437100
C491	C49	0.801800	0.321800	0.382600
C501	C50	0.752400	0.317600	0.351100
H181	H18	0.717100	0.326900	0.363600
C511	C51	0.184400	0.174400	0.076700
C521	C52	0.853300	0.173100	0.912800
C531	C53	0.239300	0.228500	0.210600
C541	C54	0.186100	0.202200	0.130600
Zn61	Zn6	0.540680	0.778080	0.306770
Zn71	Zn7	0.465780	0.760880	0.181960
Zn81	Zn8	0.631750	0.275680	0.181160
Zn91	Zn9	0.370470	0.263050	0.321190
Zn101	Zn10	0.777370	0.909890	0.998400
O371	O37	0.577800	0.724100	0.361000
O381	O38	0.577300	0.808800	0.420200
O391	O39	0.601500	0.893500	0.292100
O401	O40	0.511300	0.875200	0.306500
O411	O41	0.585400	0.749700	0.249600
O421	O42	0.541100	0.808700	0.184300
O431	O43	0.464200	0.731000	0.299400
O441	O44	0.416700	0.788100	0.234600
O451	O45	0.565200	0.224300	0.887900
O461	O46	0.488700	0.662300	0.186900
O471	O47	0.594300	0.119000	0.864700
O481	O48	0.395500	0.641900	0.193100
O491	O49	0.412400	0.341400	0.294200
O501	O50	0.338300	0.403500	0.258100
O511	O51	0.628600	0.451500	0.197900
O521	O52	0.577400	0.352500	0.185900
O531	O53	0.585300	0.294400	0.069300
O541	O54	0.660000	0.250400	0.116800
O551	O55	0.582100	0.198400	0.197900
O561	O56	0.654500	0.122300	0.214500
O571	O57	0.627100	0.731200	0.603600
O581	O58	0.670900	0.628600	0.615000
O591	O59	0.428000	0.188200	0.316800
O601	O60	0.374800	0.088000	0.307800
O611	O61	0.847100	0.788300	0.213300
O621	O62	0.795400	0.788900	0.280500
O631	O63	0.158900	0.725700	0.281300
O641	O64	0.205500	0.743800	0.212700
O651	O65	0.727100	0.989800	0.982400
O661	O66	0.742200	0.021200	0.064000
O671	O67	0.645900	0.447400	0.482600
O681	O68	0.607500	0.480500	0.406400
O691	O69	0.274500	0.634800	0.432300
O701	O70	0.357400	0.690500	0.454000
O711	O71	0.656300	0.852400	0.035900
O721	O72	0.751500	0.846700	0.049000
C551	C55	0.585600	0.747900	0.407800
C561	C56	0.606500	0.691000	0.446100
C571	C57	0.585000	0.782600	0.208800
C581	C58	0.617200	0.710900	0.498200
H191	H19	0.611400	0.757000	0.508700
C591	C59	0.636600	0.658100	0.532500
C601	C60	0.643300	0.590100	0.515700
H201	H20	0.657700	0.556300	0.538800
C611	C61	0.629700	0.569300	0.465900
C621	C62	0.611100	0.623100	0.430800
H211	H21	0.602000	0.611600	0.397000
C631	C63	0.551300	0.911500	0.293700
C641	C64	0.641900	0.791300	0.187400
C651	C65	0.644600	0.808300	0.136100
H221	H22	0.611100	0.810500	0.114600
C661	C66	0.418900	0.756200	0.276300
C671	C67	0.363100	0.741500	0.299200
C681	C68	0.363000	0.723000	0.349700
H231	H23	0.397100	0.725000	0.370400
C691	C69	0.312400	0.746400	0.271200
H241	H24	0.312300	0.762600	0.238100
C701	C70	0.589900	0.165600	0.896700
C711	C71	0.447100	0.623200	0.194900
C721	C72	0.461200	0.546700	0.208000
C731	C73	0.515900	0.519900	0.201100
H251	H25	0.543700	0.548900	0.188700
C741	C74	0.528600	0.451000	0.212800
C751	C75	0.487800	0.408600	0.235000
H261	H26	0.497400	0.362800	0.245200
C761	C76	0.433600	0.435000	0.241700
C771	C77	0.420500	0.501900	0.226200
H271	H27	0.383100	0.518200	0.227800
C781	C78	0.583800	0.417500	0.197900
C791	C79	0.203200	0.731900	0.261400
C801	C80	0.391300	0.390600	0.266400
C811	C81	0.626600	0.253200	0.077100
C821	C82	0.263100	0.705000	0.339300
H281	H28	0.229300	0.690700	0.352600
C831	C83	0.636200	0.201700	0.035900
C841	C84	0.608800	0.208100	0.987500
H291	H29	0.583300	0.245200	0.980700
C851	C85	0.618400	0.161200	0.949100
C861	C86	0.654900	0.104700	0.960400
H301	H30	0.661000	0.072000	0.935300
C871	C87	0.683300	0.095000	0.009000
C881	C88	0.673300	0.143900	0.045700
H311	H31	0.691600	0.138500	0.078000
C891	C89	0.720700	0.032400	0.020300
C901	C90	0.801300	0.792500	0.231900
C911	C91	0.745600	0.799500	0.199100
C921	C92	0.692300	0.789400	0.217400
H321	H32	0.690800	0.780800	0.251700
C931	C93	0.603700	0.143300	0.217800
C941	C94	0.562200	0.102400	0.247700
C951	C95	0.576900	0.032600	0.260100
H331	H33	0.612600	0.014500	0.253400
C961	C96	0.536800	0.990600	0.282600
C971	C97	0.484700	0.018700	0.294700
H341	H34	0.457400	0.990100	0.308200
C981	C98	0.473500	0.090300	0.286300
C991	C99	0.512000	0.130500	0.262200
H351	H35	0.503700	0.177800	0.255500
C1001	C100	0.419900	0.122000	0.304900
C1011	C101	0.628000	0.493800	0.448400
C1021	C102	0.700700	0.842700	0.062900
C1031	C103	0.698200	0.821800	0.117400
C1041	C104	0.747600	0.817600	0.148900
H361	H36	0.782900	0.826900	0.136400
C1051	C105	0.315600	0.674400	0.423300
C1061	C106	0.646700	0.673100	0.587200
C1071	C107	0.260700	0.728500	0.289400
C1081	C108	0.313900	0.702200	0.369400
Zn111	Zn11	0.040680	0.721920	0.806770
Zn121	Zn12	0.965780	0.739120	0.681960
Zn131	Zn13	0.131750	0.224320	0.681160
Zn141	Zn14	0.870470	0.236950	0.821190
Zn151	Zn15	0.277370	0.590110	0.498400
O731	O73	0.077800	0.775900	0.861000
O741	O74	0.077300	0.691200	0.920200
O751	O75	0.101500	0.606500	0.792100
O761	O76	0.011300	0.624800	0.806500
O771	O77	0.085400	0.750300	0.749600
O781	O78	0.041100	0.691300	0.684300
O791	O79	0.964200	0.769000	0.799400
O801	O80	0.916700	0.711900	0.734600
O811	O81	0.065200	0.275700	0.387900
O821	O82	0.988700	0.837700	0.686900
O831	O83	0.094300	0.381000	0.364700
O841	O84	0.895500	0.858100	0.693100
O851	O85	0.912400	0.158600	0.794200
O861	O86	0.838300	0.096500	0.758100
O871	O87	0.128600	0.048500	0.697900
O881	O88	0.077400	0.147500	0.685900
O891	O89	0.085300	0.205600	0.569300
O901	O90	0.160000	0.249600	0.616800
O911	O91	0.082100	0.301600	0.697900
O921	O92	0.154500	0.377700	0.714500
O931	O93	0.127100	0.768800	0.103600
O941	O94	0.170900	0.871400	0.115000
O951	O95	0.928000	0.311800	0.816800
O961	O96	0.874800	0.412000	0.807800
O971	O97	0.347100	0.711700	0.713300
O981	O98	0.295400	0.711100	0.780500
O991	O99	0.658900	0.774300	0.781300
O1001	O100	0.705500	0.756200	0.712700
O1011	O101	0.227100	0.510200	0.482400
O1021	O102	0.242200	0.478800	0.564000
O1031	O103	0.145900	0.052600	0.982600
O1041	O104	0.107500	0.019500	0.906400
O1051	O105	0.774500	0.865200	0.932300
O1061	O106	0.857400	0.809500	0.954000
O1071	O107	0.156300	0.647600	0.535900
O1081	O108	0.251500	0.653300	0.549000
C1091	C109	0.085600	0.752100	0.907800
C1101	C110	0.106500	0.809000	0.946100
C1111	C111	0.085000	0.717400	0.708800
C1121	C112	0.117200	0.789100	0.998200
H371	H37	0.111400	0.743000	0.008700
C1131	C113	0.136600	0.841900	0.032500
C1141	C114	0.143300	0.909900	0.015700
H381	H38	0.157700	0.943700	0.038800
C1151	C115	0.129700	0.930700	0.965900
C1161	C116	0.111100	0.876900	0.930800
H391	H39	0.102000	0.888400	0.897000
C1171	C117	0.051300	0.588500	0.793700
C1181	C118	0.141900	0.708700	0.687400
C1191	C119	0.144600	0.691700	0.636100
H401	H40	0.111100	0.689500	0.614600
C1201	C120	0.918900	0.743800	0.776300
C1211	C121	0.863100	0.758500	0.799200
C1221	C122	0.863000	0.777000	0.849700
H411	H41	0.897100	0.775000	0.870400
C1231	C123	0.812400	0.753600	0.771200
H421	H42	0.812300	0.737400	0.738100
C1241	C124	0.089900	0.334400	0.396700
C1251	C125	0.947100	0.876800	0.694900
C1261	C126	0.961200	0.953300	0.708000
C1271	C127	0.015900	0.980100	0.701100
H431	H43	0.043700	0.951100	0.688700
C1281	C128	0.028600	0.049000	0.712800
C1291	C129	0.987800	0.091400	0.735000
H441	H44	0.997400	0.137200	0.745200
C1301	C130	0.933600	0.065000	0.741700
C1311	C131	0.920500	0.998100	0.726200
H451	H45	0.883100	0.981800	0.727800
C1321	C132	0.083800	0.082500	0.697900
C1331	C133	0.703200	0.768100	0.761400
C1341	C134	0.891300	0.109400	0.766400
C1351	C135	0.126600	0.246800	0.577100
C1361	C136	0.763100	0.795000	0.839300
H461	H46	0.729300	0.809300	0.852600
C1371	C137	0.136200	0.298300	0.535900
C1381	C138	0.108800	0.291900	0.487500
H471	H47	0.083300	0.254800	0.480700
C1391	C139	0.118400	0.338800	0.449100
C1401	C140	0.154900	0.395300	0.460400
H481	H48	0.161000	0.428000	0.435300
C1411	C141	0.183300	0.405000	0.509000
C1421	C142	0.173300	0.356100	0.545700
H491	H49	0.191600	0.361500	0.578000
C1431	C143	0.220700	0.467600	0.520300
C1441	C144	0.301300	0.707500	0.731900
C1451	C145	0.245600	0.700500	0.699100
C1461	C146	0.192300	0.710600	0.717400
H501	H50	0.190800	0.719200	0.751700
C1471	C147	0.103700	0.356700	0.717800
C1481	C148	0.062200	0.397600	0.747700
C1491	C149	0.076900	0.467400	0.760100
H511	H51	0.112600	0.485500	0.753400
C1501	C150	0.036800	0.509400	0.782600
C1511	C151	0.984700	0.481300	0.794700
H521	H52	0.957400	0.509900	0.808200
C1521	C152	0.973500	0.409700	0.786300
C1531	C153	0.012000	0.369500	0.762200
H531	H53	0.003700	0.322200	0.755500
C1541	C154	0.919900	0.378000	0.804900
C1551	C155	0.128000	0.006200	0.948400
C1561	C156	0.200700	0.657300	0.562900
C1571	C157	0.198200	0.678200	0.617400
C1581	C158	0.247600	0.682400	0.648900
H541	H54	0.282900	0.673100	0.636400
C1591	C159	0.815600	0.825600	0.923300
C1601	C160	0.146700	0.826900	0.087200
C1611	C161	0.760700	0.771500	0.789400
C1621	C162	0.813900	0.797800	0.869400
Zn161	Zn16	0.459320	0.221920	0.693230
Zn171	Zn17	0.534220	0.239120	0.818040
Zn181	Zn18	0.368250	0.724320	0.818840
Zn191	Zn19	0.629530	0.736950	0.678810
Zn201	Zn20	0.222630	0.090110	0.001600
O1091	O109	0.422200	0.275900	0.639000
O1101	O110	0.422700	0.191200	0.579800
O1111	O111	0.398500	0.106500	0.707900
O1121	O112	0.488700	0.124800	0.693500
O1131	O113	0.414600	0.250300	0.750400
O1141	O114	0.458900	0.191300	0.815700
O1151	O115	0.535800	0.269000	0.700600
O1161	O116	0.583300	0.211900	0.765400
O1171	O117	0.434800	0.775700	0.112100
O1181	O118	0.511300	0.337700	0.813100
O1191	O119	0.405700	0.881000	0.135300
O1201	O120	0.604500	0.358100	0.806900
O1211	O121	0.587600	0.658600	0.705800
O1221	O122	0.661700	0.596500	0.741900
O1231	O123	0.371400	0.548500	0.802100
O1241	O124	0.422600	0.647500	0.814100
O1251	O125	0.414700	0.705600	0.930700
O1261	O126	0.340000	0.749600	0.883200
O1271	O127	0.417900	0.801600	0.802100
O1281	O128	0.345500	0.877700	0.785500
O1291	O129	0.372900	0.268800	0.396400
O1301	O130	0.329100	0.371400	0.385000
O1311	O131	0.572000	0.811800	0.683200
O1321	O132	0.625200	0.912000	0.692200
O1331	O133	0.152900	0.211700	0.786700
O1341	O134	0.204600	0.211100	0.719500
O1351	O135	0.841100	0.274300	0.718700
O1361	O136	0.794500	0.256200	0.787300
O1371	O137	0.272900	0.010200	0.017600
O1381	O138	0.257800	0.978800	0.936000
O1391	O139	0.354100	0.552600	0.517400
O1401	O140	0.392500	0.519500	0.593600
O1411	O141	0.725500	0.365200	0.567700
O1421	O142	0.642600	0.309500	0.546000
O1431	O143	0.343700	0.147600	0.964100
O1441	O144	0.248500	0.153300	0.951000
C1631	C163	0.414400	0.252100	0.592200
C1641	C164	0.393500	0.309000	0.553900
C1651	C165	0.415000	0.217400	0.791200
C1661	C166	0.382800	0.289100	0.501800
H551	H55	0.388600	0.243000	0.491300
C1671	C167	0.363400	0.341900	0.467500
C1681	C168	0.356700	0.409900	0.484300
H561	H56	0.342300	0.443700	0.461200
C1691	C169	0.370300	0.430700	0.534100
C1701	C170	0.388900	0.376900	0.569200
H571	H57	0.398000	0.388400	0.603000
C1711	C171	0.448700	0.088500	0.706300
C1721	C172	0.358100	0.208700	0.812600
C1731	C173	0.355400	0.191700	0.863900
H581	H58	0.388900	0.189500	0.885400
C1741	C174	0.581100	0.243800	0.723700
C1751	C175	0.636900	0.258500	0.700800
C1761	C176	0.637000	0.277000	0.650300
H591	H59	0.602900	0.275000	0.629600
C1771	C177	0.687600	0.253600	0.728800
H601	H60	0.687700	0.237400	0.761900
C1781	C178	0.410100	0.834400	0.103300
C1791	C179	0.552900	0.376800	0.805100
C1801	C180	0.538800	0.453300	0.792000
C1811	C181	0.484100	0.480100	0.798900
H611	H61	0.456300	0.451100	0.811300
C1821	C182	0.471400	0.549000	0.787200
C1831	C183	0.512200	0.591400	0.765000
H621	H62	0.502600	0.637200	0.754800
C1841	C184	0.566400	0.565000	0.758300
C1851	C185	0.579500	0.498100	0.773800
H631	H63	0.616900	0.481800	0.772200
C1861	C186	0.416200	0.582500	0.802100
C1871	C187	0.796800	0.268100	0.738600
C1881	C188	0.608700	0.609400	0.733600
C1891	C189	0.373400	0.746800	0.922900
C1901	C190	0.736900	0.295000	0.660700
H641	H64	0.770700	0.309300	0.647400
C1911	C191	0.363800	0.798300	0.964100
C1921	C192	0.391200	0.791900	0.012500
H651	H65	0.416700	0.754800	0.019300
C1931	C193	0.381600	0.838800	0.050900
C1941	C194	0.345100	0.895300	0.039600
H661	H66	0.339000	0.928000	0.064700
C1951	C195	0.316700	0.905000	0.991000
C1961	C196	0.326700	0.856100	0.954300
H671	H67	0.308400	0.861500	0.922000
C1971	C197	0.279300	0.967600	0.979700
C1981	C198	0.198700	0.207500	0.768100
C1991	C199	0.254400	0.200500	0.800900
C2001	C200	0.307700	0.210600	0.782600
H681	H68	0.309200	0.219200	0.748300
C2011	C201	0.396300	0.856700	0.782200
C2021	C202	0.437800	0.897600	0.752300
C2031	C203	0.423100	0.967400	0.739900
H691	H69	0.387400	0.985500	0.746600
C2041	C204	0.463200	0.009400	0.717400
C2051	C205	0.515300	0.981300	0.705300
H701	H70	0.542600	0.009900	0.691800
C2061	C206	0.526500	0.909700	0.713700
C2071	C207	0.488000	0.869500	0.737800
H711	H71	0.496300	0.822200	0.744500
C2081	C208	0.580100	0.878000	0.695100
C2091	C209	0.372000	0.506200	0.551600
C2101	C210	0.299300	0.157300	0.937100
C2111	C211	0.301800	0.178200	0.882600
C2121	C212	0.252400	0.182400	0.851100
H721	H72	0.217100	0.173100	0.863600
C2131	C213	0.684400	0.325600	0.576700
C2141	C214	0.353300	0.326900	0.412800
C2151	C215	0.739300	0.271500	0.710600
C2161	C216	0.686100	0.297800	0.630600
