data_FUWXOL_SL_PM
_symmetry_space_group_name_H-M	'P1'
_cell_length_a	8.642900
_cell_length_b	8.884800
_cell_length_c	15.450400
_cell_angle_alpha	90.000000
_cell_angle_beta	90.000000
_cell_angle_gamma	90.000000
_symmetry_Int_Tables_number 1

loop_
_symmetry_equiv_pos_as_xyz
'x,y,z'

loop_
_atom_site_label
_atom_site_type_symbol
_atom_site_fract_x
_atom_site_fract_y
_atom_site_fract_z
Zn11	Zn1	0.451480	0.255480	0.873540
H21	H2	0.056000	0.146000	0.833000
C31	C3	0.120800	0.127300	0.789300
C41	C4	0.218300	0.989800	0.683100
C51	C5	0.218200	0.905200	0.602500
C61	C6	0.335200	0.045600	0.733800
C71	C7	0.501600	0.038100	0.732500
N81	N8	0.273200	0.132900	0.800200
N91	N9	0.083200	0.040100	0.720600
N101	N10	0.094800	0.892600	0.552500
N111	N11	0.148000	0.810400	0.486500
N121	N12	0.293500	0.775900	0.495400
N131	N13	0.341400	0.834500	0.570200
N141	N14	0.579000	0.128700	0.786000
N151	N15	0.730700	0.099600	0.773400
N161	N16	0.743000	0.993500	0.714200
N171	N17	0.598400	0.954000	0.686900
H181	H18	0.459830	0.479050	0.296050
Zn191	Zn19	0.048520	0.744520	0.373540
H201	H20	0.444000	0.854000	0.333000
C211	C21	0.379200	0.872700	0.289300
C221	C22	0.281700	0.010200	0.183100
C231	C23	0.281800	0.094800	0.102500
C241	C24	0.164800	0.954400	0.233800
C251	C25	0.998400	0.961900	0.232500
N261	N26	0.226800	0.867100	0.300200
N271	N27	0.416800	0.959900	0.220600
N281	N28	0.405200	0.107400	0.052500
N291	N29	0.352000	0.189600	0.986500
N301	N30	0.206500	0.224100	0.995400
N311	N31	0.158600	0.165500	0.070200
N321	N32	0.921000	0.871300	0.286000
N331	N33	0.769300	0.900400	0.273400
N341	N34	0.757000	0.006500	0.214200
N351	N35	0.901600	0.046000	0.186900
H361	H36	0.040170	0.520950	0.796050
Zn371	Zn37	0.548520	0.755480	0.626460
H381	H38	0.944000	0.646000	0.667000
C391	C39	0.879200	0.627300	0.710700
C401	C40	0.781700	0.489800	0.816900
C411	C41	0.781800	0.405200	0.897500
C421	C42	0.664800	0.545600	0.766200
C431	C43	0.498400	0.538100	0.767500
N441	N44	0.726800	0.632900	0.699800
N451	N45	0.916800	0.540100	0.779400
N461	N46	0.905200	0.392600	0.947500
N471	N47	0.852000	0.310400	0.013500
N481	N48	0.706500	0.275900	0.004600
N491	N49	0.658600	0.334500	0.929800
N501	N50	0.421000	0.628700	0.714000
N511	N51	0.269300	0.599600	0.726600
N521	N52	0.257000	0.493500	0.785800
N531	N53	0.401600	0.454000	0.813100
H541	H54	0.540170	0.979050	0.203950
Zn551	Zn55	0.951480	0.244520	0.126460
H561	H56	0.556000	0.354000	0.167000
C571	C57	0.620800	0.372700	0.210700
C581	C58	0.718300	0.510200	0.316900
C591	C59	0.718200	0.594800	0.397500
C601	C60	0.835200	0.454400	0.266200
C611	C61	0.001600	0.461900	0.267500
N621	N62	0.773200	0.367100	0.199800
N631	N63	0.583200	0.459900	0.279400
N641	N64	0.594800	0.607400	0.447500
N651	N65	0.648000	0.689600	0.513500
N661	N66	0.793500	0.724100	0.504600
N671	N67	0.841400	0.665500	0.429800
N681	N68	0.079000	0.371300	0.214000
N691	N69	0.230700	0.400400	0.226600
N701	N70	0.243000	0.506500	0.285800
N711	N71	0.098400	0.546000	0.313100
H721	H72	0.959830	0.020950	0.703950
