data_FUWYAY_freeONLY_PM
_symmetry_space_group_name_H-M	'P1'
_cell_length_a	6.912800
_cell_length_b	9.240000
_cell_length_c	16.095000
_cell_angle_alpha	90.000000
_cell_angle_beta	90.000000
_cell_angle_gamma	90.000000
_symmetry_Int_Tables_number 1

loop_
_symmetry_equiv_pos_as_xyz
'x,y,z'

loop_
_atom_site_label
_atom_site_type_symbol
_atom_site_fract_x
_atom_site_fract_y
_atom_site_fract_z
Mn11	Mn1	0.750000	0.197790	0.165210
Mn21	Mn2	0.250000	0.302210	0.665210
Mn31	Mn3	0.250000	0.802210	0.834790
Mn41	Mn4	0.750000	0.697790	0.334790
Mn51	Mn5	0.500000	0.500000	0.500000
Mn61	Mn6	0.500000	0.000000	0.000000
Mn71	Mn7	0.000000	0.500000	0.500000
Mn81	Mn8	0.000000	0.000000	0.000000
H11	H1	0.142300	0.366700	0.287900
H21	H2	0.857700	0.133300	0.787900
H31	H3	0.642300	0.633300	0.712100
H41	H4	0.357700	0.866700	0.212100
H51	H5	0.857700	0.633300	0.712100
H61	H6	0.142300	0.866700	0.212100
H71	H7	0.357700	0.366700	0.287900
H81	H8	0.642300	0.133300	0.787900
H91	H9	0.750000	0.205000	0.009000
H101	H10	0.750000	0.496000	0.156000
H111	H11	0.750000	0.446000	0.076800
H121	H12	0.250000	0.295000	0.509000
H131	H13	0.250000	0.004000	0.656000
H141	H14	0.250000	0.054000	0.576800
H151	H15	0.250000	0.795000	0.991000
H161	H16	0.250000	0.504000	0.844000
H171	H17	0.250000	0.554000	0.923200
H181	H18	0.750000	0.705000	0.491000
H191	H19	0.750000	0.996000	0.344000
H201	H20	0.750000	0.946000	0.423200
C11	C1	0.250000	0.247000	0.200400
C21	C2	0.750000	0.253000	0.700400
C31	C3	0.750000	0.753000	0.799600
C41	C4	0.250000	0.747000	0.299600
S11	S1	0.750000	0.336810	0.355260
S21	S2	0.250000	0.163190	0.855260
S31	S3	0.250000	0.663190	0.644740
S41	S4	0.750000	0.836810	0.144740
N11	N1	0.343400	0.118700	0.100190
N21	N2	0.411000	0.198800	0.162980
N31	N3	0.656600	0.381300	0.600190
N41	N4	0.589000	0.301200	0.662980
N51	N5	0.843400	0.881300	0.899810
N61	N6	0.911000	0.801200	0.837020
N71	N7	0.156600	0.618700	0.399810
N81	N8	0.089000	0.698800	0.337020
N91	N9	0.656600	0.881300	0.899810
N101	N10	0.589000	0.801200	0.837020
N111	N11	0.343400	0.618700	0.399810
N121	N12	0.411000	0.698800	0.337020
N131	N13	0.156600	0.118700	0.100190
N141	N14	0.089000	0.198800	0.162980
N151	N15	0.843400	0.381300	0.600190
N161	N16	0.911000	0.301200	0.662980
N171	N17	0.250000	0.337200	0.267200
N181	N18	0.750000	0.162800	0.767200
N191	N19	0.750000	0.662800	0.732800
N201	N20	0.250000	0.837200	0.232800
O11	O1	0.576600	0.332300	0.407920
O21	O2	0.423400	0.167700	0.907920
O31	O3	0.076600	0.667700	0.592080
O41	O4	0.923400	0.832300	0.092080
O51	O5	0.423400	0.667700	0.592080
O61	O6	0.576600	0.832300	0.092080
O71	O7	0.923400	0.332300	0.407920
O81	O8	0.076600	0.167700	0.907920
O91	O9	0.750000	0.469200	0.304600
O101	O10	0.750000	0.210700	0.299200
O111	O11	0.750000	0.126200	0.034980
O121	O12	0.750000	0.422200	0.126400
O131	O13	0.250000	0.030800	0.804600
O141	O14	0.250000	0.289300	0.799200
O151	O15	0.250000	0.373800	0.534980
O161	O16	0.250000	0.077800	0.626400
O171	O17	0.250000	0.530800	0.695400
O181	O18	0.250000	0.789300	0.700800
O191	O19	0.250000	0.873800	0.965020
O201	O20	0.250000	0.577800	0.873600
O211	O21	0.750000	0.969200	0.195400
O221	O22	0.750000	0.710700	0.200800
O231	O23	0.750000	0.626200	0.465020
O241	O24	0.750000	0.922200	0.373600
