data_GACQAE_freeONLY_PM
_symmetry_space_group_name_H-M	'P1'
_cell_length_a	10.239800
_cell_length_b	15.489200
_cell_length_c	23.712800
_cell_angle_alpha	90.000000
_cell_angle_beta	90.000000
_cell_angle_gamma	90.000000
_symmetry_Int_Tables_number 1

loop_
_symmetry_equiv_pos_as_xyz
'x,y,z'

loop_
_atom_site_label
_atom_site_type_symbol
_atom_site_fract_x
_atom_site_fract_y
_atom_site_fract_z
Zn11	Zn1	0.614420	0.308860	0.012100
Zn21	Zn2	0.431270	0.120320	0.992150
Zn31	Zn3	0.885580	0.691140	0.512100
Zn41	Zn4	0.068730	0.879680	0.492150
Zn51	Zn5	0.385580	0.808860	0.487900
Zn61	Zn6	0.568730	0.620320	0.507850
Zn71	Zn7	0.114420	0.191140	0.987900
Zn81	Zn8	0.931270	0.379680	0.007850
H11	H1	0.050600	0.102400	0.826700
H21	H2	0.023100	0.051700	0.735900
H31	H3	0.433900	0.043800	0.820600
H41	H4	0.116400	0.993600	0.647900
H51	H5	0.498100	0.933900	0.641500
H61	H6	0.528200	0.985900	0.730200
H71	H7	0.705700	0.087800	0.972200
H81	H8	0.569900	0.255500	0.888200
H91	H9	0.555000	0.257500	0.789900
H101	H10	0.678900	0.155400	0.738300
H111	H11	0.782600	0.047600	0.781300
H121	H12	0.798000	0.047200	0.881000
H131	H13	0.438300	0.943700	0.045700
H141	H14	0.449400	0.897600	0.326700
H151	H15	0.476900	0.948300	0.235900
H161	H16	0.066100	0.956200	0.320600
H171	H17	0.383600	0.006400	0.147900
H181	H18	0.001900	0.066100	0.141500
H191	H19	0.971800	0.014100	0.230200
H201	H20	0.794300	0.912200	0.472200
H211	H21	0.930100	0.744500	0.388200
H221	H22	0.945000	0.742500	0.289900
H231	H23	0.821100	0.844600	0.238300
H241	H24	0.717400	0.952400	0.281300
H251	H25	0.702000	0.952800	0.381000
H261	H26	0.061700	0.056300	0.545700
H271	H27	0.949400	0.602400	0.673300
H281	H28	0.976900	0.551700	0.764100
H291	H29	0.566100	0.543800	0.679400
H301	H30	0.883600	0.493600	0.852100
H311	H31	0.501900	0.433900	0.858500
H321	H32	0.471800	0.485900	0.769800
H331	H33	0.294300	0.587800	0.527800
H341	H34	0.430100	0.755500	0.611800
H351	H35	0.445000	0.757500	0.710100
H361	H36	0.321100	0.655400	0.761700
H371	H37	0.217400	0.547600	0.718700
H381	H38	0.202000	0.547200	0.619000
H391	H39	0.561700	0.443700	0.454300
H401	H40	0.550600	0.397600	0.173300
H411	H41	0.523100	0.448300	0.264100
H421	H42	0.933900	0.456200	0.179400
H431	H43	0.616400	0.506400	0.352100
H441	H44	0.998100	0.566100	0.358500
H451	H45	0.028200	0.514100	0.269800
H461	H46	0.205700	0.412200	0.027800
H471	H47	0.069900	0.244500	0.111800
H481	H48	0.055000	0.242500	0.210100
H491	H49	0.178900	0.344600	0.261700
H501	H50	0.282600	0.452400	0.218700
H511	H51	0.298000	0.452800	0.119000
H521	H52	0.938300	0.556300	0.954300
C11	C1	0.258900	0.104800	0.893130
C21	C2	0.245400	0.074900	0.832500
C31	C3	0.123000	0.079400	0.806700
C41	C4	0.107500	0.050400	0.752500
C51	C5	0.211200	0.019400	0.721400
C61	C6	0.338300	0.016500	0.746500
C71	C7	0.350700	0.045200	0.802900
C81	C8	0.199300	0.989700	0.665800
C91	C9	0.301000	0.955300	0.636020
C101	C10	0.425200	0.955500	0.661800
C111	C11	0.442900	0.985600	0.714500
C121	C12	0.277400	0.918500	0.577570
C131	C13	0.824000	0.196800	0.977010
C141	C14	0.699700	0.149300	0.959690
C151	C15	0.690000	0.152500	0.894000
C161	C16	0.615900	0.213600	0.866600
C171	C17	0.606900	0.215600	0.808700
C181	C18	0.678000	0.152600	0.778300
C191	C19	0.741600	0.091700	0.802800
C201	C20	0.749600	0.091400	0.862700
C211	C21	0.528200	0.949800	0.036600
C221	C22	0.241100	0.895200	0.393130
C231	C23	0.254600	0.925100	0.332500
C241	C24	0.377000	0.920600	0.306700
C251	C25	0.392500	0.949600	0.252500
C261	C26	0.288800	0.980600	0.221400
C271	C27	0.161700	0.983500	0.246500
C281	C28	0.149300	0.954800	0.302900
C291	C29	0.300700	0.010300	0.165800
C301	C30	0.199000	0.044700	0.136020
C311	C31	0.074800	0.044500	0.161800
C321	C32	0.057100	0.014400	0.214500
C331	C33	0.222600	0.081500	0.077570
C341	C34	0.676000	0.803200	0.477010
C351	C35	0.800300	0.850700	0.459690
C361	C36	0.810000	0.847500	0.394000
C371	C37	0.884100	0.786400	0.366600
C381	C38	0.893100	0.784400	0.308700
C391	C39	0.822000	0.847400	0.278300
C401	C40	0.758400	0.908300	0.302800
C411	C41	0.750400	0.908600	0.362700
C421	C42	0.971800	0.050200	0.536600
C431	C43	0.741100	0.604800	0.606870
C441	C44	0.754600	0.574900	0.667500
C451	C45	0.877000	0.579400	0.693300
C461	C46	0.892500	0.550400	0.747500
C471	C47	0.788800	0.519400	0.778600
C481	C48	0.661700	0.516500	0.753500
C491	C49	0.649300	0.545200	0.697100
C501	C50	0.800700	0.489700	0.834200
C511	C51	0.699000	0.455300	0.863980
C521	C52	0.574800	0.455500	0.838200
C531	C53	0.557100	0.485600	0.785500
C541	C54	0.722600	0.418500	0.922430
C551	C55	0.176000	0.696800	0.522990
C561	C56	0.300300	0.649300	0.540310
C571	C57	0.310000	0.652500	0.606000
C581	C58	0.384100	0.713600	0.633400
C591	C59	0.393100	0.715600	0.691300
C601	C60	0.322000	0.652600	0.721700
C611	C61	0.258400	0.591700	0.697200
C621	C62	0.250400	0.591400	0.637300
C631	C63	0.471800	0.449800	0.463400
C641	C64	0.758900	0.395200	0.106870
C651	C65	0.745400	0.425100	0.167500
C661	C66	0.623000	0.420600	0.193300
C671	C67	0.607500	0.449600	0.247500
C681	C68	0.711200	0.480600	0.278600
C691	C69	0.838300	0.483500	0.253500
C701	C70	0.850700	0.454800	0.197100
C711	C71	0.699300	0.510300	0.334200
C721	C72	0.801000	0.544700	0.363980
C731	C73	0.925200	0.544500	0.338200
C741	C74	0.942900	0.514400	0.285500
C751	C75	0.777400	0.581500	0.422430
C761	C76	0.324000	0.303200	0.022990
C771	C77	0.199700	0.350700	0.040310
C781	C78	0.190000	0.347500	0.106000
C791	C79	0.115900	0.286400	0.133400
C801	C80	0.106900	0.284400	0.191300
C811	C81	0.178000	0.347400	0.221700
C821	C82	0.241600	0.408300	0.197200
C831	C83	0.249600	0.408600	0.137300
C841	C84	0.028200	0.550200	0.963400
N11	N1	0.592100	0.898400	0.072600
N21	N2	0.907900	0.101600	0.572600
N31	N3	0.407900	0.398400	0.427400
N41	N4	0.092100	0.601600	0.927400
O11	O1	0.362600	0.085400	0.918170
O21	O2	0.162500	0.142500	0.913260
O31	O3	0.161100	0.918500	0.560580
O41	O4	0.376200	0.893100	0.551390
O51	O5	0.589300	0.189000	0.985900
O61	O6	0.811500	0.267220	0.001830
O71	O7	0.928800	0.160600	0.966840
O81	O8	0.532900	0.002700	0.996200
O91	O9	0.137400	0.914600	0.418170
O101	O10	0.337500	0.857500	0.413260
O111	O11	0.338900	0.081500	0.060580
O121	O12	0.123800	0.106900	0.051390
O131	O13	0.910700	0.811000	0.485900
O141	O14	0.688500	0.732780	0.501830
O151	O15	0.571200	0.839400	0.466840
O161	O16	0.967100	0.997300	0.496200
O171	O17	0.637400	0.585400	0.581830
O181	O18	0.837500	0.642500	0.586740
O191	O19	0.838900	0.418500	0.939420
O201	O20	0.623800	0.393100	0.948610
O211	O21	0.410700	0.689000	0.514100
O221	O22	0.188500	0.767220	0.498170
O231	O23	0.071200	0.660600	0.533160
O241	O24	0.467100	0.502700	0.503800
O251	O25	0.862600	0.414600	0.081830
O261	O26	0.662500	0.357500	0.086740
O271	O27	0.661100	0.581500	0.439420
O281	O28	0.876200	0.606900	0.448610
O291	O29	0.089300	0.311000	0.014100
O301	O30	0.311500	0.232780	0.998170
O311	O31	0.428800	0.339400	0.033160
O321	O32	0.032900	0.497300	0.003800
