data_GADHIF_freeONLY_PM
_symmetry_space_group_name_H-M	'P1'
_cell_length_a	30.885100
_cell_length_b	17.466500
_cell_length_c	20.327200
_cell_angle_alpha	90.000000
_cell_angle_beta	127.705000
_cell_angle_gamma	90.000000
_symmetry_Int_Tables_number 1

loop_
_symmetry_equiv_pos_as_xyz
'x,y,z'

loop_
_atom_site_label
_atom_site_type_symbol
_atom_site_fract_x
_atom_site_fract_y
_atom_site_fract_z
C11	C1	0.330000	0.926100	0.586400
C21	C2	0.304100	0.002000	0.558200
C31	C3	0.263000	0.017200	0.474500
H11	H1	0.249900	0.978200	0.435500
C41	C4	0.241500	0.090600	0.449300
H21	H2	0.214100	0.100800	0.393400
C51	C5	0.261200	0.148800	0.507700
C61	C6	0.302200	0.133700	0.591400
H31	H3	0.315300	0.172600	0.630400
C71	C7	0.323700	0.060200	0.616600
H41	H4	0.351200	0.050100	0.672500
C81	C8	0.394900	0.706200	0.702200
C91	C9	0.418200	0.653700	0.774100
C101	C10	0.472000	0.628800	0.822900
H51	H5	0.494800	0.645000	0.810300
C111	C11	0.492300	0.581200	0.888800
H61	H6	0.528300	0.564400	0.919800
C121	C12	0.459500	0.557600	0.909900
C131	C13	0.405100	0.579100	0.862100
H71	H7	0.382500	0.562900	0.875200
C141	C14	0.385100	0.626200	0.793400
H81	H8	0.348300	0.639600	0.759400
C151	C15	0.558200	0.061600	0.615300
C161	C16	0.420500	0.921100	0.549800
H91	H9	0.384200	0.936300	0.511700
C171	C17	0.459200	0.967500	0.559900
H101	H10	0.449400	0.012400	0.529200
C181	C18	0.514000	0.946600	0.617400
C191	C19	0.525400	0.876100	0.659000
H111	H11	0.561200	0.858700	0.696000
C201	C20	0.483200	0.833800	0.644200
H121	H12	0.491500	0.787900	0.673000
C211	C21	0.753800	0.022700	0.804600
C221	C22	0.614800	0.090600	0.651000
C231	C23	0.620400	0.163300	0.629600
H131	H13	0.590100	0.193000	0.590800
C241	C24	0.674200	0.190300	0.669600
H141	H14	0.680300	0.239900	0.660400
C251	C25	0.717900	0.141400	0.722900
H151	H15	0.753400	0.155900	0.744800
C261	C26	0.708200	0.071400	0.743100
C271	C27	0.855300	0.841100	0.988700
H161	H16	0.893100	0.845000	0.028800
C281	C28	0.829200	0.899300	0.930800
H171	H17	0.849000	0.939500	0.931200
C291	C29	0.772700	0.896300	0.872200
C301	C30	0.746600	0.833100	0.874600
H181	H18	0.708800	0.828500	0.835900
C311	C31	0.775800	0.777700	0.933500
H191	H19	0.757100	0.736100	0.933800
N11	N1	0.430230	0.854400	0.590500
N21	N2	0.558600	0.987800	0.637100
N31	N3	0.739800	0.951000	0.811100
N41	N4	0.831300	0.780700	0.991900
N51	N5	0.656800	0.044900	0.704700
N61	N6	0.238700	0.225300	0.479900
N71	N7	0.475200	0.506300	0.977600
O11	O1	0.426070	0.726000	0.684600
O21	O2	0.345800	0.725200	0.657900
O31	O3	0.367300	0.913900	0.661300
O41	O4	0.313400	0.878200	0.531200
O51	O5	0.518200	0.102600	0.572700
O61	O6	0.801400	0.049200	0.855100
Zn11	Zn1	0.370060	0.796690	0.586080
H201	H20	0.707500	0.935500	0.773000
H211	H21	0.583200	0.957600	0.646000
C321	C32	0.830000	0.426100	0.586400
C331	C33	0.804100	0.502000	0.558200
C341	C34	0.763000	0.517200	0.474500
H221	H22	0.749900	0.478200	0.435500
C351	C35	0.741500	0.590600	0.449300
H231	H23	0.714100	0.600800	0.393400
C361	C36	0.761200	0.648800	0.507700
C371	C37	0.802200	0.633700	0.591400
H241	H24	0.815300	0.672600	0.630400
C381	C38	0.823700	0.560200	0.616600
H251	H25	0.851200	0.550100	0.672500
C391	C39	0.894900	0.206200	0.702200
C401	C40	0.918200	0.153700	0.774100
C411	C41	0.972000	0.128800	0.822900
H261	H26	0.994800	0.145000	0.810300
C421	C42	0.992300	0.081200	0.888800
H271	H27	0.028300	0.064400	0.919800
C431	C43	0.959500	0.057600	0.909900
C441	C44	0.905100	0.079100	0.862100
H281	H28	0.882500	0.062900	0.875200
C451	C45	0.885100	0.126200	0.793400
H291	H29	0.848300	0.139600	0.759400
C461	C46	0.058200	0.561600	0.615300
C471	C47	0.920500	0.421100	0.549800
H301	H30	0.884200	0.436300	0.511700
C481	C48	0.959200	0.467500	0.559900
H311	H31	0.949400	0.512400	0.529200
C491	C49	0.014000	0.446600	0.617400
C501	C50	0.025400	0.376100	0.659000
H321	H32	0.061200	0.358700	0.696000
C511	C51	0.983200	0.333800	0.644200
H331	H33	0.991500	0.287900	0.673000
C521	C52	0.253800	0.522700	0.804600
C531	C53	0.114800	0.590600	0.651000
C541	C54	0.120400	0.663300	0.629600
H341	H34	0.090100	0.693000	0.590800
C551	C55	0.174200	0.690300	0.669600
H351	H35	0.180300	0.739900	0.660400
C561	C56	0.217900	0.641400	0.722900
H361	H36	0.253400	0.655900	0.744800
C571	C57	0.208200	0.571400	0.743100
C581	C58	0.355300	0.341100	0.988700
H371	H37	0.393100	0.345000	0.028800
C591	C59	0.329200	0.399300	0.930800
H381	H38	0.349000	0.439500	0.931200
C601	C60	0.272700	0.396300	0.872200
C611	C61	0.246600	0.333100	0.874600
H391	H39	0.208800	0.328500	0.835900
C621	C62	0.275800	0.277700	0.933500
H401	H40	0.257100	0.236100	0.933800
N81	N8	0.930230	0.354400	0.590500
N91	N9	0.058600	0.487800	0.637100
N101	N10	0.239800	0.451000	0.811100
N111	N11	0.331300	0.280700	0.991900
N121	N12	0.156800	0.544900	0.704700
N131	N13	0.738700	0.725300	0.479900
N141	N14	0.975200	0.006300	0.977600
O71	O7	0.926070	0.226000	0.684600
O81	O8	0.845800	0.225200	0.657900
O91	O9	0.867300	0.413900	0.661300
O101	O10	0.813400	0.378200	0.531200
O111	O11	0.018200	0.602600	0.572700
O121	O12	0.301400	0.549200	0.855100
Zn21	Zn2	0.870060	0.296690	0.586080
H411	H41	0.207500	0.435500	0.773000
H421	H42	0.083200	0.457600	0.646000
C631	C63	0.670000	0.926100	0.913600
C641	C64	0.695900	0.002000	0.941800
C651	C65	0.737000	0.017200	0.025500
H431	H43	0.750100	0.978200	0.064500
C661	C66	0.758500	0.090600	0.050700
H441	H44	0.785900	0.100800	0.106600
C671	C67	0.738800	0.148800	0.992300
C681	C68	0.697800	0.133700	0.908600
H451	H45	0.684700	0.172600	0.869600
C691	C69	0.676300	0.060200	0.883400
H461	H46	0.648800	0.050100	0.827500
C701	C70	0.605100	0.706200	0.797800
C711	C71	0.581800	0.653700	0.725900
C721	C72	0.528000	0.628800	0.677100
H471	H47	0.505200	0.645000	0.689700
C731	C73	0.507700	0.581200	0.611200
H481	H48	0.471700	0.564400	0.580200
C741	C74	0.540500	0.557600	0.590100
C751	C75	0.594900	0.579100	0.637900
H491	H49	0.617500	0.562900	0.624800
C761	C76	0.614900	0.626200	0.706600
H501	H50	0.651700	0.639600	0.740600
C771	C77	0.441800	0.061600	0.884700
C781	C78	0.579500	0.921100	0.950200
H511	H51	0.615800	0.936300	0.988300
C791	C79	0.540800	0.967500	0.940100
H521	H52	0.550600	0.012400	0.970800
C801	C80	0.486000	0.946600	0.882600
C811	C81	0.474600	0.876100	0.841000
H531	H53	0.438800	0.858700	0.804000
C821	C82	0.516800	0.833800	0.855800
H541	H54	0.508500	0.787900	0.827000
C831	C83	0.246200	0.022700	0.695400
C841	C84	0.385200	0.090600	0.849000
C851	C85	0.379600	0.163300	0.870400
H551	H55	0.409900	0.193000	0.909200
C861	C86	0.325800	0.190300	0.830400
H561	H56	0.319700	0.239900	0.839600
C871	C87	0.282100	0.141400	0.777100
H571	H57	0.246600	0.155900	0.755200
C881	C88	0.291800	0.071400	0.756900
C891	C89	0.144700	0.841100	0.511300
H581	H58	0.106900	0.845000	0.471200
C901	C90	0.170800	0.899300	0.569200
H591	H59	0.151000	0.939500	0.568800
C911	C91	0.227300	0.896300	0.627800
C921	C92	0.253400	0.833100	0.625400
H601	H60	0.291200	0.828500	0.664100
C931	C93	0.224200	0.777700	0.566500
H611	H61	0.242900	0.736100	0.566200
N151	N15	0.569770	0.854400	0.909500
N161	N16	0.441400	0.987800	0.862900
N171	N17	0.260200	0.951000	0.688900
N181	N18	0.168700	0.780700	0.508100
N191	N19	0.343200	0.044900	0.795300
N201	N20	0.761300	0.225300	0.020100
N211	N21	0.524800	0.506300	0.522400
O131	O13	0.573930	0.726000	0.815400
O141	O14	0.654200	0.725200	0.842100
O151	O15	0.632700	0.913900	0.838700
O161	O16	0.686600	0.878200	0.968800
O171	O17	0.481800	0.102600	0.927300
O181	O18	0.198600	0.049200	0.644900
Zn31	Zn3	0.629940	0.796690	0.913920
H621	H62	0.292500	0.935500	0.727000
H631	H63	0.416800	0.957600	0.854000
C941	C94	0.170000	0.426100	0.913600
C951	C95	0.195900	0.502000	0.941800
C961	C96	0.237000	0.517200	0.025500
H641	H64	0.250100	0.478200	0.064500
C971	C97	0.258500	0.590600	0.050700
H651	H65	0.285900	0.600800	0.106600
C981	C98	0.238800	0.648800	0.992300
C991	C99	0.197800	0.633700	0.908600
H661	H66	0.184700	0.672600	0.869600
C1001	C100	0.176300	0.560200	0.883400
H671	H67	0.148800	0.550100	0.827500
C1011	C101	0.105100	0.206200	0.797800
C1021	C102	0.081800	0.153700	0.725900
C1031	C103	0.028000	0.128800	0.677100
H681	H68	0.005200	0.145000	0.689700
C1041	C104	0.007700	0.081200	0.611200
H691	H69	0.971700	0.064400	0.580200
C1051	C105	0.040500	0.057600	0.590100
C1061	C106	0.094900	0.079100	0.637900
H701	H70	0.117500	0.062900	0.624800
C1071	C107	0.114900	0.126200	0.706600
H711	H71	0.151700	0.139600	0.740600
C1081	C108	0.941800	0.561600	0.884700
C1091	C109	0.079500	0.421100	0.950200
H721	H72	0.115800	0.436300	0.988300
C1101	C110	0.040800	0.467500	0.940100
H731	H73	0.050600	0.512400	0.970800
C1111	C111	0.986000	0.446600	0.882600
C1121	C112	0.974600	0.376100	0.841000
H741	H74	0.938800	0.358700	0.804000
C1131	C113	0.016800	0.333800	0.855800
H751	H75	0.008500	0.287900	0.827000
C1141	C114	0.746200	0.522700	0.695400
C1151	C115	0.885200	0.590600	0.849000
C1161	C116	0.879600	0.663300	0.870400
H761	H76	0.909900	0.693000	0.909200
C1171	C117	0.825800	0.690300	0.830400
H771	H77	0.819700	0.739900	0.839600
C1181	C118	0.782100	0.641400	0.777100
H781	H78	0.746600	0.655900	0.755200
C1191	C119	0.791800	0.571400	0.756900
C1201	C120	0.644700	0.341100	0.511300
H791	H79	0.606900	0.345000	0.471200
C1211	C121	0.670800	0.399300	0.569200
H801	H80	0.651000	0.439500	0.568800
C1221	C122	0.727300	0.396300	0.627800
C1231	C123	0.753400	0.333100	0.625400
H811	H81	0.791200	0.328500	0.664100
C1241	C124	0.724200	0.277700	0.566500
H821	H82	0.742900	0.236100	0.566200
N221	N22	0.069770	0.354400	0.909500
N231	N23	0.941400	0.487800	0.862900
N241	N24	0.760200	0.451000	0.688900
N251	N25	0.668700	0.280700	0.508100
N261	N26	0.843200	0.544900	0.795300
N271	N27	0.261300	0.725300	0.020100
N281	N28	0.024800	0.006300	0.522400
O191	O19	0.073930	0.226000	0.815400
O201	O20	0.154200	0.225200	0.842100
O211	O21	0.132700	0.413900	0.838700
O221	O22	0.186600	0.378200	0.968800
O231	O23	0.981800	0.602600	0.927300
O241	O24	0.698600	0.549200	0.644900
Zn41	Zn4	0.129940	0.296690	0.913920
H831	H83	0.792500	0.435500	0.727000
H841	H84	0.916800	0.457600	0.854000
C1251	C125	0.670000	0.073900	0.413600
C1261	C126	0.695900	0.998000	0.441800
C1271	C127	0.737000	0.982800	0.525500
H851	H85	0.750100	0.021800	0.564500
C1281	C128	0.758500	0.909400	0.550700
H861	H86	0.785900	0.899200	0.606600
C1291	C129	0.738800	0.851200	0.492300
C1301	C130	0.697800	0.866300	0.408600
H871	H87	0.684700	0.827400	0.369600
C1311	C131	0.676300	0.939800	0.383400
H881	H88	0.648800	0.949900	0.327500
C1321	C132	0.605100	0.293800	0.297800
C1331	C133	0.581800	0.346300	0.225900
C1341	C134	0.528000	0.371200	0.177100
H891	H89	0.505200	0.355000	0.189700
C1351	C135	0.507700	0.418800	0.111200
H901	H90	0.471700	0.435600	0.080200
C1361	C136	0.540500	0.442400	0.090100
C1371	C137	0.594900	0.420900	0.137900
H911	H91	0.617500	0.437100	0.124800
C1381	C138	0.614900	0.373800	0.206600
H921	H92	0.651700	0.360400	0.240600
C1391	C139	0.441800	0.938400	0.384700
C1401	C140	0.579500	0.078900	0.450200
H931	H93	0.615800	0.063700	0.488300
C1411	C141	0.540800	0.032500	0.440100
H941	H94	0.550600	0.987600	0.470800
C1421	C142	0.486000	0.053400	0.382600
C1431	C143	0.474600	0.123900	0.341000
H951	H95	0.438800	0.141300	0.304000
C1441	C144	0.516800	0.166200	0.355800
H961	H96	0.508500	0.212100	0.327000
C1451	C145	0.246200	0.977300	0.195400
C1461	C146	0.385200	0.909400	0.349000
C1471	C147	0.379600	0.836700	0.370400
H971	H97	0.409900	0.807000	0.409200
C1481	C148	0.325800	0.809700	0.330400
H981	H98	0.319700	0.760100	0.339600
C1491	C149	0.282100	0.858600	0.277100
H991	H99	0.246600	0.844100	0.255200
C1501	C150	0.291800	0.928600	0.256900
C1511	C151	0.144700	0.158900	0.011300
H1001	H100	0.106900	0.155000	0.971200
C1521	C152	0.170800	0.100700	0.069200
H1011	H101	0.151000	0.060500	0.068800
C1531	C153	0.227300	0.103700	0.127800
C1541	C154	0.253400	0.166900	0.125400
H1021	H102	0.291200	0.171500	0.164100
C1551	C155	0.224200	0.222300	0.066500
H1031	H103	0.242900	0.263900	0.066200
N291	N29	0.569770	0.145600	0.409500
N301	N30	0.441400	0.012200	0.362900
N311	N31	0.260200	0.049000	0.188900
N321	N32	0.168700	0.219300	0.008100
N331	N33	0.343200	0.955100	0.295300
N341	N34	0.761300	0.774700	0.520100
N351	N35	0.524800	0.493700	0.022400
O251	O25	0.573930	0.274000	0.315400
O261	O26	0.654200	0.274800	0.342100
O271	O27	0.632700	0.086100	0.338700
O281	O28	0.686600	0.121800	0.468800
O291	O29	0.481800	0.897400	0.427300
O301	O30	0.198600	0.950800	0.144900
Zn51	Zn5	0.629940	0.203310	0.413920
H1041	H104	0.292500	0.064500	0.227000
H1051	H105	0.416800	0.042400	0.354000
C1561	C156	0.170000	0.573900	0.413600
C1571	C157	0.195900	0.498000	0.441800
C1581	C158	0.237000	0.482800	0.525500
H1061	H106	0.250100	0.521800	0.564500
C1591	C159	0.258500	0.409400	0.550700
H1071	H107	0.285900	0.399200	0.606600
C1601	C160	0.238800	0.351200	0.492300
C1611	C161	0.197800	0.366300	0.408600
H1081	H108	0.184700	0.327400	0.369600
C1621	C162	0.176300	0.439800	0.383400
H1091	H109	0.148800	0.449900	0.327500
C1631	C163	0.105100	0.793800	0.297800
C1641	C164	0.081800	0.846300	0.225900
C1651	C165	0.028000	0.871200	0.177100
H1101	H110	0.005200	0.855000	0.189700
C1661	C166	0.007700	0.918800	0.111200
H1111	H111	0.971700	0.935600	0.080200
C1671	C167	0.040500	0.942400	0.090100
C1681	C168	0.094900	0.920900	0.137900
H1121	H112	0.117500	0.937100	0.124800
C1691	C169	0.114900	0.873800	0.206600
H1131	H113	0.151700	0.860400	0.240600
C1701	C170	0.941800	0.438400	0.384700
C1711	C171	0.079500	0.578900	0.450200
H1141	H114	0.115800	0.563700	0.488300
C1721	C172	0.040800	0.532500	0.440100
H1151	H115	0.050600	0.487600	0.470800
C1731	C173	0.986000	0.553400	0.382600
C1741	C174	0.974600	0.623900	0.341000
H1161	H116	0.938800	0.641300	0.304000
C1751	C175	0.016800	0.666200	0.355800
H1171	H117	0.008500	0.712100	0.327000
C1761	C176	0.746200	0.477300	0.195400
C1771	C177	0.885200	0.409400	0.349000
C1781	C178	0.879600	0.336700	0.370400
H1181	H118	0.909900	0.307000	0.409200
C1791	C179	0.825800	0.309700	0.330400
H1191	H119	0.819700	0.260100	0.339600
C1801	C180	0.782100	0.358600	0.277100
H1201	H120	0.746600	0.344100	0.255200
C1811	C181	0.791800	0.428600	0.256900
C1821	C182	0.644700	0.658900	0.011300
H1211	H121	0.606900	0.655000	0.971200
C1831	C183	0.670800	0.600700	0.069200
H1221	H122	0.651000	0.560500	0.068800
C1841	C184	0.727300	0.603700	0.127800
C1851	C185	0.753400	0.666900	0.125400
H1231	H123	0.791200	0.671500	0.164100
C1861	C186	0.724200	0.722300	0.066500
H1241	H124	0.742900	0.763900	0.066200
N361	N36	0.069770	0.645600	0.409500
N371	N37	0.941400	0.512200	0.362900
N381	N38	0.760200	0.549000	0.188900
N391	N39	0.668700	0.719300	0.008100
N401	N40	0.843200	0.455100	0.295300
N411	N41	0.261300	0.274700	0.520100
N421	N42	0.024800	0.993700	0.022400
O311	O31	0.073930	0.774000	0.315400
O321	O32	0.154200	0.774800	0.342100
O331	O33	0.132700	0.586100	0.338700
O341	O34	0.186600	0.621800	0.468800
O351	O35	0.981800	0.397400	0.427300
O361	O36	0.698600	0.450800	0.144900
Zn61	Zn6	0.129940	0.703310	0.413920
H1251	H125	0.792500	0.564500	0.227000
H1261	H126	0.916800	0.542400	0.354000
C1871	C187	0.330000	0.073900	0.086400
C1881	C188	0.304100	0.998000	0.058200
C1891	C189	0.263000	0.982800	0.974500
H1271	H127	0.249900	0.021800	0.935500
C1901	C190	0.241500	0.909400	0.949300
H1281	H128	0.214100	0.899200	0.893400
C1911	C191	0.261200	0.851200	0.007700
C1921	C192	0.302200	0.866300	0.091400
H1291	H129	0.315300	0.827400	0.130400
C1931	C193	0.323700	0.939800	0.116600
H1301	H130	0.351200	0.949900	0.172500
C1941	C194	0.394900	0.293800	0.202200
C1951	C195	0.418200	0.346300	0.274100
C1961	C196	0.472000	0.371200	0.322900
H1311	H131	0.494800	0.355000	0.310300
C1971	C197	0.492300	0.418800	0.388800
H1321	H132	0.528300	0.435600	0.419800
C1981	C198	0.459500	0.442400	0.409900
C1991	C199	0.405100	0.420900	0.362100
H1331	H133	0.382500	0.437100	0.375200
C2001	C200	0.385100	0.373800	0.293400
H1341	H134	0.348300	0.360400	0.259400
C2011	C201	0.558200	0.938400	0.115300
C2021	C202	0.420500	0.078900	0.049800
H1351	H135	0.384200	0.063700	0.011700
C2031	C203	0.459200	0.032500	0.059900
H1361	H136	0.449400	0.987600	0.029200
C2041	C204	0.514000	0.053400	0.117400
C2051	C205	0.525400	0.123900	0.159000
H1371	H137	0.561200	0.141300	0.196000
C2061	C206	0.483200	0.166200	0.144200
H1381	H138	0.491500	0.212100	0.173000
C2071	C207	0.753800	0.977300	0.304600
C2081	C208	0.614800	0.909400	0.151000
C2091	C209	0.620400	0.836700	0.129600
H1391	H139	0.590100	0.807000	0.090800
C2101	C210	0.674200	0.809700	0.169600
H1401	H140	0.680300	0.760100	0.160400
C2111	C211	0.717900	0.858600	0.222900
H1411	H141	0.753400	0.844100	0.244800
C2121	C212	0.708200	0.928600	0.243100
C2131	C213	0.855300	0.158900	0.488700
H1421	H142	0.893100	0.155000	0.528800
C2141	C214	0.829200	0.100700	0.430800
H1431	H143	0.849000	0.060500	0.431200
C2151	C215	0.772700	0.103700	0.372200
C2161	C216	0.746600	0.166900	0.374600
H1441	H144	0.708800	0.171500	0.335900
C2171	C217	0.775800	0.222300	0.433500
H1451	H145	0.757100	0.263900	0.433800
N431	N43	0.430230	0.145600	0.090500
N441	N44	0.558600	0.012200	0.137100
N451	N45	0.739800	0.049000	0.311100
N461	N46	0.831300	0.219300	0.491900
N471	N47	0.656800	0.955100	0.204700
N481	N48	0.238700	0.774700	0.979900
N491	N49	0.475200	0.493700	0.477600
O371	O37	0.426070	0.274000	0.184600
O381	O38	0.345800	0.274800	0.157900
O391	O39	0.367300	0.086100	0.161300
O401	O40	0.313400	0.121800	0.031200
O411	O41	0.518200	0.897400	0.072700
O421	O42	0.801400	0.950800	0.355100
Zn71	Zn7	0.370060	0.203310	0.086080
H1461	H146	0.707500	0.064500	0.273000
H1471	H147	0.583200	0.042400	0.146000
C2181	C218	0.830000	0.573900	0.086400
C2191	C219	0.804100	0.498000	0.058200
C2201	C220	0.763000	0.482800	0.974500
H1481	H148	0.749900	0.521800	0.935500
C2211	C221	0.741500	0.409400	0.949300
H1491	H149	0.714100	0.399200	0.893400
C2221	C222	0.761200	0.351200	0.007700
C2231	C223	0.802200	0.366300	0.091400
H1501	H150	0.815300	0.327400	0.130400
C2241	C224	0.823700	0.439800	0.116600
H1511	H151	0.851200	0.449900	0.172500
C2251	C225	0.894900	0.793800	0.202200
C2261	C226	0.918200	0.846300	0.274100
C2271	C227	0.972000	0.871200	0.322900
H1521	H152	0.994800	0.855000	0.310300
C2281	C228	0.992300	0.918800	0.388800
H1531	H153	0.028300	0.935600	0.419800
C2291	C229	0.959500	0.942400	0.409900
C2301	C230	0.905100	0.920900	0.362100
H1541	H154	0.882500	0.937100	0.375200
C2311	C231	0.885100	0.873800	0.293400
H1551	H155	0.848300	0.860400	0.259400
C2321	C232	0.058200	0.438400	0.115300
C2331	C233	0.920500	0.578900	0.049800
H1561	H156	0.884200	0.563700	0.011700
C2341	C234	0.959200	0.532500	0.059900
H1571	H157	0.949400	0.487600	0.029200
C2351	C235	0.014000	0.553400	0.117400
C2361	C236	0.025400	0.623900	0.159000
H1581	H158	0.061200	0.641300	0.196000
C2371	C237	0.983200	0.666200	0.144200
H1591	H159	0.991500	0.712100	0.173000
C2381	C238	0.253800	0.477300	0.304600
C2391	C239	0.114800	0.409400	0.151000
C2401	C240	0.120400	0.336700	0.129600
H1601	H160	0.090100	0.307000	0.090800
C2411	C241	0.174200	0.309700	0.169600
H1611	H161	0.180300	0.260100	0.160400
C2421	C242	0.217900	0.358600	0.222900
H1621	H162	0.253400	0.344100	0.244800
C2431	C243	0.208200	0.428600	0.243100
C2441	C244	0.355300	0.658900	0.488700
H1631	H163	0.393100	0.655000	0.528800
C2451	C245	0.329200	0.600700	0.430800
H1641	H164	0.349000	0.560500	0.431200
C2461	C246	0.272700	0.603700	0.372200
C2471	C247	0.246600	0.666900	0.374600
H1651	H165	0.208800	0.671500	0.335900
C2481	C248	0.275800	0.722300	0.433500
H1661	H166	0.257100	0.763900	0.433800
N501	N50	0.930230	0.645600	0.090500
N511	N51	0.058600	0.512200	0.137100
N521	N52	0.239800	0.549000	0.311100
N531	N53	0.331300	0.719300	0.491900
N541	N54	0.156800	0.455100	0.204700
N551	N55	0.738700	0.274700	0.979900
N561	N56	0.975200	0.993700	0.477600
O431	O43	0.926070	0.774000	0.184600
O441	O44	0.845800	0.774800	0.157900
O451	O45	0.867300	0.586100	0.161300
O461	O46	0.813400	0.621800	0.031200
O471	O47	0.018200	0.397400	0.072700
O481	O48	0.301400	0.450800	0.355100
Zn81	Zn8	0.870060	0.703310	0.086080
H1671	H167	0.207500	0.564500	0.273000
H1681	H168	0.083200	0.542400	0.146000
