data_GAGQAI_freeONLY_PM
_symmetry_space_group_name_H-M	'P1'
_cell_length_a	18.875400
_cell_length_b	18.875400
_cell_length_c	18.875400
_cell_angle_alpha	90.000000
_cell_angle_beta	90.000000
_cell_angle_gamma	90.000000
_symmetry_Int_Tables_number 1

loop_
_symmetry_equiv_pos_as_xyz
'x,y,z'

loop_
_atom_site_label
_atom_site_type_symbol
_atom_site_fract_x
_atom_site_fract_y
_atom_site_fract_z
N11	N1	0.131080	0.420560	0.081670
N21	N2	0.175690	0.368020	0.091650
N31	N3	0.868920	0.579440	0.081670
N41	N4	0.824310	0.631980	0.091650
N51	N5	0.868920	0.420560	0.918330
N61	N6	0.824310	0.368020	0.908350
N71	N7	0.131080	0.579440	0.918330
N81	N8	0.175690	0.631980	0.908350
N91	N9	0.081670	0.131080	0.420560
N101	N10	0.091650	0.175690	0.368020
N111	N11	0.081670	0.868920	0.579440
N121	N12	0.091650	0.824310	0.631980
N131	N13	0.918330	0.868920	0.420560
N141	N14	0.908350	0.824310	0.368020
N151	N15	0.918330	0.131080	0.579440
N161	N16	0.908350	0.175690	0.631980
N171	N17	0.420560	0.081670	0.131080
N181	N18	0.368020	0.091650	0.175690
N191	N19	0.579440	0.081670	0.868920
N201	N20	0.631980	0.091650	0.824310
N211	N21	0.420560	0.918330	0.868920
N221	N22	0.368020	0.908350	0.824310
N231	N23	0.579440	0.918330	0.131080
N241	N24	0.631980	0.908350	0.175690
N251	N25	0.420560	0.131080	0.918330
N261	N26	0.368020	0.175690	0.908350
N271	N27	0.579440	0.868920	0.918330
N281	N28	0.631980	0.824310	0.908350
N291	N29	0.420560	0.868920	0.081670
N301	N30	0.368020	0.824310	0.091650
N311	N31	0.579440	0.131080	0.081670
N321	N32	0.631980	0.175690	0.091650
N331	N33	0.131080	0.081670	0.579440
N341	N34	0.175690	0.091650	0.631980
N351	N35	0.868920	0.081670	0.420560
N361	N36	0.824310	0.091650	0.368020
N371	N37	0.868920	0.918330	0.579440
N381	N38	0.824310	0.908350	0.631980
N391	N39	0.131080	0.918330	0.420560
N401	N40	0.175690	0.908350	0.368020
N411	N41	0.081670	0.420560	0.868920
N421	N42	0.091650	0.368020	0.824310
N431	N43	0.081670	0.579440	0.131080
N441	N44	0.091650	0.631980	0.175690
N451	N45	0.918330	0.420560	0.131080
N461	N46	0.908350	0.368020	0.175690
N471	N47	0.918330	0.579440	0.868920
N481	N48	0.908350	0.631980	0.824310
N491	N49	0.868920	0.579440	0.918330
N501	N50	0.824310	0.631980	0.908350
N511	N51	0.131080	0.420560	0.918330
N521	N52	0.175690	0.368020	0.908350
N531	N53	0.131080	0.579440	0.081670
N541	N54	0.175690	0.631980	0.091650
N551	N55	0.868920	0.420560	0.081670
N561	N56	0.824310	0.368020	0.091650
N571	N57	0.918330	0.868920	0.579440
N581	N58	0.908350	0.824310	0.631980
N591	N59	0.918330	0.131080	0.420560
N601	N60	0.908350	0.175690	0.368020
N611	N61	0.081670	0.131080	0.579440
N621	N62	0.091650	0.175690	0.631980
N631	N63	0.081670	0.868920	0.420560
N641	N64	0.091650	0.824310	0.368020
N651	N65	0.579440	0.918330	0.868920
N661	N66	0.631980	0.908350	0.824310
N671	N67	0.420560	0.918330	0.131080
N681	N68	0.368020	0.908350	0.175690
N691	N69	0.579440	0.081670	0.131080
N701	N70	0.631980	0.091650	0.175690
N711	N71	0.420560	0.081670	0.868920
N721	N72	0.368020	0.091650	0.824310
N731	N73	0.579440	0.868920	0.081670
N741	N74	0.631980	0.824310	0.091650
N751	N75	0.420560	0.131080	0.081670
N761	N76	0.368020	0.175690	0.091650
N771	N77	0.579440	0.131080	0.918330
N781	N78	0.631980	0.175690	0.908350
N791	N79	0.420560	0.868920	0.918330
N801	N80	0.368020	0.824310	0.908350
N811	N81	0.868920	0.918330	0.420560
N821	N82	0.824310	0.908350	0.368020
N831	N83	0.131080	0.918330	0.579440
N841	N84	0.175690	0.908350	0.631980
N851	N85	0.131080	0.081670	0.420560
N861	N86	0.175690	0.091650	0.368020
N871	N87	0.868920	0.081670	0.579440
N881	N88	0.824310	0.091650	0.631980
N891	N89	0.918330	0.579440	0.131080
N901	N90	0.908350	0.631980	0.175690
N911	N91	0.918330	0.420560	0.868920
N921	N92	0.908350	0.368020	0.824310
N931	N93	0.081670	0.579440	0.868920
N941	N94	0.091650	0.631980	0.824310
N951	N95	0.081670	0.420560	0.131080
N961	N96	0.091650	0.368020	0.175690
Fe11	Fe1	0.135380	0.500000	0.000000
O11	O1	0.246010	0.500000	0.000000
Fe21	Fe2	0.864620	0.500000	0.000000
O21	O2	0.753990	0.500000	0.000000
Fe31	Fe3	0.000000	0.135380	0.500000
O31	O3	0.000000	0.246010	0.500000
Fe41	Fe4	0.000000	0.864620	0.500000
O41	O4	0.000000	0.753990	0.500000
Fe51	Fe5	0.500000	0.000000	0.135380
O51	O5	0.500000	0.000000	0.246010
Fe61	Fe6	0.500000	0.000000	0.864620
O61	O6	0.500000	0.000000	0.753990
Fe71	Fe7	0.500000	0.135380	0.000000
O71	O7	0.500000	0.246010	0.000000
Fe81	Fe8	0.500000	0.864620	0.000000
O81	O8	0.500000	0.753990	0.000000
Fe91	Fe9	0.135380	0.000000	0.500000
O91	O9	0.246010	0.000000	0.500000
Fe101	Fe10	0.864620	0.000000	0.500000
O101	O10	0.753990	0.000000	0.500000
Fe111	Fe11	0.000000	0.500000	0.864620
O111	O11	0.000000	0.500000	0.753990
Fe121	Fe12	0.000000	0.500000	0.135380
O121	O12	0.000000	0.500000	0.246010
C11	C1	0.151600	0.335750	0.151600
C21	C2	0.180040	0.271150	0.180040
C31	C3	0.848400	0.664250	0.151600
C41	C4	0.819960	0.728850	0.180040
C51	C5	0.848400	0.335750	0.848400
C61	C6	0.819960	0.271150	0.819960
C71	C7	0.151600	0.664250	0.848400
C81	C8	0.180040	0.728850	0.819960
C91	C9	0.151600	0.151600	0.335750
C101	C10	0.180040	0.180040	0.271150
C111	C11	0.151600	0.848400	0.664250
C121	C12	0.180040	0.819960	0.728850
C131	C13	0.848400	0.848400	0.335750
C141	C14	0.819960	0.819960	0.271150
C151	C15	0.848400	0.151600	0.664250
C161	C16	0.819960	0.180040	0.728850
C171	C17	0.335750	0.151600	0.151600
C181	C18	0.271150	0.180040	0.180040
C191	C19	0.664250	0.151600	0.848400
C201	C20	0.728850	0.180040	0.819960
C211	C21	0.335750	0.848400	0.848400
C221	C22	0.271150	0.819960	0.819960
C231	C23	0.664250	0.848400	0.151600
C241	C24	0.728850	0.819960	0.180040
C251	C25	0.335750	0.151600	0.848400
C261	C26	0.271150	0.180040	0.819960
C271	C27	0.664250	0.848400	0.848400
C281	C28	0.728850	0.819960	0.819960
C291	C29	0.335750	0.848400	0.151600
C301	C30	0.271150	0.819960	0.180040
C311	C31	0.664250	0.151600	0.151600
C321	C32	0.728850	0.180040	0.180040
C331	C33	0.151600	0.151600	0.664250
C341	C34	0.180040	0.180040	0.728850
C351	C35	0.848400	0.151600	0.335750
C361	C36	0.819960	0.180040	0.271150
C371	C37	0.848400	0.848400	0.664250
C381	C38	0.819960	0.819960	0.728850
C391	C39	0.151600	0.848400	0.335750
C401	C40	0.180040	0.819960	0.271150
C411	C41	0.151600	0.335750	0.848400
C421	C42	0.180040	0.271150	0.819960
C431	C43	0.151600	0.664250	0.151600
C441	C44	0.180040	0.728850	0.180040
C451	C45	0.848400	0.335750	0.151600
C461	C46	0.819960	0.271150	0.180040
C471	C47	0.848400	0.664250	0.848400
C481	C48	0.819960	0.728850	0.819960
C491	C49	0.242270	0.242270	0.149840
H11	H1	0.265720	0.265720	0.105950
C501	C50	0.757730	0.757730	0.149840
H21	H2	0.734280	0.734280	0.105950
C511	C51	0.757730	0.242270	0.850160
H31	H3	0.734280	0.265720	0.894050
C521	C52	0.242270	0.757730	0.850160
H41	H4	0.265720	0.734280	0.894050
C531	C53	0.149840	0.242270	0.242270
H51	H5	0.105950	0.265720	0.265720
C541	C54	0.149840	0.757730	0.757730
H61	H6	0.105950	0.734280	0.734280
C551	C55	0.850160	0.757730	0.242270
H71	H7	0.894050	0.734280	0.265720
C561	C56	0.850160	0.242270	0.757730
H81	H8	0.894050	0.265720	0.734280
C571	C57	0.242270	0.149840	0.242270
H91	H9	0.265720	0.105950	0.265720
C581	C58	0.757730	0.149840	0.757730
H101	H10	0.734280	0.105950	0.734280
C591	C59	0.242270	0.850160	0.757730
H111	H11	0.265720	0.894050	0.734280
C601	C60	0.757730	0.850160	0.242270
H121	H12	0.734280	0.894050	0.265720
C611	C61	0.242270	0.242270	0.850160
H131	H13	0.265720	0.265720	0.894050
C621	C62	0.757730	0.757730	0.850160
H141	H14	0.734280	0.734280	0.894050
C631	C63	0.242270	0.757730	0.149840
H151	H15	0.265720	0.734280	0.105950
C641	C64	0.757730	0.242270	0.149840
H161	H16	0.734280	0.265720	0.105950
C651	C65	0.242270	0.149840	0.757730
H171	H17	0.265720	0.105950	0.734280
C661	C66	0.757730	0.149840	0.242270
H181	H18	0.734280	0.105950	0.265720
C671	C67	0.757730	0.850160	0.757730
H191	H19	0.734280	0.894050	0.734280
C681	C68	0.242270	0.850160	0.242270
H201	H20	0.265720	0.894050	0.265720
C691	C69	0.149840	0.242270	0.757730
H211	H21	0.105950	0.265720	0.734280
C701	C70	0.149840	0.757730	0.242270
H221	H22	0.105950	0.734280	0.265720
C711	C71	0.850160	0.242270	0.242270
H231	H23	0.894050	0.265720	0.265720
C721	C72	0.850160	0.757730	0.757730
H241	H24	0.894050	0.734280	0.734280
Cl11	Cl1	0.000000	0.500000	0.000000
Cl21	Cl2	0.000000	0.000000	0.500000
Cl31	Cl3	0.500000	0.000000	0.000000
