data_GAHXUL_freeONLY_PM
_symmetry_space_group_name_H-M	'P1'
_cell_length_a	10.208900
_cell_length_b	11.479000
_cell_length_c	11.667500
_cell_angle_alpha	112.685000
_cell_angle_beta	103.952000
_cell_angle_gamma	94.644000
_symmetry_Int_Tables_number 1

loop_
_symmetry_equiv_pos_as_xyz
'x,y,z'

loop_
_atom_site_label
_atom_site_type_symbol
_atom_site_fract_x
_atom_site_fract_y
_atom_site_fract_z
C11	C1	0.506900	0.205800	0.159800
H11	H1	0.596500	0.202100	0.207000
H21	H2	0.437800	0.155700	0.174000
H31	H3	0.494900	0.293600	0.189600
C21	C2	0.493700	0.152200	0.015700
C31	C3	0.366500	0.150400	0.930900
C41	C4	0.345500	0.118200	0.796000
C51	C5	0.215700	0.138900	0.718000
H41	H4	0.216900	0.112800	0.629600
H51	H5	0.210500	0.228300	0.754600
H61	H6	0.137200	0.088600	0.720100
C61	C6	0.432500	0.033700	0.603400
C71	C7	0.478900	0.904600	0.552200
H71	H7	0.571000	0.912300	0.605400
H81	H8	0.418000	0.839700	0.558800
C81	C8	0.521900	0.137900	0.588600
H91	H9	0.487000	0.217200	0.616600
H101	H10	0.615500	0.154400	0.643400
C91	C9	0.883000	0.998500	0.791000
H111	H11	0.819300	0.041200	0.832800
H121	H12	0.840800	0.958200	0.698500
H131	H13	0.963900	0.060300	0.811300
C101	C10	0.922400	0.898000	0.838400
C111	C11	0.015700	0.824200	0.788000
C121	C12	0.040300	0.712700	0.808400
C131	C13	0.120300	0.624600	0.731600
H141	H14	0.128200	0.553900	0.755900
H151	H15	0.210500	0.671600	0.749800
H161	H16	0.073200	0.592300	0.640400
C141	C14	0.004200	0.566300	0.914800
C151	C15	0.120900	0.602200	0.041000
H171	H17	0.207200	0.632100	0.030900
H181	H18	0.102800	0.671500	0.111900
C161	C16	0.867500	0.514300	0.926500
H191	H19	0.842600	0.581200	0.994300
H201	H20	0.795700	0.489600	0.845300
N11	N1	0.437900	0.072900	0.739600
H211	H21	0.511100	0.065100	0.788900
N21	N2	0.988200	0.679200	0.886300
H221	H22	0.939100	0.729100	0.925000
O11	O1	0.591800	0.111400	0.975800
O21	O2	0.867500	0.881400	0.918000
Ag11	Ag1	0.226810	0.961110	0.919200
C171	C17	0.493100	0.794200	0.840200
H231	H23	0.403500	0.797900	0.793000
H241	H24	0.562200	0.844300	0.826000
H251	H25	0.505100	0.706400	0.810400
C181	C18	0.506300	0.847800	0.984300
C191	C19	0.633500	0.849600	0.069100
C201	C20	0.654500	0.881800	0.204000
C211	C21	0.784300	0.861100	0.282000
H261	H26	0.783100	0.887200	0.370400
H271	H27	0.789500	0.771700	0.245400
H281	H28	0.862800	0.911400	0.279900
C221	C22	0.567500	0.966300	0.396600
C231	C23	0.521100	0.095400	0.447800
H291	H29	0.429000	0.087700	0.394600
H301	H30	0.582000	0.160300	0.441200
C241	C24	0.478100	0.862100	0.411400
H311	H31	0.513000	0.782800	0.383400
H321	H32	0.384500	0.845600	0.356600
C251	C25	0.117000	0.001500	0.209000
H331	H33	0.180700	0.958800	0.167200
H341	H34	0.159200	0.041800	0.301500
H351	H35	0.036100	0.939700	0.188700
C261	C26	0.077600	0.102000	0.161600
C271	C27	0.984300	0.175800	0.212000
C281	C28	0.959700	0.287300	0.191600
C291	C29	0.879700	0.375400	0.268400
H361	H36	0.871800	0.446100	0.244100
H371	H37	0.789500	0.328400	0.250200
H381	H38	0.926800	0.407700	0.359600
C301	C30	0.995800	0.433700	0.085200
C311	C31	0.879100	0.397800	0.959000
H391	H39	0.792800	0.367900	0.969100
H401	H40	0.897200	0.328500	0.888100
C321	C32	0.132500	0.485700	0.073500
H411	H41	0.157400	0.418800	0.005700
H421	H42	0.204300	0.510400	0.154700
N31	N3	0.562100	0.927100	0.260400
H431	H43	0.488900	0.934900	0.211100
N41	N4	0.011800	0.320800	0.113700
H441	H44	0.060900	0.270900	0.075000
O31	O3	0.408200	0.888600	0.024200
O41	O4	0.132500	0.118600	0.082000
Ag21	Ag2	0.773190	0.038890	0.080800
