data_GAJZEY_freeONLY_PM
_symmetry_space_group_name_H-M	'P1'
_cell_length_a	5.587100
_cell_length_b	13.424000
_cell_length_c	21.157000
_cell_angle_alpha	90.000000
_cell_angle_beta	96.148000
_cell_angle_gamma	90.000000
_symmetry_Int_Tables_number 1

loop_
_symmetry_equiv_pos_as_xyz
'x,y,z'

loop_
_atom_site_label
_atom_site_type_symbol
_atom_site_fract_x
_atom_site_fract_y
_atom_site_fract_z
Nd11	Nd1	0.628540	0.134450	0.971510
Nd21	Nd2	0.371460	0.634450	0.528490
Nd31	Nd3	0.371460	0.865550	0.028490
Nd41	Nd4	0.628540	0.365550	0.471510
P11	P1	0.912200	0.023070	0.086800
P21	P2	0.087800	0.523070	0.413200
P31	P3	0.087800	0.976930	0.913200
P41	P4	0.912200	0.476930	0.586800
H11	H1	0.365200	0.245900	0.056800
H21	H2	0.521400	0.188100	0.096900
H31	H3	0.794500	0.325100	0.935300
H41	H4	0.003500	0.275700	0.958900
H51	H5	0.764700	0.974500	0.179900
H61	H6	0.674300	0.081800	0.161500
H71	H7	0.760100	0.100600	0.280600
H81	H8	0.889400	0.996800	0.286400
H91	H9	0.033500	0.099100	0.371300
H101	H10	0.243100	0.071000	0.330900
H111	H11	0.992400	0.254800	0.322500
H121	H12	0.236200	0.303300	0.245600
H131	H13	0.370500	0.200500	0.250800
H141	H14	0.080700	0.198300	0.161300
H151	H15	0.876500	0.223800	0.204300
H161	H16	0.634800	0.745900	0.443200
H171	H17	0.478600	0.688100	0.403100
H181	H18	0.205500	0.825100	0.564700
H191	H19	0.996500	0.775700	0.541100
H201	H20	0.235300	0.474500	0.320100
H211	H21	0.325700	0.581800	0.338500
H221	H22	0.239900	0.600600	0.219400
H231	H23	0.110600	0.496800	0.213600
H241	H24	0.966500	0.599100	0.128700
H251	H25	0.756900	0.571000	0.169100
H261	H26	0.007600	0.754800	0.177500
H271	H27	0.763800	0.803300	0.254400
H281	H28	0.629500	0.700500	0.249200
H291	H29	0.919300	0.698300	0.338700
H301	H30	0.123500	0.723800	0.295700
H311	H31	0.634800	0.754100	0.943200
H321	H32	0.478600	0.811900	0.903100
H331	H33	0.205500	0.674900	0.064700
H341	H34	0.996500	0.724300	0.041100
H351	H35	0.235300	0.025500	0.820100
H361	H36	0.325700	0.918200	0.838500
H371	H37	0.239900	0.899400	0.719400
H381	H38	0.110600	0.003200	0.713600
H391	H39	0.966500	0.900900	0.628700
H401	H40	0.756900	0.929000	0.669100
H411	H41	0.007600	0.745200	0.677500
H421	H42	0.763800	0.696700	0.754400
H431	H43	0.629500	0.799500	0.749200
H441	H44	0.919300	0.801700	0.838700
H451	H45	0.123500	0.776200	0.795700
H461	H46	0.365200	0.254100	0.556800
H471	H47	0.521400	0.311900	0.596900
H481	H48	0.794500	0.174900	0.435300
H491	H49	0.003500	0.224300	0.458900
H501	H50	0.764700	0.525500	0.679900
H511	H51	0.674300	0.418200	0.661500
H521	H52	0.760100	0.399400	0.780600
H531	H53	0.889400	0.503200	0.786400
H541	H54	0.033500	0.400900	0.871300
H551	H55	0.243100	0.429000	0.830900
H561	H56	0.992400	0.245200	0.822500
H571	H57	0.236200	0.196700	0.745600
H581	H58	0.370500	0.299500	0.750800
H591	H59	0.080700	0.301700	0.661300
H601	H60	0.876500	0.276200	0.704300
C11	C1	0.814900	0.038900	0.165300
C21	C2	0.913200	0.067200	0.279000
C31	C3	0.093900	0.108000	0.330400
C41	C4	0.144000	0.218800	0.320400
C51	C5	0.216800	0.232800	0.253700
C61	C6	0.028300	0.189100	0.203200
C71	C7	0.326000	0.260900	0.371700
C81	C8	0.185100	0.538900	0.334700
C91	C9	0.086800	0.567200	0.221000
C101	C10	0.906100	0.608000	0.169600
C111	C11	0.856000	0.718800	0.179600
C121	C12	0.783200	0.732800	0.246300
C131	C13	0.971700	0.689100	0.296800
C141	C14	0.674000	0.760900	0.128300
C151	C15	0.185100	0.961100	0.834700
C161	C16	0.086800	0.932800	0.721000
C171	C17	0.906100	0.892000	0.669600
C181	C18	0.856000	0.781200	0.679600
C191	C19	0.783200	0.767200	0.746300
C201	C20	0.971700	0.810900	0.796800
C211	C21	0.674000	0.739100	0.628300
C221	C22	0.814900	0.461100	0.665300
C231	C23	0.913200	0.432800	0.779000
C241	C24	0.093900	0.392000	0.830400
C251	C25	0.144000	0.281200	0.820400
C261	C26	0.216800	0.267200	0.753700
C271	C27	0.028300	0.310900	0.703200
C281	C28	0.326000	0.239100	0.871700
N11	N1	0.994200	0.081200	0.215100
N21	N2	0.005800	0.581200	0.284900
N31	N3	0.005800	0.918800	0.784900
N41	N4	0.994200	0.418800	0.715100
O11	O1	0.685800	0.982600	0.046480
O21	O2	0.963200	0.123300	0.057400
O31	O3	0.122700	0.952400	0.091900
O41	O4	0.299200	0.244400	0.429400
O51	O5	0.494800	0.315100	0.357900
O61	O6	0.421600	0.187700	0.063700
O71	O7	0.859800	0.289400	0.965600
O81	O8	0.314200	0.482600	0.453520
O91	O9	0.036800	0.623300	0.442600
O101	O10	0.877300	0.452400	0.408100
O111	O11	0.700800	0.744400	0.070600
O121	O12	0.505200	0.815100	0.142100
O131	O13	0.578400	0.687700	0.436300
O141	O14	0.140200	0.789400	0.534400
O151	O15	0.314200	0.017400	0.953520
O161	O16	0.036800	0.876700	0.942600
O171	O17	0.877300	0.047600	0.908100
O181	O18	0.700800	0.755600	0.570600
O191	O19	0.505200	0.684900	0.642100
O201	O20	0.578400	0.812300	0.936300
O211	O21	0.140200	0.710600	0.034400
O221	O22	0.685800	0.517400	0.546480
O231	O23	0.963200	0.376700	0.557400
O241	O24	0.122700	0.547600	0.591900
O251	O25	0.299200	0.255600	0.929400
O261	O26	0.494800	0.184900	0.857900
O271	O27	0.421600	0.312300	0.563700
O281	O28	0.859800	0.210600	0.465600
