data_GALHOS_ion_b_PM
_symmetry_space_group_name_H-M	'P1'
_cell_length_a	28.267000
_cell_length_b	23.525000
_cell_length_c	22.975300
_cell_angle_alpha	74.863500
_cell_angle_beta	53.453100
_cell_angle_gamma	51.683500
_symmetry_Int_Tables_number 1

loop_
_symmetry_equiv_pos_as_xyz
'x,y,z'

loop_
_atom_site_label
_atom_site_type_symbol
_atom_site_fract_x
_atom_site_fract_y
_atom_site_fract_z
O11	O1	0.407110	0.769440	0.505860
O21	O2	0.514620	0.689480	0.426100
O31	O3	0.320970	0.499330	0.233980
O41	O4	0.213270	0.572320	0.318640
C51	C5	0.448670	0.717880	0.454490
C61	C6	0.422950	0.693520	0.430920
C71	C7	0.347620	0.729860	0.464820
H81	H8	0.306750	0.776720	0.508390
C91	C9	0.323760	0.706900	0.442750
H101	H10	0.265270	0.738160	0.469670
C111	C11	0.374220	0.646170	0.386050
C121	C12	0.449830	0.609710	0.352670
H131	H13	0.491500	0.562050	0.309950
C141	C14	0.473440	0.633090	0.374600
H151	H15	0.531640	0.603410	0.347790
C161	C16	0.348630	0.621450	0.361540
C171	C17	0.393660	0.583710	0.289640
H181	H18	0.445570	0.575170	0.249480
C191	C19	0.371640	0.558930	0.266870
H201	H20	0.408580	0.530120	0.211130
C211	C21	0.302160	0.573230	0.314140
C221	C22	0.255760	0.612840	0.385290
H231	H23	0.201800	0.625230	0.423430
C241	C24	0.278760	0.635680	0.408850
H251	H25	0.241580	0.663830	0.464810
C261	C26	0.278380	0.547780	0.288810
O271	O27	0.698600	0.520510	0.095520
O281	O28	0.620650	0.569360	0.203940
O291	O29	0.809100	0.993000	0.395680
O301	O30	0.894270	0.938660	0.288960
C311	C31	0.672150	0.508990	0.160680
C321	C32	0.697850	0.434070	0.184010
C331	C33	0.752280	0.368620	0.132470
H341	H34	0.776580	0.371350	0.074460
C351	C35	0.775150	0.298950	0.154870
H361	H36	0.815300	0.251350	0.112530
C371	C37	0.745600	0.291310	0.230000
C381	C38	0.691600	0.357610	0.281110
H391	H39	0.667510	0.356830	0.339200
C401	C40	0.667880	0.427070	0.258660
H411	H41	0.626240	0.475620	0.300300
C421	C42	0.770320	0.215800	0.254940
C431	C43	0.837210	0.148960	0.206020
H441	H44	0.873680	0.149340	0.149290
C451	C45	0.859650	0.079750	0.229470
H461	H46	0.911180	0.030440	0.189870
C471	C47	0.816840	0.074070	0.303020
C481	C48	0.750810	0.139900	0.351920
H491	H49	0.716880	0.137510	0.408740
C501	C50	0.727560	0.208980	0.328600
H511	H51	0.675110	0.256810	0.369100
C521	C52	0.840470	0.000730	0.329460
N531	N53	0.888160	0.476360	0.974780
C541	C54	0.886070	0.433010	0.941930
C551	C55	0.881500	0.539640	0.938230
N561	N56	0.702520	0.544320	0.293100
C571	C57	0.690290	0.509440	0.358620
C581	C58	0.775590	0.492700	0.227710
O591	O59	0.761520	0.410230	0.819820
O601	O60	0.691970	0.516280	0.872260
O611	O61	0.493590	0.322910	0.448110
O621	O62	0.574700	0.214460	0.398990
C631	C63	0.715500	0.450840	0.881190
C641	C64	0.691910	0.424740	0.954580
C651	C65	0.711860	0.352850	0.960570
H661	H66	0.744840	0.314860	0.911720
C671	C67	0.689150	0.328950	0.029490
H681	H68	0.705050	0.273670	0.030210
C691	C69	0.646170	0.375640	0.095670
C701	C70	0.626560	0.447870	0.088660
H711	H71	0.594830	0.486740	0.135980
C721	C72	0.648700	0.471680	0.019850
H731	H73	0.632580	0.527090	0.017280
C741	C74	0.621710	0.349830	0.170740
C751	C75	0.562540	0.400530	0.237570
H761	H76	0.533530	0.458450	0.237260
C771	C77	0.538690	0.377940	0.306790
H781	H78	0.492810	0.419610	0.355830
C791	C79	0.573140	0.303090	0.312970
C801	C80	0.633070	0.251660	0.247000
H811	H81	0.662150	0.193450	0.249010
C821	C82	0.656890	0.274410	0.177470
H831	H83	0.704110	0.232120	0.129240
C841	C84	0.546790	0.279670	0.387710
O851	O85	0.516920	0.701960	0.195590
O861	O86	0.564880	0.627980	0.113010
O871	O87	0.990820	0.812170	0.309870
O881	O88	0.936550	0.895280	0.387880
C891	C89	0.504900	0.678110	0.166500
C901	C90	0.429970	0.705050	0.191510
C911	C91	0.364990	0.755220	0.257180
H921	H92	0.368030	0.776070	0.290770
C931	C93	0.295570	0.777320	0.281720
H941	H94	0.248280	0.813520	0.334050
C951	C95	0.287810	0.751510	0.240740
C961	C96	0.353380	0.702670	0.173780
H971	H97	0.351910	0.681900	0.138550
C981	C98	0.422760	0.679290	0.150380
H991	H99	0.471260	0.640320	0.099780
C1001	C100	0.212810	0.774670	0.267280
C1011	C101	0.145620	0.840080	0.318090
H1021	H102	0.145580	0.876200	0.339110
C1031	C103	0.076730	0.861480	0.341710
H1041	H104	0.027100	0.911970	0.380480
C1051	C105	0.071800	0.819180	0.314870
C1061	C106	0.138100	0.754170	0.264710
H1071	H107	0.136340	0.720240	0.243390
C1081	C108	0.206940	0.731890	0.241890
H1091	H109	0.255440	0.680270	0.204660
C1101	C110	0.998600	0.842490	0.338070
N1111	N111	0.484200	0.895820	0.152200
C1121	C112	0.437110	0.893500	0.229290
C1131	C113	0.547780	0.884310	0.137710
N1141	N114	0.550040	0.692970	0.952660
C1151	C115	0.511790	0.680080	0.940620
C1161	C116	0.500840	0.767990	0.991340
O1171	O117	0.499090	0.816900	0.412510
O1181	O118	0.420710	0.869130	0.519980
O1191	O119	0.228780	0.445380	0.326380
O1201	O120	0.312070	0.395630	0.218530
C1211	C121	0.448210	0.878280	0.454010
C1221	C122	0.424340	0.951910	0.428290
C1231	C123	0.453740	0.957500	0.353290
H1241	H124	0.493610	0.908360	0.312730
C1251	C125	0.431630	0.026450	0.329500
H1261	H126	0.454640	0.027340	0.271550
C1271	C127	0.379800	0.092920	0.379550
C1281	C128	0.350810	0.086510	0.454740
H1291	H129	0.312040	0.134480	0.496040
C1301	C130	0.372290	0.017720	0.478450
H1311	H131	0.348680	0.015800	0.536420
C1321	C132	0.355550	0.167880	0.354070
C1331	C133	0.286570	0.233650	0.401910
H1341	H134	0.248520	0.231490	0.456430
C1351	C135	0.263770	0.303100	0.379580
H1361	H136	0.210250	0.351530	0.418710
C1371	C137	0.308130	0.310050	0.307440
C1381	C138	0.376390	0.244720	0.258640
H1391	H139	0.412260	0.247310	0.202600
C1401	C140	0.399940	0.175250	0.281560
H1411	H141	0.453670	0.127450	0.242060
C1421	C142	0.282830	0.384710	0.283670
O1431	O143	0.087000	0.193580	0.699250
O1441	O144	0.195590	0.109980	0.626120
O1451	O145	0.387550	0.306830	0.812430
O1461	O146	0.280740	0.385140	0.895310
C1471	C147	0.152000	0.164130	0.675620
C1481	C148	0.174900	0.189400	0.702480
C1491	C149	0.123750	0.254420	0.753640
H1501	H150	0.066190	0.287590	0.775020
C1511	C151	0.146190	0.278940	0.776290
H1521	H152	0.104440	0.330860	0.813260
C1531	C153	0.220800	0.238420	0.750210
C1541	C154	0.271280	0.171970	0.700470
H1551	H155	0.328760	0.136670	0.679550
C1561	C156	0.248940	0.148710	0.676580
H1571	H157	0.290150	0.098160	0.637660
C1581	C158	0.245920	0.264690	0.774070
C1591	C159	0.196280	0.317410	0.838260
H1601	H160	0.138710	0.340310	0.873100
C1611	C161	0.220040	0.340840	0.860070
H1621	H162	0.179890	0.381260	0.909460
C1631	C163	0.294570	0.311870	0.819530
C1641	C164	0.344070	0.259570	0.756060
H1651	H165	0.401530	0.236220	0.723850
C1661	C166	0.320520	0.237060	0.733200
H1671	H167	0.361650	0.198240	0.682590
C1681	C168	0.321240	0.335120	0.842770
N1691	N169	0.937680	0.250820	0.881650
C1701	C170	0.904680	0.314790	0.850350
C1711	C171	0.888310	0.230070	0.931070
N1721	N172	0.288090	0.959770	0.706350
C1731	C173	0.353290	0.942400	0.693950
C1741	C174	0.222480	0.004070	0.779200
O1751	O175	0.814040	0.501130	0.773960
O1761	O176	0.865740	0.422870	0.692840
O1771	O177	0.442590	0.231850	0.500690
O1781	O178	0.392200	0.313580	0.577320
C1791	C179	0.875230	0.450170	0.721930
C1801	C180	0.948950	0.426330	0.697570
C1811	C181	0.954670	0.455310	0.737790
H1821	H182	0.905630	0.494670	0.788020
C1831	C183	0.023600	0.433530	0.714420
H1841	H184	0.024580	0.456190	0.748640
C1851	C185	0.089940	0.382390	0.649190
C1861	C186	0.083380	0.353900	0.609120
H1871	H187	0.131220	0.315750	0.558190
C1881	C188	0.014590	0.375100	0.633040
H1891	H189	0.012500	0.352000	0.600360
C1901	C190	0.164950	0.358200	0.623790
C1911	C191	0.230830	0.289600	0.578370
H1921	H192	0.228770	0.251870	0.563350
C1931	C193	0.300300	0.266690	0.554190
H1941	H194	0.348790	0.213440	0.519610
C1951	C195	0.307140	0.310540	0.575940
C1961	C196	0.241720	0.378470	0.622440
H1971	H197	0.244200	0.413990	0.640670
C1981	C198	0.172260	0.402140	0.645280
H1991	H199	0.124410	0.455590	0.679400
C2001	C200	0.381700	0.285110	0.550880
O2011	O201	0.189010	0.093040	0.519840
O2021	O202	0.104280	0.201340	0.568290
O2031	O203	0.302220	0.393410	0.992720
O2041	O204	0.379210	0.286490	0.938620
C2051	C205	0.159090	0.158070	0.508140
C2061	C206	0.184580	0.181230	0.433190
C2071	C207	0.249980	0.130250	0.368160
H2081	H208	0.283430	0.072740	0.371130
C2091	C209	0.274440	0.152800	0.298600
H2101	H210	0.326550	0.111200	0.251430
C2111	C211	0.233590	0.227340	0.290640
C2121	C212	0.167010	0.277720	0.356340
H2131	H213	0.131630	0.335160	0.354990
C2141	C214	0.143700	0.255280	0.425790
H2151	H215	0.092960	0.296400	0.474040
C2161	C216	0.259650	0.252440	0.215360
C2171	C217	0.311550	0.202830	0.148260
H2181	H218	0.333870	0.145390	0.148340
C2191	C219	0.334820	0.226460	0.079180
H2201	H220	0.374520	0.186330	0.029610
C2211	C221	0.306550	0.300820	0.073940
C2221	C222	0.254880	0.350400	0.140090
H2231	H223	0.231820	0.407880	0.138060
C2241	C224	0.232530	0.326900	0.209090
H2251	H225	0.194210	0.367890	0.257370
C2261	C226	0.329870	0.327180	0.000600
N2271	N227	0.251860	0.950440	0.416150
C2281	C228	0.313430	0.911980	0.422420
C2291	C229	0.216560	0.913840	0.447390
N2301	N230	0.955230	0.294120	0.545930
C2311	C231	0.936810	0.360010	0.511580
C2321	C232	0.999220	0.229140	0.493770
O2331	O233	0.586150	0.228750	0.502450
O2341	O234	0.478630	0.311950	0.578290
O2351	O235	0.671950	0.502910	0.770810
O2361	O236	0.779870	0.428040	0.687340
C2371	C237	0.544430	0.282050	0.551980
C2381	C238	0.569900	0.306660	0.575620
C2391	C239	0.644740	0.266250	0.547050
H2401	H240	0.685290	0.215770	0.508020
C2411	C241	0.668420	0.289860	0.568700
H2421	H242	0.726250	0.255580	0.546300
C2431	C243	0.618370	0.355410	0.619390
C2441	C244	0.543360	0.395620	0.647500
H2451	H245	0.502180	0.446780	0.685290
C2461	C246	0.519770	0.371550	0.626360
H2471	H247	0.461940	0.404370	0.649190
C2481	C248	0.643700	0.380960	0.643490
C2491	C249	0.595590	0.426350	0.712090
H2501	H250	0.540790	0.441320	0.749840
C2511	C251	0.617970	0.450600	0.734900
H2521	H252	0.578700	0.485040	0.788210
C2531	C253	0.690340	0.429100	0.690850
C2541	C254	0.739280	0.382750	0.622850
H2551	H255	0.795480	0.364670	0.587220
C2561	C256	0.716370	0.359720	0.599350
H2571	H257	0.756030	0.325640	0.545870
C2581	C258	0.714460	0.453920	0.716420
O2591	O259	0.297500	0.483060	0.909960
O2601	O260	0.371480	0.434740	0.801370
O2611	O261	0.184970	0.009630	0.609710
O2621	O262	0.101430	0.064170	0.716600
C2631	C263	0.321750	0.494840	0.844900
C2641	C264	0.295370	0.569810	0.821930
C2651	C265	0.245200	0.634620	0.873000
H2661	H266	0.224500	0.631300	0.930410
C2671	C267	0.222670	0.704240	0.850580
H2681	H268	0.186280	0.751450	0.892010
C2691	C269	0.248110	0.712340	0.776160
C2701	C270	0.297240	0.646880	0.725670
H2711	H271	0.317650	0.648550	0.668300
C2721	C272	0.320880	0.577380	0.747950
H2731	H273	0.359220	0.529260	0.706800
C2741	C274	0.224070	0.787570	0.751250
C2751	C275	0.158340	0.854540	0.800520
H2761	H276	0.122620	0.854230	0.857630
C2771	C277	0.136160	0.923610	0.776840
H2781	H278	0.085370	0.973110	0.816610
C2791	C279	0.178050	0.928850	0.702750
C2801	C280	0.243200	0.862760	0.653660
H2811	H281	0.276630	0.864820	0.596580
C2821	C282	0.266230	0.793820	0.677210
H2831	H283	0.317940	0.745510	0.636690
C2841	C284	0.154440	0.002050	0.676080
N2851	N285	0.105940	0.527600	0.029670
C2861	C286	0.110810	0.569130	0.060990
C2871	C287	0.111600	0.464750	0.066590
N2881	N288	0.290960	0.456900	0.710870
C2891	C289	0.303010	0.491290	0.645050
C2901	C290	0.218140	0.508910	0.776260
O2911	O291	0.227200	0.590370	0.185840
O2921	O292	0.307070	0.482840	0.133490
O2931	O293	0.498670	0.675820	0.556990
O2941	O294	0.423910	0.783760	0.606960
C2951	C295	0.278680	0.548820	0.124430
C2961	C296	0.303100	0.574470	0.050810
C2971	C297	0.265980	0.649730	0.045500
H2981	H298	0.218500	0.690650	0.094920
C2991	C299	0.288980	0.673470	0.976550
H3001	H300	0.256860	0.731870	0.976220
C3011	C301	0.350950	0.622970	0.909680
C3021	C302	0.388190	0.547470	0.915880
H3031	H303	0.436710	0.505640	0.867700
C3041	C304	0.364530	0.523920	0.984740
H3051	H305	0.394980	0.465680	0.986430
C3061	C306	0.376110	0.648320	0.834600
C3071	C307	0.418570	0.601190	0.769190
H3081	H308	0.431200	0.547400	0.771640
C3091	C309	0.442910	0.623350	0.699660
H3101	H310	0.475230	0.584810	0.651530
C3111	C311	0.424090	0.694720	0.692310
C3121	C312	0.380360	0.742890	0.757240
H3131	H313	0.364460	0.798310	0.754290
C3141	C314	0.357570	0.720030	0.826720
H3151	H315	0.325920	0.758960	0.874060
C3161	C316	0.449370	0.718510	0.617700
O3171	O317	0.477270	0.304480	0.807820
O3181	O318	0.429450	0.376350	0.892250
O3191	O319	0.004270	0.190170	0.694470
O3201	O320	0.059510	0.106040	0.616800
C3211	C321	0.489400	0.327560	0.837480
C3221	C322	0.564580	0.300710	0.811760
C3231	C323	0.629440	0.249430	0.746690
H3241	H324	0.626100	0.228300	0.713700
C3251	C325	0.699290	0.226230	0.722000
H3261	H326	0.746500	0.188900	0.670240
C3271	C327	0.707570	0.252240	0.762170
C3281	C328	0.642110	0.302350	0.828460
H3291	H329	0.643970	0.323150	0.863260
C3301	C330	0.572400	0.326510	0.852110
H3311	H331	0.524290	0.365580	0.902640
C3321	C332	0.782910	0.228060	0.735640
C3331	C333	0.849820	0.161510	0.686400
H3341	H334	0.849370	0.125140	0.666450
C3351	C335	0.918920	0.139450	0.663120
H3361	H336	0.968390	0.087990	0.625720
C3371	C337	0.924150	0.182400	0.688700
C3381	C338	0.858120	0.248480	0.737140
H3391	H339	0.860210	0.282980	0.757140
C3401	C340	0.789250	0.271230	0.759670
H3411	H341	0.740990	0.323610	0.795560
C3421	C342	0.997160	0.159140	0.666120
N3431	N343	0.547310	0.123200	0.791790
C3441	C344	0.562720	0.138120	0.718650
C3451	C345	0.501830	0.097410	0.827920
N3461	N346	0.452350	0.294610	0.040790
C3471	C347	0.487690	0.306460	0.058830
C3481	C348	0.504130	0.222310	0.995380
O3491	O349	0.494580	0.182830	0.593560
O3501	O350	0.570960	0.130490	0.486120
O3511	O351	0.767000	0.554770	0.679920
O3521	O352	0.678850	0.604290	0.786950
C3531	C353	0.544230	0.121480	0.552120
C3541	C354	0.567880	0.047960	0.577890
C3551	C355	0.534440	0.042750	0.653180
H3561	H356	0.490960	0.092230	0.694130
C3571	C357	0.556730	0.973810	0.676900
H3581	H358	0.529970	0.973530	0.735330
C3591	C359	0.613000	0.906880	0.626350
C3601	C360	0.645870	0.912970	0.550810
H3611	H361	0.688190	0.864730	0.508900
C3621	C362	0.623990	0.981850	0.527310
H3631	H363	0.650820	0.983580	0.469060
C3641	C364	0.637520	0.831890	0.651770
C3651	C365	0.707990	0.766570	0.605050
H3661	H366	0.746980	0.768930	0.551400
C3671	C367	0.730940	0.697160	0.627430
H3681	H368	0.785580	0.649090	0.589220
C3691	C369	0.685150	0.689820	0.698460
C3701	C370	0.615340	0.754640	0.746160
H3711	H371	0.578370	0.751670	0.801340
C3721	C372	0.591690	0.824020	0.723150
H3731	H373	0.536730	0.871260	0.761700
C3741	C374	0.710520	0.615250	0.722230
O3751	O375	0.907260	0.808430	0.307670
O3761	O376	0.799010	0.893340	0.379460
O3771	O377	0.606600	0.696130	0.193830
O3781	O378	0.713450	0.619000	0.110040
C3791	C379	0.842230	0.838370	0.331080
C3801	C380	0.819030	0.812900	0.304890
C3811	C381	0.870090	0.748040	0.253570
H3821	H382	0.927700	0.714930	0.231920
C3831	C383	0.847540	0.723710	0.230910
H3841	H384	0.889340	0.671950	0.193700
C3851	C385	0.772860	0.764220	0.257210
C3861	C386	0.722430	0.830360	0.307360
H3871	H387	0.664880	0.865650	0.328610
C3881	C388	0.744900	0.853410	0.331260
H3891	H389	0.703680	0.903710	0.370490
C3901	C390	0.747670	0.738290	0.233050
C3911	C391	0.797550	0.684930	0.169290
H3921	H392	0.855290	0.661320	0.134970
C3931	C393	0.773900	0.661680	0.147170
H3941	H394	0.814260	0.620700	0.098180
C3951	C395	0.699250	0.691490	0.186890
C3961	C396	0.649410	0.744650	0.249740
H3971	H397	0.591720	0.769070	0.280940
C3981	C398	0.672850	0.766880	0.273040
H3991	H399	0.631380	0.806350	0.323220
C4001	C400	0.672830	0.668320	0.163270
N4011	N401	0.041790	0.757330	0.126370
C4021	C402	0.081140	0.696410	0.155470
C4031	C403	0.084650	0.784310	0.073680
N4041	N404	0.769180	0.022000	0.209250
C4051	C405	0.712440	0.030440	0.286100
C4061	C406	0.833780	0.944880	0.179530
O4071	O407	0.179700	0.498420	0.231920
O4081	O408	0.127780	0.576770	0.313110
O4091	O409	0.551270	0.768390	0.504020
O4101	O410	0.601580	0.685310	0.429030
C4111	C411	0.118430	0.549410	0.283930
C4121	C412	0.044690	0.573520	0.308120
C4131	C413	0.038870	0.545030	0.267610
H4141	H414	0.087890	0.505830	0.217270
C4151	C415	0.969900	0.567070	0.290870
H4161	H416	0.968910	0.544730	0.256400
C4171	C417	0.903600	0.617940	0.356310
C4181	C418	0.910250	0.646090	0.396560
H4191	H419	0.862470	0.684090	0.447600
C4201	C420	0.979080	0.624720	0.372700
H4211	H421	0.981170	0.647670	0.405540
C4221	C422	0.828600	0.642080	0.381720
C4231	C423	0.762480	0.710090	0.428240
H4241	H424	0.764130	0.747420	0.444590
C4251	C425	0.693140	0.732860	0.452180
H4261	H426	0.644460	0.785640	0.487610
C4271	C427	0.686590	0.689380	0.429400
C4281	C428	0.752180	0.622030	0.382010
H4291	H429	0.749910	0.586810	0.363000
C4301	C430	0.821540	0.598550	0.359200
H4311	H431	0.869520	0.545500	0.324330
C4321	C432	0.612110	0.714560	0.454550
O4331	O433	0.807350	0.910250	0.485800
O4341	O434	0.889480	0.801600	0.437250
O4351	O435	0.691340	0.609560	0.012310
O4361	O436	0.617570	0.716340	0.065550
C4371	C437	0.835780	0.845100	0.497400
C4381	C438	0.809800	0.821860	0.572170
C4391	C439	0.744080	0.872740	0.637140
H4401	H440	0.710660	0.930330	0.634240
C4411	C441	0.719450	0.849940	0.706530
H4421	H442	0.667260	0.891330	0.753850
C4431	C443	0.760380	0.775320	0.714230
C4441	C444	0.826940	0.725000	0.648600
H4451	H445	0.862080	0.667480	0.650020
C4461	C446	0.850440	0.747660	0.579330
H4471	H447	0.901200	0.706650	0.530990
C4481	C448	0.734530	0.750100	0.789290
C4491	C449	0.684800	0.799200	0.856110
H4501	H450	0.664070	0.856210	0.855740
C4511	C451	0.661900	0.775530	0.925090
H4521	H452	0.623820	0.815270	0.974450
C4531	C453	0.688380	0.701590	0.930470
C4541	C454	0.737740	0.652490	0.864540
H4551	H455	0.759190	0.595380	0.866690
C4561	C456	0.759830	0.676100	0.795580
H4571	H457	0.796480	0.635690	0.747330
C4581	C458	0.665310	0.675490	0.003890
N4591	N459	0.830270	0.029780	0.532970
C4601	C460	0.751670	0.064390	0.575140
C4611	C461	0.852230	0.065650	0.469690
N4621	N462	0.039110	0.708750	0.459070
C4631	C463	0.055850	0.643440	0.494360
C4641	C464	0.994750	0.774100	0.510990
In4651	In465	0.489700	0.757220	0.495210
In4661	In466	0.753770	0.492640	0.760500
In4671	In467	0.504030	0.242230	0.510700
In4681	In468	0.239650	0.507530	0.245330
In4691	In469	0.628740	0.632450	0.123840
In4701	In470	0.115800	0.121120	0.631320
In4711	In471	0.365770	0.371400	0.881220
In4721	In472	0.879200	0.881530	0.374120
H4731	H473	0.844840	0.494830	0.030590
H4741	H474	0.887880	0.387300	0.972580
H4751	H475	0.934320	0.408910	0.883690
H4761	H476	0.834570	0.467530	0.944570
H4771	H477	0.927840	0.521170	0.879050
H4781	H478	0.882950	0.571860	0.964130
H4791	H479	0.828600	0.576330	0.943450
H4801	H480	0.662520	0.562090	0.285560
H4811	H481	0.694240	0.461120	0.352250
H4821	H482	0.634440	0.549220	0.407450
H4831	H483	0.731190	0.491500	0.368830
H4841	H484	0.783110	0.519550	0.178420
H4851	H485	0.782130	0.443370	0.218770
H4861	H486	0.819110	0.475370	0.233340
H4871	H487	0.502440	0.854810	0.118510
H4881	H488	0.468910	0.840970	0.244830
H4891	H489	0.391980	0.897590	0.237880
H4901	H490	0.412240	0.940460	0.265780
H4911	H491	0.582210	0.887220	0.079250
H4921	H492	0.582210	0.829330	0.148260
H4931	H493	0.529720	0.927500	0.172710
H4941	H494	0.564520	0.656740	0.986380
H4951	H495	0.548810	0.622280	0.913600
H4961	H496	0.496490	0.716680	0.903890
H4971	H497	0.461560	0.689570	0.993510
H4981	H498	0.450680	0.778220	0.044950
H4991	H499	0.484980	0.808410	0.956840
H5001	H500	0.529670	0.776260	0.002260
H5011	H501	0.987110	0.206480	0.839130
H5021	H502	0.852010	0.362800	0.894540
H5031	H503	0.894350	0.302210	0.817470
H5041	H504	0.942800	0.329810	0.813420
H5051	H505	0.914490	0.181300	0.953900
H5061	H506	0.876570	0.215710	0.900960
H5071	H507	0.835870	0.275680	0.977730
H5081	H508	0.280470	0.988930	0.666130
H5091	H509	0.402240	0.909640	0.638140
H5101	H510	0.363720	0.909610	0.734890
H5111	H511	0.346350	0.993540	0.697770
H5121	H512	0.228270	0.972940	0.822970
H5131	H513	0.173480	0.018000	0.786910
H5141	H514	0.212960	0.056320	0.785160
H5151	H515	0.213020	0.004490	0.444220
H5161	H516	0.337400	0.942330	0.401170
H5171	H517	0.357160	0.855490	0.389720
H5181	H518	0.294670	0.908810	0.480740
H5191	H519	0.256000	0.857040	0.416840
H5201	H520	0.169420	0.944550	0.443020
H5211	H521	0.195420	0.912100	0.506490
H5221	H522	0.984920	0.286140	0.564060
H5231	H523	0.903160	0.370980	0.493930
H5241	H524	0.987510	0.353620	0.463130
H5251	H525	0.904500	0.408410	0.551630
H5261	H526	0.967570	0.235340	0.475840
H5271	H527	0.013810	0.179640	0.520390
H5281	H528	0.051110	0.220150	0.444830
H5291	H529	0.055480	0.562210	0.035910
H5301	H530	0.110330	0.614100	0.029610
H5311	H531	0.162710	0.533080	0.057740
H5321	H532	0.063100	0.594020	0.119340
H5331	H533	0.165260	0.426400	0.059840
H5341	H534	0.107500	0.434230	0.042190
H5351	H535	0.066240	0.483570	0.126110
H5361	H536	0.294970	0.411460	0.704180
H5371	H537	0.299320	0.539670	0.650650
H5381	H538	0.261840	0.509080	0.635350
H5391	H539	0.358700	0.451240	0.596220
H5401	H540	0.210730	0.482410	0.825720
H5411	H541	0.174300	0.526270	0.771160
H5421	H542	0.211990	0.558190	0.784510
H5431	H543	0.597000	0.082960	0.786640
H5441	H544	0.511010	0.177460	0.721690
H5451	H545	0.597920	0.086280	0.681390
H5461	H546	0.592120	0.163080	0.694770
H5471	H547	0.489470	0.088120	0.883870
H5481	H548	0.531390	0.044590	0.796170
H5491	H549	0.448760	0.139050	0.833610
H5501	H550	0.407660	0.297870	0.089440
H5511	H551	0.535400	0.303410	0.007990
H5521	H552	0.506670	0.264780	0.090980
H5531	H553	0.447860	0.361840	0.092490
H5541	H554	0.476890	0.215080	0.980810
H5551	H555	0.522820	0.177860	0.025870
H5561	H556	0.552630	0.216990	0.943450
H5571	H557	0.031860	0.739390	0.100310
H5581	H558	0.134460	0.649490	0.110470
H5591	H559	0.047550	0.677080	0.195630
H5601	H560	0.091530	0.714400	0.184180
H5611	H561	0.053880	0.830310	0.052240
H5621	H562	0.138080	0.739930	0.026480
H5631	H563	0.094750	0.804990	0.100540
H5641	H564	0.784820	0.053640	0.205940
H5651	H565	0.733600	0.011410	0.320630
H5661	H566	0.693250	0.999130	0.290710
H5671	H567	0.664380	0.089230	0.307740
H5681	H568	0.876030	0.939720	0.121240
H5691	H569	0.818780	0.910090	0.181610
H5701	H570	0.858390	0.924250	0.210860
H5711	H571	0.841450	0.034010	0.567000
H5721	H572	0.736590	0.035340	0.621880
H5731	H573	0.737920	0.061420	0.540160
H5741	H574	0.718600	0.122860	0.597720
H5751	H575	0.841760	0.061270	0.432060
H5761	H576	0.911910	0.038680	0.438560
H5771	H577	0.821790	0.124570	0.488090
H5781	H578	0.088270	0.700680	0.414610
H5791	H579	0.088600	0.594720	0.454440
H5801	H580	0.004480	0.650600	0.541980
H5811	H581	0.088360	0.632480	0.513570
H5821	H582	0.942210	0.783870	0.559210
H5831	H583	0.981350	0.823190	0.483690
H5841	H584	0.025580	0.767800	0.530130
H5851	H585	0.433370	0.335470	0.012210
H5861	H586	0.747740	0.040530	0.178090
H5871	H587	0.860310	0.974180	0.514600
H5881	H588	0.698120	0.589800	0.300510
H5891	H589	0.519580	0.171260	0.824170
H5901	H590	0.331270	0.439150	0.717920
H5911	H591	0.010250	0.716800	0.439760
H5921	H592	0.991540	0.800430	0.169610
H5931	H593	0.453700	0.947150	0.140220
H5941	H594	0.906720	0.301390	0.591110
H5951	H595	0.948420	0.263410	0.911000
H5961	H596	0.938040	0.443110	0.969610
H5971	H597	0.148540	0.508780	0.973630
H5981	H598	0.295950	0.910860	0.702510
H5991	H599	0.271240	0.951350	0.360660
