data_GAMTAQ_freeONLY_PM
_symmetry_space_group_name_H-M	'P1'
_cell_length_a	8.618000
_cell_length_b	11.028000
_cell_length_c	11.126000
_cell_angle_alpha	64.060000
_cell_angle_beta	80.570000
_cell_angle_gamma	73.210000
_symmetry_Int_Tables_number 1

loop_
_symmetry_equiv_pos_as_xyz
'x,y,z'

loop_
_atom_site_label
_atom_site_type_symbol
_atom_site_fract_x
_atom_site_fract_y
_atom_site_fract_z
La11	La1	0.753480	0.493660	0.998580
La21	La2	0.246520	0.506340	0.001420
H11	H1	0.745900	0.552400	0.474100
H21	H2	0.405200	0.889400	0.483900
H31	H3	0.740400	0.934500	0.178000
H41	H4	0.987700	0.600400	0.310400
H51	H5	0.962600	0.744900	0.180800
H61	H6	0.377100	0.668400	0.638400
H71	H7	0.482100	0.532500	0.618500
H81	H8	0.439000	0.121200	0.330100
H91	H9	0.569800	0.139400	0.207800
H101	H10	0.254100	0.447600	0.525900
H111	H11	0.594800	0.110600	0.516100
H121	H12	0.259600	0.065500	0.822000
H131	H13	0.012300	0.399600	0.689600
H141	H14	0.037400	0.255100	0.819200
H151	H15	0.622900	0.331600	0.361600
H161	H16	0.517900	0.467500	0.381500
H171	H17	0.561000	0.878800	0.669900
H181	H18	0.430200	0.860600	0.792200
C11	C1	0.766100	0.735000	0.315100
C21	C2	0.698900	0.649700	0.435200
C31	C3	0.563900	0.707000	0.497400
C41	C4	0.496700	0.850000	0.440600
C51	C5	0.562000	0.936400	0.320600
C61	C6	0.695600	0.876800	0.259800
C71	C7	0.908300	0.671500	0.243700
C81	C8	0.859600	0.604800	0.167300
C91	C9	0.489000	0.616900	0.626200
C101	C10	0.581700	0.572600	0.749500
C111	C11	0.484500	0.089900	0.257900
C121	C12	0.350000	0.132200	0.163100
C131	C13	0.233900	0.265000	0.684900
C141	C14	0.301100	0.350300	0.564800
C151	C15	0.436100	0.293000	0.502600
C161	C16	0.503300	0.150000	0.559400
C171	C17	0.438000	0.063600	0.679400
C181	C18	0.304400	0.123200	0.740200
C191	C19	0.091700	0.328500	0.756300
C201	C20	0.140400	0.395200	0.832700
C211	C21	0.511000	0.383100	0.373800
C221	C22	0.418300	0.427400	0.250500
C231	C23	0.515500	0.910100	0.742100
C241	C24	0.650000	0.867800	0.836900
O11	O1	0.719200	0.591000	0.177000
O21	O2	0.968100	0.562200	0.091300
O31	O3	0.502200	0.548400	0.862900
O41	O4	0.731200	0.557900	0.743600
O51	O5	0.277800	0.259800	0.118100
O61	O6	0.316600	0.045800	0.136100
O71	O7	0.750400	0.266200	0.992100
O81	O8	0.895600	0.281200	0.202400
O91	O9	0.280800	0.409000	0.823000
O101	O10	0.031900	0.437800	0.908700
O111	O11	0.497800	0.451600	0.137100
O121	O12	0.268800	0.442100	0.256400
O131	O13	0.722200	0.740200	0.881900
O141	O14	0.683400	0.954200	0.863900
O151	O15	0.249600	0.733800	0.007900
O161	O16	0.104400	0.718800	0.797600
