data_GAMTOE_freeONLY_PM
_symmetry_space_group_name_H-M	'P1'
_cell_length_a	11.857000
_cell_length_b	12.554000
_cell_length_c	12.515000
_cell_angle_alpha	119.120000
_cell_angle_beta	98.440000
_cell_angle_gamma	108.270000
_symmetry_Int_Tables_number 1

loop_
_symmetry_equiv_pos_as_xyz
'x,y,z'

loop_
_atom_site_label
_atom_site_type_symbol
_atom_site_fract_x
_atom_site_fract_y
_atom_site_fract_z
La11	La1	0.479750	0.011030	0.177950
La21	La2	0.802850	0.235930	0.756100
O11	O1	0.592600	0.161500	0.415800
O21	O2	0.668500	0.283000	0.632280
O31	O3	0.572400	0.802000	0.796500
O41	O4	0.529000	0.886700	0.976800
O51	O5	0.266600	0.853500	0.997100
O61	O6	0.109800	0.726700	0.024300
O71	O7	0.305000	0.999800	0.278200
O81	O8	0.115900	0.950200	0.294000
O91	O9	0.394900	0.110900	0.764900
O101	O10	0.601700	0.198300	0.812400
O111	O11	0.940300	0.360900	0.667100
O121	O12	0.043300	0.368200	0.833600
O131	O13	0.696600	0.174200	0.224500
O141	O14	0.836900	0.477700	0.910000
O151	O15	0.744300	0.064600	0.513700
O161	O16	0.425600	0.975000	0.466800
C11	C1	0.733500	0.533200	0.666800
C21	C2	0.656200	0.572300	0.736400
H11	H1	0.566400	0.519000	0.696200
C31	C3	0.709000	0.689000	0.864600
C41	C4	0.840700	0.766700	0.921800
H21	H2	0.877500	0.844700	0.009700
C51	C5	0.918900	0.731900	0.852400
C61	C6	0.864600	0.613800	0.725300
H31	H3	0.917800	0.588000	0.678200
C71	C7	0.673200	0.402600	0.529800
H41	H4	0.593400	0.395400	0.482800
H51	H5	0.731600	0.408200	0.481700
C81	C8	0.643000	0.274500	0.526900
C91	C9	0.623800	0.733600	0.937200
H61	H6	0.672700	0.791700	0.032700
H71	H7	0.551800	0.652200	0.917500
C101	C10	0.572000	0.811900	0.900100
C111	C11	0.060200	0.825100	0.911200
H81	H8	0.072700	0.918800	0.974000
H91	H9	0.087200	0.824200	0.839700
C121	C12	0.149900	0.796800	0.981500
C131	C13	0.272200	0.259400	0.512700
C141	C14	0.363300	0.255900	0.593600
H101	H10	0.406400	0.203100	0.556100
C151	C15	0.392100	0.329000	0.729100
C161	C16	0.327000	0.404500	0.782500
H111	H11	0.343100	0.451100	0.873900
C171	C17	0.238700	0.413000	0.704300
C181	C18	0.211900	0.340700	0.569900
H121	H12	0.152000	0.346500	0.516100
C191	C19	0.241300	0.180600	0.365200
H131	H13	0.164500	0.181500	0.322800
H141	H14	0.312900	0.225800	0.346600
C201	C20	0.218100	0.034500	0.307800
C211	C21	0.501100	0.338300	0.818200
H151	H15	0.506300	0.395600	0.909500
H161	H16	0.581000	0.386500	0.811700
C221	C22	0.496400	0.205900	0.793500
C231	C23	0.168100	0.496100	0.763400
H171	H17	0.220400	0.570900	0.856400
H181	H18	0.152000	0.536700	0.715500
C241	C24	0.043200	0.404100	0.754000
La31	La3	0.520250	0.988970	0.822050
La41	La4	0.197150	0.764070	0.243900
O171	O17	0.407400	0.838500	0.584200
O181	O18	0.331500	0.717000	0.367720
O191	O19	0.427600	0.198000	0.203500
O201	O20	0.471000	0.113300	0.023200
O211	O21	0.733400	0.146500	0.002900
O221	O22	0.890200	0.273300	0.975700
O231	O23	0.695000	0.000200	0.721800
O241	O24	0.884100	0.049800	0.706000
O251	O25	0.605100	0.889100	0.235100
O261	O26	0.398300	0.801700	0.187600
O271	O27	0.059700	0.639100	0.332900
O281	O28	0.956700	0.631800	0.166400
O291	O29	0.303400	0.825800	0.775500
O301	O30	0.163100	0.522300	0.090000
O311	O31	0.255700	0.935400	0.486300
O321	O32	0.574400	0.025000	0.533200
C251	C25	0.266500	0.466800	0.333200
C261	C26	0.343800	0.427700	0.263600
H191	H19	0.433600	0.481000	0.303800
C271	C27	0.291000	0.311000	0.135400
C281	C28	0.159300	0.233300	0.078200
H201	H20	0.122500	0.155300	0.990300
C291	C29	0.081100	0.268100	0.147600
C301	C30	0.135400	0.386200	0.274700
H211	H21	0.082200	0.412000	0.321800
C311	C31	0.326800	0.597400	0.470200
H221	H22	0.406600	0.604600	0.517200
H231	H23	0.268400	0.591800	0.518300
C321	C32	0.357000	0.725500	0.473100
C331	C33	0.376200	0.266400	0.062800
H241	H24	0.327300	0.208300	0.967300
H251	H25	0.448200	0.347800	0.082500
C341	C34	0.428000	0.188100	0.099900
C351	C35	0.939800	0.174900	0.088800
H261	H26	0.927300	0.081200	0.026000
H271	H27	0.912800	0.175800	0.160300
C361	C36	0.850100	0.203200	0.018500
C371	C37	0.727800	0.740600	0.487300
C381	C38	0.636700	0.744100	0.406400
H281	H28	0.593600	0.796900	0.443900
C391	C39	0.607900	0.671000	0.270900
C401	C40	0.673000	0.595500	0.217500
H291	H29	0.656900	0.548900	0.126100
C411	C41	0.761300	0.587000	0.295700
C421	C42	0.788100	0.659300	0.430100
H301	H30	0.848000	0.653500	0.483900
C431	C43	0.758700	0.819400	0.634800
H311	H31	0.835500	0.818500	0.677200
H321	H32	0.687100	0.774200	0.653400
C441	C44	0.781900	0.965500	0.692200
C451	C45	0.498900	0.661700	0.181800
H331	H33	0.493700	0.604400	0.090500
H341	H34	0.419000	0.613500	0.188300
C461	C46	0.503600	0.794100	0.206500
C471	C47	0.831900	0.503900	0.236600
H351	H35	0.779600	0.429100	0.143600
H361	H36	0.848000	0.463300	0.284500
C481	C48	0.956800	0.595900	0.246000
