data_GAPDEH_freeONLY_PM
_symmetry_space_group_name_H-M	'P1'
_cell_length_a	10.186000
_cell_length_b	10.186000
_cell_length_c	24.367000
_cell_angle_alpha	90.000000
_cell_angle_beta	90.000000
_cell_angle_gamma	90.000000
_symmetry_Int_Tables_number 1

loop_
_symmetry_equiv_pos_as_xyz
'x,y,z'

loop_
_atom_site_label
_atom_site_type_symbol
_atom_site_fract_x
_atom_site_fract_y
_atom_site_fract_z
Cd11	Cd1	0.097650	0.761300	0.000900
C11	C1	0.090700	0.508800	0.956100
C21	C2	0.085600	0.380500	0.923700
C31	C3	0.075800	0.380900	0.867100
H11	H1	0.073300	0.462200	0.847200
C41	C4	0.073500	0.263500	0.840800
C51	C5	0.081100	0.142000	0.868200
H21	H2	0.077600	0.061700	0.847600
C61	C6	0.089600	0.142000	0.923500
C71	C7	0.091600	0.263100	0.952500
H31	H3	0.093500	0.264500	0.991900
C81	C8	0.099600	0.013200	0.953900
C91	C9	0.851200	0.754300	0.049600
C101	C10	0.720900	0.748500	0.078900
C111	C11	0.716600	0.745700	0.136300
H41	H4	0.796700	0.749600	0.157000
C121	C12	0.596400	0.742100	0.163000
C131	C13	0.478100	0.744500	0.133100
H51	H5	0.395200	0.744600	0.151900
C141	C14	0.481000	0.745800	0.075500
C151	C15	0.602100	0.749000	0.049000
C161	C16	0.355000	0.753100	0.043100
H61	H6	0.604300	0.754300	0.011700
O11	O1	0.098500	0.509900	0.005700
O21	O2	0.087400	0.615800	0.928400
O31	O3	0.137700	0.012400	0.001800
O41	O4	0.066000	0.912100	0.929700
O51	O5	0.045800	0.364000	0.755600
O61	O6	0.058800	0.157000	0.757800
O71	O7	0.852800	0.758300	0.000500
O81	O8	0.954200	0.755200	0.078300
O91	O9	0.357700	0.743100	0.993300
O101	O10	0.250600	0.761800	0.069800
O111	O11	0.493500	0.689300	0.244300
O121	O12	0.683100	0.753000	0.246500
N11	N1	0.059800	0.258900	0.780900
N21	N2	0.590200	0.736200	0.220700
K11	K1	0.534600	0.820700	0.911100
K21	K2	0.796400	0.888340	0.910410
Cd21	Cd2	0.902350	0.238700	0.500900
C171	C17	0.909300	0.491200	0.456100
C181	C18	0.914400	0.619500	0.423700
C191	C19	0.924200	0.619100	0.367100
H71	H7	0.926700	0.537800	0.347200
C201	C20	0.926500	0.736500	0.340800
C211	C21	0.918900	0.858000	0.368200
H81	H8	0.922400	0.938300	0.347600
C221	C22	0.910400	0.858000	0.423500
C231	C23	0.908400	0.736900	0.452500
H91	H9	0.906500	0.735500	0.491900
C241	C24	0.900400	0.986800	0.453900
C251	C25	0.148800	0.245700	0.549600
C261	C26	0.279100	0.251500	0.578900
C271	C27	0.283400	0.254300	0.636300
H101	H10	0.203300	0.250400	0.657000
C281	C28	0.403600	0.257900	0.663000
C291	C29	0.521900	0.255500	0.633100
H111	H11	0.604800	0.255400	0.651900
C301	C30	0.519000	0.254200	0.575500
C311	C31	0.397900	0.251000	0.549000
C321	C32	0.645000	0.246900	0.543100
H121	H12	0.395700	0.245700	0.511700
O131	O13	0.901500	0.490100	0.505700
O141	O14	0.912600	0.384200	0.428400
O151	O15	0.862300	0.987600	0.501800
O161	O16	0.934000	0.087900	0.429700
O171	O17	0.954200	0.636000	0.255600
O181	O18	0.941200	0.843000	0.257800
O191	O19	0.147200	0.241700	0.500500
O201	O20	0.045800	0.244800	0.578300
O211	O21	0.642300	0.256900	0.493300
O221	O22	0.749400	0.238200	0.569800
O231	O23	0.506500	0.310700	0.744300
O241	O24	0.316900	0.247000	0.746500
N31	N3	0.940200	0.741100	0.280900
N41	N4	0.409800	0.263800	0.720700
K31	K3	0.465400	0.179300	0.411100
K41	K4	0.203600	0.111660	0.410410
Cd31	Cd3	0.238700	0.097650	0.250900
C331	C33	0.491200	0.090700	0.206100
C341	C34	0.619500	0.085600	0.173700
C351	C35	0.619100	0.075800	0.117100
H131	H13	0.537800	0.073300	0.097200
C361	C36	0.736500	0.073500	0.090800
C371	C37	0.858000	0.081100	0.118200
H141	H14	0.938300	0.077600	0.097600
C381	C38	0.858000	0.089600	0.173500
C391	C39	0.736900	0.091600	0.202500
H151	H15	0.735500	0.093500	0.241900
C401	C40	0.986800	0.099600	0.203900
C411	C41	0.245700	0.851200	0.299600
C421	C42	0.251500	0.720900	0.328900
C431	C43	0.254300	0.716600	0.386300
H161	H16	0.250400	0.796700	0.407000
C441	C44	0.257900	0.596400	0.413000
C451	C45	0.255500	0.478100	0.383100
H171	H17	0.255400	0.395200	0.401900
C461	C46	0.254200	0.481000	0.325500
C471	C47	0.251000	0.602100	0.299000
C481	C48	0.246900	0.355000	0.293100
H181	H18	0.245700	0.604300	0.261700
O251	O25	0.490100	0.098500	0.255700
O261	O26	0.384200	0.087400	0.178400
O271	O27	0.987600	0.137700	0.251800
O281	O28	0.087900	0.066000	0.179700
O291	O29	0.636000	0.045800	0.005600
O301	O30	0.843000	0.058800	0.007800
O311	O31	0.241700	0.852800	0.250500
O321	O32	0.244800	0.954200	0.328300
O331	O33	0.256900	0.357700	0.243300
O341	O34	0.238200	0.250600	0.319800
O351	O35	0.310700	0.493500	0.494300
O361	O36	0.247000	0.683100	0.496500
N51	N5	0.741100	0.059800	0.030900
N61	N6	0.263800	0.590200	0.470700
K51	K5	0.179300	0.534600	0.161100
K61	K6	0.111660	0.796400	0.160410
Cd41	Cd4	0.761300	0.902350	0.750900
C491	C49	0.508800	0.909300	0.706100
C501	C50	0.380500	0.914400	0.673700
C511	C51	0.380900	0.924200	0.617100
H191	H19	0.462200	0.926700	0.597200
C521	C52	0.263500	0.926500	0.590800
C531	C53	0.142000	0.918900	0.618200
H201	H20	0.061700	0.922400	0.597600
C541	C54	0.142000	0.910400	0.673500
C551	C55	0.263100	0.908400	0.702500
H211	H21	0.264500	0.906500	0.741900
C561	C56	0.013200	0.900400	0.703900
C571	C57	0.754300	0.148800	0.799600
C581	C58	0.748500	0.279100	0.828900
C591	C59	0.745700	0.283400	0.886300
H221	H22	0.749600	0.203300	0.907000
C601	C60	0.742100	0.403600	0.913000
C611	C61	0.744500	0.521900	0.883100
H231	H23	0.744600	0.604800	0.901900
C621	C62	0.745800	0.519000	0.825500
C631	C63	0.749000	0.397900	0.799000
C641	C64	0.753100	0.645000	0.793100
H241	H24	0.754300	0.395700	0.761700
O371	O37	0.509900	0.901500	0.755700
O381	O38	0.615800	0.912600	0.678400
O391	O39	0.012400	0.862300	0.751800
O401	O40	0.912100	0.934000	0.679700
O411	O41	0.364000	0.954200	0.505600
O421	O42	0.157000	0.941200	0.507800
O431	O43	0.758300	0.147200	0.750500
O441	O44	0.755200	0.045800	0.828300
O451	O45	0.743100	0.642300	0.743300
O461	O46	0.761800	0.749400	0.819800
O471	O47	0.689300	0.506500	0.994300
O481	O48	0.753000	0.316900	0.996500
N71	N7	0.258900	0.940200	0.530900
N81	N8	0.736200	0.409800	0.970700
K71	K7	0.820700	0.465400	0.661100
K81	K8	0.888340	0.203600	0.660410
