data_GARTUR_freeONLY_PM
_symmetry_space_group_name_H-M	'P1'
_cell_length_a	9.973000
_cell_length_b	48.485000
_cell_length_c	54.892000
_cell_angle_alpha	90.000000
_cell_angle_beta	90.000000
_cell_angle_gamma	90.000000
_symmetry_Int_Tables_number 1

loop_
_symmetry_equiv_pos_as_xyz
'x,y,z'

loop_
_atom_site_label
_atom_site_type_symbol
_atom_site_fract_x
_atom_site_fract_y
_atom_site_fract_z
Ga11	Ga1	0.876800	0.276880	0.022770
Zn11	Zn1	0.668220	0.432480	0.220270
Zn21	Zn2	0.704500	0.362440	0.133340
Zn31	Zn3	0.547800	0.349790	0.068150
Zn41	Zn4	0.045700	0.396790	0.107150
Zn51	Zn5	0.990640	0.466100	0.194350
Zn61	Zn6	0.202350	0.324490	0.088120
Zn71	Zn7	0.351630	0.414710	0.165290
P11	P1	0.160700	0.281350	0.046280
P21	P2	0.713200	0.492570	0.205370
P31	P3	0.065300	0.442120	0.145760
P41	P4	0.939900	0.444630	0.244800
P51	P5	0.764800	0.391910	0.083670
P61	P6	0.641400	0.386780	0.183720
P71	P7	0.277000	0.383980	0.071920
P81	P8	0.594400	0.304800	0.028330
P91	P9	0.985400	0.336460	0.126330
P101	P10	0.471000	0.324940	0.118370
O11	O1	0.173700	0.250200	0.046790
O21	O2	0.015600	0.291210	0.044450
O31	O3	0.231200	0.292780	0.068350
O41	O4	0.655000	0.464660	0.198420
O51	O5	0.661700	0.515960	0.189810
O61	O6	0.864000	0.493090	0.205370
O71	O7	0.006400	0.431370	0.122900
O81	O8	0.951600	0.450220	0.163040
O91	O9	0.160200	0.422400	0.158050
O101	O10	0.996300	0.426380	0.264580
O111	O11	0.791500	0.443670	0.245550
O121	O12	0.999400	0.438190	0.219850
O131	O13	0.708100	0.392310	0.109560
O141	O14	0.915300	0.394500	0.081880
O151	O15	0.723900	0.366900	0.069620
O161	O16	0.715300	0.398000	0.205290
O171	O17	0.743200	0.377600	0.165220
O181	O18	0.542600	0.406790	0.173150
O191	O19	0.425600	0.379970	0.073390
O201	O20	0.225600	0.399420	0.093990
O211	O21	0.199200	0.357590	0.067530
O221	O22	0.741600	0.301710	0.036120
O231	O23	0.573900	0.303710	0.001190
O241	O24	0.533400	0.331200	0.037870
O251	O25	0.834900	0.334400	0.128350
O261	O26	0.041800	0.365570	0.129760
O271	O27	0.028800	0.322220	0.103180
O281	O28	0.521400	0.347500	0.134910
O291	O29	0.548700	0.323000	0.094790
O301	O30	0.322200	0.327150	0.115640
O311	O31	0.290000	0.412020	0.203790
O321	O32	0.401200	0.457230	0.170760
O331	O33	0.301700	0.371980	0.158420
O341	O34	0.417500	0.416250	0.126330
H11	H1	0.232800	0.290900	0.026000
H21	H2	0.662200	0.496900	0.228000
H31	H3	0.126600	0.463800	0.142500
H41	H4	0.976100	0.467000	0.248400
H51	H5	0.711000	0.417900	0.072900
H61	H6	0.599600	0.358300	0.186600
H71	H7	0.221900	0.396700	0.052900
H81	H8	0.598600	0.284600	0.033200
H91	H9	0.984600	0.327600	0.142800
H101	H10	0.486300	0.306700	0.133700
Ga21	Ga2	0.376800	0.776880	0.522770
Zn81	Zn8	0.168220	0.932480	0.720270
Zn91	Zn9	0.204500	0.862440	0.633340
Zn101	Zn10	0.047800	0.849790	0.568150
Zn111	Zn11	0.545700	0.896790	0.607150
Zn121	Zn12	0.490640	0.966100	0.694350
Zn131	Zn13	0.702350	0.824490	0.588120
Zn141	Zn14	0.851630	0.914710	0.665290
P111	P11	0.660700	0.781350	0.546280
P121	P12	0.213200	0.992570	0.705370
P131	P13	0.565300	0.942120	0.645760
P141	P14	0.439900	0.944630	0.744800
P151	P15	0.264800	0.891910	0.583670
P161	P16	0.141400	0.886780	0.683720
P171	P17	0.777000	0.883980	0.571920
P181	P18	0.094400	0.804800	0.528330
P191	P19	0.485400	0.836460	0.626330
P201	P20	0.971000	0.824940	0.618370
O351	O35	0.673700	0.750200	0.546790
O361	O36	0.515600	0.791210	0.544450
O371	O37	0.731200	0.792780	0.568350
O381	O38	0.155000	0.964660	0.698420
O391	O39	0.161700	0.015960	0.689810
O401	O40	0.364000	0.993090	0.705370
O411	O41	0.506400	0.931370	0.622900
O421	O42	0.451600	0.950220	0.663040
O431	O43	0.660200	0.922400	0.658050
O441	O44	0.496300	0.926380	0.764580
O451	O45	0.291500	0.943670	0.745550
O461	O46	0.499400	0.938190	0.719850
O471	O47	0.208100	0.892310	0.609560
O481	O48	0.415300	0.894500	0.581880
O491	O49	0.223900	0.866900	0.569620
O501	O50	0.215300	0.898000	0.705290
O511	O51	0.243200	0.877600	0.665220
O521	O52	0.042600	0.906790	0.673150
O531	O53	0.925600	0.879970	0.573390
O541	O54	0.725600	0.899420	0.593990
O551	O55	0.699200	0.857590	0.567530
O561	O56	0.241600	0.801710	0.536120
O571	O57	0.073900	0.803710	0.501190
O581	O58	0.033400	0.831200	0.537870
O591	O59	0.334900	0.834400	0.628350
O601	O60	0.541800	0.865570	0.629760
O611	O61	0.528800	0.822220	0.603180
O621	O62	0.021400	0.847500	0.634910
O631	O63	0.048700	0.823000	0.594790
O641	O64	0.822200	0.827150	0.615640
O651	O65	0.790000	0.912020	0.703790
O661	O66	0.901200	0.957230	0.670760
O671	O67	0.801700	0.871980	0.658420
O681	O68	0.917500	0.916250	0.626330
H111	H11	0.732800	0.790900	0.526000
H121	H12	0.162200	0.996900	0.728000
H131	H13	0.626600	0.963800	0.642500
H141	H14	0.476100	0.967000	0.748400
H151	H15	0.211000	0.917900	0.572900
H161	H16	0.099600	0.858300	0.686600
H171	H17	0.721900	0.896700	0.552900
H181	H18	0.098600	0.784600	0.533200
H191	H19	0.484600	0.827600	0.642800
H201	H20	0.986300	0.806700	0.633700
Ga31	Ga3	0.623200	0.723120	0.522770
Zn151	Zn15	0.831780	0.567520	0.720270
Zn161	Zn16	0.795500	0.637560	0.633340
Zn171	Zn17	0.952200	0.650210	0.568150
Zn181	Zn18	0.454300	0.603210	0.607150
Zn191	Zn19	0.509360	0.533900	0.694350
Zn201	Zn20	0.297650	0.675510	0.588120
Zn211	Zn21	0.148370	0.585290	0.665290
P211	P21	0.339300	0.718650	0.546280
P221	P22	0.786800	0.507430	0.705370
P231	P23	0.434700	0.557880	0.645760
P241	P24	0.560100	0.555370	0.744800
P251	P25	0.735200	0.608090	0.583670
P261	P26	0.858600	0.613220	0.683720
P271	P27	0.223000	0.616020	0.571920
P281	P28	0.905600	0.695200	0.528330
P291	P29	0.514600	0.663540	0.626330
P301	P30	0.029000	0.675060	0.618370
O691	O69	0.326300	0.749800	0.546790
O701	O70	0.484400	0.708790	0.544450
O711	O71	0.268800	0.707220	0.568350
O721	O72	0.845000	0.535340	0.698420
O731	O73	0.838300	0.484040	0.689810
O741	O74	0.636000	0.506910	0.705370
O751	O75	0.493600	0.568630	0.622900
O761	O76	0.548400	0.549780	0.663040
O771	O77	0.339800	0.577600	0.658050
O781	O78	0.503700	0.573620	0.764580
O791	O79	0.708500	0.556330	0.745550
O801	O80	0.500600	0.561810	0.719850
O811	O81	0.791900	0.607690	0.609560
O821	O82	0.584700	0.605500	0.581880
O831	O83	0.776100	0.633100	0.569620
O841	O84	0.784700	0.602000	0.705290
O851	O85	0.756800	0.622400	0.665220
O861	O86	0.957400	0.593210	0.673150
O871	O87	0.074400	0.620030	0.573390
O881	O88	0.274400	0.600580	0.593990
O891	O89	0.300800	0.642410	0.567530
O901	O90	0.758400	0.698290	0.536120
O911	O91	0.926100	0.696290	0.501190
O921	O92	0.966600	0.668800	0.537870
O931	O93	0.665100	0.665600	0.628350
O941	O94	0.458200	0.634430	0.629760
O951	O95	0.471200	0.677780	0.603180
O961	O96	0.978600	0.652500	0.634910
O971	O97	0.951300	0.677000	0.594790
O981	O98	0.177800	0.672850	0.615640
O991	O99	0.210000	0.587980	0.703790
O1001	O100	0.098800	0.542770	0.670760
O1011	O101	0.198300	0.628020	0.658420
O1021	O102	0.082500	0.583750	0.626330
H211	H21	0.267200	0.709100	0.526000
H221	H22	0.837800	0.503100	0.728000
H231	H23	0.373400	0.536200	0.642500
H241	H24	0.523900	0.533000	0.748400
H251	H25	0.789000	0.582100	0.572900
H261	H26	0.900400	0.641700	0.686600
H271	H27	0.278100	0.603300	0.552900
H281	H28	0.901400	0.715400	0.533200
H291	H29	0.515400	0.672400	0.642800
H301	H30	0.013700	0.693300	0.633700
Ga41	Ga4	0.123200	0.223120	0.022770
Zn221	Zn22	0.331780	0.067520	0.220270
Zn231	Zn23	0.295500	0.137560	0.133340
Zn241	Zn24	0.452200	0.150210	0.068150
Zn251	Zn25	0.954300	0.103210	0.107150
Zn261	Zn26	0.009360	0.033900	0.194350
Zn271	Zn27	0.797650	0.175510	0.088120
Zn281	Zn28	0.648370	0.085290	0.165290
P311	P31	0.839300	0.218650	0.046280
P321	P32	0.286800	0.007430	0.205370
P331	P33	0.934700	0.057880	0.145760
P341	P34	0.060100	0.055370	0.244800
P351	P35	0.235200	0.108090	0.083670
P361	P36	0.358600	0.113220	0.183720
P371	P37	0.723000	0.116020	0.071920
P381	P38	0.405600	0.195200	0.028330
P391	P39	0.014600	0.163540	0.126330
P401	P40	0.529000	0.175060	0.118370
O1031	O103	0.826300	0.249800	0.046790
O1041	O104	0.984400	0.208790	0.044450
O1051	O105	0.768800	0.207220	0.068350
O1061	O106	0.345000	0.035340	0.198420
O1071	O107	0.338300	0.984040	0.189810
O1081	O108	0.136000	0.006910	0.205370
O1091	O109	0.993600	0.068630	0.122900
O1101	O110	0.048400	0.049780	0.163040
O1111	O111	0.839800	0.077600	0.158050
O1121	O112	0.003700	0.073620	0.264580
O1131	O113	0.208500	0.056330	0.245550
O1141	O114	0.000600	0.061810	0.219850
O1151	O115	0.291900	0.107690	0.109560
O1161	O116	0.084700	0.105500	0.081880
O1171	O117	0.276100	0.133100	0.069620
O1181	O118	0.284700	0.102000	0.205290
O1191	O119	0.256800	0.122400	0.165220
O1201	O120	0.457400	0.093210	0.173150
O1211	O121	0.574400	0.120030	0.073390
O1221	O122	0.774400	0.100580	0.093990
O1231	O123	0.800800	0.142410	0.067530
O1241	O124	0.258400	0.198290	0.036120
O1251	O125	0.426100	0.196290	0.001190
O1261	O126	0.466600	0.168800	0.037870
O1271	O127	0.165100	0.165600	0.128350
O1281	O128	0.958200	0.134430	0.129760
O1291	O129	0.971200	0.177780	0.103180
O1301	O130	0.478600	0.152500	0.134910
O1311	O131	0.451300	0.177000	0.094790
O1321	O132	0.677800	0.172850	0.115640
O1331	O133	0.710000	0.087980	0.203790
O1341	O134	0.598800	0.042770	0.170760
O1351	O135	0.698300	0.128020	0.158420
O1361	O136	0.582500	0.083750	0.126330
H311	H31	0.767200	0.209100	0.026000
H321	H32	0.337800	0.003100	0.228000
H331	H33	0.873400	0.036200	0.142500
H341	H34	0.023900	0.033000	0.248400
H351	H35	0.289000	0.082100	0.072900
H361	H36	0.400400	0.141700	0.186600
H371	H37	0.778100	0.103300	0.052900
H381	H38	0.401400	0.215400	0.033200
H391	H39	0.015400	0.172400	0.142800
H401	H40	0.513700	0.193300	0.133700
Ga51	Ga5	0.123200	0.776880	0.477230
Zn291	Zn29	0.331780	0.932480	0.279730
Zn301	Zn30	0.295500	0.862440	0.366660
Zn311	Zn31	0.452200	0.849790	0.431850
Zn321	Zn32	0.954300	0.896790	0.392850
Zn331	Zn33	0.009360	0.966100	0.305650
Zn341	Zn34	0.797650	0.824490	0.411880
Zn351	Zn35	0.648370	0.914710	0.334710
P411	P41	0.839300	0.781350	0.453720
P421	P42	0.286800	0.992570	0.294630
P431	P43	0.934700	0.942120	0.354240
P441	P44	0.060100	0.944630	0.255200
P451	P45	0.235200	0.891910	0.416330
P461	P46	0.358600	0.886780	0.316280
P471	P47	0.723000	0.883980	0.428080
P481	P48	0.405600	0.804800	0.471670
P491	P49	0.014600	0.836460	0.373670
P501	P50	0.529000	0.824940	0.381630
O1371	O137	0.826300	0.750200	0.453210
O1381	O138	0.984400	0.791210	0.455550
O1391	O139	0.768800	0.792780	0.431650
O1401	O140	0.345000	0.964660	0.301580
O1411	O141	0.338300	0.015960	0.310190
O1421	O142	0.136000	0.993090	0.294630
O1431	O143	0.993600	0.931370	0.377100
O1441	O144	0.048400	0.950220	0.336960
O1451	O145	0.839800	0.922400	0.341950
O1461	O146	0.003700	0.926380	0.235420
O1471	O147	0.208500	0.943670	0.254450
O1481	O148	0.000600	0.938190	0.280150
O1491	O149	0.291900	0.892310	0.390440
O1501	O150	0.084700	0.894500	0.418120
O1511	O151	0.276100	0.866900	0.430380
O1521	O152	0.284700	0.898000	0.294710
O1531	O153	0.256800	0.877600	0.334780
O1541	O154	0.457400	0.906790	0.326850
O1551	O155	0.574400	0.879970	0.426610
O1561	O156	0.774400	0.899420	0.406010
O1571	O157	0.800800	0.857590	0.432470
O1581	O158	0.258400	0.801710	0.463880
O1591	O159	0.426100	0.803710	0.498810
O1601	O160	0.466600	0.831200	0.462130
O1611	O161	0.165100	0.834400	0.371650
O1621	O162	0.958200	0.865570	0.370240
O1631	O163	0.971200	0.822220	0.396820
O1641	O164	0.478600	0.847500	0.365090
O1651	O165	0.451300	0.823000	0.405210
O1661	O166	0.677800	0.827150	0.384360
O1671	O167	0.710000	0.912020	0.296210
O1681	O168	0.598800	0.957230	0.329240
O1691	O169	0.698300	0.871980	0.341580
O1701	O170	0.582500	0.916250	0.373670
H411	H41	0.767200	0.790900	0.474000
H421	H42	0.337800	0.996900	0.272000
H431	H43	0.873400	0.963800	0.357500
H441	H44	0.023900	0.967000	0.251600
H451	H45	0.289000	0.917900	0.427100
H461	H46	0.400400	0.858300	0.313400
H471	H47	0.778100	0.896700	0.447100
H481	H48	0.401400	0.784600	0.466800
H491	H49	0.015400	0.827600	0.357200
H501	H50	0.513700	0.806700	0.366300
Ga61	Ga6	0.623200	0.276880	0.977230
Zn361	Zn36	0.831780	0.432480	0.779730
Zn371	Zn37	0.795500	0.362440	0.866660
Zn381	Zn38	0.952200	0.349790	0.931850
Zn391	Zn39	0.454300	0.396790	0.892850
Zn401	Zn40	0.509360	0.466100	0.805650
Zn411	Zn41	0.297650	0.324490	0.911880
Zn421	Zn42	0.148370	0.414710	0.834710
P511	P51	0.339300	0.281350	0.953720
P521	P52	0.786800	0.492570	0.794630
P531	P53	0.434700	0.442120	0.854240
P541	P54	0.560100	0.444630	0.755200
P551	P55	0.735200	0.391910	0.916330
P561	P56	0.858600	0.386780	0.816280
P571	P57	0.223000	0.383980	0.928080
P581	P58	0.905600	0.304800	0.971670
P591	P59	0.514600	0.336460	0.873670
P601	P60	0.029000	0.324940	0.881630
O1711	O171	0.326300	0.250200	0.953210
O1721	O172	0.484400	0.291210	0.955550
O1731	O173	0.268800	0.292780	0.931650
O1741	O174	0.845000	0.464660	0.801580
O1751	O175	0.838300	0.515960	0.810190
O1761	O176	0.636000	0.493090	0.794630
O1771	O177	0.493600	0.431370	0.877100
O1781	O178	0.548400	0.450220	0.836960
O1791	O179	0.339800	0.422400	0.841950
O1801	O180	0.503700	0.426380	0.735420
O1811	O181	0.708500	0.443670	0.754450
O1821	O182	0.500600	0.438190	0.780150
O1831	O183	0.791900	0.392310	0.890440
O1841	O184	0.584700	0.394500	0.918120
O1851	O185	0.776100	0.366900	0.930380
O1861	O186	0.784700	0.398000	0.794710
O1871	O187	0.756800	0.377600	0.834780
O1881	O188	0.957400	0.406790	0.826850
O1891	O189	0.074400	0.379970	0.926610
O1901	O190	0.274400	0.399420	0.906010
O1911	O191	0.300800	0.357590	0.932470
O1921	O192	0.758400	0.301710	0.963880
O1931	O193	0.926100	0.303710	0.998810
O1941	O194	0.966600	0.331200	0.962130
O1951	O195	0.665100	0.334400	0.871650
O1961	O196	0.458200	0.365570	0.870240
O1971	O197	0.471200	0.322220	0.896820
O1981	O198	0.978600	0.347500	0.865090
O1991	O199	0.951300	0.323000	0.905210
O2001	O200	0.177800	0.327150	0.884360
O2011	O201	0.210000	0.412020	0.796210
O2021	O202	0.098800	0.457230	0.829240
O2031	O203	0.198300	0.371980	0.841580
O2041	O204	0.082500	0.416250	0.873670
H511	H51	0.267200	0.290900	0.974000
H521	H52	0.837800	0.496900	0.772000
H531	H53	0.373400	0.463800	0.857500
H541	H54	0.523900	0.467000	0.751600
H551	H55	0.789000	0.417900	0.927100
H561	H56	0.900400	0.358300	0.813400
H571	H57	0.278100	0.396700	0.947100
H581	H58	0.901400	0.284600	0.966800
H591	H59	0.515400	0.327600	0.857200
H601	H60	0.013700	0.306700	0.866300
Ga71	Ga7	0.376800	0.223120	0.977230
Zn431	Zn43	0.168220	0.067520	0.779730
Zn441	Zn44	0.204500	0.137560	0.866660
Zn451	Zn45	0.047800	0.150210	0.931850
Zn461	Zn46	0.545700	0.103210	0.892850
Zn471	Zn47	0.490640	0.033900	0.805650
Zn481	Zn48	0.702350	0.175510	0.911880
Zn491	Zn49	0.851630	0.085290	0.834710
P611	P61	0.660700	0.218650	0.953720
P621	P62	0.213200	0.007430	0.794630
P631	P63	0.565300	0.057880	0.854240
P641	P64	0.439900	0.055370	0.755200
P651	P65	0.264800	0.108090	0.916330
P661	P66	0.141400	0.113220	0.816280
P671	P67	0.777000	0.116020	0.928080
P681	P68	0.094400	0.195200	0.971670
P691	P69	0.485400	0.163540	0.873670
P701	P70	0.971000	0.175060	0.881630
O2051	O205	0.673700	0.249800	0.953210
O2061	O206	0.515600	0.208790	0.955550
O2071	O207	0.731200	0.207220	0.931650
O2081	O208	0.155000	0.035340	0.801580
O2091	O209	0.161700	0.984040	0.810190
O2101	O210	0.364000	0.006910	0.794630
O2111	O211	0.506400	0.068630	0.877100
O2121	O212	0.451600	0.049780	0.836960
O2131	O213	0.660200	0.077600	0.841950
O2141	O214	0.496300	0.073620	0.735420
O2151	O215	0.291500	0.056330	0.754450
O2161	O216	0.499400	0.061810	0.780150
O2171	O217	0.208100	0.107690	0.890440
O2181	O218	0.415300	0.105500	0.918120
O2191	O219	0.223900	0.133100	0.930380
O2201	O220	0.215300	0.102000	0.794710
O2211	O221	0.243200	0.122400	0.834780
O2221	O222	0.042600	0.093210	0.826850
O2231	O223	0.925600	0.120030	0.926610
O2241	O224	0.725600	0.100580	0.906010
O2251	O225	0.699200	0.142410	0.932470
O2261	O226	0.241600	0.198290	0.963880
O2271	O227	0.073900	0.196290	0.998810
O2281	O228	0.033400	0.168800	0.962130
O2291	O229	0.334900	0.165600	0.871650
O2301	O230	0.541800	0.134430	0.870240
O2311	O231	0.528800	0.177780	0.896820
O2321	O232	0.021400	0.152500	0.865090
O2331	O233	0.048700	0.177000	0.905210
O2341	O234	0.822200	0.172850	0.884360
O2351	O235	0.790000	0.087980	0.796210
O2361	O236	0.901200	0.042770	0.829240
O2371	O237	0.801700	0.128020	0.841580
O2381	O238	0.917500	0.083750	0.873670
H611	H61	0.732800	0.209100	0.974000
H621	H62	0.162200	0.003100	0.772000
H631	H63	0.626600	0.036200	0.857500
H641	H64	0.476100	0.033000	0.751600
H651	H65	0.211000	0.082100	0.927100
H661	H66	0.099600	0.141700	0.813400
H671	H67	0.721900	0.103300	0.947100
H681	H68	0.098600	0.215400	0.966800
H691	H69	0.484600	0.172400	0.857200
H701	H70	0.986300	0.193300	0.866300
Ga81	Ga8	0.876800	0.723120	0.477230
Zn501	Zn50	0.668220	0.567520	0.279730
Zn511	Zn51	0.704500	0.637560	0.366660
Zn521	Zn52	0.547800	0.650210	0.431850
Zn531	Zn53	0.045700	0.603210	0.392850
Zn541	Zn54	0.990640	0.533900	0.305650
Zn551	Zn55	0.202350	0.675510	0.411880
Zn561	Zn56	0.351630	0.585290	0.334710
P711	P71	0.160700	0.718650	0.453720
P721	P72	0.713200	0.507430	0.294630
P731	P73	0.065300	0.557880	0.354240
P741	P74	0.939900	0.555370	0.255200
P751	P75	0.764800	0.608090	0.416330
P761	P76	0.641400	0.613220	0.316280
P771	P77	0.277000	0.616020	0.428080
P781	P78	0.594400	0.695200	0.471670
P791	P79	0.985400	0.663540	0.373670
P801	P80	0.471000	0.675060	0.381630
O2391	O239	0.173700	0.749800	0.453210
O2401	O240	0.015600	0.708790	0.455550
O2411	O241	0.231200	0.707220	0.431650
O2421	O242	0.655000	0.535340	0.301580
O2431	O243	0.661700	0.484040	0.310190
O2441	O244	0.864000	0.506910	0.294630
O2451	O245	0.006400	0.568630	0.377100
O2461	O246	0.951600	0.549780	0.336960
O2471	O247	0.160200	0.577600	0.341950
O2481	O248	0.996300	0.573620	0.235420
O2491	O249	0.791500	0.556330	0.254450
O2501	O250	0.999400	0.561810	0.280150
O2511	O251	0.708100	0.607690	0.390440
O2521	O252	0.915300	0.605500	0.418120
O2531	O253	0.723900	0.633100	0.430380
O2541	O254	0.715300	0.602000	0.294710
O2551	O255	0.743200	0.622400	0.334780
O2561	O256	0.542600	0.593210	0.326850
O2571	O257	0.425600	0.620030	0.426610
O2581	O258	0.225600	0.600580	0.406010
O2591	O259	0.199200	0.642410	0.432470
O2601	O260	0.741600	0.698290	0.463880
O2611	O261	0.573900	0.696290	0.498810
O2621	O262	0.533400	0.668800	0.462130
O2631	O263	0.834900	0.665600	0.371650
O2641	O264	0.041800	0.634430	0.370240
O2651	O265	0.028800	0.677780	0.396820
O2661	O266	0.521400	0.652500	0.365090
O2671	O267	0.548700	0.677000	0.405210
O2681	O268	0.322200	0.672850	0.384360
O2691	O269	0.290000	0.587980	0.296210
O2701	O270	0.401200	0.542770	0.329240
O2711	O271	0.301700	0.628020	0.341580
O2721	O272	0.417500	0.583750	0.373670
H711	H71	0.232800	0.709100	0.474000
H721	H72	0.662200	0.503100	0.272000
H731	H73	0.126600	0.536200	0.357500
H741	H74	0.976100	0.533000	0.251600
H751	H75	0.711000	0.582100	0.427100
H761	H76	0.599600	0.641700	0.313400
H771	H77	0.221900	0.603300	0.447100
H781	H78	0.598600	0.715400	0.466800
H791	H79	0.984600	0.672400	0.357200
H801	H80	0.486300	0.693300	0.366300
Ga91	Ga9	0.123200	0.723120	0.977230
Zn571	Zn57	0.331780	0.567520	0.779730
Zn581	Zn58	0.295500	0.637560	0.866660
Zn591	Zn59	0.452200	0.650210	0.931850
Zn601	Zn60	0.954300	0.603210	0.892850
Zn611	Zn61	0.009360	0.533900	0.805650
Zn621	Zn62	0.797650	0.675510	0.911880
Zn631	Zn63	0.648370	0.585290	0.834710
P811	P81	0.839300	0.718650	0.953720
P821	P82	0.286800	0.507430	0.794630
P831	P83	0.934700	0.557880	0.854240
P841	P84	0.060100	0.555370	0.755200
P851	P85	0.235200	0.608090	0.916330
P861	P86	0.358600	0.613220	0.816280
P871	P87	0.723000	0.616020	0.928080
P881	P88	0.405600	0.695200	0.971670
P891	P89	0.014600	0.663540	0.873670
P901	P90	0.529000	0.675060	0.881630
O2731	O273	0.826300	0.749800	0.953210
O2741	O274	0.984400	0.708790	0.955550
O2751	O275	0.768800	0.707220	0.931650
O2761	O276	0.345000	0.535340	0.801580
O2771	O277	0.338300	0.484040	0.810190
O2781	O278	0.136000	0.506910	0.794630
O2791	O279	0.993600	0.568630	0.877100
O2801	O280	0.048400	0.549780	0.836960
O2811	O281	0.839800	0.577600	0.841950
O2821	O282	0.003700	0.573620	0.735420
O2831	O283	0.208500	0.556330	0.754450
O2841	O284	0.000600	0.561810	0.780150
O2851	O285	0.291900	0.607690	0.890440
O2861	O286	0.084700	0.605500	0.918120
O2871	O287	0.276100	0.633100	0.930380
O2881	O288	0.284700	0.602000	0.794710
O2891	O289	0.256800	0.622400	0.834780
O2901	O290	0.457400	0.593210	0.826850
O2911	O291	0.574400	0.620030	0.926610
O2921	O292	0.774400	0.600580	0.906010
O2931	O293	0.800800	0.642410	0.932470
O2941	O294	0.258400	0.698290	0.963880
O2951	O295	0.426100	0.696290	0.998810
O2961	O296	0.466600	0.668800	0.962130
O2971	O297	0.165100	0.665600	0.871650
O2981	O298	0.958200	0.634430	0.870240
O2991	O299	0.971200	0.677780	0.896820
O3001	O300	0.478600	0.652500	0.865090
O3011	O301	0.451300	0.677000	0.905210
O3021	O302	0.677800	0.672850	0.884360
O3031	O303	0.710000	0.587980	0.796210
O3041	O304	0.598800	0.542770	0.829240
O3051	O305	0.698300	0.628020	0.841580
O3061	O306	0.582500	0.583750	0.873670
H811	H81	0.767200	0.709100	0.974000
H821	H82	0.337800	0.503100	0.772000
H831	H83	0.873400	0.536200	0.857500
H841	H84	0.023900	0.533000	0.751600
H851	H85	0.289000	0.582100	0.927100
H861	H86	0.400400	0.641700	0.813400
H871	H87	0.778100	0.603300	0.947100
H881	H88	0.401400	0.715400	0.966800
H891	H89	0.015400	0.672400	0.857200
H901	H90	0.513700	0.693300	0.866300
Ga101	Ga10	0.623200	0.223120	0.477230
Zn641	Zn64	0.831780	0.067520	0.279730
Zn651	Zn65	0.795500	0.137560	0.366660
Zn661	Zn66	0.952200	0.150210	0.431850
Zn671	Zn67	0.454300	0.103210	0.392850
Zn681	Zn68	0.509360	0.033900	0.305650
Zn691	Zn69	0.297650	0.175510	0.411880
Zn701	Zn70	0.148370	0.085290	0.334710
P911	P91	0.339300	0.218650	0.453720
P921	P92	0.786800	0.007430	0.294630
P931	P93	0.434700	0.057880	0.354240
P941	P94	0.560100	0.055370	0.255200
P951	P95	0.735200	0.108090	0.416330
P961	P96	0.858600	0.113220	0.316280
P971	P97	0.223000	0.116020	0.428080
P981	P98	0.905600	0.195200	0.471670
P991	P99	0.514600	0.163540	0.373670
P1001	P100	0.029000	0.175060	0.381630
O3071	O307	0.326300	0.249800	0.453210
O3081	O308	0.484400	0.208790	0.455550
O3091	O309	0.268800	0.207220	0.431650
O3101	O310	0.845000	0.035340	0.301580
O3111	O311	0.838300	0.984040	0.310190
O3121	O312	0.636000	0.006910	0.294630
O3131	O313	0.493600	0.068630	0.377100
O3141	O314	0.548400	0.049780	0.336960
O3151	O315	0.339800	0.077600	0.341950
O3161	O316	0.503700	0.073620	0.235420
O3171	O317	0.708500	0.056330	0.254450
O3181	O318	0.500600	0.061810	0.280150
O3191	O319	0.791900	0.107690	0.390440
O3201	O320	0.584700	0.105500	0.418120
O3211	O321	0.776100	0.133100	0.430380
O3221	O322	0.784700	0.102000	0.294710
O3231	O323	0.756800	0.122400	0.334780
O3241	O324	0.957400	0.093210	0.326850
O3251	O325	0.074400	0.120030	0.426610
O3261	O326	0.274400	0.100580	0.406010
O3271	O327	0.300800	0.142410	0.432470
O3281	O328	0.758400	0.198290	0.463880
O3291	O329	0.926100	0.196290	0.498810
O3301	O330	0.966600	0.168800	0.462130
O3311	O331	0.665100	0.165600	0.371650
O3321	O332	0.458200	0.134430	0.370240
O3331	O333	0.471200	0.177780	0.396820
O3341	O334	0.978600	0.152500	0.365090
O3351	O335	0.951300	0.177000	0.405210
O3361	O336	0.177800	0.172850	0.384360
O3371	O337	0.210000	0.087980	0.296210
O3381	O338	0.098800	0.042770	0.329240
O3391	O339	0.198300	0.128020	0.341580
O3401	O340	0.082500	0.083750	0.373670
H911	H91	0.267200	0.209100	0.474000
H921	H92	0.837800	0.003100	0.272000
H931	H93	0.373400	0.036200	0.357500
H941	H94	0.523900	0.033000	0.251600
H951	H95	0.789000	0.082100	0.427100
H961	H96	0.900400	0.141700	0.313400
H971	H97	0.278100	0.103300	0.447100
H981	H98	0.901400	0.215400	0.466800
H991	H99	0.515400	0.172400	0.357200
H1001	H100	0.013700	0.193300	0.366300
Ga111	Ga11	0.376800	0.276880	0.477230
Zn711	Zn71	0.168220	0.432480	0.279730
Zn721	Zn72	0.204500	0.362440	0.366660
Zn731	Zn73	0.047800	0.349790	0.431850
Zn741	Zn74	0.545700	0.396790	0.392850
Zn751	Zn75	0.490640	0.466100	0.305650
Zn761	Zn76	0.702350	0.324490	0.411880
Zn771	Zn77	0.851630	0.414710	0.334710
P1011	P101	0.660700	0.281350	0.453720
P1021	P102	0.213200	0.492570	0.294630
P1031	P103	0.565300	0.442120	0.354240
P1041	P104	0.439900	0.444630	0.255200
P1051	P105	0.264800	0.391910	0.416330
P1061	P106	0.141400	0.386780	0.316280
P1071	P107	0.777000	0.383980	0.428080
P1081	P108	0.094400	0.304800	0.471670
P1091	P109	0.485400	0.336460	0.373670
P1101	P110	0.971000	0.324940	0.381630
O3411	O341	0.673700	0.250200	0.453210
O3421	O342	0.515600	0.291210	0.455550
O3431	O343	0.731200	0.292780	0.431650
O3441	O344	0.155000	0.464660	0.301580
O3451	O345	0.161700	0.515960	0.310190
O3461	O346	0.364000	0.493090	0.294630
O3471	O347	0.506400	0.431370	0.377100
O3481	O348	0.451600	0.450220	0.336960
O3491	O349	0.660200	0.422400	0.341950
O3501	O350	0.496300	0.426380	0.235420
O3511	O351	0.291500	0.443670	0.254450
O3521	O352	0.499400	0.438190	0.280150
O3531	O353	0.208100	0.392310	0.390440
O3541	O354	0.415300	0.394500	0.418120
O3551	O355	0.223900	0.366900	0.430380
O3561	O356	0.215300	0.398000	0.294710
O3571	O357	0.243200	0.377600	0.334780
O3581	O358	0.042600	0.406790	0.326850
O3591	O359	0.925600	0.379970	0.426610
O3601	O360	0.725600	0.399420	0.406010
O3611	O361	0.699200	0.357590	0.432470
O3621	O362	0.241600	0.301710	0.463880
O3631	O363	0.073900	0.303710	0.498810
O3641	O364	0.033400	0.331200	0.462130
O3651	O365	0.334900	0.334400	0.371650
O3661	O366	0.541800	0.365570	0.370240
O3671	O367	0.528800	0.322220	0.396820
O3681	O368	0.021400	0.347500	0.365090
O3691	O369	0.048700	0.323000	0.405210
O3701	O370	0.822200	0.327150	0.384360
O3711	O371	0.790000	0.412020	0.296210
O3721	O372	0.901200	0.457230	0.329240
O3731	O373	0.801700	0.371980	0.341580
O3741	O374	0.917500	0.416250	0.373670
H1011	H101	0.732800	0.290900	0.474000
H1021	H102	0.162200	0.496900	0.272000
H1031	H103	0.626600	0.463800	0.357500
H1041	H104	0.476100	0.467000	0.251600
H1051	H105	0.211000	0.417900	0.427100
H1061	H106	0.099600	0.358300	0.313400
H1071	H107	0.721900	0.396700	0.447100
H1081	H108	0.098600	0.284600	0.466800
H1091	H109	0.484600	0.327600	0.357200
H1101	H110	0.986300	0.306700	0.366300
Ga121	Ga12	0.876800	0.776880	0.977230
Zn781	Zn78	0.668220	0.932480	0.779730
Zn791	Zn79	0.704500	0.862440	0.866660
Zn801	Zn80	0.547800	0.849790	0.931850
Zn811	Zn81	0.045700	0.896790	0.892850
Zn821	Zn82	0.990640	0.966100	0.805650
Zn831	Zn83	0.202350	0.824490	0.911880
Zn841	Zn84	0.351630	0.914710	0.834710
P1111	P111	0.160700	0.781350	0.953720
P1121	P112	0.713200	0.992570	0.794630
P1131	P113	0.065300	0.942120	0.854240
P1141	P114	0.939900	0.944630	0.755200
P1151	P115	0.764800	0.891910	0.916330
P1161	P116	0.641400	0.886780	0.816280
P1171	P117	0.277000	0.883980	0.928080
P1181	P118	0.594400	0.804800	0.971670
P1191	P119	0.985400	0.836460	0.873670
P1201	P120	0.471000	0.824940	0.881630
O3751	O375	0.173700	0.750200	0.953210
O3761	O376	0.015600	0.791210	0.955550
O3771	O377	0.231200	0.792780	0.931650
O3781	O378	0.655000	0.964660	0.801580
O3791	O379	0.661700	0.015960	0.810190
O3801	O380	0.864000	0.993090	0.794630
O3811	O381	0.006400	0.931370	0.877100
O3821	O382	0.951600	0.950220	0.836960
O3831	O383	0.160200	0.922400	0.841950
O3841	O384	0.996300	0.926380	0.735420
O3851	O385	0.791500	0.943670	0.754450
O3861	O386	0.999400	0.938190	0.780150
O3871	O387	0.708100	0.892310	0.890440
O3881	O388	0.915300	0.894500	0.918120
O3891	O389	0.723900	0.866900	0.930380
O3901	O390	0.715300	0.898000	0.794710
O3911	O391	0.743200	0.877600	0.834780
O3921	O392	0.542600	0.906790	0.826850
O3931	O393	0.425600	0.879970	0.926610
O3941	O394	0.225600	0.899420	0.906010
O3951	O395	0.199200	0.857590	0.932470
O3961	O396	0.741600	0.801710	0.963880
O3971	O397	0.573900	0.803710	0.998810
O3981	O398	0.533400	0.831200	0.962130
O3991	O399	0.834900	0.834400	0.871650
O4001	O400	0.041800	0.865570	0.870240
O4011	O401	0.028800	0.822220	0.896820
O4021	O402	0.521400	0.847500	0.865090
O4031	O403	0.548700	0.823000	0.905210
O4041	O404	0.322200	0.827150	0.884360
O4051	O405	0.290000	0.912020	0.796210
O4061	O406	0.401200	0.957230	0.829240
O4071	O407	0.301700	0.871980	0.841580
O4081	O408	0.417500	0.916250	0.873670
H1111	H111	0.232800	0.790900	0.974000
H1121	H112	0.662200	0.996900	0.772000
H1131	H113	0.126600	0.963800	0.857500
H1141	H114	0.976100	0.967000	0.751600
H1151	H115	0.711000	0.917900	0.927100
H1161	H116	0.599600	0.858300	0.813400
H1171	H117	0.221900	0.896700	0.947100
H1181	H118	0.598600	0.784600	0.966800
H1191	H119	0.984600	0.827600	0.857200
H1201	H120	0.486300	0.806700	0.866300
Ga131	Ga13	0.876800	0.223120	0.522770
Zn851	Zn85	0.668220	0.067520	0.720270
Zn861	Zn86	0.704500	0.137560	0.633340
Zn871	Zn87	0.547800	0.150210	0.568150
Zn881	Zn88	0.045700	0.103210	0.607150
Zn891	Zn89	0.990640	0.033900	0.694350
Zn901	Zn90	0.202350	0.175510	0.588120
Zn911	Zn91	0.351630	0.085290	0.665290
P1211	P121	0.160700	0.218650	0.546280
P1221	P122	0.713200	0.007430	0.705370
P1231	P123	0.065300	0.057880	0.645760
P1241	P124	0.939900	0.055370	0.744800
P1251	P125	0.764800	0.108090	0.583670
P1261	P126	0.641400	0.113220	0.683720
P1271	P127	0.277000	0.116020	0.571920
P1281	P128	0.594400	0.195200	0.528330
P1291	P129	0.985400	0.163540	0.626330
P1301	P130	0.471000	0.175060	0.618370
O4091	O409	0.173700	0.249800	0.546790
O4101	O410	0.015600	0.208790	0.544450
O4111	O411	0.231200	0.207220	0.568350
O4121	O412	0.655000	0.035340	0.698420
O4131	O413	0.661700	0.984040	0.689810
O4141	O414	0.864000	0.006910	0.705370
O4151	O415	0.006400	0.068630	0.622900
O4161	O416	0.951600	0.049780	0.663040
O4171	O417	0.160200	0.077600	0.658050
O4181	O418	0.996300	0.073620	0.764580
O4191	O419	0.791500	0.056330	0.745550
O4201	O420	0.999400	0.061810	0.719850
O4211	O421	0.708100	0.107690	0.609560
O4221	O422	0.915300	0.105500	0.581880
O4231	O423	0.723900	0.133100	0.569620
O4241	O424	0.715300	0.102000	0.705290
O4251	O425	0.743200	0.122400	0.665220
O4261	O426	0.542600	0.093210	0.673150
O4271	O427	0.425600	0.120030	0.573390
O4281	O428	0.225600	0.100580	0.593990
O4291	O429	0.199200	0.142410	0.567530
O4301	O430	0.741600	0.198290	0.536120
O4311	O431	0.573900	0.196290	0.501190
O4321	O432	0.533400	0.168800	0.537870
O4331	O433	0.834900	0.165600	0.628350
O4341	O434	0.041800	0.134430	0.629760
O4351	O435	0.028800	0.177780	0.603180
O4361	O436	0.521400	0.152500	0.634910
O4371	O437	0.548700	0.177000	0.594790
O4381	O438	0.322200	0.172850	0.615640
O4391	O439	0.290000	0.087980	0.703790
O4401	O440	0.401200	0.042770	0.670760
O4411	O441	0.301700	0.128020	0.658420
O4421	O442	0.417500	0.083750	0.626330
H1211	H121	0.232800	0.209100	0.526000
H1221	H122	0.662200	0.003100	0.728000
H1231	H123	0.126600	0.036200	0.642500
H1241	H124	0.976100	0.033000	0.748400
H1251	H125	0.711000	0.082100	0.572900
H1261	H126	0.599600	0.141700	0.686600
H1271	H127	0.221900	0.103300	0.552900
H1281	H128	0.598600	0.215400	0.533200
H1291	H129	0.984600	0.172400	0.642800
H1301	H130	0.486300	0.193300	0.633700
Ga141	Ga14	0.376800	0.723120	0.022770
Zn921	Zn92	0.168220	0.567520	0.220270
Zn931	Zn93	0.204500	0.637560	0.133340
Zn941	Zn94	0.047800	0.650210	0.068150
Zn951	Zn95	0.545700	0.603210	0.107150
Zn961	Zn96	0.490640	0.533900	0.194350
Zn971	Zn97	0.702350	0.675510	0.088120
Zn981	Zn98	0.851630	0.585290	0.165290
P1311	P131	0.660700	0.718650	0.046280
P1321	P132	0.213200	0.507430	0.205370
P1331	P133	0.565300	0.557880	0.145760
P1341	P134	0.439900	0.555370	0.244800
P1351	P135	0.264800	0.608090	0.083670
P1361	P136	0.141400	0.613220	0.183720
P1371	P137	0.777000	0.616020	0.071920
P1381	P138	0.094400	0.695200	0.028330
P1391	P139	0.485400	0.663540	0.126330
P1401	P140	0.971000	0.675060	0.118370
O4431	O443	0.673700	0.749800	0.046790
O4441	O444	0.515600	0.708790	0.044450
O4451	O445	0.731200	0.707220	0.068350
O4461	O446	0.155000	0.535340	0.198420
O4471	O447	0.161700	0.484040	0.189810
O4481	O448	0.364000	0.506910	0.205370
O4491	O449	0.506400	0.568630	0.122900
O4501	O450	0.451600	0.549780	0.163040
O4511	O451	0.660200	0.577600	0.158050
O4521	O452	0.496300	0.573620	0.264580
O4531	O453	0.291500	0.556330	0.245550
O4541	O454	0.499400	0.561810	0.219850
O4551	O455	0.208100	0.607690	0.109560
O4561	O456	0.415300	0.605500	0.081880
O4571	O457	0.223900	0.633100	0.069620
O4581	O458	0.215300	0.602000	0.205290
O4591	O459	0.243200	0.622400	0.165220
O4601	O460	0.042600	0.593210	0.173150
O4611	O461	0.925600	0.620030	0.073390
O4621	O462	0.725600	0.600580	0.093990
O4631	O463	0.699200	0.642410	0.067530
O4641	O464	0.241600	0.698290	0.036120
O4651	O465	0.073900	0.696290	0.001190
O4661	O466	0.033400	0.668800	0.037870
O4671	O467	0.334900	0.665600	0.128350
O4681	O468	0.541800	0.634430	0.129760
O4691	O469	0.528800	0.677780	0.103180
O4701	O470	0.021400	0.652500	0.134910
O4711	O471	0.048700	0.677000	0.094790
O4721	O472	0.822200	0.672850	0.115640
O4731	O473	0.790000	0.587980	0.203790
O4741	O474	0.901200	0.542770	0.170760
O4751	O475	0.801700	0.628020	0.158420
O4761	O476	0.917500	0.583750	0.126330
H1311	H131	0.732800	0.709100	0.026000
H1321	H132	0.162200	0.503100	0.228000
H1331	H133	0.626600	0.536200	0.142500
H1341	H134	0.476100	0.533000	0.248400
H1351	H135	0.211000	0.582100	0.072900
H1361	H136	0.099600	0.641700	0.186600
H1371	H137	0.721900	0.603300	0.052900
H1381	H138	0.098600	0.715400	0.033200
H1391	H139	0.484600	0.672400	0.142800
H1401	H140	0.986300	0.693300	0.133700
Ga151	Ga15	0.623200	0.776880	0.022770
Zn991	Zn99	0.831780	0.932480	0.220270
Zn1001	Zn100	0.795500	0.862440	0.133340
Zn1011	Zn101	0.952200	0.849790	0.068150
Zn1021	Zn102	0.454300	0.896790	0.107150
Zn1031	Zn103	0.509360	0.966100	0.194350
Zn1041	Zn104	0.297650	0.824490	0.088120
Zn1051	Zn105	0.148370	0.914710	0.165290
P1411	P141	0.339300	0.781350	0.046280
P1421	P142	0.786800	0.992570	0.205370
P1431	P143	0.434700	0.942120	0.145760
P1441	P144	0.560100	0.944630	0.244800
P1451	P145	0.735200	0.891910	0.083670
P1461	P146	0.858600	0.886780	0.183720
P1471	P147	0.223000	0.883980	0.071920
P1481	P148	0.905600	0.804800	0.028330
P1491	P149	0.514600	0.836460	0.126330
P1501	P150	0.029000	0.824940	0.118370
O4771	O477	0.326300	0.750200	0.046790
O4781	O478	0.484400	0.791210	0.044450
O4791	O479	0.268800	0.792780	0.068350
O4801	O480	0.845000	0.964660	0.198420
O4811	O481	0.838300	0.015960	0.189810
O4821	O482	0.636000	0.993090	0.205370
O4831	O483	0.493600	0.931370	0.122900
O4841	O484	0.548400	0.950220	0.163040
O4851	O485	0.339800	0.922400	0.158050
O4861	O486	0.503700	0.926380	0.264580
O4871	O487	0.708500	0.943670	0.245550
O4881	O488	0.500600	0.938190	0.219850
O4891	O489	0.791900	0.892310	0.109560
O4901	O490	0.584700	0.894500	0.081880
O4911	O491	0.776100	0.866900	0.069620
O4921	O492	0.784700	0.898000	0.205290
O4931	O493	0.756800	0.877600	0.165220
O4941	O494	0.957400	0.906790	0.173150
O4951	O495	0.074400	0.879970	0.073390
O4961	O496	0.274400	0.899420	0.093990
O4971	O497	0.300800	0.857590	0.067530
O4981	O498	0.758400	0.801710	0.036120
O4991	O499	0.926100	0.803710	0.001190
O5001	O500	0.966600	0.831200	0.037870
O5011	O501	0.665100	0.834400	0.128350
O5021	O502	0.458200	0.865570	0.129760
O5031	O503	0.471200	0.822220	0.103180
O5041	O504	0.978600	0.847500	0.134910
O5051	O505	0.951300	0.823000	0.094790
O5061	O506	0.177800	0.827150	0.115640
O5071	O507	0.210000	0.912020	0.203790
O5081	O508	0.098800	0.957230	0.170760
O5091	O509	0.198300	0.871980	0.158420
O5101	O510	0.082500	0.916250	0.126330
H1411	H141	0.267200	0.790900	0.026000
H1421	H142	0.837800	0.996900	0.228000
H1431	H143	0.373400	0.963800	0.142500
H1441	H144	0.523900	0.967000	0.248400
H1451	H145	0.789000	0.917900	0.072900
H1461	H146	0.900400	0.858300	0.186600
H1471	H147	0.278100	0.896700	0.052900
H1481	H148	0.901400	0.784600	0.033200
H1491	H149	0.515400	0.827600	0.142800
H1501	H150	0.013700	0.806700	0.133700
Ga161	Ga16	0.123200	0.276880	0.522770
Zn1061	Zn106	0.331780	0.432480	0.720270
Zn1071	Zn107	0.295500	0.362440	0.633340
Zn1081	Zn108	0.452200	0.349790	0.568150
Zn1091	Zn109	0.954300	0.396790	0.607150
Zn1101	Zn110	0.009360	0.466100	0.694350
Zn1111	Zn111	0.797650	0.324490	0.588120
Zn1121	Zn112	0.648370	0.414710	0.665290
P1511	P151	0.839300	0.281350	0.546280
P1521	P152	0.286800	0.492570	0.705370
P1531	P153	0.934700	0.442120	0.645760
P1541	P154	0.060100	0.444630	0.744800
P1551	P155	0.235200	0.391910	0.583670
P1561	P156	0.358600	0.386780	0.683720
P1571	P157	0.723000	0.383980	0.571920
P1581	P158	0.405600	0.304800	0.528330
P1591	P159	0.014600	0.336460	0.626330
P1601	P160	0.529000	0.324940	0.618370
O5111	O511	0.826300	0.250200	0.546790
O5121	O512	0.984400	0.291210	0.544450
O5131	O513	0.768800	0.292780	0.568350
O5141	O514	0.345000	0.464660	0.698420
O5151	O515	0.338300	0.515960	0.689810
O5161	O516	0.136000	0.493090	0.705370
O5171	O517	0.993600	0.431370	0.622900
O5181	O518	0.048400	0.450220	0.663040
O5191	O519	0.839800	0.422400	0.658050
O5201	O520	0.003700	0.426380	0.764580
O5211	O521	0.208500	0.443670	0.745550
O5221	O522	0.000600	0.438190	0.719850
O5231	O523	0.291900	0.392310	0.609560
O5241	O524	0.084700	0.394500	0.581880
O5251	O525	0.276100	0.366900	0.569620
O5261	O526	0.284700	0.398000	0.705290
O5271	O527	0.256800	0.377600	0.665220
O5281	O528	0.457400	0.406790	0.673150
O5291	O529	0.574400	0.379970	0.573390
O5301	O530	0.774400	0.399420	0.593990
O5311	O531	0.800800	0.357590	0.567530
O5321	O532	0.258400	0.301710	0.536120
O5331	O533	0.426100	0.303710	0.501190
O5341	O534	0.466600	0.331200	0.537870
O5351	O535	0.165100	0.334400	0.628350
O5361	O536	0.958200	0.365570	0.629760
O5371	O537	0.971200	0.322220	0.603180
O5381	O538	0.478600	0.347500	0.634910
O5391	O539	0.451300	0.323000	0.594790
O5401	O540	0.677800	0.327150	0.615640
O5411	O541	0.710000	0.412020	0.703790
O5421	O542	0.598800	0.457230	0.670760
O5431	O543	0.698300	0.371980	0.658420
O5441	O544	0.582500	0.416250	0.626330
H1511	H151	0.767200	0.290900	0.526000
H1521	H152	0.337800	0.496900	0.728000
H1531	H153	0.873400	0.463800	0.642500
H1541	H154	0.023900	0.467000	0.748400
H1551	H155	0.289000	0.417900	0.572900
H1561	H156	0.400400	0.358300	0.686600
H1571	H157	0.778100	0.396700	0.552900
H1581	H158	0.401400	0.284600	0.533200
H1591	H159	0.015400	0.327600	0.642800
H1601	H160	0.513700	0.306700	0.633700
F11	F1	0.750000	0.261050	0.000000
F21	F2	0.750000	0.738950	0.500000
F31	F3	0.250000	0.761050	0.500000
F41	F4	0.250000	0.238950	0.000000
F51	F5	0.250000	0.738950	0.000000
F61	F6	0.250000	0.261050	0.500000
F71	F7	0.750000	0.238950	0.500000
F81	F8	0.750000	0.761050	0.000000
F91	F9	0.000000	0.250000	0.008840
F101	F10	0.500000	0.750000	0.508840
F111	F11	0.000000	0.750000	0.491160
F121	F12	0.500000	0.250000	0.991160
F131	F13	0.000000	0.750000	0.991160
F141	F14	0.500000	0.250000	0.491160
F151	F15	0.000000	0.250000	0.508840
F161	F16	0.500000	0.750000	0.008840
