data_GATBUZ_charged_PM
_symmetry_space_group_name_H-M	'P1'
_cell_length_a	9.872700
_cell_length_b	17.513800
_cell_length_c	18.164200
_cell_angle_alpha	92.135700
_cell_angle_beta	90.000000
_cell_angle_gamma	106.371000
_symmetry_Int_Tables_number 1

loop_
_symmetry_equiv_pos_as_xyz
'x,y,z'

loop_
_atom_site_label
_atom_site_type_symbol
_atom_site_fract_x
_atom_site_fract_y
_atom_site_fract_z
Zn11	Zn1	0.350370	0.306140	0.996560
Zn21	Zn2	0.044230	0.693860	0.503440
Zn31	Zn3	0.649630	0.693860	0.003440
Zn41	Zn4	0.955770	0.306140	0.496560
Zn51	Zn5	0.500000	0.500000	0.000000
Zn61	Zn6	0.000000	0.500000	0.500000
H11	H1	0.512700	0.265200	0.777800
H21	H2	0.746600	0.489600	0.834100
H31	H3	0.865400	0.495600	0.722900
H41	H4	0.639000	0.269200	0.668600
H51	H5	0.970900	0.431800	0.109700
H61	H6	0.180500	0.492600	0.918800
H71	H7	0.204100	0.063800	0.066900
H81	H8	0.912600	0.069200	0.913500
H91	H9	0.247500	0.734800	0.722200
H101	H10	0.257000	0.510400	0.665900
H111	H11	0.369800	0.504400	0.777100
H121	H12	0.369800	0.730800	0.831400
H131	H13	0.539100	0.568200	0.390300
H141	H14	0.687900	0.507400	0.581200
H151	H15	0.140300	0.936200	0.433100
H161	H16	0.843400	0.930800	0.586500
H171	H17	0.487300	0.734800	0.222200
H181	H18	0.253400	0.510400	0.165900
H191	H19	0.134600	0.504400	0.277100
H201	H20	0.361000	0.730800	0.331400
H211	H21	0.029100	0.568200	0.890300
H221	H22	0.819500	0.507400	0.081200
H231	H23	0.795900	0.936200	0.933100
H241	H24	0.087400	0.930800	0.086500
H251	H25	0.752500	0.265200	0.277800
H261	H26	0.743000	0.489600	0.334100
H271	H27	0.630200	0.495600	0.222900
H281	H28	0.630200	0.269200	0.168600
H291	H29	0.460900	0.431800	0.609700
H301	H30	0.312100	0.492600	0.418800
H311	H31	0.859700	0.063800	0.566900
H321	H32	0.156600	0.069200	0.413500
C11	C1	0.546740	0.372080	0.890120
C21	C2	0.619910	0.375820	0.817580
C31	C3	0.586580	0.311560	0.767330
C41	C4	0.724230	0.444860	0.800400
C51	C5	0.844060	0.387520	0.614370
C61	C6	0.764870	0.382940	0.684770
C71	C7	0.795200	0.448200	0.734500
C81	C8	0.660100	0.314200	0.701820
C91	C9	0.186610	0.404820	0.035300
C101	C10	0.091790	0.455380	0.017200
C111	C11	0.982730	0.459660	0.065200
C121	C12	0.107470	0.495740	0.951840
C131	C13	0.144070	0.166940	0.976200
C141	C14	0.068570	0.080540	0.988500
C151	C15	0.120540	0.038080	0.039600
C161	C16	0.948740	0.041480	0.949000
C171	C17	0.174660	0.627920	0.609880
C181	C18	0.244090	0.624180	0.682420
C191	C19	0.275020	0.688440	0.732670
C201	C20	0.279370	0.555140	0.699600
C211	C21	0.456540	0.612480	0.885630
C221	C22	0.381930	0.617060	0.815230
C231	C23	0.347000	0.551800	0.765500
C241	C24	0.345900	0.685800	0.798180
C251	C25	0.781790	0.595180	0.464700
C261	C26	0.636410	0.544620	0.482800
C271	C27	0.523070	0.540340	0.434800
C281	C28	0.611730	0.504260	0.548160
C291	C29	0.977130	0.833060	0.523800
C301	C30	0.988030	0.919460	0.511500
C311	C31	0.082460	0.961920	0.460400
C321	C32	0.907260	0.958520	0.551000
C331	C33	0.453260	0.627920	0.109880
C341	C34	0.380090	0.624180	0.182420
C351	C35	0.413420	0.688440	0.232670
C361	C36	0.275770	0.555140	0.199600
C371	C37	0.155940	0.612480	0.385630
C381	C38	0.235130	0.617060	0.315230
C391	C39	0.204800	0.551800	0.265500
C401	C40	0.339900	0.685800	0.298180
C411	C41	0.813390	0.595180	0.964700
C421	C42	0.908210	0.544620	0.982800
C431	C43	0.017270	0.540340	0.934800
C441	C44	0.892530	0.504260	0.048160
C451	C45	0.855930	0.833060	0.023800
C461	C46	0.931430	0.919460	0.011500
C471	C47	0.879460	0.961920	0.960400
C481	C48	0.051260	0.958520	0.051000
C491	C49	0.825340	0.372080	0.390120
C501	C50	0.755910	0.375820	0.317580
C511	C51	0.724980	0.311560	0.267330
C521	C52	0.720630	0.444860	0.300400
C531	C53	0.543460	0.387520	0.114370
C541	C54	0.618070	0.382940	0.184770
C551	C55	0.653000	0.448200	0.234500
C561	C56	0.654100	0.314200	0.201820
C571	C57	0.218210	0.404820	0.535300
C581	C58	0.363590	0.455380	0.517200
C591	C59	0.476930	0.459660	0.565200
C601	C60	0.388270	0.495740	0.451840
C611	C61	0.022870	0.166940	0.476200
C621	C62	0.011970	0.080540	0.488500
C631	C63	0.917540	0.038080	0.539600
C641	C64	0.092740	0.041480	0.449000
O11	O1	0.589540	0.429480	0.935230
O21	O2	0.447780	0.309760	0.901530
O31	O3	0.910090	0.455180	0.594910
O41	O4	0.838660	0.321920	0.581260
O51	O5	0.286910	0.404620	0.990910
O61	O6	0.161970	0.363940	0.090530
O71	O7	0.246140	0.199280	0.020000
O81	O8	0.106410	0.200820	0.925800
O91	O9	0.160060	0.570520	0.564770
O101	O10	0.138020	0.690240	0.598470
O111	O11	0.454910	0.544820	0.905090
O121	O12	0.516740	0.678080	0.918740
O131	O13	0.882290	0.595380	0.509090
O141	O14	0.798030	0.636060	0.409470
O151	O15	0.046860	0.800720	0.480000
O161	O16	0.905590	0.799180	0.574200
O171	O17	0.410460	0.570520	0.064770
O181	O18	0.552220	0.690240	0.098470
O191	O19	0.089910	0.544820	0.405090
O201	O20	0.161340	0.678080	0.418740
O211	O21	0.713090	0.595380	0.009090
O221	O22	0.838030	0.636060	0.909470
O231	O23	0.753860	0.800720	0.980000
O241	O24	0.893590	0.799180	0.074200
O251	O25	0.839940	0.429480	0.435230
O261	O26	0.861980	0.309760	0.401530
O271	O27	0.545090	0.455180	0.094910
O281	O28	0.483260	0.321920	0.081260
O291	O29	0.117710	0.404620	0.490910
O301	O30	0.201970	0.363940	0.590530
O311	O31	0.953140	0.199280	0.520000
O321	O32	0.094410	0.200820	0.425800
H331	H33	0.201800	0.284200	0.161300
H341	H34	0.072300	0.217200	0.169400
H351	H35	0.281500	0.179000	0.161700
H361	H36	0.320200	0.221400	0.241800
H371	H37	0.214300	0.084400	0.253400
H381	H38	0.114700	0.133200	0.289500
H391	H39	0.077300	0.090600	0.209700
H401	H40	0.070300	0.248200	0.294700
H411	H41	0.042800	0.314600	0.243200
H421	H42	0.199700	0.372600	0.335600
H431	H43	0.303100	0.321400	0.309000
H441	H44	0.275400	0.387800	0.257500
C651	C65	0.241100	0.193400	0.208300
C661	C66	0.154200	0.118800	0.243300
C671	C67	0.114300	0.288200	0.258200
C681	C68	0.232700	0.347200	0.292900
N11	N1	0.153710	0.246620	0.193100
H451	H45	0.917600	0.715800	0.338700
H461	H46	0.855100	0.782800	0.330600
H471	H47	0.102500	0.821000	0.338300
H481	H48	0.098800	0.778600	0.258200
H491	H49	0.129900	0.915600	0.246600
H501	H50	0.981500	0.866800	0.210500
H511	H51	0.986700	0.909400	0.290300
H521	H52	0.822100	0.751800	0.205300
H531	H53	0.728200	0.685400	0.256800
H541	H54	0.827100	0.627400	0.164400
H551	H55	0.981700	0.678600	0.191000
H561	H56	0.887600	0.612200	0.242500
C691	C69	0.047700	0.806600	0.291700
C701	C70	0.035400	0.881200	0.256700
C711	C71	0.826100	0.711800	0.241800
C721	C72	0.885500	0.652800	0.207100
N21	N2	0.907090	0.753380	0.306900
H571	H57	0.798200	0.715800	0.838700
H581	H58	0.927700	0.782800	0.830600
H591	H59	0.718500	0.821000	0.838300
H601	H60	0.679800	0.778600	0.758200
H611	H61	0.785700	0.915600	0.746600
H621	H62	0.885300	0.866800	0.710500
H631	H63	0.922700	0.909400	0.790300
H641	H64	0.929700	0.751800	0.705300
H651	H65	0.957200	0.685400	0.756800
H661	H66	0.800300	0.627400	0.664400
H671	H67	0.696900	0.678600	0.691000
H681	H68	0.724600	0.612200	0.742500
C731	C73	0.758900	0.806600	0.791700
C741	C74	0.845800	0.881200	0.756700
C751	C75	0.885700	0.711800	0.741800
C761	C76	0.767300	0.652800	0.707100
N31	N3	0.846290	0.753380	0.806900
H691	H69	0.082400	0.284200	0.661300
H701	H70	0.144900	0.217200	0.669400
H711	H71	0.897500	0.179000	0.661700
H721	H72	0.901200	0.221400	0.741800
H731	H73	0.870100	0.084400	0.753400
H741	H74	0.018500	0.133200	0.789500
H751	H75	0.013300	0.090600	0.709700
H761	H76	0.177900	0.248200	0.794700
H771	H77	0.271800	0.314600	0.743200
H781	H78	0.172900	0.372600	0.835600
H791	H79	0.018300	0.321400	0.809000
H801	H80	0.112400	0.387800	0.757500
C771	C77	0.952300	0.193400	0.708300
C781	C78	0.964600	0.118800	0.743300
C791	C79	0.173900	0.288200	0.758200
C801	C80	0.114500	0.347200	0.792900
N41	N4	0.092910	0.246620	0.693100
