data_GATHAL_freeONLY_PM
_symmetry_space_group_name_H-M	'P1'
_cell_length_a	8.755020
_cell_length_b	11.273900
_cell_length_c	17.751900
_cell_angle_alpha	84.505700
_cell_angle_beta	75.724200
_cell_angle_gamma	67.152200
_symmetry_Int_Tables_number 1

loop_
_symmetry_equiv_pos_as_xyz
'x,y,z'

loop_
_atom_site_label
_atom_site_type_symbol
_atom_site_fract_x
_atom_site_fract_y
_atom_site_fract_z
Sc11	Sc1	0.635670	0.250000	0.228660
Sc21	Sc2	0.114330	0.250000	0.271340
Sc31	Sc3	0.364330	0.750000	0.771340
Sc41	Sc4	0.885670	0.750000	0.728660
H11	H1	0.725800	0.047200	0.015200
H21	H2	0.246900	0.065400	0.093200
H31	H3	0.842000	0.861800	0.247400
H41	H4	0.759000	0.452800	0.015200
H51	H5	0.159900	0.434600	0.093200
H61	H6	0.410600	0.638200	0.247400
H71	H7	0.227000	0.047200	0.484800
H81	H8	0.687700	0.065400	0.406800
H91	H9	0.296200	0.861800	0.252600
H101	H10	0.788200	0.452800	0.484800
H111	H11	0.405500	0.434600	0.406800
H121	H12	0.951200	0.638200	0.252600
H131	H13	0.274200	0.952800	0.984800
H141	H14	0.753100	0.934600	0.906800
H151	H15	0.158000	0.138200	0.752600
H161	H16	0.241000	0.547200	0.984800
H171	H17	0.840100	0.565400	0.906800
H181	H18	0.589400	0.361800	0.752600
H191	H19	0.773000	0.952800	0.515200
H201	H20	0.312300	0.934600	0.593200
H211	H21	0.703800	0.138200	0.747400
H221	H22	0.211800	0.547200	0.515200
H231	H23	0.594500	0.565400	0.593200
H241	H24	0.048800	0.361800	0.747400
C11	C1	0.465050	0.139420	0.135240
C21	C2	0.483470	0.067440	0.065080
C31	C3	0.634990	0.028360	0.009280
C41	C4	0.348770	0.039140	0.055760
C51	C5	0.955380	0.817120	0.249140
C61	C6	0.899710	0.360580	0.135240
C71	C7	0.951450	0.432560	0.065080
C81	C8	0.855730	0.471640	0.009280
C91	C9	0.095470	0.460860	0.055760
C101	C10	0.295480	0.682880	0.249140
C111	C11	0.395530	0.139420	0.364760
C121	C12	0.449090	0.067440	0.434920
C131	C13	0.336650	0.028360	0.490720
C141	C14	0.612090	0.039140	0.444240
C151	C15	0.227500	0.817120	0.250860
C161	C16	0.739710	0.360580	0.364760
C171	C17	0.615990	0.432560	0.434920
C181	C18	0.672630	0.471640	0.490720
C191	C19	0.443670	0.460860	0.444240
C201	C20	0.021640	0.682880	0.250860
C211	C21	0.534950	0.860580	0.864760
C221	C22	0.516530	0.932560	0.934920
C231	C23	0.365010	0.971640	0.990720
C241	C24	0.651230	0.960860	0.944240
C251	C25	0.044620	0.182880	0.750860
C261	C26	0.100290	0.639420	0.864760
C271	C27	0.048550	0.567440	0.934920
C281	C28	0.144270	0.528360	0.990720
C291	C29	0.904530	0.539140	0.944240
C301	C30	0.704520	0.317120	0.750860
C311	C31	0.604470	0.860580	0.635240
C321	C32	0.550910	0.932560	0.565080
C331	C33	0.663350	0.971640	0.509280
C341	C34	0.387910	0.960860	0.555760
C351	C35	0.772500	0.182880	0.749140
C361	C36	0.260290	0.639420	0.635240
C371	C37	0.384010	0.567440	0.565080
C381	C38	0.327370	0.528360	0.509280
C391	C39	0.556330	0.539140	0.555760
C401	C40	0.978360	0.317120	0.749140
C411	C41	0.986380	0.027240	0.250000
C421	C42	0.058260	0.883480	0.250000
C431	C43	0.263620	0.472760	0.250000
C441	C44	0.191740	0.616520	0.250000
C451	C45	0.013620	0.972760	0.750000
C461	C46	0.941740	0.116520	0.750000
C471	C47	0.736380	0.527240	0.750000
C481	C48	0.808260	0.383480	0.750000
O11	O1	0.587620	0.166720	0.140920
O21	O2	0.327870	0.168440	0.185140
O31	O3	0.848790	0.083280	0.229420
O41	O4	0.771460	0.333280	0.140920
O51	O5	0.986990	0.331560	0.185140
O61	O6	0.421790	0.416720	0.229420
O71	O7	0.245660	0.166720	0.359080
O81	O8	0.503690	0.168440	0.314860
O91	O9	0.067930	0.083280	0.270580
O101	O10	0.895260	0.333280	0.359080
O111	O11	0.681450	0.331560	0.314860
O121	O12	0.161490	0.416720	0.270580
O131	O13	0.412380	0.833280	0.859080
O141	O14	0.672130	0.831560	0.814860
O151	O15	0.151210	0.916720	0.770580
O161	O16	0.228540	0.666720	0.859080
O171	O17	0.013010	0.668440	0.814860
O181	O18	0.578210	0.583280	0.770580
O191	O19	0.754340	0.833280	0.640920
O201	O20	0.496310	0.831560	0.685140
O211	O21	0.932070	0.916720	0.729420
O221	O22	0.104740	0.666720	0.640920
O231	O23	0.318550	0.668440	0.685140
O241	O24	0.838510	0.583280	0.729420
