data_GAXDIS10_freeONLY_PM
_symmetry_space_group_name_H-M	'P1'
_cell_length_a	8.721000
_cell_length_b	11.026000
_cell_length_c	13.540000
_cell_angle_alpha	90.000000
_cell_angle_beta	90.000000
_cell_angle_gamma	90.000000
_symmetry_Int_Tables_number 1

loop_
_symmetry_equiv_pos_as_xyz
'x,y,z'

loop_
_atom_site_label
_atom_site_type_symbol
_atom_site_fract_x
_atom_site_fract_y
_atom_site_fract_z
Cd11	Cd1	0.000000	0.767680	0.000000
Cd21	Cd2	0.500000	0.232320	0.500000
Cd31	Cd3	0.500000	0.069470	0.102510
Cd41	Cd4	0.500000	0.486630	0.864650
Cd51	Cd5	0.000000	0.930530	0.602510
Cd61	Cd6	0.000000	0.513370	0.364650
C11	C1	0.708500	0.958800	0.065600
C21	C2	0.708600	0.581800	0.912700
C31	C3	0.791500	0.041200	0.565600
C41	C4	0.791400	0.418200	0.412700
C51	C5	0.208500	0.041200	0.565600
C61	C6	0.208600	0.418200	0.412700
C71	C7	0.291500	0.958800	0.065600
C81	C8	0.291400	0.581800	0.912700
C91	C9	0.000000	0.881100	0.759400
C101	C10	0.000000	0.616100	0.223000
C111	C11	0.500000	0.118900	0.259400
C121	C12	0.500000	0.383900	0.723000
C131	C13	0.500000	0.244000	0.017900
C141	C14	0.500000	0.325900	0.968200
C151	C15	0.000000	0.756000	0.517900
C161	C16	0.000000	0.674100	0.468200
N11	N1	0.809300	0.899800	0.046000
N21	N2	0.808700	0.634700	0.941700
N31	N3	0.690700	0.100200	0.546000
N41	N4	0.691300	0.365300	0.441700
N51	N5	0.309300	0.100200	0.546000
N61	N6	0.308700	0.365300	0.441700
N71	N7	0.190700	0.899800	0.046000
N81	N8	0.191300	0.634700	0.941700
N91	N9	0.000000	0.850700	0.838500
N101	N10	0.000000	0.666300	0.149200
N111	N11	0.500000	0.149300	0.338500
N121	N12	0.500000	0.333700	0.649200
