data_GAZZIS04_charged_PM
_symmetry_space_group_name_H-M	'P1'
_cell_length_a	17.371200
_cell_length_b	17.371200
_cell_length_c	26.785000
_cell_angle_alpha	93.391300
_cell_angle_beta	93.391300
_cell_angle_gamma	111.133000
_symmetry_Int_Tables_number 1

loop_
_symmetry_equiv_pos_as_xyz
'x,y,z'

loop_
_atom_site_label
_atom_site_type_symbol
_atom_site_fract_x
_atom_site_fract_y
_atom_site_fract_z
In11	In1	0.372020	0.855780	0.884570
In21	In2	0.855780	0.372020	0.384570
H11	H1	0.211400	0.762800	0.023600
H21	H2	0.094200	0.683800	0.059800
H31	H3	0.969900	0.620900	0.923700
H41	H4	0.086400	0.701800	0.888000
H51	H5	0.798000	0.342200	0.211500
H61	H6	0.794100	0.374300	0.129600
H71	H7	0.981500	0.591900	0.167400
H81	H8	0.983900	0.560900	0.249900
H91	H9	0.391500	0.139500	0.869000
H101	H10	0.462500	0.281100	0.883200
H111	H11	0.597600	0.241800	0.999500
H121	H12	0.530600	0.102000	0.983100
H131	H13	0.576200	0.763600	0.955900
H141	H14	0.633300	0.670100	0.978100
H151	H15	0.454000	0.489600	0.892600
H161	H16	0.393900	0.585300	0.868400
H171	H17	0.757800	0.446800	0.072900
H181	H18	0.859900	0.583300	0.960300
H191	H19	0.002000	0.578200	0.083500
H201	H20	0.709100	0.594900	0.973100
H211	H21	0.689800	0.359400	0.986500
H221	H22	0.497300	0.406500	0.922600
H231	H23	0.762800	0.211400	0.523600
H241	H24	0.683800	0.094200	0.559800
H251	H25	0.620900	0.969900	0.423700
H261	H26	0.701800	0.086400	0.388000
H271	H27	0.342200	0.798000	0.711500
H281	H28	0.374300	0.794100	0.629600
H291	H29	0.591900	0.981500	0.667400
H301	H30	0.560900	0.983900	0.749900
H311	H31	0.139500	0.391500	0.369000
H321	H32	0.281100	0.462500	0.383200
H331	H33	0.241800	0.597600	0.499500
H341	H34	0.102000	0.530600	0.483100
H351	H35	0.763600	0.576200	0.455900
H361	H36	0.670100	0.633300	0.478100
H371	H37	0.489600	0.454000	0.392600
H381	H38	0.585300	0.393900	0.368400
H391	H39	0.446800	0.757800	0.572900
H401	H40	0.583300	0.859900	0.460300
H411	H41	0.578200	0.002000	0.583500
H421	H42	0.594900	0.709100	0.473100
H431	H43	0.359400	0.689800	0.486500
H441	H44	0.406500	0.497300	0.422600
C11	C1	0.160930	0.740930	0.952700
C21	C2	0.162200	0.734400	0.003150
C31	C3	0.092130	0.686670	0.024870
C41	C4	0.018470	0.642810	0.995250
C51	C5	0.018750	0.649850	0.944450
C61	C6	0.088340	0.698060	0.922840
C71	C7	0.890480	0.448920	0.239040
C81	C8	0.834610	0.393250	0.202590
C91	C9	0.832560	0.412440	0.153780
C101	C10	0.886650	0.487790	0.139280
C111	C11	0.943460	0.541640	0.176300
C121	C12	0.945420	0.523180	0.225510
C131	C13	0.456290	0.106230	0.923900
C141	C14	0.434620	0.160520	0.894770
C151	C15	0.476270	0.245050	0.903640
C161	C16	0.538910	0.277470	0.942910
C171	C17	0.556800	0.221480	0.972370
C181	C18	0.516670	0.138090	0.962790
C191	C19	0.481460	0.684020	0.909600
C201	C20	0.556850	0.570970	0.932890
C211	C21	0.552100	0.708300	0.942100
C221	C22	0.587000	0.652800	0.954300
C231	C23	0.480800	0.546000	0.903500
C241	C24	0.442800	0.602400	0.889800
C251	C25	0.880800	0.510920	0.087420
C261	C26	0.804470	0.483690	0.059490
C271	C27	0.795840	0.510020	0.011990
C281	C28	0.865620	0.563860	0.991770
C291	C29	0.943860	0.588860	0.018180
C301	C30	0.949710	0.561690	0.065600
C311	C31	0.596180	0.510660	0.946360
C321	C32	0.677430	0.537850	0.968660
C331	C33	0.711650	0.481430	0.984300
C341	C34	0.666050	0.397230	0.976010
C351	C35	0.586290	0.367570	0.952620
C361	C36	0.551540	0.425520	0.938120
C371	C37	0.237140	0.789340	0.929070
C381	C38	0.890230	0.431370	0.294060
C391	C39	0.417420	0.014780	0.911430
C401	C40	0.440430	0.744030	0.899110
C411	C41	0.740930	0.160930	0.452700
C421	C42	0.734400	0.162200	0.503150
C431	C43	0.686670	0.092130	0.524870
C441	C44	0.642810	0.018470	0.495250
C451	C45	0.649850	0.018750	0.444450
C461	C46	0.698060	0.088340	0.422840
C471	C47	0.448920	0.890480	0.739040
C481	C48	0.393250	0.834610	0.702590
C491	C49	0.412440	0.832560	0.653780
C501	C50	0.487790	0.886650	0.639280
C511	C51	0.541640	0.943460	0.676300
C521	C52	0.523180	0.945420	0.725510
C531	C53	0.106230	0.456290	0.423900
C541	C54	0.160520	0.434620	0.394770
C551	C55	0.245050	0.476270	0.403640
C561	C56	0.277470	0.538910	0.442910
C571	C57	0.221480	0.556800	0.472370
C581	C58	0.138090	0.516670	0.462790
C591	C59	0.684020	0.481460	0.409600
C601	C60	0.570970	0.556850	0.432890
C611	C61	0.708300	0.552100	0.442100
C621	C62	0.652800	0.587000	0.454300
C631	C63	0.546000	0.480800	0.403500
C641	C64	0.602400	0.442800	0.389800
C651	C65	0.510920	0.880800	0.587420
C661	C66	0.483690	0.804470	0.559490
C671	C67	0.510020	0.795840	0.511990
C681	C68	0.563860	0.865620	0.491770
C691	C69	0.588860	0.943860	0.518180
C701	C70	0.561690	0.949710	0.565600
C711	C71	0.510660	0.596180	0.446360
C721	C72	0.537850	0.677430	0.468660
C731	C73	0.481430	0.711650	0.484300
C741	C74	0.397230	0.666050	0.476010
C751	C75	0.367570	0.586290	0.452620
C761	C76	0.425520	0.551540	0.438120
C771	C77	0.789340	0.237140	0.429070
C781	C78	0.431370	0.890230	0.794060
C791	C79	0.014780	0.417420	0.411430
C801	C80	0.744030	0.440430	0.399110
O11	O1	0.234770	0.795990	0.882680
O21	O2	0.305300	0.821860	0.955540
O31	O3	0.839250	0.362490	0.304370
O41	O4	0.938580	0.483820	0.326070
O51	O5	0.354520	0.982960	0.880550
O61	O6	0.451740	0.969320	0.931120
O71	O7	0.481050	0.820490	0.905870
O81	O8	0.365580	0.718940	0.884280
O91	O9	0.795990	0.234770	0.382680
O101	O10	0.821860	0.305300	0.455540
O111	O11	0.362490	0.839250	0.804370
O121	O12	0.483820	0.938580	0.826070
O131	O13	0.982960	0.354520	0.380550
O141	O14	0.969320	0.451740	0.431120
O151	O15	0.820490	0.481050	0.405870
O161	O16	0.718940	0.365580	0.384280
In31	In3	0.144220	0.627980	0.615430
In41	In4	0.627980	0.144220	0.115430
H451	H45	0.237200	0.788600	0.476400
H461	H46	0.316200	0.905800	0.440200
H471	H47	0.379100	0.030100	0.576300
H481	H48	0.298200	0.913600	0.612000
H491	H49	0.657800	0.202000	0.288500
H501	H50	0.625700	0.205900	0.370400
H511	H51	0.408100	0.018500	0.332600
H521	H52	0.439100	0.016100	0.250100
H531	H53	0.860500	0.608500	0.631000
H541	H54	0.718900	0.537500	0.616800
H551	H55	0.758200	0.402400	0.500500
H561	H56	0.898000	0.469400	0.516900
H571	H57	0.236400	0.423800	0.544100
H581	H58	0.329900	0.366700	0.521900
H591	H59	0.510400	0.546000	0.607400
H601	H60	0.414700	0.606100	0.631600
H611	H61	0.553200	0.242200	0.427100
H621	H62	0.416700	0.140100	0.539700
H631	H63	0.421800	0.998000	0.416500
H641	H64	0.405100	0.290900	0.526900
H651	H65	0.640600	0.310200	0.513500
H661	H66	0.593500	0.502700	0.577400
H671	H67	0.788600	0.237200	0.976400
H681	H68	0.905800	0.316200	0.940200
H691	H69	0.030100	0.379100	0.076300
H701	H70	0.913600	0.298200	0.112000
H711	H71	0.202000	0.657800	0.788500
H721	H72	0.205900	0.625700	0.870400
H731	H73	0.018500	0.408100	0.832600
H741	H74	0.016100	0.439100	0.750100
H751	H75	0.608500	0.860500	0.131000
H761	H76	0.537500	0.718900	0.116800
H771	H77	0.402400	0.758200	0.000500
H781	H78	0.469400	0.898000	0.016900
H791	H79	0.423800	0.236400	0.044100
H801	H80	0.366700	0.329900	0.021900
H811	H81	0.546000	0.510400	0.107400
H821	H82	0.606100	0.414700	0.131600
H831	H83	0.242200	0.553200	0.927100
H841	H84	0.140100	0.416700	0.039700
H851	H85	0.998000	0.421800	0.916500
H861	H86	0.290900	0.405100	0.026900
H871	H87	0.310200	0.640600	0.013500
H881	H88	0.502700	0.593500	0.077400
C811	C81	0.259070	0.839070	0.547300
C821	C82	0.265600	0.837800	0.496850
C831	C83	0.313330	0.907870	0.475130
C841	C84	0.357190	0.981530	0.504750
C851	C85	0.350150	0.981250	0.555550
C861	C86	0.301940	0.911660	0.577160
C871	C87	0.551080	0.109520	0.260960
C881	C88	0.606750	0.165390	0.297410
C891	C89	0.587560	0.167440	0.346220
C901	C90	0.512210	0.113350	0.360720
C911	C91	0.458360	0.056540	0.323700
C921	C92	0.476820	0.054580	0.274490
C931	C93	0.893770	0.543710	0.576100
C941	C94	0.839480	0.565380	0.605230
C951	C95	0.754950	0.523730	0.596360
C961	C96	0.722530	0.461090	0.557090
C971	C97	0.778520	0.443200	0.527630
C981	C98	0.861910	0.483330	0.537210
C991	C99	0.315980	0.518540	0.590400
C1001	C100	0.429030	0.443150	0.567110
C1011	C101	0.291700	0.447900	0.557900
C1021	C102	0.347200	0.413000	0.545700
C1031	C103	0.454000	0.519200	0.596500
C1041	C104	0.397600	0.557200	0.610200
C1051	C105	0.489080	0.119200	0.412580
C1061	C106	0.516310	0.195530	0.440510
C1071	C107	0.489980	0.204160	0.488010
C1081	C108	0.436140	0.134380	0.508230
C1091	C109	0.411140	0.056140	0.481820
C1101	C110	0.438310	0.050290	0.434400
C1111	C111	0.489340	0.403820	0.553640
C1121	C112	0.462150	0.322570	0.531340
C1131	C113	0.518570	0.288350	0.515700
C1141	C114	0.602770	0.333950	0.523990
C1151	C115	0.632430	0.413710	0.547380
C1161	C116	0.574480	0.448460	0.561880
C1171	C117	0.210660	0.762860	0.570930
C1181	C118	0.568630	0.109770	0.205940
C1191	C119	0.985220	0.582580	0.588570
C1201	C120	0.255970	0.559570	0.600890
C1211	C121	0.839070	0.259070	0.047300
C1221	C122	0.837800	0.265600	0.996850
C1231	C123	0.907870	0.313330	0.975130
C1241	C124	0.981530	0.357190	0.004750
C1251	C125	0.981250	0.350150	0.055550
C1261	C126	0.911660	0.301940	0.077160
C1271	C127	0.109520	0.551080	0.760960
C1281	C128	0.165390	0.606750	0.797410
C1291	C129	0.167440	0.587560	0.846220
C1301	C130	0.113350	0.512210	0.860720
C1311	C131	0.056540	0.458360	0.823700
C1321	C132	0.054580	0.476820	0.774490
C1331	C133	0.543710	0.893770	0.076100
C1341	C134	0.565380	0.839480	0.105230
C1351	C135	0.523730	0.754950	0.096360
C1361	C136	0.461090	0.722530	0.057090
C1371	C137	0.443200	0.778520	0.027630
C1381	C138	0.483330	0.861910	0.037210
C1391	C139	0.518540	0.315980	0.090400
C1401	C140	0.443150	0.429030	0.067110
C1411	C141	0.447900	0.291700	0.057900
C1421	C142	0.413000	0.347200	0.045700
C1431	C143	0.519200	0.454000	0.096500
C1441	C144	0.557200	0.397600	0.110200
C1451	C145	0.119200	0.489080	0.912580
C1461	C146	0.195530	0.516310	0.940510
C1471	C147	0.204160	0.489980	0.988010
C1481	C148	0.134380	0.436140	0.008230
C1491	C149	0.056140	0.411140	0.981820
C1501	C150	0.050290	0.438310	0.934400
C1511	C151	0.403820	0.489340	0.053640
C1521	C152	0.322570	0.462150	0.031340
C1531	C153	0.288350	0.518570	0.015700
C1541	C154	0.333950	0.602770	0.023990
C1551	C155	0.413710	0.632430	0.047380
C1561	C156	0.448460	0.574480	0.061880
C1571	C157	0.762860	0.210660	0.070930
C1581	C158	0.109770	0.568630	0.705940
C1591	C159	0.582580	0.985220	0.088570
C1601	C160	0.559570	0.255970	0.100890
O171	O17	0.204010	0.765230	0.617320
O181	O18	0.178140	0.694700	0.544460
O191	O19	0.637510	0.160750	0.195630
O201	O20	0.516180	0.061420	0.173930
O211	O21	0.017040	0.645480	0.619450
O221	O22	0.030680	0.548260	0.568880
O231	O23	0.179510	0.518950	0.594130
O241	O24	0.281060	0.634420	0.615720
O251	O25	0.765230	0.204010	0.117320
O261	O26	0.694700	0.178140	0.044460
O271	O27	0.160750	0.637510	0.695630
O281	O28	0.061420	0.516180	0.673930
O291	O29	0.645480	0.017040	0.119450
O301	O30	0.548260	0.030680	0.068880
O311	O31	0.518950	0.179510	0.094130
O321	O32	0.634420	0.281060	0.115720
H891	H89	0.636800	0.951000	0.887000
H901	H90	0.566000	0.968800	0.905000
H911	H91	0.630400	0.931600	0.969400
H921	H92	0.713400	0.005200	0.960600
H931	H93	0.637200	0.024600	0.979900
H941	H94	0.632300	0.068900	0.856400
H951	H95	0.642100	0.107700	0.912500
H961	H96	0.715600	0.086600	0.890400
C1611	C161	0.653400	0.987000	0.958500
C1621	C162	0.655900	0.069300	0.890200
N11	N1	0.622220	0.986580	0.907170
H971	H97	0.049000	0.363200	0.613000
H981	H98	0.031200	0.434000	0.595000
H991	H99	0.068400	0.369600	0.530600
H1001	H100	0.994800	0.286600	0.539400
H1011	H101	0.975400	0.362800	0.520100
H1021	H102	0.931100	0.367700	0.643600
H1031	H103	0.892300	0.357900	0.587500
H1041	H104	0.913400	0.284400	0.609600
C1631	C163	0.013000	0.346600	0.541500
C1641	C164	0.930700	0.344100	0.609800
N21	N2	0.013420	0.377780	0.592830
H1051	H105	0.363200	0.049000	0.113000
H1061	H106	0.434000	0.031200	0.095000
H1071	H107	0.369600	0.068400	0.030600
H1081	H108	0.286600	0.994800	0.039400
H1091	H109	0.362800	0.975400	0.020100
H1101	H110	0.367700	0.931100	0.143600
H1111	H111	0.357900	0.892300	0.087500
H1121	H112	0.284400	0.913400	0.109600
C1651	C165	0.346600	0.013000	0.041500
C1661	C166	0.344100	0.930700	0.109800
N31	N3	0.377780	0.013420	0.092830
H1131	H113	0.951000	0.636800	0.387000
H1141	H114	0.968800	0.566000	0.405000
H1151	H115	0.931600	0.630400	0.469400
H1161	H116	0.005200	0.713400	0.460600
H1171	H117	0.024600	0.637200	0.479900
H1181	H118	0.068900	0.632300	0.356400
H1191	H119	0.107700	0.642100	0.412500
H1201	H120	0.086600	0.715600	0.390400
C1671	C167	0.987000	0.653400	0.458500
C1681	C168	0.069300	0.655900	0.390200
N41	N4	0.986580	0.622220	0.407170
