data_GECRAI_charged_PM
_symmetry_space_group_name_H-M	'P1'
_cell_length_a	8.908800
_cell_length_b	8.908800
_cell_length_c	18.781500
_cell_angle_alpha	82.778600
_cell_angle_beta	82.778600
_cell_angle_gamma	70.178000
_symmetry_Int_Tables_number 1

loop_
_symmetry_equiv_pos_as_xyz
'x,y,z'

loop_
_atom_site_label
_atom_site_type_symbol
_atom_site_fract_x
_atom_site_fract_y
_atom_site_fract_z
V11	V1	0.467120	0.223500	0.088490
V21	V2	0.333610	0.206890	0.282940
V31	V3	0.776500	0.532880	0.411510
V41	V4	0.793110	0.666390	0.217060
V51	V5	0.532880	0.776500	0.911510
V61	V6	0.666390	0.793110	0.717060
V71	V7	0.223500	0.467120	0.588490
V81	V8	0.206890	0.333610	0.782940
P11	P1	0.179290	0.500410	0.171480
P21	P2	0.598900	0.837080	0.073920
P31	P3	0.499590	0.820710	0.328520
P41	P4	0.162920	0.401100	0.426080
P51	P5	0.820710	0.499590	0.828520
P61	P6	0.401100	0.162920	0.926080
P71	P7	0.500410	0.179290	0.671480
P81	P8	0.837080	0.598900	0.573920
H11	H1	0.138400	0.749000	0.107700
H21	H2	0.165300	0.757500	0.189500
H31	H3	0.368300	0.903700	0.152400
H41	H4	0.323500	0.910100	0.072000
H51	H5	0.446300	0.622100	0.164000
H61	H6	0.417200	0.621600	0.081600
H71	H7	0.501000	0.089000	0.196000
H81	H8	0.251000	0.861600	0.392300
H91	H9	0.242500	0.834700	0.310500
H101	H10	0.096300	0.631700	0.347600
H111	H11	0.089900	0.676500	0.428000
H121	H12	0.377900	0.553700	0.336000
H131	H13	0.378400	0.582800	0.418400
H141	H14	0.911000	0.499000	0.304000
H151	H15	0.861600	0.251000	0.892300
H161	H16	0.834700	0.242500	0.810500
H171	H17	0.631700	0.096300	0.847600
H181	H18	0.676500	0.089900	0.928000
H191	H19	0.553700	0.377900	0.836000
H201	H20	0.582800	0.378400	0.918400
H211	H21	0.499000	0.911000	0.804000
H221	H22	0.749000	0.138400	0.607700
H231	H23	0.757500	0.165300	0.689500
H241	H24	0.903700	0.368300	0.652400
H251	H25	0.910100	0.323500	0.572000
H261	H26	0.622100	0.446300	0.664000
H271	H27	0.621600	0.417200	0.581600
H281	H28	0.089000	0.501000	0.696000
C11	C1	0.204750	0.692750	0.147710
C21	C2	0.398170	0.846970	0.108030
C31	C3	0.378930	0.681930	0.124850
C41	C4	0.307250	0.795250	0.352290
C51	C5	0.153030	0.601830	0.391970
C61	C6	0.318070	0.621070	0.375150
C71	C7	0.795250	0.307250	0.852290
C81	C8	0.601830	0.153030	0.891970
C91	C9	0.621070	0.318070	0.875150
C101	C10	0.692750	0.204750	0.647710
C111	C11	0.846970	0.398170	0.608030
C121	C12	0.681930	0.378930	0.624850
O11	O1	0.616120	0.001720	0.075570
O21	O2	0.631350	0.785550	0.997240
O31	O3	0.589260	0.321060	0.069180
O41	O4	0.462200	0.150600	0.190400
O51	O5	0.263530	0.393950	0.110240
O61	O6	0.253390	0.432990	0.242490
O71	O7	0.177470	0.157470	0.275840
O81	O8	0.001410	0.521510	0.175600
O91	O9	0.719630	0.709790	0.119250
O101	O10	0.569700	0.269700	0.300170
O111	O11	0.998280	0.383880	0.424430
O121	O12	0.214450	0.368650	0.502760
O131	O13	0.678940	0.410740	0.430820
O141	O14	0.849400	0.537800	0.309600
O151	O15	0.606050	0.736470	0.389760
O161	O16	0.567010	0.746610	0.257510
O171	O17	0.842530	0.822530	0.224160
O181	O18	0.478490	0.998590	0.324400
O191	O19	0.290210	0.280370	0.380750
O201	O20	0.730300	0.430300	0.199830
O211	O21	0.383880	0.998280	0.924430
O221	O22	0.368650	0.214450	0.002760
O231	O23	0.410740	0.678940	0.930820
O241	O24	0.537800	0.849400	0.809600
O251	O25	0.736470	0.606050	0.889760
O261	O26	0.746610	0.567010	0.757510
O271	O27	0.822530	0.842530	0.724160
O281	O28	0.998590	0.478490	0.824400
O291	O29	0.280370	0.290210	0.880750
O301	O30	0.430300	0.730300	0.699830
O311	O31	0.001720	0.616120	0.575570
O321	O32	0.785550	0.631350	0.497240
O331	O33	0.321060	0.589260	0.569180
O341	O34	0.150600	0.462200	0.690400
O351	O35	0.393950	0.263530	0.610240
O361	O36	0.432990	0.253390	0.742490
O371	O37	0.157470	0.177470	0.775840
O381	O38	0.521510	0.001410	0.675600
O391	O39	0.709790	0.719630	0.619250
O401	O40	0.269700	0.569700	0.800170
H291	H29	0.656500	0.184900	0.454600
H301	H30	0.506600	0.238800	0.502900
H311	H31	0.500300	0.201700	0.428600
H321	H32	0.632700	0.987900	0.537600
H331	H33	0.646300	0.943500	0.456500
H341	H34	0.343500	0.815100	0.545400
H351	H35	0.493400	0.761200	0.497100
H361	H36	0.499700	0.798300	0.571400
H371	H37	0.367300	0.012100	0.462400
H381	H38	0.353700	0.056500	0.543500
C131	C13	0.577700	0.014700	0.492730
C141	C14	0.422300	0.985300	0.507270
N11	N1	0.558700	0.173900	0.467490
N21	N2	0.441300	0.826100	0.532510
H391	H39	0.815100	0.343500	0.045400
H401	H40	0.761200	0.493400	0.997100
H411	H41	0.798300	0.499700	0.071400
H421	H42	0.012100	0.367300	0.962400
H431	H43	0.056500	0.353700	0.043500
H441	H44	0.184900	0.656500	0.954600
H451	H45	0.238800	0.506600	0.002900
H461	H46	0.201700	0.500300	0.928600
H471	H47	0.987900	0.632700	0.037600
H481	H48	0.943500	0.646300	0.956500
C151	C15	0.985300	0.422300	0.007270
C161	C16	0.014700	0.577700	0.992730
N31	N3	0.826100	0.441300	0.032510
N41	N4	0.173900	0.558700	0.967490
