data_GEDDAW_freeONLY_PM
_symmetry_space_group_name_H-M	'P1'
_cell_length_a	18.516700
_cell_length_b	18.516700
_cell_length_c	18.516700
_cell_angle_alpha	95.450700
_cell_angle_beta	95.450700
_cell_angle_gamma	95.450700
_symmetry_Int_Tables_number 1

loop_
_symmetry_equiv_pos_as_xyz
'x,y,z'

loop_
_atom_site_label
_atom_site_type_symbol
_atom_site_fract_x
_atom_site_fract_y
_atom_site_fract_z
Co11	Co1	0.918210	0.724380	0.246530
Co21	Co2	0.778770	0.294990	0.083900
Co31	Co3	0.871630	0.961710	0.256060
Co41	Co4	0.793690	0.796170	0.322630
Co51	Co5	0.246530	0.918210	0.724380
Co61	Co6	0.083900	0.778770	0.294990
Co71	Co7	0.256060	0.871630	0.961710
Co81	Co8	0.322630	0.793690	0.796170
Co91	Co9	0.724380	0.246530	0.918210
Co101	Co10	0.294990	0.083900	0.778770
Co111	Co11	0.961710	0.256060	0.871630
Co121	Co12	0.796170	0.322630	0.793690
Co131	Co13	0.081790	0.275620	0.753470
Co141	Co14	0.221230	0.705010	0.916100
Co151	Co15	0.128370	0.038290	0.743940
Co161	Co16	0.206310	0.203830	0.677370
Co171	Co17	0.753470	0.081790	0.275620
Co181	Co18	0.916100	0.221230	0.705010
Co191	Co19	0.743940	0.128370	0.038290
Co201	Co20	0.677370	0.206310	0.203830
Co211	Co21	0.275620	0.753470	0.081790
Co221	Co22	0.705010	0.916100	0.221230
Co231	Co23	0.038290	0.743940	0.128370
Co241	Co24	0.203830	0.677370	0.206310
H11	H1	0.689000	0.608500	0.379100
H21	H2	0.610900	0.501600	0.376600
H31	H3	0.626700	0.398300	0.301800
H41	H4	0.800900	0.506000	0.228700
H51	H5	0.988800	0.836500	0.215200
H61	H6	0.661700	0.217000	0.075800
H71	H7	0.850500	0.909000	0.564800
H81	H8	0.764700	0.890800	0.567400
H91	H9	0.821000	0.849100	0.614600
H101	H10	0.724700	0.700300	0.483500
H111	H11	0.750500	0.728000	0.567400
H121	H12	0.693300	0.770300	0.521700
H131	H13	0.942100	0.517000	0.176700
H141	H14	0.916700	0.481800	0.094800
H151	H15	0.991100	0.534800	0.112600
H161	H16	0.875600	0.645000	0.999400
H171	H17	0.952500	0.612200	0.008700
H181	H18	0.878800	0.558400	0.989200
H191	H19	0.058600	0.550000	0.352700
H201	H20	0.107100	0.620200	0.395100
H211	H21	0.058100	0.567400	0.439000
H221	H22	0.967200	0.741100	0.457600
H231	H23	0.002700	0.681200	0.502400
H241	H24	0.052900	0.733800	0.459600
H251	H25	0.949600	0.072100	0.230600
H261	H26	0.034600	0.035200	0.170800
H271	H27	0.010900	0.957900	0.194400
H281	H28	0.129200	0.001700	0.241100
H291	H29	0.080500	0.985600	0.305900
H301	H30	0.100100	0.067700	0.288500
H311	H31	0.379100	0.689000	0.608500
H321	H32	0.376600	0.610900	0.501600
H331	H33	0.301800	0.626700	0.398300
H341	H34	0.228700	0.800900	0.506000
H351	H35	0.215200	0.988800	0.836500
H361	H36	0.075800	0.661700	0.217000
H371	H37	0.564800	0.850500	0.909000
H381	H38	0.567400	0.764700	0.890800
H391	H39	0.614600	0.821000	0.849100
H401	H40	0.483500	0.724700	0.700300
H411	H41	0.567400	0.750500	0.728000
H421	H42	0.521700	0.693300	0.770300
H431	H43	0.176700	0.942100	0.517000
H441	H44	0.094800	0.916700	0.481800
H451	H45	0.112600	0.991100	0.534800
H461	H46	0.999400	0.875600	0.645000
H471	H47	0.008700	0.952500	0.612200
H481	H48	0.989200	0.878800	0.558400
H491	H49	0.352700	0.058600	0.550000
H501	H50	0.395100	0.107100	0.620200
H511	H51	0.439000	0.058100	0.567400
H521	H52	0.457600	0.967200	0.741100
H531	H53	0.502400	0.002700	0.681200
H541	H54	0.459600	0.052900	0.733800
H551	H55	0.230600	0.949600	0.072100
H561	H56	0.170800	0.034600	0.035200
H571	H57	0.194400	0.010900	0.957900
H581	H58	0.241100	0.129200	0.001700
H591	H59	0.305900	0.080500	0.985600
H601	H60	0.288500	0.100100	0.067700
H611	H61	0.608500	0.379100	0.689000
H621	H62	0.501600	0.376600	0.610900
H631	H63	0.398300	0.301800	0.626700
H641	H64	0.506000	0.228700	0.800900
H651	H65	0.836500	0.215200	0.988800
H661	H66	0.217000	0.075800	0.661700
H671	H67	0.909000	0.564800	0.850500
H681	H68	0.890800	0.567400	0.764700
H691	H69	0.849100	0.614600	0.821000
H701	H70	0.700300	0.483500	0.724700
H711	H71	0.728000	0.567400	0.750500
H721	H72	0.770300	0.521700	0.693300
H731	H73	0.517000	0.176700	0.942100
H741	H74	0.481800	0.094800	0.916700
H751	H75	0.534800	0.112600	0.991100
H761	H76	0.645000	0.999400	0.875600
H771	H77	0.612200	0.008700	0.952500
H781	H78	0.558400	0.989200	0.878800
H791	H79	0.550000	0.352700	0.058600
H801	H80	0.620200	0.395100	0.107100
H811	H81	0.567400	0.439000	0.058100
H821	H82	0.741100	0.457600	0.967200
H831	H83	0.681200	0.502400	0.002700
H841	H84	0.733800	0.459600	0.052900
H851	H85	0.072100	0.230600	0.949600
H861	H86	0.035200	0.170800	0.034600
H871	H87	0.957900	0.194400	0.010900
H881	H88	0.001700	0.241100	0.129200
H891	H89	0.985600	0.305900	0.080500
H901	H90	0.067700	0.288500	0.100100
H911	H91	0.311000	0.391500	0.620900
H921	H92	0.389100	0.498400	0.623400
H931	H93	0.373300	0.601700	0.698200
H941	H94	0.199100	0.494000	0.771300
H951	H95	0.011200	0.163500	0.784800
H961	H96	0.338300	0.783000	0.924200
H971	H97	0.149500	0.091000	0.435200
H981	H98	0.235300	0.109200	0.432600
H991	H99	0.179000	0.150900	0.385400
H1001	H100	0.275300	0.299700	0.516500
H1011	H101	0.249500	0.272000	0.432600
H1021	H102	0.306700	0.229700	0.478300
H1031	H103	0.057900	0.483000	0.823300
H1041	H104	0.083300	0.518200	0.905200
H1051	H105	0.008900	0.465200	0.887400
H1061	H106	0.124400	0.355000	0.000600
H1071	H107	0.047500	0.387800	0.991300
H1081	H108	0.121200	0.441600	0.010800
H1091	H109	0.941400	0.450000	0.647300
H1101	H110	0.892900	0.379800	0.604900
H1111	H111	0.941900	0.432600	0.561000
H1121	H112	0.032800	0.258900	0.542400
H1131	H113	0.997300	0.318800	0.497600
H1141	H114	0.947100	0.266200	0.540400
H1151	H115	0.050400	0.927900	0.769400
H1161	H116	0.965400	0.964800	0.829200
H1171	H117	0.989100	0.042100	0.805600
H1181	H118	0.870800	0.998300	0.758900
H1191	H119	0.919500	0.014400	0.694100
H1201	H120	0.899900	0.932300	0.711500
H1211	H121	0.620900	0.311000	0.391500
H1221	H122	0.623400	0.389100	0.498400
H1231	H123	0.698200	0.373300	0.601700
H1241	H124	0.771300	0.199100	0.494000
H1251	H125	0.784800	0.011200	0.163500
H1261	H126	0.924200	0.338300	0.783000
H1271	H127	0.435200	0.149500	0.091000
H1281	H128	0.432600	0.235300	0.109200
H1291	H129	0.385400	0.179000	0.150900
H1301	H130	0.516500	0.275300	0.299700
H1311	H131	0.432600	0.249500	0.272000
H1321	H132	0.478300	0.306700	0.229700
H1331	H133	0.823300	0.057900	0.483000
H1341	H134	0.905200	0.083300	0.518200
H1351	H135	0.887400	0.008900	0.465200
H1361	H136	0.000600	0.124400	0.355000
H1371	H137	0.991300	0.047500	0.387800
H1381	H138	0.010800	0.121200	0.441600
H1391	H139	0.647300	0.941400	0.450000
H1401	H140	0.604900	0.892900	0.379800
H1411	H141	0.561000	0.941900	0.432600
H1421	H142	0.542400	0.032800	0.258900
H1431	H143	0.497600	0.997300	0.318800
H1441	H144	0.540400	0.947100	0.266200
H1451	H145	0.769400	0.050400	0.927900
H1461	H146	0.829200	0.965400	0.964800
H1471	H147	0.805600	0.989100	0.042100
H1481	H148	0.758900	0.870800	0.998300
H1491	H149	0.694100	0.919500	0.014400
H1501	H150	0.711500	0.899900	0.932300
H1511	H151	0.391500	0.620900	0.311000
H1521	H152	0.498400	0.623400	0.389100
H1531	H153	0.601700	0.698200	0.373300
H1541	H154	0.494000	0.771300	0.199100
H1551	H155	0.163500	0.784800	0.011200
H1561	H156	0.783000	0.924200	0.338300
H1571	H157	0.091000	0.435200	0.149500
H1581	H158	0.109200	0.432600	0.235300
H1591	H159	0.150900	0.385400	0.179000
H1601	H160	0.299700	0.516500	0.275300
H1611	H161	0.272000	0.432600	0.249500
H1621	H162	0.229700	0.478300	0.306700
H1631	H163	0.483000	0.823300	0.057900
H1641	H164	0.518200	0.905200	0.083300
H1651	H165	0.465200	0.887400	0.008900
H1661	H166	0.355000	0.000600	0.124400
H1671	H167	0.387800	0.991300	0.047500
H1681	H168	0.441600	0.010800	0.121200
H1691	H169	0.450000	0.647300	0.941400
H1701	H170	0.379800	0.604900	0.892900
H1711	H171	0.432600	0.561000	0.941900
H1721	H172	0.258900	0.542400	0.032800
H1731	H173	0.318800	0.497600	0.997300
H1741	H174	0.266200	0.540400	0.947100
H1751	H175	0.927900	0.769400	0.050400
H1761	H176	0.964800	0.829200	0.965400
H1771	H177	0.042100	0.805600	0.989100
H1781	H178	0.998300	0.758900	0.870800
H1791	H179	0.014400	0.694100	0.919500
H1801	H180	0.932300	0.711500	0.899900
C11	C1	0.803800	0.635300	0.305900
C21	C2	0.725800	0.372900	0.211300
C31	C3	0.754200	0.566300	0.304500
C41	C4	0.696000	0.566000	0.348600
C51	C5	0.649800	0.502800	0.346700
C61	C6	0.659200	0.441300	0.302200
C71	C7	0.715700	0.441700	0.257900
C81	C8	0.762600	0.505000	0.259300
C91	C9	0.811600	0.870300	0.568600
C101	C10	0.736300	0.743400	0.519400
C111	C11	0.941100	0.525200	0.125100
C121	C12	0.900800	0.604500	0.016500
C131	C13	0.061000	0.589000	0.392900
C141	C14	0.004500	0.706900	0.458700
C151	C15	0.017600	0.010400	0.212300
C161	C16	0.088500	0.017000	0.267100
C171	C17	0.305900	0.803800	0.635300
C181	C18	0.211300	0.725800	0.372900
C191	C19	0.304500	0.754200	0.566300
C201	C20	0.348600	0.696000	0.566000
C211	C21	0.346700	0.649800	0.502800
C221	C22	0.302200	0.659200	0.441300
C231	C23	0.257900	0.715700	0.441700
C241	C24	0.259300	0.762600	0.505000
C251	C25	0.568600	0.811600	0.870300
C261	C26	0.519400	0.736300	0.743400
C271	C27	0.125100	0.941100	0.525200
C281	C28	0.016500	0.900800	0.604500
C291	C29	0.392900	0.061000	0.589000
C301	C30	0.458700	0.004500	0.706900
C311	C31	0.212300	0.017600	0.010400
C321	C32	0.267100	0.088500	0.017000
C331	C33	0.635300	0.305900	0.803800
C341	C34	0.372900	0.211300	0.725800
C351	C35	0.566300	0.304500	0.754200
C361	C36	0.566000	0.348600	0.696000
C371	C37	0.502800	0.346700	0.649800
C381	C38	0.441300	0.302200	0.659200
C391	C39	0.441700	0.257900	0.715700
C401	C40	0.505000	0.259300	0.762600
C411	C41	0.870300	0.568600	0.811600
C421	C42	0.743400	0.519400	0.736300
C431	C43	0.525200	0.125100	0.941100
C441	C44	0.604500	0.016500	0.900800
C451	C45	0.589000	0.392900	0.061000
C461	C46	0.706900	0.458700	0.004500
C471	C47	0.010400	0.212300	0.017600
C481	C48	0.017000	0.267100	0.088500
C491	C49	0.196200	0.364700	0.694100
C501	C50	0.274200	0.627100	0.788700
C511	C51	0.245800	0.433700	0.695500
C521	C52	0.304000	0.434000	0.651400
C531	C53	0.350200	0.497200	0.653300
C541	C54	0.340800	0.558700	0.697800
C551	C55	0.284300	0.558300	0.742100
C561	C56	0.237400	0.495000	0.740700
C571	C57	0.188400	0.129700	0.431400
C581	C58	0.263700	0.256600	0.480600
C591	C59	0.058900	0.474800	0.874900
C601	C60	0.099200	0.395500	0.983500
C611	C61	0.939000	0.411000	0.607100
C621	C62	0.995500	0.293100	0.541300
C631	C63	0.982400	0.989600	0.787700
C641	C64	0.911500	0.983000	0.732900
C651	C65	0.694100	0.196200	0.364700
C661	C66	0.788700	0.274200	0.627100
C671	C67	0.695500	0.245800	0.433700
C681	C68	0.651400	0.304000	0.434000
C691	C69	0.653300	0.350200	0.497200
C701	C70	0.697800	0.340800	0.558700
C711	C71	0.742100	0.284300	0.558300
C721	C72	0.740700	0.237400	0.495000
C731	C73	0.431400	0.188400	0.129700
C741	C74	0.480600	0.263700	0.256600
C751	C75	0.874900	0.058900	0.474800
C761	C76	0.983500	0.099200	0.395500
C771	C77	0.607100	0.939000	0.411000
C781	C78	0.541300	0.995500	0.293100
C791	C79	0.787700	0.982400	0.989600
C801	C80	0.732900	0.911500	0.983000
C811	C81	0.364700	0.694100	0.196200
C821	C82	0.627100	0.788700	0.274200
C831	C83	0.433700	0.695500	0.245800
C841	C84	0.434000	0.651400	0.304000
C851	C85	0.497200	0.653300	0.350200
C861	C86	0.558700	0.697800	0.340800
C871	C87	0.558300	0.742100	0.284300
C881	C88	0.495000	0.740700	0.237400
C891	C89	0.129700	0.431400	0.188400
C901	C90	0.256600	0.480600	0.263700
C911	C91	0.474800	0.874900	0.058900
C921	C92	0.395500	0.983500	0.099200
C931	C93	0.411000	0.607100	0.939000
C941	C94	0.293100	0.541300	0.995500
C951	C95	0.989600	0.787700	0.982400
C961	C96	0.983000	0.732900	0.911500
S11	S1	0.816750	0.817130	0.149670
S21	S2	0.962340	0.868040	0.368130
S31	S3	0.808900	0.800220	0.493000
S41	S4	0.892920	0.600760	0.109360
S51	S5	0.987520	0.641480	0.378200
S61	S6	0.149670	0.816750	0.817130
S71	S7	0.368130	0.962340	0.868040
S81	S8	0.493000	0.808900	0.800220
S91	S9	0.109360	0.892920	0.600760
S101	S10	0.378200	0.987520	0.641480
S111	S11	0.817130	0.149670	0.816750
S121	S12	0.868040	0.368130	0.962340
S131	S13	0.800220	0.493000	0.808900
S141	S14	0.600760	0.109360	0.892920
S151	S15	0.641480	0.378200	0.987520
S161	S16	0.183250	0.182870	0.850330
S171	S17	0.037660	0.131960	0.631870
S181	S18	0.191100	0.199780	0.507000
S191	S19	0.107080	0.399240	0.890640
S201	S20	0.012480	0.358520	0.621800
S211	S21	0.850330	0.183250	0.182870
S221	S22	0.631870	0.037660	0.131960
S231	S23	0.507000	0.191100	0.199780
S241	S24	0.890640	0.107080	0.399240
S251	S25	0.621800	0.012480	0.358520
S261	S26	0.182870	0.850330	0.183250
S271	S27	0.131960	0.631870	0.037660
S281	S28	0.199780	0.507000	0.191100
S291	S29	0.399240	0.890640	0.107080
S301	S30	0.358520	0.621800	0.012480
O11	O1	0.793000	0.690700	0.348300
O21	O2	0.852900	0.635200	0.262600
O31	O3	0.761300	0.378800	0.157300
O41	O4	0.696800	0.314700	0.230400
O51	O5	0.820200	0.766800	0.209300
O61	O6	0.743300	0.842400	0.144000
O71	O7	0.829100	0.776900	0.081100
O81	O8	0.874100	0.879500	0.169300
O91	O9	0.909200	0.802000	0.339500
O101	O10	0.956700	0.923200	0.316000
O111	O11	0.036100	0.845700	0.372000
O121	O12	0.945400	0.895500	0.439600
O131	O13	0.998300	0.792600	0.217800
O141	O14	0.701100	0.209400	0.100100
O151	O15	0.781300	0.836200	0.430800
O161	O16	0.944100	0.666900	0.148700
O171	O17	0.005000	0.684800	0.314100
O181	O18	0.947200	0.027700	0.213200
O191	O19	0.348300	0.793000	0.690700
O201	O20	0.262600	0.852900	0.635200
O211	O21	0.157300	0.761300	0.378800
O221	O22	0.230400	0.696800	0.314700
O231	O23	0.209300	0.820200	0.766800
O241	O24	0.144000	0.743300	0.842400
O251	O25	0.081100	0.829100	0.776900
O261	O26	0.169300	0.874100	0.879500
O271	O27	0.339500	0.909200	0.802000
O281	O28	0.316000	0.956700	0.923200
O291	O29	0.372000	0.036100	0.845700
O301	O30	0.439600	0.945400	0.895500
O311	O31	0.217800	0.998300	0.792600
O321	O32	0.100100	0.701100	0.209400
O331	O33	0.430800	0.781300	0.836200
O341	O34	0.148700	0.944100	0.666900
O351	O35	0.314100	0.005000	0.684800
O361	O36	0.213200	0.947200	0.027700
O371	O37	0.690700	0.348300	0.793000
O381	O38	0.635200	0.262600	0.852900
O391	O39	0.378800	0.157300	0.761300
O401	O40	0.314700	0.230400	0.696800
O411	O41	0.766800	0.209300	0.820200
O421	O42	0.842400	0.144000	0.743300
O431	O43	0.776900	0.081100	0.829100
O441	O44	0.879500	0.169300	0.874100
O451	O45	0.802000	0.339500	0.909200
O461	O46	0.923200	0.316000	0.956700
O471	O47	0.845700	0.372000	0.036100
O481	O48	0.895500	0.439600	0.945400
O491	O49	0.792600	0.217800	0.998300
O501	O50	0.209400	0.100100	0.701100
O511	O51	0.836200	0.430800	0.781300
O521	O52	0.666900	0.148700	0.944100
O531	O53	0.684800	0.314100	0.005000
O541	O54	0.027700	0.213200	0.947200
O551	O55	0.207000	0.309300	0.651700
O561	O56	0.147100	0.364800	0.737400
O571	O57	0.238700	0.621200	0.842700
O581	O58	0.303200	0.685300	0.769600
O591	O59	0.179800	0.233200	0.790700
O601	O60	0.256700	0.157600	0.856000
O611	O61	0.170900	0.223100	0.918900
O621	O62	0.125900	0.120500	0.830700
O631	O63	0.090800	0.198000	0.660500
O641	O64	0.043300	0.076800	0.684000
O651	O65	0.963900	0.154300	0.628000
O661	O66	0.054600	0.104500	0.560400
O671	O67	0.001700	0.207400	0.782200
O681	O68	0.298900	0.790600	0.899900
O691	O69	0.218700	0.163800	0.569200
O701	O70	0.055900	0.333100	0.851300
O711	O71	0.995000	0.315200	0.685900
O721	O72	0.052800	0.972300	0.786800
O731	O73	0.651700	0.207000	0.309300
O741	O74	0.737400	0.147100	0.364800
O751	O75	0.842700	0.238700	0.621200
O761	O76	0.769600	0.303200	0.685300
O771	O77	0.790700	0.179800	0.233200
O781	O78	0.856000	0.256700	0.157600
O791	O79	0.918900	0.170900	0.223100
O801	O80	0.830700	0.125900	0.120500
O811	O81	0.660500	0.090800	0.198000
O821	O82	0.684000	0.043300	0.076800
O831	O83	0.628000	0.963900	0.154300
O841	O84	0.560400	0.054600	0.104500
O851	O85	0.782200	0.001700	0.207400
O861	O86	0.899900	0.298900	0.790600
O871	O87	0.569200	0.218700	0.163800
O881	O88	0.851300	0.055900	0.333100
O891	O89	0.685900	0.995000	0.315200
O901	O90	0.786800	0.052800	0.972300
O911	O91	0.309300	0.651700	0.207000
O921	O92	0.364800	0.737400	0.147100
O931	O93	0.621200	0.842700	0.238700
O941	O94	0.685300	0.769600	0.303200
O951	O95	0.233200	0.790700	0.179800
O961	O96	0.157600	0.856000	0.256700
O971	O97	0.223100	0.918900	0.170900
O981	O98	0.120500	0.830700	0.125900
O991	O99	0.198000	0.660500	0.090800
O1001	O100	0.076800	0.684000	0.043300
O1011	O101	0.154300	0.628000	0.963900
O1021	O102	0.104500	0.560400	0.054600
O1031	O103	0.207400	0.782200	0.001700
O1041	O104	0.790600	0.899900	0.298900
O1051	O105	0.163800	0.569200	0.218700
O1061	O106	0.333100	0.851300	0.055900
O1071	O107	0.315200	0.685900	0.995000
O1081	O108	0.972300	0.786800	0.052800
