data_GEDQOX_freeONLY_PM
_symmetry_space_group_name_H-M	'P1'
_cell_length_a	13.279600
_cell_length_b	14.999200
_cell_length_c	16.121300
_cell_angle_alpha	117.723000
_cell_angle_beta	99.124500
_cell_angle_gamma	90.000000
_symmetry_Int_Tables_number 1

loop_
_symmetry_equiv_pos_as_xyz
'x,y,z'

loop_
_atom_site_label
_atom_site_type_symbol
_atom_site_fract_x
_atom_site_fract_y
_atom_site_fract_z
Nd11	Nd1	0.957660	0.967100	0.362840
Nd21	Nd2	0.542340	0.604260	0.637160
Nd31	Nd3	0.042340	0.032900	0.637160
Nd41	Nd4	0.457660	0.395740	0.362840
H11	H1	0.046200	0.635900	0.114400
H21	H2	0.095500	0.526400	0.971600
H31	H3	0.137400	0.757600	0.919000
H41	H4	0.091600	0.867300	0.062200
H51	H5	0.194000	0.602000	0.824000
H61	H6	0.277300	0.513500	0.713400
H71	H7	0.083800	0.289100	0.679600
H81	H8	0.206100	0.265600	0.459800
H91	H9	0.524400	0.867600	0.281800
H101	H10	0.582400	0.828800	0.192600
H111	H11	0.689800	0.858400	0.370600
H121	H12	0.680000	0.954900	0.358400
H131	H13	0.453800	0.521500	0.885600
H141	H14	0.404500	0.554800	0.028400
H151	H15	0.362600	0.838600	0.081000
H161	H16	0.408400	0.805100	0.937800
H171	H17	0.306000	0.778000	0.176000
H181	H18	0.222700	0.800100	0.286600
H191	H19	0.416200	0.609500	0.320400
H201	H20	0.293900	0.805800	0.540200
H211	H21	0.975600	0.585800	0.718200
H221	H22	0.917600	0.636200	0.807400
H231	H23	0.810200	0.487800	0.629400
H241	H24	0.820000	0.596500	0.641600
H251	H25	0.953800	0.364100	0.885600
H261	H26	0.904500	0.473600	0.028400
H271	H27	0.862600	0.242400	0.081000
H281	H28	0.908400	0.132700	0.937800
H291	H29	0.806000	0.398000	0.176000
H301	H30	0.722700	0.486500	0.286600
H311	H31	0.916200	0.710900	0.320400
H321	H32	0.793900	0.734400	0.540200
H331	H33	0.475600	0.132400	0.718200
H341	H34	0.417600	0.171200	0.807400
H351	H35	0.310200	0.141600	0.629400
H361	H36	0.320000	0.045100	0.641600
H371	H37	0.546200	0.478500	0.114400
H381	H38	0.595500	0.445200	0.971600
H391	H39	0.637400	0.161400	0.919000
H401	H40	0.591600	0.194900	0.062200
H411	H41	0.694000	0.222000	0.824000
H421	H42	0.777300	0.199900	0.713400
H431	H43	0.583800	0.390500	0.679600
H441	H44	0.706100	0.194200	0.459800
H451	H45	0.024400	0.414200	0.281800
H461	H46	0.082400	0.363800	0.192600
H471	H47	0.189800	0.512200	0.370600
H481	H48	0.180000	0.403500	0.358400
C11	C1	0.019400	0.831800	0.189600
C21	C2	0.057600	0.761000	0.101000
C31	C3	0.062900	0.660600	0.074600
C41	C4	0.092900	0.594700	0.989200
C51	C5	0.119000	0.632600	0.930200
C61	C6	0.118300	0.732600	0.957800
C71	C7	0.089700	0.798500	0.043200
C81	C8	0.146900	0.564500	0.837600
C91	C9	0.327700	0.437700	0.542000
C101	C10	0.254700	0.395500	0.579800
C111	C11	0.240900	0.451000	0.674400
C121	C12	0.173200	0.413400	0.710400
C131	C13	0.124300	0.317100	0.654200
C141	C14	0.136300	0.262900	0.560000
C151	C15	0.199800	0.302200	0.523400
C161	C16	0.080000	0.159800	0.497200
C171	C17	0.584000	0.836500	0.256000
C181	C18	0.686000	0.883100	0.324200
C191	C19	0.480600	0.642200	0.810400
C201	C20	0.442400	0.660000	0.899000
C211	C21	0.437100	0.586000	0.925400
C221	C22	0.407100	0.605500	0.010800
C231	C23	0.381000	0.702400	0.069800
C241	C24	0.381700	0.774800	0.042200
C251	C25	0.410300	0.755300	0.956800
C261	C26	0.353100	0.726900	0.162400
C271	C27	0.172300	0.895700	0.458000
C281	C28	0.245300	0.815700	0.420200
C291	C29	0.259100	0.776600	0.325600
C301	C30	0.326800	0.703000	0.289600
C311	C31	0.375700	0.662900	0.345800
C321	C32	0.363700	0.702900	0.440000
C331	C33	0.300200	0.778800	0.476600
C341	C34	0.420000	0.662600	0.502800
C351	C35	0.916000	0.580500	0.744000
C361	C36	0.814000	0.558900	0.675800
C371	C37	0.980600	0.168200	0.810400
C381	C38	0.942400	0.239000	0.899000
C391	C39	0.937100	0.339400	0.925400
C401	C40	0.907100	0.405300	0.010800
C411	C41	0.881000	0.367400	0.069800
C421	C42	0.881700	0.267400	0.042200
C431	C43	0.910300	0.201500	0.956800
C441	C44	0.853100	0.435500	0.162400
C451	C45	0.672300	0.562300	0.458000
C461	C46	0.745300	0.604500	0.420200
C471	C47	0.759100	0.549000	0.325600
C481	C48	0.826800	0.586600	0.289600
C491	C49	0.875700	0.682900	0.345800
C501	C50	0.863700	0.737100	0.440000
C511	C51	0.800200	0.697800	0.476600
C521	C52	0.920000	0.840200	0.502800
C531	C53	0.416000	0.163500	0.744000
C541	C54	0.314000	0.116900	0.675800
C551	C55	0.519400	0.357800	0.189600
C561	C56	0.557600	0.340000	0.101000
C571	C57	0.562900	0.414000	0.074600
C581	C58	0.592900	0.394500	0.989200
C591	C59	0.619000	0.297600	0.930200
C601	C60	0.618300	0.225200	0.957800
C611	C61	0.589700	0.244700	0.043200
C621	C62	0.646900	0.273100	0.837600
C631	C63	0.827700	0.104300	0.542000
C641	C64	0.754700	0.184300	0.579800
C651	C65	0.740900	0.223400	0.674400
C661	C66	0.673200	0.297000	0.710400
C671	C67	0.624300	0.337100	0.654200
C681	C68	0.636300	0.297100	0.560000
C691	C69	0.699800	0.221200	0.523400
C701	C70	0.580000	0.337400	0.497200
C711	C71	0.084000	0.419500	0.256000
C721	C72	0.186000	0.441100	0.324200
S11	S1	0.612700	0.725000	0.267400
S21	S2	0.887300	0.457600	0.732600
S31	S3	0.387300	0.275000	0.732600
S41	S4	0.112700	0.542400	0.267400
N11	N1	0.152700	0.470700	0.805000
N21	N2	0.347300	0.665700	0.195000
N31	N3	0.847300	0.529300	0.195000
N41	N4	0.652700	0.334300	0.805000
O11	O1	0.975300	0.795250	0.231900
O21	O2	0.032900	0.923850	0.217900
O31	O3	0.372200	0.523390	0.597580
O41	O4	0.336500	0.383750	0.455700
O51	O5	0.066200	0.123830	0.409260
O61	O6	0.049600	0.109630	0.535460
O71	O7	0.862500	0.045800	0.269200
O81	O8	0.780900	0.872900	0.298400
O91	O9	0.524700	0.563350	0.768100
O101	O10	0.467100	0.705950	0.782100
O111	O11	0.127800	0.925810	0.402420
O121	O12	0.163500	0.928050	0.544300
O131	O13	0.433800	0.714570	0.590740
O141	O14	0.450400	0.574170	0.464540
O151	O15	0.637500	0.776600	0.730800
O161	O16	0.719100	0.574500	0.701600
O171	O17	0.024700	0.204750	0.768100
O181	O18	0.967100	0.076150	0.782100
O191	O19	0.627800	0.476610	0.402420
O201	O20	0.663500	0.616250	0.544300
O211	O21	0.933800	0.876170	0.590740
O221	O22	0.950400	0.890370	0.464540
O231	O23	0.137500	0.954200	0.730800
O241	O24	0.219100	0.127100	0.701600
O251	O25	0.475300	0.436650	0.231900
O261	O26	0.532900	0.294050	0.217900
O271	O27	0.872200	0.074190	0.597580
O281	O28	0.836500	0.071950	0.455700
O291	O29	0.566200	0.285430	0.409260
O301	O30	0.549600	0.425830	0.535460
O311	O31	0.362500	0.223400	0.269200
O321	O32	0.280900	0.425500	0.298400
