data_GEGBOL_freeONLY_PM
_symmetry_space_group_name_H-M	'P1'
_cell_length_a	14.245800
_cell_length_b	25.885600
_cell_length_c	27.836000
_cell_angle_alpha	90.000000
_cell_angle_beta	97.447000
_cell_angle_gamma	90.000000
_symmetry_Int_Tables_number 1

loop_
_symmetry_equiv_pos_as_xyz
'x,y,z'

loop_
_atom_site_label
_atom_site_type_symbol
_atom_site_fract_x
_atom_site_fract_y
_atom_site_fract_z
Gd11	Gd1	0.522870	0.584290	0.781070
Ag11	Ag1	0.074500	0.519910	0.926290
Ag21	Ag2	0.917330	0.615000	0.466650
Ag31	Ag3	0.015420	0.260060	0.816040
N11	N1	0.709600	0.586100	0.785300
N21	N2	0.613500	0.513900	0.828800
N31	N3	0.717600	0.449900	0.824500
N41	N4	0.015600	0.449800	0.893000
N51	N5	0.589300	0.576200	0.702300
N61	N6	0.681200	0.616100	0.654500
N71	N7	0.904100	0.601800	0.547400
N81	N8	0.607500	0.662600	0.819600
N91	N9	0.711700	0.681800	0.884700
N101	N10	0.927200	0.806400	0.927800
N111	N11	0.335200	0.584100	0.774400
N121	N12	0.437600	0.500700	0.755600
N131	N13	0.349500	0.441500	0.786500
N141	N14	0.086700	0.323000	0.780200
N151	N15	0.436000	0.649200	0.725000
N161	N16	0.335500	0.648600	0.655800
N171	N17	0.049700	0.714300	0.632100
N181	N18	0.450600	0.601500	0.857100
N191	N19	0.355800	0.657400	0.888700
N201	N20	0.118500	0.598200	0.945200
N211	N21	0.056900	0.563800	0.463400
C11	C1	0.744900	0.533100	0.781400
H11	H1	0.813700	0.531700	0.792600
H21	H2	0.734300	0.521400	0.747200
C21	C2	0.692800	0.498700	0.812100
C31	C3	0.586500	0.471700	0.854100
C41	C4	0.506900	0.465200	0.879300
H31	H3	0.463200	0.492400	0.882100
C51	C5	0.496400	0.416600	0.900100
H41	H4	0.444100	0.410700	0.917300
C61	C6	0.560200	0.377000	0.896100
H51	H5	0.549800	0.344700	0.910800
C71	C7	0.637600	0.382100	0.871900
H61	H6	0.680400	0.354400	0.869200
C81	C8	0.649600	0.431300	0.851200
C91	C9	0.794000	0.419600	0.806900
H71	H7	0.813300	0.437100	0.778100
H81	H8	0.768700	0.385200	0.796400
C101	C10	0.881000	0.412200	0.844000
C111	C11	0.909600	0.365300	0.860400
H91	H9	0.873600	0.335600	0.849600
C121	C12	0.991900	0.359800	0.893300
H101	H10	0.011400	0.326600	0.905400
C131	C13	0.044400	0.402800	0.907700
H111	H11	0.102200	0.398900	0.928600
C141	C14	0.936100	0.454400	0.861700
H121	H12	0.916400	0.488000	0.851000
C151	C15	0.734800	0.617300	0.744300
H131	H13	0.801000	0.610200	0.739100
H141	H14	0.728900	0.654500	0.751400
C161	C16	0.668000	0.602800	0.699700
C171	C17	0.548200	0.571300	0.654600
C181	C18	0.464600	0.546700	0.634500
H151	H15	0.426600	0.528200	0.654300
C191	C19	0.439200	0.550300	0.584900
H161	H16	0.381800	0.534900	0.570600
C201	C20	0.496100	0.576100	0.555700
H171	H17	0.476900	0.577100	0.521800
C211	C21	0.578800	0.600200	0.574000
H181	H18	0.616700	0.618300	0.553800
C221	C22	0.604000	0.596300	0.624300
C231	C23	0.754200	0.650700	0.639300
H191	H19	0.783800	0.670400	0.667800
H201	H20	0.723600	0.675800	0.615300
C241	C24	0.830100	0.621800	0.617300
C251	C25	0.895000	0.590300	0.644900
H211	H21	0.891100	0.585500	0.678500
C261	C26	0.964700	0.566100	0.623800
H221	H22	0.010000	0.544900	0.642500
C271	C27	0.967800	0.573100	0.574900
H231	H23	0.017000	0.557000	0.560400
C281	C28	0.837800	0.625900	0.568400
H241	H24	0.793400	0.646900	0.548900
C291	C29	0.752400	0.609500	0.831800
H251	H25	0.759700	0.582900	0.857600
H261	H26	0.815900	0.623400	0.828300
C301	C30	0.690500	0.651300	0.844900
C311	C31	0.570900	0.703300	0.843600
C321	C32	0.487300	0.731500	0.832700
H271	H27	0.445000	0.725200	0.804000
C331	C33	0.468900	0.769100	0.865600
H281	H28	0.413500	0.789700	0.858800
C341	C34	0.529300	0.777600	0.908300
H291	H29	0.511500	0.802200	0.930800
C351	C35	0.615000	0.751500	0.919400
H301	H30	0.656800	0.758000	0.948300
C361	C36	0.634700	0.715400	0.885500
C371	C37	0.794800	0.679300	0.920700
H311	H31	0.824100	0.644700	0.919600
H321	H32	0.775500	0.684000	0.953300
C381	C38	0.867700	0.720300	0.912400
C391	C39	0.938100	0.711200	0.882600
H331	H33	0.942800	0.678800	0.866900
C401	C40	0.001800	0.751800	0.876600
H341	H34	0.050400	0.746800	0.856700
C411	C41	0.994600	0.796600	0.898300
H351	H35	0.038200	0.823200	0.893300
C421	C42	0.867000	0.768500	0.934500
H361	H36	0.820800	0.774800	0.955600
C431	C43	0.302100	0.534200	0.792100
H371	H37	0.235600	0.528000	0.778100
H381	H38	0.305000	0.535100	0.827900
C441	C44	0.364100	0.491500	0.777500
C451	C45	0.475200	0.451200	0.747700
C461	C46	0.554300	0.437100	0.725100
H391	H39	0.590700	0.461900	0.710500
C471	C47	0.575800	0.385200	0.725500
H401	H40	0.627400	0.374000	0.709700
C481	C48	0.525200	0.348700	0.747900
H411	H41	0.545000	0.313700	0.748300
C491	C49	0.445000	0.362200	0.770100
H421	H42	0.409100	0.337400	0.785100
C501	C50	0.422500	0.414700	0.768500
C511	C51	0.281600	0.419100	0.816300
H431	H43	0.258300	0.446900	0.836200
H441	H44	0.315100	0.393500	0.838700
C521	C52	0.197600	0.393100	0.787200
C531	C53	0.153800	0.411900	0.744700
H451	H45	0.177500	0.442200	0.731200
C541	C54	0.073000	0.386700	0.720100
H461	H46	0.041700	0.399300	0.690200
C551	C55	0.042900	0.343700	0.741400
H471	H47	0.986000	0.327900	0.727000
C561	C56	0.165600	0.347100	0.802300
H481	H48	0.200300	0.331000	0.829700
C571	C57	0.297000	0.591700	0.722400
H491	H49	0.298300	0.558500	0.704800
H501	H50	0.230600	0.603700	0.719700
C581	C58	0.355000	0.629900	0.701300
C591	C59	0.469900	0.682600	0.691100
C601	C60	0.551400	0.712800	0.696000
H511	H51	0.591700	0.715300	0.725900
C611	C61	0.571000	0.738900	0.654900
H521	H52	0.626400	0.759700	0.656700
C621	C62	0.511600	0.735600	0.611200
H531	H53	0.529300	0.753100	0.583800
C631	C63	0.426400	0.707400	0.606100
H541	H54	0.384700	0.705900	0.576600
C641	C64	0.408400	0.681900	0.647900
C651	C65	0.261500	0.628800	0.618500
H551	H55	0.238900	0.595200	0.629500
H561	H56	0.290100	0.622400	0.588400
C661	C66	0.176900	0.664500	0.606700
C671	C67	0.141200	0.672000	0.558600
H571	H57	0.171600	0.657400	0.533300
C681	C68	0.059800	0.701400	0.548300
H581	H58	0.034300	0.707900	0.515600
C691	C69	0.017300	0.720500	0.584500
H591	H59	0.960600	0.739700	0.576400
C701	C70	0.130300	0.685900	0.642000
H601	H60	0.155600	0.680700	0.674900
C711	C71	0.305000	0.627200	0.803600
H611	H61	0.238900	0.621900	0.810000
H621	H62	0.308300	0.660300	0.786000
C721	C72	0.370100	0.628700	0.850400
C731	C73	0.491300	0.613500	0.904100
C741	C74	0.575100	0.597100	0.930700
H631	H63	0.614300	0.572100	0.918200
C751	C75	0.599600	0.618400	0.976300
H641	H64	0.657200	0.608300	0.995000
C761	C76	0.541000	0.654500	0.995200
H651	H65	0.560200	0.668600	0.026500
C771	C77	0.457600	0.670200	0.970200
H661	H66	0.417700	0.694200	0.983500
C781	C78	0.433500	0.649500	0.924300
C791	C79	0.278000	0.693000	0.894000
H671	H67	0.242400	0.700100	0.861700
H681	H68	0.304100	0.726100	0.907600
C801	C80	0.211700	0.670700	0.926800
C811	C81	0.186800	0.696400	0.966000
H691	H69	0.209500	0.730400	0.973300
C821	C82	0.127400	0.672100	0.995400
H701	H70	0.110200	0.688900	0.023300
C831	C83	0.094700	0.623400	0.983000
H711	H71	0.053200	0.607200	0.002500
C841	C84	0.175800	0.622000	0.917500
H721	H72	0.192300	0.604200	0.890000
C851	C85	0.126500	0.542200	0.466600
C861	C86	0.215400	0.514500	0.469300
H731	H73	0.218100	0.488300	0.494800
H741	H74	0.268000	0.538800	0.476800
H751	H75	0.220200	0.497800	0.438100
O11	O1	0.076500	0.201300	0.772700
Gd21	Gd2	0.477130	0.084290	0.718930
Ag41	Ag4	0.925500	0.019910	0.573710
Ag51	Ag5	0.082670	0.115000	0.033350
Ag61	Ag6	0.984580	0.760060	0.683960
N221	N22	0.290400	0.086100	0.714700
N231	N23	0.386500	0.013900	0.671200
N241	N24	0.282400	0.949900	0.675500
N251	N25	0.984400	0.949800	0.607000
N261	N26	0.410700	0.076200	0.797700
N271	N27	0.318800	0.116100	0.845500
N281	N28	0.095900	0.101800	0.952600
N291	N29	0.392500	0.162600	0.680400
N301	N30	0.288300	0.181800	0.615300
N311	N31	0.072800	0.306400	0.572200
N321	N32	0.664800	0.084100	0.725600
N331	N33	0.562400	0.000700	0.744400
N341	N34	0.650500	0.941500	0.713500
N351	N35	0.913300	0.823000	0.719800
N361	N36	0.564000	0.149200	0.775000
N371	N37	0.664500	0.148600	0.844200
N381	N38	0.950300	0.214300	0.867900
N391	N39	0.549400	0.101500	0.642900
N401	N40	0.644200	0.157400	0.611300
N411	N41	0.881500	0.098200	0.554800
N421	N42	0.943100	0.063800	0.036600
C871	C87	0.255100	0.033100	0.718600
H761	H76	0.186300	0.031700	0.707400
H771	H77	0.265700	0.021400	0.752800
C881	C88	0.307200	0.998700	0.687900
C891	C89	0.413500	0.971700	0.645900
C901	C90	0.493100	0.965200	0.620700
H781	H78	0.536800	0.992400	0.617900
C911	C91	0.503600	0.916600	0.599900
H791	H79	0.555900	0.910700	0.582700
C921	C92	0.439800	0.877000	0.603900
H801	H80	0.450200	0.844700	0.589200
C931	C93	0.362400	0.882100	0.628100
H811	H81	0.319600	0.854400	0.630800
C941	C94	0.350400	0.931300	0.648800
C951	C95	0.206000	0.919600	0.693100
H821	H82	0.186700	0.937100	0.721900
H831	H83	0.231300	0.885200	0.703600
C961	C96	0.119000	0.912200	0.656000
C971	C97	0.090400	0.865300	0.639600
H841	H84	0.126400	0.835600	0.650400
C981	C98	0.008100	0.859800	0.606700
H851	H85	0.988600	0.826600	0.594600
C991	C99	0.955600	0.902800	0.592300
H861	H86	0.897800	0.898900	0.571400
C1001	C100	0.063900	0.954400	0.638300
H871	H87	0.083600	0.988000	0.649000
C1011	C101	0.265200	0.117300	0.755700
H881	H88	0.199000	0.110200	0.760900
H891	H89	0.271100	0.154500	0.748600
C1021	C102	0.332000	0.102800	0.800300
C1031	C103	0.451800	0.071300	0.845400
C1041	C104	0.535400	0.046700	0.865500
H901	H90	0.573400	0.028200	0.845700
C1051	C105	0.560800	0.050300	0.915100
H911	H91	0.618200	0.034900	0.929400
C1061	C106	0.503900	0.076100	0.944300
H921	H92	0.523100	0.077100	0.978200
C1071	C107	0.421200	0.100200	0.926000
H931	H93	0.383300	0.118300	0.946200
C1081	C108	0.396000	0.096300	0.875700
C1091	C109	0.245800	0.150700	0.860700
H941	H94	0.216200	0.170400	0.832200
H951	H95	0.276400	0.175800	0.884700
C1101	C110	0.169900	0.121800	0.882700
C1111	C111	0.105000	0.090300	0.855100
H961	H96	0.108900	0.085500	0.821500
C1121	C112	0.035300	0.066100	0.876200
H971	H97	0.990000	0.044900	0.857500
C1131	C113	0.032200	0.073100	0.925100
H981	H98	0.983000	0.057000	0.939600
C1141	C114	0.162200	0.125900	0.931600
H991	H99	0.206600	0.146900	0.951100
C1151	C115	0.247600	0.109500	0.668200
H1001	H100	0.240300	0.082900	0.642400
H1011	H101	0.184100	0.123400	0.671700
C1161	C116	0.309500	0.151300	0.655100
C1171	C117	0.429100	0.203300	0.656400
C1181	C118	0.512700	0.231500	0.667300
H1021	H102	0.555000	0.225200	0.696000
C1191	C119	0.531100	0.269100	0.634400
H1031	H103	0.586500	0.289700	0.641200
C1201	C120	0.470700	0.277600	0.591700
H1041	H104	0.488500	0.302200	0.569200
C1211	C121	0.385000	0.251500	0.580600
H1051	H105	0.343200	0.258000	0.551700
C1221	C122	0.365300	0.215400	0.614500
C1231	C123	0.205200	0.179300	0.579300
H1061	H106	0.175900	0.144700	0.580400
H1071	H107	0.224500	0.184000	0.546700
C1241	C124	0.132300	0.220300	0.587600
C1251	C125	0.061900	0.211200	0.617400
H1081	H108	0.057200	0.178800	0.633100
C1261	C126	0.998200	0.251800	0.623400
H1091	H109	0.949600	0.246800	0.643300
C1271	C127	0.005400	0.296600	0.601700
H1101	H110	0.961800	0.323200	0.606700
C1281	C128	0.133000	0.268500	0.565500
H1111	H111	0.179200	0.274800	0.544400
C1291	C129	0.697900	0.034200	0.707900
H1121	H112	0.764400	0.028000	0.721900
H1131	H113	0.695000	0.035100	0.672100
C1301	C130	0.635900	0.991500	0.722500
C1311	C131	0.524800	0.951200	0.752300
C1321	C132	0.445700	0.937100	0.774900
H1141	H114	0.409300	0.961900	0.789500
C1331	C133	0.424200	0.885200	0.774500
H1151	H115	0.372600	0.874000	0.790300
C1341	C134	0.474800	0.848700	0.752100
H1161	H116	0.455000	0.813700	0.751700
C1351	C135	0.555000	0.862200	0.729900
H1171	H117	0.590900	0.837400	0.714900
C1361	C136	0.577500	0.914700	0.731500
C1371	C137	0.718400	0.919100	0.683700
H1181	H118	0.741700	0.946900	0.663800
H1191	H119	0.684900	0.893500	0.661300
C1381	C138	0.802400	0.893100	0.712800
C1391	C139	0.846200	0.911900	0.755300
H1201	H120	0.822500	0.942200	0.768800
C1401	C140	0.927000	0.886700	0.779900
H1211	H121	0.958300	0.899300	0.809800
C1411	C141	0.957100	0.843700	0.758600
H1221	H122	0.014000	0.827900	0.773000
C1421	C142	0.834400	0.847100	0.697700
H1231	H123	0.799700	0.831000	0.670300
C1431	C143	0.703000	0.091700	0.777600
H1241	H124	0.701700	0.058500	0.795200
H1251	H125	0.769400	0.103700	0.780300
C1441	C144	0.645000	0.129900	0.798700
C1451	C145	0.530100	0.182600	0.808900
C1461	C146	0.448600	0.212800	0.804000
H1261	H126	0.408300	0.215300	0.774100
C1471	C147	0.429000	0.238900	0.845100
H1271	H127	0.373600	0.259700	0.843300
C1481	C148	0.488400	0.235600	0.888800
H1281	H128	0.470700	0.253100	0.916200
C1491	C149	0.573600	0.207400	0.893900
H1291	H129	0.615300	0.205900	0.923400
C1501	C150	0.591600	0.181900	0.852100
C1511	C151	0.738500	0.128800	0.881500
H1301	H130	0.761100	0.095200	0.870500
H1311	H131	0.709900	0.122400	0.911600
C1521	C152	0.823100	0.164500	0.893300
C1531	C153	0.858800	0.172000	0.941400
H1321	H132	0.828400	0.157400	0.966700
C1541	C154	0.940200	0.201400	0.951700
H1331	H133	0.965700	0.207900	0.984400
C1551	C155	0.982700	0.220500	0.915500
H1341	H134	0.039400	0.239700	0.923600
C1561	C156	0.869700	0.185900	0.858000
H1351	H135	0.844400	0.180700	0.825100
C1571	C157	0.695000	0.127200	0.696400
H1361	H136	0.761100	0.121900	0.690000
H1371	H137	0.691700	0.160300	0.714000
C1581	C158	0.629900	0.128700	0.649600
C1591	C159	0.508700	0.113500	0.595900
C1601	C160	0.424900	0.097100	0.569300
H1381	H138	0.385700	0.072100	0.581800
C1611	C161	0.400400	0.118400	0.523700
H1391	H139	0.342800	0.108300	0.505000
C1621	C162	0.459000	0.154500	0.504800
H1401	H140	0.439800	0.168600	0.473500
C1631	C163	0.542400	0.170200	0.529800
H1411	H141	0.582300	0.194200	0.516500
C1641	C164	0.566500	0.149500	0.575700
C1651	C165	0.722000	0.193000	0.606000
H1421	H142	0.757600	0.200100	0.638300
H1431	H143	0.695900	0.226100	0.592400
C1661	C166	0.788300	0.170700	0.573200
C1671	C167	0.813200	0.196400	0.534000
H1441	H144	0.790500	0.230400	0.526700
C1681	C168	0.872600	0.172100	0.504600
H1451	H145	0.889800	0.188900	0.476700
C1691	C169	0.905300	0.123400	0.517000
H1461	H146	0.946800	0.107200	0.497500
C1701	C170	0.824200	0.122000	0.582500
H1471	H147	0.807700	0.104200	0.610000
C1711	C171	0.873500	0.042200	0.033400
C1721	C172	0.784600	0.014500	0.030700
H1481	H148	0.781900	0.988300	0.005200
H1491	H149	0.732000	0.038800	0.023200
H1501	H150	0.779800	0.997800	0.061900
O21	O2	0.923500	0.701300	0.727300
Gd31	Gd3	0.477130	0.415710	0.218930
Ag71	Ag7	0.925500	0.480090	0.073710
Ag81	Ag8	0.082670	0.385000	0.533350
Ag91	Ag9	0.984580	0.739940	0.183960
N431	N43	0.290400	0.413900	0.214700
N441	N44	0.386500	0.486100	0.171200
N451	N45	0.282400	0.550100	0.175500
N461	N46	0.984400	0.550200	0.107000
N471	N47	0.410700	0.423800	0.297700
N481	N48	0.318800	0.383900	0.345500
N491	N49	0.095900	0.398200	0.452600
N501	N50	0.392500	0.337400	0.180400
N511	N51	0.288300	0.318200	0.115300
N521	N52	0.072800	0.193600	0.072200
N531	N53	0.664800	0.415900	0.225600
N541	N54	0.562400	0.499300	0.244400
N551	N55	0.650500	0.558500	0.213500
N561	N56	0.913300	0.677000	0.219800
N571	N57	0.564000	0.350800	0.275000
N581	N58	0.664500	0.351400	0.344200
N591	N59	0.950300	0.285700	0.367900
N601	N60	0.549400	0.398500	0.142900
N611	N61	0.644200	0.342600	0.111300
N621	N62	0.881500	0.401800	0.054800
N631	N63	0.943100	0.436200	0.536600
C1731	C173	0.255100	0.466900	0.218600
H1511	H151	0.186300	0.468300	0.207400
H1521	H152	0.265700	0.478600	0.252800
C1741	C174	0.307200	0.501300	0.187900
C1751	C175	0.413500	0.528300	0.145900
C1761	C176	0.493100	0.534800	0.120700
H1531	H153	0.536800	0.507600	0.117900
C1771	C177	0.503600	0.583400	0.099900
H1541	H154	0.555900	0.589300	0.082700
C1781	C178	0.439800	0.623000	0.103900
H1551	H155	0.450200	0.655300	0.089200
C1791	C179	0.362400	0.617900	0.128100
H1561	H156	0.319600	0.645600	0.130800
C1801	C180	0.350400	0.568700	0.148800
C1811	C181	0.206000	0.580400	0.193100
H1571	H157	0.186700	0.562900	0.221900
H1581	H158	0.231300	0.614800	0.203600
C1821	C182	0.119000	0.587800	0.156000
C1831	C183	0.090400	0.634700	0.139600
H1591	H159	0.126400	0.664400	0.150400
C1841	C184	0.008100	0.640200	0.106700
H1601	H160	0.988600	0.673400	0.094600
C1851	C185	0.955600	0.597200	0.092300
H1611	H161	0.897800	0.601100	0.071400
C1861	C186	0.063900	0.545600	0.138300
H1621	H162	0.083600	0.512000	0.149000
C1871	C187	0.265200	0.382700	0.255700
H1631	H163	0.199000	0.389800	0.260900
H1641	H164	0.271100	0.345500	0.248600
C1881	C188	0.332000	0.397200	0.300300
C1891	C189	0.451800	0.428700	0.345400
C1901	C190	0.535400	0.453300	0.365500
H1651	H165	0.573400	0.471800	0.345700
C1911	C191	0.560800	0.449700	0.415100
H1661	H166	0.618200	0.465100	0.429400
C1921	C192	0.503900	0.423900	0.444300
H1671	H167	0.523100	0.422900	0.478200
C1931	C193	0.421200	0.399800	0.426000
H1681	H168	0.383300	0.381700	0.446200
C1941	C194	0.396000	0.403700	0.375700
C1951	C195	0.245800	0.349300	0.360700
H1691	H169	0.216200	0.329600	0.332200
H1701	H170	0.276400	0.324200	0.384700
C1961	C196	0.169900	0.378200	0.382700
C1971	C197	0.105000	0.409700	0.355100
H1711	H171	0.108900	0.414500	0.321500
C1981	C198	0.035300	0.433900	0.376200
H1721	H172	0.990000	0.455100	0.357500
C1991	C199	0.032200	0.426900	0.425100
H1731	H173	0.983000	0.443000	0.439600
C2001	C200	0.162200	0.374100	0.431600
H1741	H174	0.206600	0.353100	0.451100
C2011	C201	0.247600	0.390500	0.168200
H1751	H175	0.240300	0.417100	0.142400
H1761	H176	0.184100	0.376600	0.171700
C2021	C202	0.309500	0.348700	0.155100
C2031	C203	0.429100	0.296700	0.156400
C2041	C204	0.512700	0.268500	0.167300
H1771	H177	0.555000	0.274800	0.196000
C2051	C205	0.531100	0.230900	0.134400
H1781	H178	0.586500	0.210300	0.141200
C2061	C206	0.470700	0.222400	0.091700
H1791	H179	0.488500	0.197800	0.069200
C2071	C207	0.385000	0.248500	0.080600
H1801	H180	0.343200	0.242000	0.051700
C2081	C208	0.365300	0.284600	0.114500
C2091	C209	0.205200	0.320700	0.079300
H1811	H181	0.175900	0.355300	0.080400
H1821	H182	0.224500	0.316000	0.046700
C2101	C210	0.132300	0.279700	0.087600
C2111	C211	0.061900	0.288800	0.117400
H1831	H183	0.057200	0.321200	0.133100
C2121	C212	0.998200	0.248200	0.123400
H1841	H184	0.949600	0.253200	0.143300
C2131	C213	0.005400	0.203400	0.101700
H1851	H185	0.961800	0.176800	0.106700
C2141	C214	0.133000	0.231500	0.065500
H1861	H186	0.179200	0.225200	0.044400
C2151	C215	0.697900	0.465800	0.207900
H1871	H187	0.764400	0.472000	0.221900
H1881	H188	0.695000	0.464900	0.172100
C2161	C216	0.635900	0.508500	0.222500
C2171	C217	0.524800	0.548800	0.252300
C2181	C218	0.445700	0.562900	0.274900
H1891	H189	0.409300	0.538100	0.289500
C2191	C219	0.424200	0.614800	0.274500
H1901	H190	0.372600	0.626000	0.290300
C2201	C220	0.474800	0.651300	0.252100
H1911	H191	0.455000	0.686300	0.251700
C2211	C221	0.555000	0.637800	0.229900
H1921	H192	0.590900	0.662600	0.214900
C2221	C222	0.577500	0.585300	0.231500
C2231	C223	0.718400	0.580900	0.183700
H1931	H193	0.741700	0.553100	0.163800
H1941	H194	0.684900	0.606500	0.161300
C2241	C224	0.802400	0.606900	0.212800
C2251	C225	0.846200	0.588100	0.255300
H1951	H195	0.822500	0.557800	0.268800
C2261	C226	0.927000	0.613300	0.279900
H1961	H196	0.958300	0.600700	0.309800
C2271	C227	0.957100	0.656300	0.258600
H1971	H197	0.014000	0.672100	0.273000
C2281	C228	0.834400	0.652900	0.197700
H1981	H198	0.799700	0.669000	0.170300
C2291	C229	0.703000	0.408300	0.277600
H1991	H199	0.701700	0.441500	0.295200
H2001	H200	0.769400	0.396300	0.280300
C2301	C230	0.645000	0.370100	0.298700
C2311	C231	0.530100	0.317400	0.308900
C2321	C232	0.448600	0.287200	0.304000
H2011	H201	0.408300	0.284700	0.274100
C2331	C233	0.429000	0.261100	0.345100
H2021	H202	0.373600	0.240300	0.343300
C2341	C234	0.488400	0.264400	0.388800
H2031	H203	0.470700	0.246900	0.416200
C2351	C235	0.573600	0.292600	0.393900
H2041	H204	0.615300	0.294100	0.423400
C2361	C236	0.591600	0.318100	0.352100
C2371	C237	0.738500	0.371200	0.381500
H2051	H205	0.761100	0.404800	0.370500
H2061	H206	0.709900	0.377600	0.411600
C2381	C238	0.823100	0.335500	0.393300
C2391	C239	0.858800	0.328000	0.441400
H2071	H207	0.828400	0.342600	0.466700
C2401	C240	0.940200	0.298600	0.451700
H2081	H208	0.965700	0.292100	0.484400
C2411	C241	0.982700	0.279500	0.415500
H2091	H209	0.039400	0.260300	0.423600
C2421	C242	0.869700	0.314100	0.358000
H2101	H210	0.844400	0.319300	0.325100
C2431	C243	0.695000	0.372800	0.196400
H2111	H211	0.761100	0.378100	0.190000
H2121	H212	0.691700	0.339700	0.214000
C2441	C244	0.629900	0.371300	0.149600
C2451	C245	0.508700	0.386500	0.095900
C2461	C246	0.424900	0.402900	0.069300
H2131	H213	0.385700	0.427900	0.081800
C2471	C247	0.400400	0.381600	0.023700
H2141	H214	0.342800	0.391700	0.005000
C2481	C248	0.459000	0.345500	0.004800
H2151	H215	0.439800	0.331400	0.973500
C2491	C249	0.542400	0.329800	0.029800
H2161	H216	0.582300	0.305800	0.016500
C2501	C250	0.566500	0.350500	0.075700
C2511	C251	0.722000	0.307000	0.106000
H2171	H217	0.757600	0.299900	0.138300
H2181	H218	0.695900	0.273900	0.092400
C2521	C252	0.788300	0.329300	0.073200
C2531	C253	0.813200	0.303600	0.034000
H2191	H219	0.790500	0.269600	0.026700
C2541	C254	0.872600	0.327900	0.004600
H2201	H220	0.889800	0.311100	0.976700
C2551	C255	0.905300	0.376600	0.017000
H2211	H221	0.946800	0.392800	0.997500
C2561	C256	0.824200	0.378000	0.082500
H2221	H222	0.807700	0.395800	0.110000
C2571	C257	0.873500	0.457800	0.533400
C2581	C258	0.784600	0.485500	0.530700
H2231	H223	0.781900	0.511700	0.505200
H2241	H224	0.732000	0.461200	0.523200
H2251	H225	0.779800	0.502200	0.561900
O31	O3	0.923500	0.798700	0.227300
Gd41	Gd4	0.522870	0.915710	0.281070
Ag101	Ag10	0.074500	0.980090	0.426290
Ag111	Ag11	0.917330	0.885000	0.966650
Ag121	Ag12	0.015420	0.239940	0.316040
N641	N64	0.709600	0.913900	0.285300
N651	N65	0.613500	0.986100	0.328800
N661	N66	0.717600	0.050100	0.324500
N671	N67	0.015600	0.050200	0.393000
N681	N68	0.589300	0.923800	0.202300
N691	N69	0.681200	0.883900	0.154500
N701	N70	0.904100	0.898200	0.047400
N711	N71	0.607500	0.837400	0.319600
N721	N72	0.711700	0.818200	0.384700
N731	N73	0.927200	0.693600	0.427800
N741	N74	0.335200	0.915900	0.274400
N751	N75	0.437600	0.999300	0.255600
N761	N76	0.349500	0.058500	0.286500
N771	N77	0.086700	0.177000	0.280200
N781	N78	0.436000	0.850800	0.225000
N791	N79	0.335500	0.851400	0.155800
N801	N80	0.049700	0.785700	0.132100
N811	N81	0.450600	0.898500	0.357100
N821	N82	0.355800	0.842600	0.388700
N831	N83	0.118500	0.901800	0.445200
N841	N84	0.056900	0.936200	0.963400
C2591	C259	0.744900	0.966900	0.281400
H2261	H226	0.813700	0.968300	0.292600
H2271	H227	0.734300	0.978600	0.247200
C2601	C260	0.692800	0.001300	0.312100
C2611	C261	0.586500	0.028300	0.354100
C2621	C262	0.506900	0.034800	0.379300
H2281	H228	0.463200	0.007600	0.382100
C2631	C263	0.496400	0.083400	0.400100
H2291	H229	0.444100	0.089300	0.417300
C2641	C264	0.560200	0.123000	0.396100
H2301	H230	0.549800	0.155300	0.410800
C2651	C265	0.637600	0.117900	0.371900
H2311	H231	0.680400	0.145600	0.369200
C2661	C266	0.649600	0.068700	0.351200
C2671	C267	0.794000	0.080400	0.306900
H2321	H232	0.813300	0.062900	0.278100
H2331	H233	0.768700	0.114800	0.296400
C2681	C268	0.881000	0.087800	0.344000
C2691	C269	0.909600	0.134700	0.360400
H2341	H234	0.873600	0.164400	0.349600
C2701	C270	0.991900	0.140200	0.393300
H2351	H235	0.011400	0.173400	0.405400
C2711	C271	0.044400	0.097200	0.407700
H2361	H236	0.102200	0.101100	0.428600
C2721	C272	0.936100	0.045600	0.361700
H2371	H237	0.916400	0.012000	0.351000
C2731	C273	0.734800	0.882700	0.244300
H2381	H238	0.801000	0.889800	0.239100
H2391	H239	0.728900	0.845500	0.251400
C2741	C274	0.668000	0.897200	0.199700
C2751	C275	0.548200	0.928700	0.154600
C2761	C276	0.464600	0.953300	0.134500
H2401	H240	0.426600	0.971800	0.154300
C2771	C277	0.439200	0.949700	0.084900
H2411	H241	0.381800	0.965100	0.070600
C2781	C278	0.496100	0.923900	0.055700
H2421	H242	0.476900	0.922900	0.021800
C2791	C279	0.578800	0.899800	0.074000
H2431	H243	0.616700	0.881700	0.053800
C2801	C280	0.604000	0.903700	0.124300
C2811	C281	0.754200	0.849300	0.139300
H2441	H244	0.783800	0.829600	0.167800
H2451	H245	0.723600	0.824200	0.115300
C2821	C282	0.830100	0.878200	0.117300
C2831	C283	0.895000	0.909700	0.144900
H2461	H246	0.891100	0.914500	0.178500
C2841	C284	0.964700	0.933900	0.123800
H2471	H247	0.010000	0.955100	0.142500
C2851	C285	0.967800	0.926900	0.074900
H2481	H248	0.017000	0.943000	0.060400
C2861	C286	0.837800	0.874100	0.068400
H2491	H249	0.793400	0.853100	0.048900
C2871	C287	0.752400	0.890500	0.331800
H2501	H250	0.759700	0.917100	0.357600
H2511	H251	0.815900	0.876600	0.328300
C2881	C288	0.690500	0.848700	0.344900
C2891	C289	0.570900	0.796700	0.343600
C2901	C290	0.487300	0.768500	0.332700
H2521	H252	0.445000	0.774800	0.304000
C2911	C291	0.468900	0.730900	0.365600
H2531	H253	0.413500	0.710300	0.358800
C2921	C292	0.529300	0.722400	0.408300
H2541	H254	0.511500	0.697800	0.430800
C2931	C293	0.615000	0.748500	0.419400
H2551	H255	0.656800	0.742000	0.448300
C2941	C294	0.634700	0.784600	0.385500
C2951	C295	0.794800	0.820700	0.420700
H2561	H256	0.824100	0.855300	0.419600
H2571	H257	0.775500	0.816000	0.453300
C2961	C296	0.867700	0.779700	0.412400
C2971	C297	0.938100	0.788800	0.382600
H2581	H258	0.942800	0.821200	0.366900
C2981	C298	0.001800	0.748200	0.376600
H2591	H259	0.050400	0.753200	0.356700
C2991	C299	0.994600	0.703400	0.398300
H2601	H260	0.038200	0.676800	0.393300
C3001	C300	0.867000	0.731500	0.434500
H2611	H261	0.820800	0.725200	0.455600
C3011	C301	0.302100	0.965800	0.292100
H2621	H262	0.235600	0.972000	0.278100
H2631	H263	0.305000	0.964900	0.327900
C3021	C302	0.364100	0.008500	0.277500
C3031	C303	0.475200	0.048800	0.247700
C3041	C304	0.554300	0.062900	0.225100
H2641	H264	0.590700	0.038100	0.210500
C3051	C305	0.575800	0.114800	0.225500
H2651	H265	0.627400	0.126000	0.209700
C3061	C306	0.525200	0.151300	0.247900
H2661	H266	0.545000	0.186300	0.248300
C3071	C307	0.445000	0.137800	0.270100
H2671	H267	0.409100	0.162600	0.285100
C3081	C308	0.422500	0.085300	0.268500
C3091	C309	0.281600	0.080900	0.316300
H2681	H268	0.258300	0.053100	0.336200
H2691	H269	0.315100	0.106500	0.338700
C3101	C310	0.197600	0.106900	0.287200
C3111	C311	0.153800	0.088100	0.244700
H2701	H270	0.177500	0.057800	0.231200
C3121	C312	0.073000	0.113300	0.220100
H2711	H271	0.041700	0.100700	0.190200
C3131	C313	0.042900	0.156300	0.241400
H2721	H272	0.986000	0.172100	0.227000
C3141	C314	0.165600	0.152900	0.302300
H2731	H273	0.200300	0.169000	0.329700
C3151	C315	0.297000	0.908300	0.222400
H2741	H274	0.298300	0.941500	0.204800
H2751	H275	0.230600	0.896300	0.219700
C3161	C316	0.355000	0.870100	0.201300
C3171	C317	0.469900	0.817400	0.191100
C3181	C318	0.551400	0.787200	0.196000
H2761	H276	0.591700	0.784700	0.225900
C3191	C319	0.571000	0.761100	0.154900
H2771	H277	0.626400	0.740300	0.156700
C3201	C320	0.511600	0.764400	0.111200
H2781	H278	0.529300	0.746900	0.083800
C3211	C321	0.426400	0.792600	0.106100
H2791	H279	0.384700	0.794100	0.076600
C3221	C322	0.408400	0.818100	0.147900
C3231	C323	0.261500	0.871200	0.118500
H2801	H280	0.238900	0.904800	0.129500
H2811	H281	0.290100	0.877600	0.088400
C3241	C324	0.176900	0.835500	0.106700
C3251	C325	0.141200	0.828000	0.058600
H2821	H282	0.171600	0.842600	0.033300
C3261	C326	0.059800	0.798600	0.048300
H2831	H283	0.034300	0.792100	0.015600
C3271	C327	0.017300	0.779500	0.084500
H2841	H284	0.960600	0.760300	0.076400
C3281	C328	0.130300	0.814100	0.142000
H2851	H285	0.155600	0.819300	0.174900
C3291	C329	0.305000	0.872800	0.303600
H2861	H286	0.238900	0.878100	0.310000
H2871	H287	0.308300	0.839700	0.286000
C3301	C330	0.370100	0.871300	0.350400
C3311	C331	0.491300	0.886500	0.404100
C3321	C332	0.575100	0.902900	0.430700
H2881	H288	0.614300	0.927900	0.418200
C3331	C333	0.599600	0.881600	0.476300
H2891	H289	0.657200	0.891700	0.495000
C3341	C334	0.541000	0.845500	0.495200
H2901	H290	0.560200	0.831400	0.526500
C3351	C335	0.457600	0.829800	0.470200
H2911	H291	0.417700	0.805800	0.483500
C3361	C336	0.433500	0.850500	0.424300
C3371	C337	0.278000	0.807000	0.394000
H2921	H292	0.242400	0.799900	0.361700
H2931	H293	0.304100	0.773900	0.407600
C3381	C338	0.211700	0.829300	0.426800
C3391	C339	0.186800	0.803600	0.466000
H2941	H294	0.209500	0.769600	0.473300
C3401	C340	0.127400	0.827900	0.495400
H2951	H295	0.110200	0.811100	0.523300
C3411	C341	0.094700	0.876600	0.483000
H2961	H296	0.053200	0.892800	0.502500
C3421	C342	0.175800	0.878000	0.417500
H2971	H297	0.192300	0.895800	0.390000
C3431	C343	0.126500	0.957800	0.966600
C3441	C344	0.215400	0.985500	0.969300
H2981	H298	0.218100	0.011700	0.994800
H2991	H299	0.268000	0.961200	0.976800
H3001	H300	0.220200	0.002200	0.938100
O41	O4	0.076500	0.298700	0.272700
