data_GELVEZ01_freeONLY_PM
_symmetry_space_group_name_H-M	'P1'
_cell_length_a	9.065900
_cell_length_b	9.065900
_cell_length_c	21.727300
_cell_angle_alpha	90.000000
_cell_angle_beta	90.000000
_cell_angle_gamma	120.000000
_symmetry_Int_Tables_number 1

loop_
_symmetry_equiv_pos_as_xyz
'x,y,z'

loop_
_atom_site_label
_atom_site_type_symbol
_atom_site_fract_x
_atom_site_fract_y
_atom_site_fract_z
Mn11	Mn1	0.021950	0.039190	0.917060
Mn21	Mn2	0.017240	0.978050	0.583730
Mn31	Mn3	0.960810	0.982760	0.250390
Mn41	Mn4	0.982760	0.960810	0.082940
Mn51	Mn5	0.039190	0.021950	0.416270
Mn61	Mn6	0.978050	0.017240	0.749610
H11	H1	0.364000	0.132000	0.867600
H21	H2	0.101000	0.374000	0.969500
H31	H3	0.581200	0.085100	0.911300
H41	H4	0.061200	0.595800	0.924300
H51	H5	0.768000	0.636000	0.534270
H61	H6	0.273000	0.899000	0.636170
H71	H7	0.503900	0.418800	0.577970
H81	H8	0.534600	0.938800	0.590970
H91	H9	0.868000	0.232000	0.200930
H101	H10	0.626000	0.727000	0.302830
H111	H11	0.914900	0.496100	0.244630
H121	H12	0.404200	0.465400	0.257630
H131	H13	0.232000	0.868000	0.132400
H141	H14	0.727000	0.626000	0.030500
H151	H15	0.496100	0.914900	0.088700
H161	H16	0.465400	0.404200	0.075700
H171	H17	0.132000	0.364000	0.465730
H181	H18	0.374000	0.101000	0.363830
H191	H19	0.085100	0.581200	0.422030
H201	H20	0.595800	0.061200	0.409030
H211	H21	0.636000	0.768000	0.799070
H221	H22	0.899000	0.273000	0.697170
H231	H23	0.418800	0.503900	0.755370
H241	H24	0.938800	0.534600	0.742370
C11	C1	0.362200	0.055000	0.948490
C21	C2	0.512600	0.052100	0.947340
C31	C3	0.041600	0.381300	0.886680
C41	C4	0.038000	0.531900	0.887400
C51	C5	0.692800	0.637800	0.615160
C61	C6	0.539500	0.487400	0.614010
C71	C7	0.339700	0.958400	0.553350
C81	C8	0.493900	0.962000	0.554070
C91	C9	0.945000	0.307200	0.281820
C101	C10	0.947900	0.460500	0.280670
C111	C11	0.618700	0.660300	0.220010
C121	C12	0.468100	0.506100	0.220730
C131	C13	0.307200	0.945000	0.051510
C141	C14	0.460500	0.947900	0.052660
C151	C15	0.660300	0.618700	0.113320
C161	C16	0.506100	0.468100	0.112600
C171	C17	0.055000	0.362200	0.384840
C181	C18	0.052100	0.512600	0.385990
C191	C19	0.381300	0.041600	0.446650
C201	C20	0.531900	0.038000	0.445930
C211	C21	0.637800	0.692800	0.718180
C221	C22	0.487400	0.539500	0.719330
C231	C23	0.958400	0.339700	0.779990
C241	C24	0.962000	0.493900	0.779270
C251	C25	0.255700	0.000000	0.000000
C261	C26	0.725700	0.000000	0.000000
C271	C27	0.563000	0.000000	0.000000
C281	C28	0.744300	0.744300	0.666670
C291	C29	0.274300	0.274300	0.666670
C301	C30	0.437000	0.437000	0.666670
C311	C31	0.000000	0.255700	0.333330
C321	C32	0.000000	0.725700	0.333330
C331	C33	0.000000	0.563000	0.333330
C341	C34	0.000000	0.282700	0.833330
C351	C35	0.000000	0.752700	0.833330
C361	C36	0.000000	0.589100	0.833330
C371	C37	0.282700	0.000000	0.500000
C381	C38	0.752700	0.000000	0.500000
C391	C39	0.589100	0.000000	0.500000
C401	C40	0.717300	0.717300	0.166670
C411	C41	0.247300	0.247300	0.166670
C421	C42	0.410900	0.410900	0.166670
O11	O1	0.301600	0.109600	0.900240
O21	O2	0.771000	0.959200	0.950480
O31	O3	0.083200	0.314600	0.936320
O41	O4	0.948100	0.791900	0.881410
O51	O5	0.808000	0.698400	0.566910
O61	O6	0.188200	0.229000	0.617150
O71	O7	0.231400	0.916800	0.602990
O81	O8	0.843800	0.051900	0.548080
O91	O9	0.890400	0.192000	0.233570
O101	O10	0.040800	0.811800	0.283810
O111	O11	0.685400	0.768600	0.269650
O121	O12	0.208100	0.156200	0.214740
O131	O13	0.192000	0.890400	0.099760
O141	O14	0.811800	0.040800	0.049520
O151	O15	0.768600	0.685400	0.063680
O161	O16	0.156200	0.208100	0.118590
O171	O17	0.109600	0.301600	0.433090
O181	O18	0.959200	0.771000	0.382850
O191	O19	0.314600	0.083200	0.397010
O201	O20	0.791900	0.948100	0.451920
O211	O21	0.698400	0.808000	0.766430
O221	O22	0.229000	0.188200	0.716190
O231	O23	0.916800	0.231400	0.730350
O241	O24	0.051900	0.843800	0.785260
O251	O25	0.109000	0.000000	0.000000
O261	O26	0.891000	0.891000	0.666670
O271	O27	0.000000	0.109000	0.333330
O281	O28	0.000000	0.135100	0.833330
O291	O29	0.135100	0.000000	0.500000
O301	O30	0.864900	0.864900	0.166670
