data_GERNOI_freeONLY_PM
_symmetry_space_group_name_H-M	'P1'
_cell_length_a	11.392000
_cell_length_b	18.743000
_cell_length_c	24.386000
_cell_angle_alpha	90.000000
_cell_angle_beta	90.000000
_cell_angle_gamma	90.000000
_symmetry_Int_Tables_number 1

loop_
_symmetry_equiv_pos_as_xyz
'x,y,z'

loop_
_atom_site_label
_atom_site_type_symbol
_atom_site_fract_x
_atom_site_fract_y
_atom_site_fract_z
Zn11	Zn1	0.533230	0.299070	0.517980
Zn21	Zn2	0.533230	0.700930	0.482020
Zn31	Zn3	0.466770	0.200930	0.017980
Zn41	Zn4	0.466770	0.799070	0.982020
Zn51	Zn5	0.537910	0.500000	0.500000
Zn61	Zn6	0.462090	0.000000	0.000000
H11	H1	0.574700	0.474500	0.644900
H21	H2	0.367900	0.405200	0.682200
H31	H3	0.405100	0.484900	0.695200
H41	H4	0.365300	0.463500	0.635200
H51	H5	0.906700	0.390200	0.756400
H61	H6	0.871000	0.216300	0.853700
H71	H7	0.605800	0.277000	0.753400
H81	H8	0.238400	0.463200	0.774900
H91	H9	0.178900	0.472200	0.833200
H101	H10	0.316500	0.461500	0.828600
H111	H11	0.235700	0.352200	0.855400
H121	H12	0.307600	0.191700	0.843400
H131	H13	0.330100	0.146900	0.789300
H141	H14	0.284100	0.108400	0.843000
H151	H15	0.486900	0.087200	0.830800
H161	H16	0.124300	0.240100	0.450400
H171	H17	0.323700	0.251900	0.449400
H181	H18	0.323500	0.342500	0.592600
H191	H19	0.118600	0.340800	0.596100
H201	H20	0.944800	0.268200	0.599900
H211	H21	0.739700	0.271700	0.598500
H221	H22	0.747500	0.329100	0.443800
H231	H23	0.946200	0.318600	0.439600
H241	H24	0.493800	0.167000	0.587100
H251	H25	0.503000	0.045400	0.581500
H261	H26	0.593900	0.063600	0.424700
H271	H27	0.588100	0.185700	0.435700
H281	H28	0.745800	0.480900	0.578500
H291	H29	0.944300	0.484600	0.581500
H301	H30	0.128200	0.558500	0.568400
H311	H31	0.328500	0.557600	0.567100
H321	H32	0.545500	0.377800	0.725400
H331	H33	0.081900	0.362300	0.767400
H341	H34	0.506300	0.228100	0.814300
H351	H35	0.574700	0.525500	0.355100
H361	H36	0.367900	0.594800	0.317800
H371	H37	0.405100	0.515100	0.304800
H381	H38	0.365300	0.536500	0.364800
H391	H39	0.906700	0.609800	0.243600
H401	H40	0.871000	0.783700	0.146300
H411	H41	0.605800	0.723000	0.246600
H421	H42	0.238400	0.536800	0.225100
H431	H43	0.178900	0.527800	0.166800
H441	H44	0.316500	0.538500	0.171400
H451	H45	0.235700	0.647800	0.144600
H461	H46	0.307600	0.808300	0.156600
H471	H47	0.330100	0.853100	0.210700
H481	H48	0.284100	0.891600	0.157000
H491	H49	0.486900	0.912800	0.169200
H501	H50	0.124300	0.759900	0.549600
H511	H51	0.323700	0.748100	0.550600
H521	H52	0.323500	0.657500	0.407400
H531	H53	0.118600	0.659200	0.403900
H541	H54	0.944800	0.731800	0.400100
H551	H55	0.739700	0.728300	0.401500
H561	H56	0.747500	0.670900	0.556200
H571	H57	0.946200	0.681400	0.560400
H581	H58	0.493800	0.833000	0.412900
H591	H59	0.503000	0.954600	0.418500
H601	H60	0.593900	0.936400	0.575300
H611	H61	0.588100	0.814300	0.564300
H621	H62	0.745800	0.519100	0.421500
H631	H63	0.944300	0.515400	0.418500
H641	H64	0.128200	0.441500	0.431600
H651	H65	0.328500	0.442400	0.432900
H661	H66	0.545500	0.622200	0.274600
H671	H67	0.081900	0.637700	0.232600
H681	H68	0.506300	0.771900	0.185700
H691	H69	0.425300	0.025500	0.144900
H701	H70	0.632100	0.094800	0.182200
H711	H71	0.594900	0.015100	0.195200
H721	H72	0.634700	0.036500	0.135200
H731	H73	0.093300	0.109800	0.256400
H741	H74	0.129000	0.283700	0.353700
H751	H75	0.394200	0.223000	0.253400
H761	H76	0.761600	0.036800	0.274900
H771	H77	0.821100	0.027800	0.333200
H781	H78	0.683500	0.038500	0.328600
H791	H79	0.764300	0.147800	0.355400
H801	H80	0.692400	0.308300	0.343400
H811	H81	0.669900	0.353100	0.289300
H821	H82	0.715900	0.391600	0.343000
H831	H83	0.513100	0.412800	0.330800
H841	H84	0.875700	0.259900	0.950400
H851	H85	0.676300	0.248100	0.949400
H861	H86	0.676500	0.157500	0.092600
H871	H87	0.881400	0.159200	0.096100
H881	H88	0.055200	0.231800	0.099900
H891	H89	0.260300	0.228300	0.098500
H901	H90	0.252500	0.170900	0.943800
H911	H91	0.053800	0.181400	0.939600
H921	H92	0.506200	0.333000	0.087100
H931	H93	0.497000	0.454600	0.081500
H941	H94	0.406100	0.436400	0.924700
H951	H95	0.411900	0.314300	0.935700
H961	H96	0.254200	0.019100	0.078500
H971	H97	0.055700	0.015400	0.081500
H981	H98	0.871800	0.941500	0.068400
H991	H99	0.671500	0.942400	0.067100
H1001	H100	0.454500	0.122200	0.225400
H1011	H101	0.918100	0.137700	0.267400
H1021	H102	0.493700	0.271900	0.314300
H1031	H103	0.425300	0.974500	0.855100
H1041	H104	0.632100	0.905200	0.817800
H1051	H105	0.594900	0.984900	0.804800
H1061	H106	0.634700	0.963500	0.864800
H1071	H107	0.093300	0.890200	0.743600
H1081	H108	0.129000	0.716300	0.646300
H1091	H109	0.394200	0.777000	0.746600
H1101	H110	0.761600	0.963200	0.725100
H1111	H111	0.821100	0.972200	0.666800
H1121	H112	0.683500	0.961500	0.671400
H1131	H113	0.764300	0.852200	0.644600
H1141	H114	0.692400	0.691700	0.656600
H1151	H115	0.669900	0.646900	0.710700
H1161	H116	0.715900	0.608400	0.657000
H1171	H117	0.513100	0.587200	0.669200
H1181	H118	0.875700	0.740100	0.049600
H1191	H119	0.676300	0.751900	0.050600
H1201	H120	0.676500	0.842500	0.907400
H1211	H121	0.881400	0.840800	0.903900
H1221	H122	0.055200	0.768200	0.900100
H1231	H123	0.260300	0.771700	0.901500
H1241	H124	0.252500	0.829100	0.056200
H1251	H125	0.053800	0.818600	0.060400
H1261	H126	0.506200	0.667000	0.912900
H1271	H127	0.497000	0.545400	0.918500
H1281	H128	0.406100	0.563600	0.075300
H1291	H129	0.411900	0.685700	0.064300
H1301	H130	0.254200	0.980900	0.921500
H1311	H131	0.055700	0.984600	0.918500
H1321	H132	0.871800	0.058500	0.931600
H1331	H133	0.671500	0.057600	0.932900
H1341	H134	0.454500	0.877800	0.774600
H1351	H135	0.918100	0.862300	0.732600
H1361	H136	0.493700	0.728100	0.685700
C11	C1	0.535000	0.381300	0.603000
C21	C2	0.532100	0.429800	0.653300
C31	C3	0.406300	0.447400	0.667800
C41	C4	0.706000	0.386300	0.702400
C51	C5	0.750700	0.339600	0.746900
C61	C6	0.861900	0.351100	0.768500
C71	C7	0.906700	0.305800	0.807300
C81	C8	0.839800	0.247700	0.827400
C91	C9	0.727100	0.238400	0.807300
C101	C10	0.682200	0.283900	0.767000
C111	C11	0.028800	0.317400	0.831600
C121	C12	0.241200	0.448500	0.813000
C131	C13	0.224700	0.367000	0.816700
C141	C14	0.317800	0.329900	0.781500
C151	C15	0.653300	0.180100	0.830200
C161	C16	0.334000	0.146200	0.829100
C171	C17	0.460300	0.132900	0.847000
C181	C18	0.463700	0.125800	0.909600
C191	C19	0.162300	0.263600	0.479500
C201	C20	0.282400	0.268600	0.480100
C211	C21	0.282300	0.322200	0.563000
C221	C22	0.158600	0.322000	0.565700
C231	C23	0.097700	0.292600	0.521100
C241	C24	0.967900	0.294400	0.522200
C251	C25	0.905700	0.280100	0.567200
C261	C26	0.781800	0.282600	0.566400
C271	C27	0.787900	0.314900	0.475600
C281	C28	0.906100	0.310900	0.472700
C291	C29	0.515100	0.146100	0.553500
C301	C30	0.519900	0.072700	0.550200
C311	C31	0.548600	0.038900	0.502700
C321	C32	0.573700	0.083100	0.458900
C331	C33	0.568800	0.156600	0.465700
C341	C34	0.787300	0.489400	0.545800
C351	C35	0.906000	0.490400	0.547700
C361	C36	0.167400	0.534200	0.540000
C371	C37	0.287800	0.533500	0.539100
C381	C38	0.535000	0.618700	0.397000
C391	C39	0.532100	0.570200	0.346700
C401	C40	0.406300	0.552600	0.332200
C411	C41	0.706000	0.613700	0.297600
C421	C42	0.750700	0.660400	0.253100
C431	C43	0.861900	0.648900	0.231500
C441	C44	0.906700	0.694200	0.192700
C451	C45	0.839800	0.752300	0.172600
C461	C46	0.727100	0.761600	0.192700
C471	C47	0.682200	0.716100	0.233000
C481	C48	0.028800	0.682600	0.168400
C491	C49	0.241200	0.551500	0.187000
C501	C50	0.224700	0.633000	0.183300
C511	C51	0.317800	0.670100	0.218500
C521	C52	0.653300	0.819900	0.169800
C531	C53	0.334000	0.853800	0.170900
C541	C54	0.460300	0.867100	0.153000
C551	C55	0.463700	0.874200	0.090400
C561	C56	0.162300	0.736400	0.520500
C571	C57	0.282400	0.731400	0.519900
C581	C58	0.282300	0.677800	0.437000
C591	C59	0.158600	0.678000	0.434300
C601	C60	0.097700	0.707400	0.478900
C611	C61	0.967900	0.705600	0.477800
C621	C62	0.905700	0.719900	0.432800
C631	C63	0.781800	0.717400	0.433600
C641	C64	0.787900	0.685100	0.524400
C651	C65	0.906100	0.689100	0.527300
C661	C66	0.515100	0.853900	0.446500
C671	C67	0.519900	0.927300	0.449800
C681	C68	0.548600	0.961100	0.497300
C691	C69	0.573700	0.916900	0.541100
C701	C70	0.568800	0.843400	0.534300
C711	C71	0.787300	0.510600	0.454200
C721	C72	0.906000	0.509600	0.452300
C731	C73	0.167400	0.465800	0.460000
C741	C74	0.287800	0.466500	0.460900
C751	C75	0.465000	0.118700	0.103000
C761	C76	0.467900	0.070200	0.153300
C771	C77	0.593700	0.052600	0.167800
C781	C78	0.294000	0.113700	0.202400
C791	C79	0.249300	0.160400	0.246900
C801	C80	0.138100	0.148900	0.268500
C811	C81	0.093300	0.194200	0.307300
C821	C82	0.160200	0.252300	0.327400
C831	C83	0.272900	0.261600	0.307300
C841	C84	0.317800	0.216100	0.267000
C851	C85	0.971200	0.182600	0.331600
C861	C86	0.758800	0.051500	0.313000
C871	C87	0.775300	0.133000	0.316700
C881	C88	0.682200	0.170100	0.281500
C891	C89	0.346700	0.319900	0.330200
C901	C90	0.666000	0.353800	0.329100
C911	C91	0.539700	0.367100	0.347000
C921	C92	0.536300	0.374200	0.409600
C931	C93	0.837700	0.236400	0.979500
C941	C94	0.717600	0.231400	0.980100
C951	C95	0.717700	0.177800	0.063000
C961	C96	0.841400	0.178000	0.065700
C971	C97	0.902300	0.207400	0.021100
C981	C98	0.032100	0.205600	0.022200
C991	C99	0.094300	0.219900	0.067200
C1001	C100	0.218200	0.217400	0.066400
C1011	C101	0.212100	0.185100	0.975600
C1021	C102	0.093900	0.189100	0.972700
C1031	C103	0.484900	0.353900	0.053500
C1041	C104	0.480100	0.427300	0.050200
C1051	C105	0.451400	0.461100	0.002700
C1061	C106	0.426300	0.416900	0.958900
C1071	C107	0.431200	0.343400	0.965700
C1081	C108	0.212700	0.010600	0.045800
C1091	C109	0.094000	0.009600	0.047700
C1101	C110	0.832600	0.965800	0.040000
C1111	C111	0.712200	0.966500	0.039100
C1121	C112	0.465000	0.881300	0.897000
C1131	C113	0.467900	0.929800	0.846700
C1141	C114	0.593700	0.947400	0.832200
C1151	C115	0.294000	0.886300	0.797600
C1161	C116	0.249300	0.839600	0.753100
C1171	C117	0.138100	0.851100	0.731500
C1181	C118	0.093300	0.805800	0.692700
C1191	C119	0.160200	0.747700	0.672600
C1201	C120	0.272900	0.738400	0.692700
C1211	C121	0.317800	0.783900	0.733000
C1221	C122	0.971200	0.817400	0.668400
C1231	C123	0.758800	0.948500	0.687000
C1241	C124	0.775300	0.867000	0.683300
C1251	C125	0.682200	0.829900	0.718500
C1261	C126	0.346700	0.680100	0.669800
C1271	C127	0.666000	0.646200	0.670900
C1281	C128	0.539700	0.632900	0.653000
C1291	C129	0.536300	0.625800	0.590400
C1301	C130	0.837700	0.763600	0.020500
C1311	C131	0.717600	0.768600	0.019900
C1321	C132	0.717700	0.822200	0.937000
C1331	C133	0.841400	0.822000	0.934300
C1341	C134	0.902300	0.792600	0.978900
C1351	C135	0.032100	0.794400	0.977800
C1361	C136	0.094300	0.780100	0.932800
C1371	C137	0.218200	0.782600	0.933600
C1381	C138	0.212100	0.814900	0.024400
C1391	C139	0.093900	0.810900	0.027300
C1401	C140	0.484900	0.646100	0.946500
C1411	C141	0.480100	0.572700	0.949800
C1421	C142	0.451400	0.538900	0.997300
C1431	C143	0.426300	0.583100	0.041100
C1441	C144	0.431200	0.656600	0.034300
C1451	C145	0.212700	0.989400	0.954200
C1461	C146	0.094000	0.990400	0.952300
C1471	C147	0.832600	0.034200	0.960000
C1481	C148	0.712200	0.033500	0.960900
C1491	C149	0.972300	0.500000	0.500000
C1501	C150	0.102400	0.500000	0.500000
C1511	C151	0.027700	0.000000	0.000000
C1521	C152	0.897600	0.000000	0.000000
N11	N1	0.589000	0.394500	0.699000
N21	N2	0.104300	0.349900	0.800200
N31	N3	0.535900	0.189000	0.827600
N41	N4	0.344500	0.295800	0.521800
N51	N5	0.722900	0.300100	0.520600
N61	N6	0.538500	0.187800	0.512200
N71	N7	0.589000	0.605500	0.301000
N81	N8	0.104300	0.650100	0.199800
N91	N9	0.535900	0.811000	0.172400
N101	N10	0.344500	0.704200	0.478200
N111	N11	0.722900	0.699900	0.479400
N121	N12	0.538500	0.812200	0.487800
N131	N13	0.411000	0.105500	0.199000
N141	N14	0.895700	0.150100	0.300200
N151	N15	0.464100	0.311000	0.327600
N161	N16	0.655500	0.204200	0.021800
N171	N17	0.277100	0.199900	0.020600
N181	N18	0.461500	0.312200	0.012200
N191	N19	0.411000	0.894500	0.801000
N201	N20	0.895700	0.849900	0.699800
N211	N21	0.464100	0.689000	0.672400
N221	N22	0.655500	0.795800	0.978200
N231	N23	0.277100	0.800100	0.979400
N241	N24	0.461500	0.687800	0.987800
N251	N25	0.727000	0.500000	0.500000
N261	N26	0.350400	0.500000	0.500000
N271	N27	0.273000	0.000000	0.000000
N281	N28	0.649600	0.000000	0.000000
O11	O1	0.533000	0.408300	0.554560
O21	O2	0.536300	0.314600	0.607770
O31	O3	0.773000	0.414200	0.668600
O41	O4	0.283900	0.294500	0.740500
O51	O5	0.421700	0.335000	0.795700
O61	O6	0.052100	0.296700	0.877500
O71	O7	0.474900	0.182000	0.936630
O81	O8	0.454000	0.064100	0.929580
O91	O9	0.696900	0.126600	0.851600
O101	O10	0.533000	0.591700	0.445440
O111	O11	0.536300	0.685400	0.392230
O121	O12	0.773000	0.585800	0.331400
O131	O13	0.283900	0.705500	0.259500
O141	O14	0.421700	0.665000	0.204300
O151	O15	0.052100	0.703300	0.122500
O161	O16	0.474900	0.818000	0.063370
O171	O17	0.454000	0.935900	0.070420
O181	O18	0.696900	0.873400	0.148400
O191	O19	0.467000	0.091700	0.054560
O201	O20	0.463700	0.185400	0.107770
O211	O21	0.227000	0.085800	0.168600
O221	O22	0.716100	0.205500	0.240500
O231	O23	0.578300	0.165000	0.295700
O241	O24	0.947900	0.203300	0.377500
O251	O25	0.525100	0.318000	0.436630
O261	O26	0.546000	0.435900	0.429580
O271	O27	0.303100	0.373400	0.351600
O281	O28	0.467000	0.908300	0.945440
O291	O29	0.463700	0.814600	0.892230
O301	O30	0.227000	0.914200	0.831400
O311	O31	0.716100	0.794500	0.759500
O321	O32	0.578300	0.835000	0.704300
O331	O33	0.947900	0.796700	0.622500
O341	O34	0.525100	0.682000	0.563370
O351	O35	0.546000	0.564100	0.570420
O361	O36	0.303100	0.626600	0.648400
