data_GERWOR_charged_PM
_symmetry_space_group_name_H-M	'P1'
_cell_length_a	14.987900
_cell_length_b	14.987900
_cell_length_c	26.112000
_cell_angle_alpha	82.731500
_cell_angle_beta	82.731500
_cell_angle_gamma	78.705300
_symmetry_Int_Tables_number 1

loop_
_symmetry_equiv_pos_as_xyz
'x,y,z'

loop_
_atom_site_label
_atom_site_type_symbol
_atom_site_fract_x
_atom_site_fract_y
_atom_site_fract_z
Cd11	Cd1	0.258930	0.904940	0.588810
Cd21	Cd2	0.095060	0.741070	0.911190
Cd31	Cd3	0.741070	0.095060	0.411190
Cd41	Cd4	0.904940	0.258930	0.088810
Cd51	Cd5	0.355380	0.644620	0.250000
Cd61	Cd6	0.644620	0.355380	0.750000
Si11	Si1	0.243640	0.164990	0.319900
Si21	Si2	0.835010	0.756360	0.180100
Si31	Si3	0.756360	0.835010	0.680100
Si41	Si4	0.164990	0.243640	0.819900
H11	H1	0.322100	0.798500	0.402000
H21	H2	0.256500	0.064300	0.420100
H31	H3	0.287300	0.983100	0.278000
H41	H4	0.925200	0.320600	0.436800
H51	H5	0.186300	0.319700	0.382500
H61	H6	0.058700	0.130100	0.346400
H71	H7	0.422800	0.116200	0.363600
H81	H8	0.283300	0.347700	0.296000
H91	H9	0.524100	0.346900	0.346000
H101	H10	0.365600	0.164200	0.226800
H111	H11	0.095000	0.199200	0.249900
H121	H12	0.217600	0.199600	0.106200
H131	H13	0.201500	0.677900	0.098000
H141	H14	0.935700	0.743500	0.079900
H151	H15	0.016900	0.712700	0.222000
H161	H16	0.679400	0.074800	0.063200
H171	H17	0.680300	0.813700	0.117500
H181	H18	0.869900	0.941300	0.153600
H191	H19	0.883800	0.577200	0.136400
H201	H20	0.652300	0.716700	0.204000
H211	H21	0.653100	0.475900	0.154000
H221	H22	0.835800	0.634400	0.273200
H231	H23	0.800800	0.905000	0.250100
H241	H24	0.800400	0.782400	0.393800
H251	H25	0.677900	0.201500	0.598000
H261	H26	0.743500	0.935700	0.579900
H271	H27	0.712700	0.016900	0.722000
H281	H28	0.074800	0.679400	0.563200
H291	H29	0.813700	0.680300	0.617500
H301	H30	0.941300	0.869900	0.653600
H311	H31	0.577200	0.883800	0.636400
H321	H32	0.716700	0.652300	0.704000
H331	H33	0.475900	0.653100	0.654000
H341	H34	0.634400	0.835800	0.773200
H351	H35	0.905000	0.800800	0.750100
H361	H36	0.782400	0.800400	0.893800
H371	H37	0.798500	0.322100	0.902000
H381	H38	0.064300	0.256500	0.920100
H391	H39	0.983100	0.287300	0.778000
H401	H40	0.320600	0.925200	0.936800
H411	H41	0.319700	0.186300	0.882500
H421	H42	0.130100	0.058700	0.846400
H431	H43	0.116200	0.422800	0.863600
H441	H44	0.347700	0.283300	0.796000
H451	H45	0.346900	0.524100	0.846000
H461	H46	0.164200	0.365600	0.726800
H471	H47	0.199200	0.095000	0.749900
H481	H48	0.199600	0.217600	0.606200
C11	C1	0.322090	0.802530	0.300060
C21	C2	0.306370	0.878870	0.334620
C31	C3	0.308780	0.859060	0.387830
C41	C4	0.291640	0.928260	0.419970
C51	C5	0.270600	0.017800	0.398320
C61	C6	0.269910	0.040790	0.344980
C71	C7	0.287770	0.969630	0.313760
C81	C8	0.291850	0.906290	0.478470
C91	C9	0.893950	0.176110	0.397960
C101	C10	0.978500	0.219120	0.392260
C111	C11	0.978330	0.294810	0.417530
C121	C12	0.056060	0.332820	0.414540
C131	C13	0.134140	0.293900	0.384860
C141	C14	0.137800	0.217840	0.358510
C151	C15	0.058500	0.181340	0.363170
C161	C16	0.057250	0.411830	0.442790
C171	C17	0.573490	0.172950	0.378880
C181	C18	0.487320	0.224040	0.357140
C191	C19	0.417400	0.177960	0.351660
C201	C20	0.339770	0.222670	0.328630
C211	C21	0.334120	0.316480	0.312000
C221	C22	0.401670	0.363490	0.318650
C231	C23	0.478100	0.315900	0.341340
C241	C24	0.393180	0.464780	0.301500
C251	C25	0.394900	0.178520	0.125900
C261	C26	0.305410	0.182030	0.160460
C271	C27	0.308940	0.173380	0.214140
C281	C28	0.230840	0.177920	0.249080
C291	C29	0.149000	0.193700	0.227690
C301	C30	0.143290	0.201890	0.174590
C311	C31	0.220960	0.195260	0.141760
C321	C32	0.051850	0.220050	0.152620
C331	C33	0.197470	0.677910	0.199940
C341	C34	0.121130	0.693630	0.165380
C351	C35	0.140940	0.691220	0.112170
C361	C36	0.071740	0.708360	0.080030
C371	C37	0.982200	0.729400	0.101680
C381	C38	0.959210	0.730090	0.155020
C391	C39	0.030370	0.712230	0.186240
C401	C40	0.093710	0.708150	0.021530
C411	C41	0.823890	0.106050	0.102040
C421	C42	0.780880	0.021500	0.107740
C431	C43	0.705190	0.021670	0.082470
C441	C44	0.667180	0.943940	0.085460
C451	C45	0.706100	0.865860	0.115140
C461	C46	0.782160	0.862200	0.141490
C471	C47	0.818660	0.941500	0.136830
C481	C48	0.588170	0.942750	0.057210
C491	C49	0.827050	0.426510	0.121120
C501	C50	0.775960	0.512680	0.142860
C511	C51	0.822040	0.582600	0.148340
C521	C52	0.777330	0.660230	0.171370
C531	C53	0.683520	0.665880	0.188000
C541	C54	0.636510	0.598330	0.181350
C551	C55	0.684100	0.521900	0.158660
C561	C56	0.535220	0.606820	0.198500
C571	C57	0.821480	0.605100	0.374100
C581	C58	0.817970	0.694590	0.339540
C591	C59	0.826620	0.691060	0.285860
C601	C60	0.822080	0.769160	0.250920
C611	C61	0.806300	0.851000	0.272310
C621	C62	0.798110	0.856710	0.325410
C631	C63	0.804740	0.779040	0.358240
C641	C64	0.779950	0.948150	0.347380
C651	C65	0.677910	0.197470	0.699940
C661	C66	0.693630	0.121130	0.665380
C671	C67	0.691220	0.140940	0.612170
C681	C68	0.708360	0.071740	0.580030
C691	C69	0.729400	0.982200	0.601680
C701	C70	0.730090	0.959210	0.655020
C711	C71	0.712230	0.030370	0.686240
C721	C72	0.708150	0.093710	0.521530
C731	C73	0.106050	0.823890	0.602040
C741	C74	0.021500	0.780880	0.607740
C751	C75	0.021670	0.705190	0.582470
C761	C76	0.943940	0.667180	0.585460
C771	C77	0.865860	0.706100	0.615140
C781	C78	0.862200	0.782160	0.641490
C791	C79	0.941500	0.818660	0.636830
C801	C80	0.942750	0.588170	0.557210
C811	C81	0.426510	0.827050	0.621120
C821	C82	0.512680	0.775960	0.642860
C831	C83	0.582600	0.822040	0.648340
C841	C84	0.660230	0.777330	0.671370
C851	C85	0.665880	0.683520	0.688000
C861	C86	0.598330	0.636510	0.681350
C871	C87	0.521900	0.684100	0.658660
C881	C88	0.606820	0.535220	0.698500
C891	C89	0.605100	0.821480	0.874100
C901	C90	0.694590	0.817970	0.839540
C911	C91	0.691060	0.826620	0.785860
C921	C92	0.769160	0.822080	0.750920
C931	C93	0.851000	0.806300	0.772310
C941	C94	0.856710	0.798110	0.825410
C951	C95	0.779040	0.804740	0.858240
C961	C96	0.948150	0.779950	0.847380
C971	C97	0.802530	0.322090	0.800060
C981	C98	0.878870	0.306370	0.834620
C991	C99	0.859060	0.308780	0.887830
C1001	C100	0.928260	0.291640	0.919970
C1011	C101	0.017800	0.270600	0.898320
C1021	C102	0.040790	0.269910	0.844980
C1031	C103	0.969630	0.287770	0.813760
C1041	C104	0.906290	0.291850	0.978470
C1051	C105	0.176110	0.893950	0.897960
C1061	C106	0.219120	0.978500	0.892260
C1071	C107	0.294810	0.978330	0.917530
C1081	C108	0.332820	0.056060	0.914540
C1091	C109	0.293900	0.134140	0.884860
C1101	C110	0.217840	0.137800	0.858510
C1111	C111	0.181340	0.058500	0.863170
C1121	C112	0.411830	0.057250	0.942790
C1131	C113	0.172950	0.573490	0.878880
C1141	C114	0.224040	0.487320	0.857140
C1151	C115	0.177960	0.417400	0.851660
C1161	C116	0.222670	0.339770	0.828630
C1171	C117	0.316480	0.334120	0.812000
C1181	C118	0.363490	0.401670	0.818650
C1191	C119	0.315900	0.478100	0.841340
C1201	C120	0.464780	0.393180	0.801500
C1211	C121	0.178520	0.394900	0.625900
C1221	C122	0.182030	0.305410	0.660460
C1231	C123	0.173380	0.308940	0.714140
C1241	C124	0.177920	0.230840	0.749080
C1251	C125	0.193700	0.149000	0.727690
C1261	C126	0.201890	0.143290	0.674590
C1271	C127	0.195260	0.220960	0.641760
C1281	C128	0.220050	0.051850	0.652620
O11	O1	0.320220	0.821080	0.252760
O21	O2	0.338530	0.722070	0.321100
O31	O3	0.325410	0.830530	0.496140
O41	O4	0.260330	0.966670	0.505890
O51	O5	0.899350	0.100170	0.387680
O61	O6	0.822300	0.217260	0.412380
O71	O7	0.125730	0.446510	0.437490
O81	O8	0.988250	0.439210	0.473060
O91	O9	0.329050	0.501490	0.275250
O101	O10	0.450040	0.507080	0.313670
O111	O11	0.642960	0.207840	0.370860
O121	O12	0.574030	0.096790	0.403610
O131	O13	0.469060	0.160980	0.142830
O141	O14	0.382180	0.196860	0.077210
O151	O15	0.053440	0.226540	0.104240
O161	O16	0.979910	0.227630	0.182740
O171	O17	0.178920	0.679780	0.247240
O181	O18	0.277930	0.661470	0.178900
O191	O19	0.169470	0.674590	0.003860
O201	O20	0.033330	0.739670	0.994110
O211	O21	0.899830	0.100650	0.112320
O221	O22	0.782740	0.177700	0.087620
O231	O23	0.553490	0.874270	0.062510
O241	O24	0.560790	0.011750	0.026940
O251	O25	0.498510	0.670950	0.224750
O261	O26	0.492920	0.549960	0.186330
O271	O27	0.792160	0.357040	0.129140
O281	O28	0.903210	0.425970	0.096390
O291	O29	0.839020	0.530940	0.357170
O301	O30	0.803140	0.617820	0.422790
O311	O31	0.773460	0.946560	0.395760
O321	O32	0.772370	0.020090	0.317260
O331	O33	0.679780	0.178920	0.747240
O341	O34	0.661470	0.277930	0.678900
O351	O35	0.674590	0.169470	0.503860
O361	O36	0.739670	0.033330	0.494110
O371	O37	0.100650	0.899830	0.612320
O381	O38	0.177700	0.782740	0.587620
O391	O39	0.874270	0.553490	0.562510
O401	O40	0.011750	0.560790	0.526940
O411	O41	0.670950	0.498510	0.724750
O421	O42	0.549960	0.492920	0.686330
O431	O43	0.357040	0.792160	0.629140
O441	O44	0.425970	0.903210	0.596390
O451	O45	0.530940	0.839020	0.857170
O461	O46	0.617820	0.803140	0.922790
O471	O47	0.946560	0.773460	0.895760
O481	O48	0.020090	0.772370	0.817260
O491	O49	0.821080	0.320220	0.752760
O501	O50	0.722070	0.338530	0.821100
O511	O51	0.830530	0.325410	0.996140
O521	O52	0.966670	0.260330	0.005890
O531	O53	0.100170	0.899350	0.887680
O541	O54	0.217260	0.822300	0.912380
O551	O55	0.446510	0.125730	0.937490
O561	O56	0.439210	0.988250	0.973060
O571	O57	0.501490	0.329050	0.775250
O581	O58	0.507080	0.450040	0.813670
O591	O59	0.207840	0.642960	0.870860
O601	O60	0.096790	0.574030	0.903610
O611	O61	0.160980	0.469060	0.642830
O621	O62	0.196860	0.382180	0.577210
O631	O63	0.226540	0.053440	0.604240
O641	O64	0.227630	0.979910	0.682740
H491	H49	0.413600	0.351000	0.200000
H501	H50	0.487800	0.384600	0.158100
H511	H51	0.420200	0.327400	0.142600
H521	H52	0.342000	0.577200	0.099800
H531	H53	0.374500	0.487300	0.072600
H541	H54	0.443800	0.526200	0.099800
H551	H55	0.302000	0.449400	0.148900
H561	H56	0.351200	0.499200	0.176400
C1291	C129	0.426400	0.372800	0.164100
C1301	C130	0.381400	0.518400	0.101400
N11	N1	0.357040	0.463840	0.150330
H571	H57	0.499700	0.856300	0.235000
H581	H58	0.578300	0.906100	0.207500
H591	H59	0.479400	0.962200	0.219300
H601	H60	0.604300	0.051500	0.276100
H611	H61	0.526600	0.052800	0.241000
H621	H62	0.625400	0.999000	0.226500
H631	H63	0.602300	0.873300	0.305600
H641	H64	0.507500	0.924300	0.320800
C1311	C131	0.524150	0.911550	0.231690
C1321	C132	0.580260	0.016460	0.254640
N21	N2	0.554150	0.915090	0.295550
H651	H65	0.857300	0.862900	0.463500
H661	H66	0.899500	0.903900	0.505100
H671	H67	0.941900	0.805700	0.489600
H681	H68	0.064600	0.980200	0.443600
H691	H69	0.062400	0.894000	0.484300
H701	H70	0.983600	0.979600	0.487900
H711	H71	0.014200	0.864400	0.415300
H721	H72	0.947700	0.950900	0.411800
H731	H73	0.142700	0.137100	0.536500
H741	H74	0.100500	0.096100	0.494900
H751	H75	0.058100	0.194300	0.510400
H761	H76	0.935400	0.019800	0.556400
H771	H77	0.937600	0.106000	0.515700
H781	H78	0.016400	0.020400	0.512100
H791	H79	0.985800	0.135600	0.584700
H801	H80	0.052300	0.049100	0.588200
C1331	C133	0.913000	0.866000	0.477100
C1341	C134	0.025700	0.942900	0.464600
C1351	C135	0.087000	0.134000	0.522900
C1361	C136	0.974300	0.057100	0.535400
N31	N3	0.978200	0.907400	0.433500
N41	N4	0.021800	0.092600	0.566500
H811	H81	0.649000	0.586400	0.300000
H821	H82	0.615400	0.512200	0.341900
H831	H83	0.672600	0.579800	0.357400
H841	H84	0.422800	0.658000	0.400200
H851	H85	0.512700	0.625500	0.427400
H861	H86	0.473800	0.556200	0.400200
H871	H87	0.550600	0.698000	0.351100
H881	H88	0.500800	0.648800	0.323600
C1371	C137	0.627200	0.573600	0.335900
C1381	C138	0.481600	0.618600	0.398600
N51	N5	0.536160	0.642960	0.349670
H891	H89	0.143700	0.500300	0.265000
H901	H90	0.093900	0.421700	0.292500
H911	H91	0.037800	0.520600	0.280700
H921	H92	0.948500	0.395700	0.223900
H931	H93	0.947200	0.473400	0.259000
H941	H94	0.001000	0.374600	0.273500
H951	H95	0.126700	0.397700	0.194400
H961	H96	0.075700	0.492500	0.179200
C1391	C139	0.088450	0.475850	0.268310
C1401	C140	0.983540	0.419740	0.245360
N61	N6	0.084910	0.445850	0.204450
H971	H97	0.137100	0.142700	0.036500
H981	H98	0.096100	0.100500	0.994900
H991	H99	0.194300	0.058100	0.010400
H1001	H100	0.019800	0.935400	0.056400
H1011	H101	0.106000	0.937600	0.015700
H1021	H102	0.020400	0.016400	0.012100
H1031	H103	0.135600	0.985800	0.084700
H1041	H104	0.049100	0.052300	0.088200
H1051	H105	0.862900	0.857300	0.963500
H1061	H106	0.903900	0.899500	0.005100
H1071	H107	0.805700	0.941900	0.989600
H1081	H108	0.980200	0.064600	0.943600
H1091	H109	0.894000	0.062400	0.984300
H1101	H110	0.979600	0.983600	0.987900
H1111	H111	0.864400	0.014200	0.915300
H1121	H112	0.950900	0.947700	0.911800
C1411	C141	0.134000	0.087000	0.022900
C1421	C142	0.057100	0.974300	0.035400
C1431	C143	0.866000	0.913000	0.977100
C1441	C144	0.942900	0.025700	0.964600
N71	N7	0.092600	0.021800	0.066500
N81	N8	0.907400	0.978200	0.933500
H1131	H113	0.586400	0.649000	0.800000
H1141	H114	0.512200	0.615400	0.841900
H1151	H115	0.579800	0.672600	0.857400
H1161	H116	0.658000	0.422800	0.900200
H1171	H117	0.625500	0.512700	0.927400
H1181	H118	0.556200	0.473800	0.900200
H1191	H119	0.698000	0.550600	0.851100
H1201	H120	0.648800	0.500800	0.823600
C1451	C145	0.573600	0.627200	0.835900
C1461	C146	0.618600	0.481600	0.898600
N91	N9	0.642960	0.536160	0.849670
H1211	H121	0.500300	0.143700	0.765000
H1221	H122	0.421700	0.093900	0.792500
H1231	H123	0.520600	0.037800	0.780700
H1241	H124	0.395700	0.948500	0.723900
H1251	H125	0.473400	0.947200	0.759000
H1261	H126	0.374600	0.001000	0.773500
H1271	H127	0.397700	0.126700	0.694400
H1281	H128	0.492500	0.075700	0.679200
C1471	C147	0.475850	0.088450	0.768310
C1481	C148	0.419740	0.983540	0.745360
N101	N10	0.445850	0.084910	0.704450
H1291	H129	0.351000	0.413600	0.700000
H1301	H130	0.384600	0.487800	0.658100
H1311	H131	0.327400	0.420200	0.642600
H1321	H132	0.577200	0.342000	0.599800
H1331	H133	0.487300	0.374500	0.572600
H1341	H134	0.526200	0.443800	0.599800
H1351	H135	0.449400	0.302000	0.648900
H1361	H136	0.499200	0.351200	0.676400
C1491	C149	0.372800	0.426400	0.664100
C1501	C150	0.518400	0.381400	0.601400
N111	N11	0.463840	0.357040	0.650330
H1371	H137	0.856300	0.499700	0.735000
H1381	H138	0.906100	0.578300	0.707500
H1391	H139	0.962200	0.479400	0.719300
H1401	H140	0.051500	0.604300	0.776100
H1411	H141	0.052800	0.526600	0.741000
H1421	H142	0.999000	0.625400	0.726500
H1431	H143	0.873300	0.602300	0.805600
H1441	H144	0.924300	0.507500	0.820800
C1511	C151	0.911550	0.524150	0.731690
C1521	C152	0.016460	0.580260	0.754640
N121	N12	0.915090	0.554150	0.795550
