data_GESBOW_charged_PM
_symmetry_space_group_name_H-M	'P1'
_cell_length_a	24.433200
_cell_length_b	24.433200
_cell_length_c	24.433200
_cell_angle_alpha	90.000000
_cell_angle_beta	90.000000
_cell_angle_gamma	90.000000
_symmetry_Int_Tables_number 1

loop_
_symmetry_equiv_pos_as_xyz
'x,y,z'

loop_
_atom_site_label
_atom_site_type_symbol
_atom_site_fract_x
_atom_site_fract_y
_atom_site_fract_z
Na11	Na1	0.596980	0.903020	0.096980
Na21	Na2	0.903020	0.096980	0.596980
Na31	Na3	0.403020	0.403020	0.403020
Na41	Na4	0.096980	0.596980	0.903020
Mn11	Mn1	0.736830	0.910080	0.893890
Mn21	Mn2	0.793830	0.952740	0.794440
Mn31	Mn3	0.727880	0.844950	0.783050
Mn41	Mn4	0.656150	0.988340	0.187430
Mn51	Mn5	0.681740	0.791330	0.887990
Mn61	Mn6	0.775450	0.222920	0.167020
Mn71	Mn7	0.763170	0.089920	0.393890
Mn81	Mn8	0.706170	0.047260	0.294440
Mn91	Mn9	0.772120	0.155050	0.283050
Mn101	Mn10	0.843850	0.011660	0.687430
Mn111	Mn11	0.818260	0.208670	0.387990
Mn121	Mn12	0.724550	0.777080	0.667020
Mn131	Mn13	0.263170	0.410080	0.606110
Mn141	Mn14	0.206170	0.452740	0.705560
Mn151	Mn15	0.272120	0.344950	0.716950
Mn161	Mn16	0.343850	0.488340	0.312570
Mn171	Mn17	0.318260	0.291330	0.612010
Mn181	Mn18	0.224550	0.722920	0.332980
Mn191	Mn19	0.236830	0.589920	0.106110
Mn201	Mn20	0.293830	0.547260	0.205560
Mn211	Mn21	0.227880	0.655050	0.216950
Mn221	Mn22	0.156150	0.511660	0.812570
Mn231	Mn23	0.181740	0.708670	0.112010
Mn241	Mn24	0.275450	0.277080	0.832980
Mn251	Mn25	0.893890	0.736830	0.910080
Mn261	Mn26	0.794440	0.793830	0.952740
Mn271	Mn27	0.783050	0.727880	0.844950
Mn281	Mn28	0.187430	0.656150	0.988340
Mn291	Mn29	0.887990	0.681740	0.791330
Mn301	Mn30	0.167020	0.775450	0.222920
Mn311	Mn31	0.393890	0.763170	0.089920
Mn321	Mn32	0.294440	0.706170	0.047260
Mn331	Mn33	0.283050	0.772120	0.155050
Mn341	Mn34	0.687430	0.843850	0.011660
Mn351	Mn35	0.387990	0.818260	0.208670
Mn361	Mn36	0.667020	0.724550	0.777080
Mn371	Mn37	0.606110	0.263170	0.410080
Mn381	Mn38	0.705560	0.206170	0.452740
Mn391	Mn39	0.716950	0.272120	0.344950
Mn401	Mn40	0.312570	0.343850	0.488340
Mn411	Mn41	0.612010	0.318260	0.291330
Mn421	Mn42	0.332980	0.224550	0.722920
Mn431	Mn43	0.106110	0.236830	0.589920
Mn441	Mn44	0.205560	0.293830	0.547260
Mn451	Mn45	0.216950	0.227880	0.655050
Mn461	Mn46	0.812570	0.156150	0.511660
Mn471	Mn47	0.112010	0.181740	0.708670
Mn481	Mn48	0.832980	0.275450	0.277080
Mn491	Mn49	0.910080	0.893890	0.736830
Mn501	Mn50	0.952740	0.794440	0.793830
Mn511	Mn51	0.844950	0.783050	0.727880
Mn521	Mn52	0.988340	0.187430	0.656150
Mn531	Mn53	0.791330	0.887990	0.681740
Mn541	Mn54	0.222920	0.167020	0.775450
Mn551	Mn55	0.089920	0.393890	0.763170
Mn561	Mn56	0.047260	0.294440	0.706170
Mn571	Mn57	0.155050	0.283050	0.772120
Mn581	Mn58	0.011660	0.687430	0.843850
Mn591	Mn59	0.208670	0.387990	0.818260
Mn601	Mn60	0.777080	0.667020	0.724550
Mn611	Mn61	0.410080	0.606110	0.263170
Mn621	Mn62	0.452740	0.705560	0.206170
Mn631	Mn63	0.344950	0.716950	0.272120
Mn641	Mn64	0.488340	0.312570	0.343850
Mn651	Mn65	0.291330	0.612010	0.318260
Mn661	Mn66	0.722920	0.332980	0.224550
Mn671	Mn67	0.589920	0.106110	0.236830
Mn681	Mn68	0.547260	0.205560	0.293830
Mn691	Mn69	0.655050	0.216950	0.227880
Mn701	Mn70	0.511660	0.812570	0.156150
Mn711	Mn71	0.708670	0.112010	0.181740
Mn721	Mn72	0.277080	0.832980	0.275450
Mn731	Mn73	0.861250	0.861250	0.861250
Mn741	Mn74	0.638750	0.138750	0.361250
Mn751	Mn75	0.138750	0.361250	0.638750
Mn761	Mn76	0.361250	0.638750	0.138750
H11	H1	0.603000	0.870200	0.797600
H21	H2	0.604900	0.907600	0.849800
H31	H3	0.651500	0.975700	0.804200
H41	H4	0.679600	0.974100	0.714500
H51	H5	0.653100	0.916500	0.704100
H61	H6	0.554000	0.970300	0.781800
H71	H7	0.586400	0.996200	0.732900
H81	H8	0.568200	0.934800	0.730300
H91	H9	0.810900	0.080900	0.799100
H101	H10	0.767200	0.093200	0.754700
H111	H11	0.697300	0.071800	0.812100
H121	H12	0.744400	0.158100	0.832600
H131	H13	0.723500	0.132400	0.887600
H141	H14	0.785200	0.126500	0.870800
H151	H15	0.714100	0.034900	0.896900
H161	H16	0.777500	0.042200	0.890000
H171	H17	0.712400	0.014200	0.067500
H181	H18	0.670000	0.062100	0.064500
H191	H19	0.781000	0.069300	0.071700
H201	H20	0.731500	0.167400	0.059800
H211	H21	0.793800	0.154100	0.067100
H221	H22	0.787400	0.084300	0.984000
H231	H23	0.739400	0.041900	0.988000
H241	H24	0.726600	0.104000	0.978300
H251	H25	0.883000	0.920600	0.033300
H261	H26	0.897400	0.963600	0.988000
H271	H27	0.847200	0.973400	0.026700
H281	H28	0.805100	0.950100	0.121600
H291	H29	0.769200	0.953500	0.174600
H301	H30	0.795700	0.897600	0.157300
H311	H31	0.571000	0.988200	0.989500
H321	H32	0.619700	0.027800	0.976100
H331	H33	0.587200	0.999600	0.928500
H341	H34	0.897000	0.129800	0.297600
H351	H35	0.895100	0.092400	0.349800
H361	H36	0.848500	0.024300	0.304200
H371	H37	0.820400	0.025900	0.214500
H381	H38	0.846900	0.083500	0.204100
H391	H39	0.946000	0.029700	0.281800
H401	H40	0.913600	0.003800	0.232900
H411	H41	0.931800	0.065200	0.230300
H421	H42	0.689100	0.919100	0.299100
H431	H43	0.732800	0.906800	0.254700
H441	H44	0.802700	0.928200	0.312100
H451	H45	0.755600	0.841900	0.332600
H461	H46	0.776500	0.867600	0.387600
H471	H47	0.714800	0.873500	0.370800
H481	H48	0.785900	0.965100	0.396900
H491	H49	0.722500	0.957800	0.390000
H501	H50	0.787600	0.985800	0.567500
H511	H51	0.830000	0.937900	0.564500
H521	H52	0.719000	0.930700	0.571700
H531	H53	0.768500	0.832600	0.559800
H541	H54	0.706200	0.845900	0.567100
H551	H55	0.712600	0.915700	0.484000
H561	H56	0.760600	0.958100	0.488000
H571	H57	0.773400	0.896000	0.478300
H581	H58	0.617000	0.079400	0.533300
H591	H59	0.602600	0.036400	0.488000
H601	H60	0.652800	0.026600	0.526700
H611	H61	0.694900	0.049900	0.621600
H621	H62	0.730800	0.046500	0.674600
H631	H63	0.704300	0.102400	0.657300
H641	H64	0.929000	0.011800	0.489500
H651	H65	0.880300	0.972200	0.476100
H661	H66	0.912800	0.000400	0.428500
H671	H67	0.397000	0.370200	0.702400
H681	H68	0.395100	0.407600	0.650200
H691	H69	0.348500	0.475700	0.695800
H701	H70	0.320400	0.474100	0.785500
H711	H71	0.346900	0.416500	0.795900
H721	H72	0.446000	0.470300	0.718200
H731	H73	0.413600	0.496200	0.767100
H741	H74	0.431800	0.434800	0.769700
H751	H75	0.189100	0.580900	0.700900
H761	H76	0.232800	0.593200	0.745300
H771	H77	0.302700	0.571800	0.687900
H781	H78	0.255600	0.658100	0.667400
H791	H79	0.276500	0.632400	0.612400
H801	H80	0.214800	0.626500	0.629200
H811	H81	0.285900	0.534900	0.603100
H821	H82	0.222500	0.542200	0.610000
H831	H83	0.287600	0.514200	0.432500
H841	H84	0.330000	0.562100	0.435500
H851	H85	0.219000	0.569300	0.428300
H861	H86	0.268500	0.667400	0.440200
H871	H87	0.206200	0.654100	0.432900
H881	H88	0.212600	0.584300	0.516000
H891	H89	0.260600	0.541900	0.512000
H901	H90	0.273400	0.604000	0.521700
H911	H91	0.117000	0.420600	0.466700
H921	H92	0.102600	0.463600	0.512000
H931	H93	0.152800	0.473400	0.473300
H941	H94	0.194900	0.450100	0.378400
H951	H95	0.230800	0.453500	0.325400
H961	H96	0.204300	0.397600	0.342700
H971	H97	0.429000	0.488200	0.510500
H981	H98	0.380300	0.527800	0.523900
H991	H99	0.412800	0.499600	0.571500
H1001	H100	0.103000	0.629800	0.202400
H1011	H101	0.104900	0.592400	0.150200
H1021	H102	0.151500	0.524300	0.195800
H1031	H103	0.179600	0.525900	0.285500
H1041	H104	0.153100	0.583500	0.295900
H1051	H105	0.054000	0.529700	0.218200
H1061	H106	0.086400	0.503800	0.267100
H1071	H107	0.068200	0.565200	0.269700
H1081	H108	0.310900	0.419100	0.200900
H1091	H109	0.267200	0.406800	0.245300
H1101	H110	0.197300	0.428200	0.187900
H1111	H111	0.244400	0.341900	0.167400
H1121	H112	0.223500	0.367600	0.112400
H1131	H113	0.285200	0.373500	0.129200
H1141	H114	0.214100	0.465100	0.103100
H1151	H115	0.277500	0.457800	0.110000
H1161	H116	0.212400	0.485800	0.932500
H1171	H117	0.170000	0.437900	0.935500
H1181	H118	0.281000	0.430700	0.928300
H1191	H119	0.231500	0.332600	0.940200
H1201	H120	0.293800	0.345900	0.932900
H1211	H121	0.287400	0.415700	0.016000
H1221	H122	0.239400	0.458100	0.012000
H1231	H123	0.226600	0.396000	0.021700
H1241	H124	0.383000	0.579400	0.966700
H1251	H125	0.397400	0.536400	0.012000
H1261	H126	0.347200	0.526600	0.973300
H1271	H127	0.305100	0.549900	0.878400
H1281	H128	0.269200	0.546500	0.825400
H1291	H129	0.295700	0.602400	0.842700
H1301	H130	0.071000	0.511800	0.010500
H1311	H131	0.119700	0.472200	0.023900
H1321	H132	0.087200	0.500400	0.071500
H1331	H133	0.797600	0.603000	0.870200
H1341	H134	0.849800	0.604900	0.907600
H1351	H135	0.804200	0.651500	0.975700
H1361	H136	0.714500	0.679600	0.974100
H1371	H137	0.704100	0.653100	0.916500
H1381	H138	0.781800	0.554000	0.970300
H1391	H139	0.732900	0.586400	0.996200
H1401	H140	0.730300	0.568200	0.934800
H1411	H141	0.799100	0.810900	0.080900
H1421	H142	0.754700	0.767200	0.093200
H1431	H143	0.812100	0.697300	0.071800
H1441	H144	0.832600	0.744400	0.158100
H1451	H145	0.887600	0.723500	0.132400
H1461	H146	0.870800	0.785200	0.126500
H1471	H147	0.896900	0.714100	0.034900
H1481	H148	0.890000	0.777500	0.042200
H1491	H149	0.067500	0.712400	0.014200
H1501	H150	0.064500	0.670000	0.062100
H1511	H151	0.071700	0.781000	0.069300
H1521	H152	0.059800	0.731500	0.167400
H1531	H153	0.067100	0.793800	0.154100
H1541	H154	0.984000	0.787400	0.084300
H1551	H155	0.988000	0.739400	0.041900
H1561	H156	0.978300	0.726600	0.104000
H1571	H157	0.033300	0.883000	0.920600
H1581	H158	0.988000	0.897400	0.963600
H1591	H159	0.026700	0.847200	0.973400
H1601	H160	0.121600	0.805100	0.950100
H1611	H161	0.174600	0.769200	0.953500
H1621	H162	0.157300	0.795700	0.897600
H1631	H163	0.989500	0.571000	0.988200
H1641	H164	0.976100	0.619700	0.027800
H1651	H165	0.928500	0.587200	0.999600
H1661	H166	0.297600	0.897000	0.129800
H1671	H167	0.349800	0.895100	0.092400
H1681	H168	0.304200	0.848500	0.024300
H1691	H169	0.214500	0.820400	0.025900
H1701	H170	0.204100	0.846900	0.083500
H1711	H171	0.281800	0.946000	0.029700
H1721	H172	0.232900	0.913600	0.003800
H1731	H173	0.230300	0.931800	0.065200
H1741	H174	0.299100	0.689100	0.919100
H1751	H175	0.254700	0.732800	0.906800
H1761	H176	0.312100	0.802700	0.928200
H1771	H177	0.332600	0.755600	0.841900
H1781	H178	0.387600	0.776500	0.867600
H1791	H179	0.370800	0.714800	0.873500
H1801	H180	0.396900	0.785900	0.965100
H1811	H181	0.390000	0.722500	0.957800
H1821	H182	0.567500	0.787600	0.985800
H1831	H183	0.564500	0.830000	0.937900
H1841	H184	0.571700	0.719000	0.930700
H1851	H185	0.559800	0.768500	0.832600
H1861	H186	0.567100	0.706200	0.845900
H1871	H187	0.484000	0.712600	0.915700
H1881	H188	0.488000	0.760600	0.958100
H1891	H189	0.478300	0.773400	0.896000
H1901	H190	0.533300	0.617000	0.079400
H1911	H191	0.488000	0.602600	0.036400
H1921	H192	0.526700	0.652800	0.026600
H1931	H193	0.621600	0.694900	0.049900
H1941	H194	0.674600	0.730800	0.046500
H1951	H195	0.657300	0.704300	0.102400
H1961	H196	0.489500	0.929000	0.011800
H1971	H197	0.476100	0.880300	0.972200
H1981	H198	0.428500	0.912800	0.000400
H1991	H199	0.702400	0.397000	0.370200
H2001	H200	0.650200	0.395100	0.407600
H2011	H201	0.695800	0.348500	0.475700
H2021	H202	0.785500	0.320400	0.474100
H2031	H203	0.795900	0.346900	0.416500
H2041	H204	0.718200	0.446000	0.470300
H2051	H205	0.767100	0.413600	0.496200
H2061	H206	0.769700	0.431800	0.434800
H2071	H207	0.700900	0.189100	0.580900
H2081	H208	0.745300	0.232800	0.593200
H2091	H209	0.687900	0.302700	0.571800
H2101	H210	0.667400	0.255600	0.658100
H2111	H211	0.612400	0.276500	0.632400
H2121	H212	0.629200	0.214800	0.626500
H2131	H213	0.603100	0.285900	0.534900
H2141	H214	0.610000	0.222500	0.542200
H2151	H215	0.432500	0.287600	0.514200
H2161	H216	0.435500	0.330000	0.562100
H2171	H217	0.428300	0.219000	0.569300
H2181	H218	0.440200	0.268500	0.667400
H2191	H219	0.432900	0.206200	0.654100
H2201	H220	0.516000	0.212600	0.584300
H2211	H221	0.512000	0.260600	0.541900
H2221	H222	0.521700	0.273400	0.604000
H2231	H223	0.466700	0.117000	0.420600
H2241	H224	0.512000	0.102600	0.463600
H2251	H225	0.473300	0.152800	0.473400
H2261	H226	0.378400	0.194900	0.450100
H2271	H227	0.325400	0.230800	0.453500
H2281	H228	0.342700	0.204300	0.397600
H2291	H229	0.510500	0.429000	0.488200
H2301	H230	0.523900	0.380300	0.527800
H2311	H231	0.571500	0.412800	0.499600
H2321	H232	0.202400	0.103000	0.629800
H2331	H233	0.150200	0.104900	0.592400
H2341	H234	0.195800	0.151500	0.524300
H2351	H235	0.285500	0.179600	0.525900
H2361	H236	0.295900	0.153100	0.583500
H2371	H237	0.218200	0.054000	0.529700
H2381	H238	0.267100	0.086400	0.503800
H2391	H239	0.269700	0.068200	0.565200
H2401	H240	0.200900	0.310900	0.419100
H2411	H241	0.245300	0.267200	0.406800
H2421	H242	0.187900	0.197300	0.428200
H2431	H243	0.167400	0.244400	0.341900
H2441	H244	0.112400	0.223500	0.367600
H2451	H245	0.129200	0.285200	0.373500
H2461	H246	0.103100	0.214100	0.465100
H2471	H247	0.110000	0.277500	0.457800
H2481	H248	0.932500	0.212400	0.485800
H2491	H249	0.935500	0.170000	0.437900
H2501	H250	0.928300	0.281000	0.430700
H2511	H251	0.940200	0.231500	0.332600
H2521	H252	0.932900	0.293800	0.345900
H2531	H253	0.016000	0.287400	0.415700
H2541	H254	0.012000	0.239400	0.458100
H2551	H255	0.021700	0.226600	0.396000
H2561	H256	0.966700	0.383000	0.579400
H2571	H257	0.012000	0.397400	0.536400
H2581	H258	0.973300	0.347200	0.526600
H2591	H259	0.878400	0.305100	0.549900
H2601	H260	0.825400	0.269200	0.546500
H2611	H261	0.842700	0.295700	0.602400
H2621	H262	0.010500	0.071000	0.511800
H2631	H263	0.023900	0.119700	0.472200
H2641	H264	0.071500	0.087200	0.500400
H2651	H265	0.870200	0.797600	0.603000
H2661	H266	0.907600	0.849800	0.604900
H2671	H267	0.975700	0.804200	0.651500
H2681	H268	0.974100	0.714500	0.679600
H2691	H269	0.916500	0.704100	0.653100
H2701	H270	0.970300	0.781800	0.554000
H2711	H271	0.996200	0.732900	0.586400
H2721	H272	0.934800	0.730300	0.568200
H2731	H273	0.080900	0.799100	0.810900
H2741	H274	0.093200	0.754700	0.767200
H2751	H275	0.071800	0.812100	0.697300
H2761	H276	0.158100	0.832600	0.744400
H2771	H277	0.132400	0.887600	0.723500
H2781	H278	0.126500	0.870800	0.785200
H2791	H279	0.034900	0.896900	0.714100
H2801	H280	0.042200	0.890000	0.777500
H2811	H281	0.014200	0.067500	0.712400
H2821	H282	0.062100	0.064500	0.670000
H2831	H283	0.069300	0.071700	0.781000
H2841	H284	0.167400	0.059800	0.731500
H2851	H285	0.154100	0.067100	0.793800
H2861	H286	0.084300	0.984000	0.787400
H2871	H287	0.041900	0.988000	0.739400
H2881	H288	0.104000	0.978300	0.726600
H2891	H289	0.920600	0.033300	0.883000
H2901	H290	0.963600	0.988000	0.897400
H2911	H291	0.973400	0.026700	0.847200
H2921	H292	0.950100	0.121600	0.805100
H2931	H293	0.953500	0.174600	0.769200
H2941	H294	0.897600	0.157300	0.795700
H2951	H295	0.988200	0.989500	0.571000
H2961	H296	0.027800	0.976100	0.619700
H2971	H297	0.999600	0.928500	0.587200
H2981	H298	0.129800	0.297600	0.897000
H2991	H299	0.092400	0.349800	0.895100
H3001	H300	0.024300	0.304200	0.848500
H3011	H301	0.025900	0.214500	0.820400
H3021	H302	0.083500	0.204100	0.846900
H3031	H303	0.029700	0.281800	0.946000
H3041	H304	0.003800	0.232900	0.913600
H3051	H305	0.065200	0.230300	0.931800
H3061	H306	0.919100	0.299100	0.689100
H3071	H307	0.906800	0.254700	0.732800
H3081	H308	0.928200	0.312100	0.802700
H3091	H309	0.841900	0.332600	0.755600
H3101	H310	0.867600	0.387600	0.776500
H3111	H311	0.873500	0.370800	0.714800
H3121	H312	0.965100	0.396900	0.785900
H3131	H313	0.957800	0.390000	0.722500
H3141	H314	0.985800	0.567500	0.787600
H3151	H315	0.937900	0.564500	0.830000
H3161	H316	0.930700	0.571700	0.719000
H3171	H317	0.832600	0.559800	0.768500
H3181	H318	0.845900	0.567100	0.706200
H3191	H319	0.915700	0.484000	0.712600
H3201	H320	0.958100	0.488000	0.760600
H3211	H321	0.896000	0.478300	0.773400
H3221	H322	0.079400	0.533300	0.617000
H3231	H323	0.036400	0.488000	0.602600
H3241	H324	0.026600	0.526700	0.652800
H3251	H325	0.049900	0.621600	0.694900
H3261	H326	0.046500	0.674600	0.730800
H3271	H327	0.102400	0.657300	0.704300
H3281	H328	0.011800	0.489500	0.929000
H3291	H329	0.972200	0.476100	0.880300
H3301	H330	0.000400	0.428500	0.912800
H3311	H331	0.370200	0.702400	0.397000
H3321	H332	0.407600	0.650200	0.395100
H3331	H333	0.475700	0.695800	0.348500
H3341	H334	0.474100	0.785500	0.320400
H3351	H335	0.416500	0.795900	0.346900
H3361	H336	0.470300	0.718200	0.446000
H3371	H337	0.496200	0.767100	0.413600
H3381	H338	0.434800	0.769700	0.431800
H3391	H339	0.580900	0.700900	0.189100
H3401	H340	0.593200	0.745300	0.232800
H3411	H341	0.571800	0.687900	0.302700
H3421	H342	0.658100	0.667400	0.255600
H3431	H343	0.632400	0.612400	0.276500
H3441	H344	0.626500	0.629200	0.214800
H3451	H345	0.534900	0.603100	0.285900
H3461	H346	0.542200	0.610000	0.222500
H3471	H347	0.514200	0.432500	0.287600
H3481	H348	0.562100	0.435500	0.330000
H3491	H349	0.569300	0.428300	0.219000
H3501	H350	0.667400	0.440200	0.268500
H3511	H351	0.654100	0.432900	0.206200
H3521	H352	0.584300	0.516000	0.212600
H3531	H353	0.541900	0.512000	0.260600
H3541	H354	0.604000	0.521700	0.273400
H3551	H355	0.420600	0.466700	0.117000
H3561	H356	0.463600	0.512000	0.102600
H3571	H357	0.473400	0.473300	0.152800
H3581	H358	0.450100	0.378400	0.194900
H3591	H359	0.453500	0.325400	0.230800
H3601	H360	0.397600	0.342700	0.204300
H3611	H361	0.488200	0.510500	0.429000
H3621	H362	0.527800	0.523900	0.380300
H3631	H363	0.499600	0.571500	0.412800
H3641	H364	0.629800	0.202400	0.103000
H3651	H365	0.592400	0.150200	0.104900
H3661	H366	0.524300	0.195800	0.151500
H3671	H367	0.525900	0.285500	0.179600
H3681	H368	0.583500	0.295900	0.153100
H3691	H369	0.529700	0.218200	0.054000
H3701	H370	0.503800	0.267100	0.086400
H3711	H371	0.565200	0.269700	0.068200
H3721	H372	0.419100	0.200900	0.310900
H3731	H373	0.406800	0.245300	0.267200
H3741	H374	0.428200	0.187900	0.197300
H3751	H375	0.341900	0.167400	0.244400
H3761	H376	0.367600	0.112400	0.223500
H3771	H377	0.373500	0.129200	0.285200
H3781	H378	0.465100	0.103100	0.214100
H3791	H379	0.457800	0.110000	0.277500
H3801	H380	0.485800	0.932500	0.212400
H3811	H381	0.437900	0.935500	0.170000
H3821	H382	0.430700	0.928300	0.281000
H3831	H383	0.332600	0.940200	0.231500
H3841	H384	0.345900	0.932900	0.293800
H3851	H385	0.415700	0.016000	0.287400
H3861	H386	0.458100	0.012000	0.239400
H3871	H387	0.396000	0.021700	0.226600
H3881	H388	0.579400	0.966700	0.383000
H3891	H389	0.536400	0.012000	0.397400
H3901	H390	0.526600	0.973300	0.347200
H3911	H391	0.549900	0.878400	0.305100
H3921	H392	0.546500	0.825400	0.269200
H3931	H393	0.602400	0.842700	0.295700
H3941	H394	0.511800	0.010500	0.071000
H3951	H395	0.472200	0.023900	0.119700
H3961	H396	0.500400	0.071500	0.087200
C11	C1	0.625500	0.895900	0.817900
C21	C2	0.637200	0.945600	0.781800
C31	C3	0.672700	0.938600	0.730700
C41	C4	0.580800	0.963500	0.753900
C51	C5	0.777200	0.067300	0.783100
C61	C6	0.734700	0.072800	0.826500
C71	C7	0.748300	0.127800	0.857400
C81	C8	0.744100	0.032600	0.870900
C91	C9	0.704800	0.051100	0.080100
C101	C10	0.747700	0.087900	0.059200
C111	C11	0.757200	0.143200	0.077900
C121	C12	0.750600	0.078700	0.996400
C131	C13	0.833700	0.918200	0.970000
C141	C14	0.868100	0.946200	0.007600
C151	C15	0.729000	0.917300	0.111000
C161	C16	0.779300	0.930900	0.144200
C171	C17	0.639500	0.948200	0.966500
C181	C18	0.600900	0.995100	0.965000
C191	C19	0.874500	0.104100	0.317900
C201	C20	0.862800	0.054400	0.281800
C211	C21	0.827300	0.061400	0.230700
C221	C22	0.919200	0.036500	0.253900
C231	C23	0.722800	0.932700	0.283100
C241	C24	0.765300	0.927200	0.326500
C251	C25	0.751700	0.872200	0.357400
C261	C26	0.755900	0.967400	0.370900
C271	C27	0.795200	0.948900	0.580100
C281	C28	0.752300	0.912100	0.559200
C291	C29	0.742800	0.856800	0.577900
C301	C30	0.749400	0.921300	0.496400
C311	C31	0.666300	0.081800	0.470000
C321	C32	0.631900	0.053800	0.507600
C331	C33	0.771000	0.082700	0.611000
C341	C34	0.720700	0.069100	0.644200
C351	C35	0.860500	0.051800	0.466500
C361	C36	0.899100	0.004900	0.465000
C371	C37	0.374500	0.395900	0.682100
C381	C38	0.362800	0.445600	0.718200
C391	C39	0.327300	0.438600	0.769300
C401	C40	0.419200	0.463500	0.746100
C411	C41	0.222800	0.567300	0.716900
C421	C42	0.265300	0.572800	0.673500
C431	C43	0.251700	0.627800	0.642600
C441	C44	0.255900	0.532600	0.629100
C451	C45	0.295200	0.551100	0.419900
C461	C46	0.252300	0.587900	0.440800
C471	C47	0.242800	0.643200	0.422100
C481	C48	0.249400	0.578700	0.503600
C491	C49	0.166300	0.418200	0.530000
C501	C50	0.131900	0.446200	0.492400
C511	C51	0.271000	0.417300	0.389000
C521	C52	0.220700	0.430900	0.355800
C531	C53	0.360500	0.448200	0.533500
C541	C54	0.399100	0.495100	0.535000
C551	C55	0.125500	0.604100	0.182100
C561	C56	0.137200	0.554400	0.218200
C571	C57	0.172700	0.561400	0.269300
C581	C58	0.080800	0.536500	0.246100
C591	C59	0.277200	0.432700	0.216900
C601	C60	0.234700	0.427200	0.173500
C611	C61	0.248300	0.372200	0.142600
C621	C62	0.244100	0.467400	0.129100
C631	C63	0.204800	0.448900	0.919900
C641	C64	0.247700	0.412100	0.940800
C651	C65	0.257200	0.356800	0.922100
C661	C66	0.250600	0.421300	0.003600
C671	C67	0.333700	0.581800	0.030000
C681	C68	0.368100	0.553800	0.992400
C691	C69	0.229000	0.582700	0.889000
C701	C70	0.279300	0.569100	0.855800
C711	C71	0.139500	0.551800	0.033500
C721	C72	0.100900	0.504900	0.035000
C731	C73	0.817900	0.625500	0.895900
C741	C74	0.781800	0.637200	0.945600
C751	C75	0.730700	0.672700	0.938600
C761	C76	0.753900	0.580800	0.963500
C771	C77	0.783100	0.777200	0.067300
C781	C78	0.826500	0.734700	0.072800
C791	C79	0.857400	0.748300	0.127800
C801	C80	0.870900	0.744100	0.032600
C811	C81	0.080100	0.704800	0.051100
C821	C82	0.059200	0.747700	0.087900
C831	C83	0.077900	0.757200	0.143200
C841	C84	0.996400	0.750600	0.078700
C851	C85	0.970000	0.833700	0.918200
C861	C86	0.007600	0.868100	0.946200
C871	C87	0.111000	0.729000	0.917300
C881	C88	0.144200	0.779300	0.930900
C891	C89	0.966500	0.639500	0.948200
C901	C90	0.965000	0.600900	0.995100
C911	C91	0.317900	0.874500	0.104100
C921	C92	0.281800	0.862800	0.054400
C931	C93	0.230700	0.827300	0.061400
C941	C94	0.253900	0.919200	0.036500
C951	C95	0.283100	0.722800	0.932700
C961	C96	0.326500	0.765300	0.927200
C971	C97	0.357400	0.751700	0.872200
C981	C98	0.370900	0.755900	0.967400
C991	C99	0.580100	0.795200	0.948900
C1001	C100	0.559200	0.752300	0.912100
C1011	C101	0.577900	0.742800	0.856800
C1021	C102	0.496400	0.749400	0.921300
C1031	C103	0.470000	0.666300	0.081800
C1041	C104	0.507600	0.631900	0.053800
C1051	C105	0.611000	0.771000	0.082700
C1061	C106	0.644200	0.720700	0.069100
C1071	C107	0.466500	0.860500	0.051800
C1081	C108	0.465000	0.899100	0.004900
C1091	C109	0.682100	0.374500	0.395900
C1101	C110	0.718200	0.362800	0.445600
C1111	C111	0.769300	0.327300	0.438600
C1121	C112	0.746100	0.419200	0.463500
C1131	C113	0.716900	0.222800	0.567300
C1141	C114	0.673500	0.265300	0.572800
C1151	C115	0.642600	0.251700	0.627800
C1161	C116	0.629100	0.255900	0.532600
C1171	C117	0.419900	0.295200	0.551100
C1181	C118	0.440800	0.252300	0.587900
C1191	C119	0.422100	0.242800	0.643200
C1201	C120	0.503600	0.249400	0.578700
C1211	C121	0.530000	0.166300	0.418200
C1221	C122	0.492400	0.131900	0.446200
C1231	C123	0.389000	0.271000	0.417300
C1241	C124	0.355800	0.220700	0.430900
C1251	C125	0.533500	0.360500	0.448200
C1261	C126	0.535000	0.399100	0.495100
C1271	C127	0.182100	0.125500	0.604100
C1281	C128	0.218200	0.137200	0.554400
C1291	C129	0.269300	0.172700	0.561400
C1301	C130	0.246100	0.080800	0.536500
C1311	C131	0.216900	0.277200	0.432700
C1321	C132	0.173500	0.234700	0.427200
C1331	C133	0.142600	0.248300	0.372200
C1341	C134	0.129100	0.244100	0.467400
C1351	C135	0.919900	0.204800	0.448900
C1361	C136	0.940800	0.247700	0.412100
C1371	C137	0.922100	0.257200	0.356800
C1381	C138	0.003600	0.250600	0.421300
C1391	C139	0.030000	0.333700	0.581800
C1401	C140	0.992400	0.368100	0.553800
C1411	C141	0.889000	0.229000	0.582700
C1421	C142	0.855800	0.279300	0.569100
C1431	C143	0.033500	0.139500	0.551800
C1441	C144	0.035000	0.100900	0.504900
C1451	C145	0.895900	0.817900	0.625500
C1461	C146	0.945600	0.781800	0.637200
C1471	C147	0.938600	0.730700	0.672700
C1481	C148	0.963500	0.753900	0.580800
C1491	C149	0.067300	0.783100	0.777200
C1501	C150	0.072800	0.826500	0.734700
C1511	C151	0.127800	0.857400	0.748300
C1521	C152	0.032600	0.870900	0.744100
C1531	C153	0.051100	0.080100	0.704800
C1541	C154	0.087900	0.059200	0.747700
C1551	C155	0.143200	0.077900	0.757200
C1561	C156	0.078700	0.996400	0.750600
C1571	C157	0.918200	0.970000	0.833700
C1581	C158	0.946200	0.007600	0.868100
C1591	C159	0.917300	0.111000	0.729000
C1601	C160	0.930900	0.144200	0.779300
C1611	C161	0.948200	0.966500	0.639500
C1621	C162	0.995100	0.965000	0.600900
C1631	C163	0.104100	0.317900	0.874500
C1641	C164	0.054400	0.281800	0.862800
C1651	C165	0.061400	0.230700	0.827300
C1661	C166	0.036500	0.253900	0.919200
C1671	C167	0.932700	0.283100	0.722800
C1681	C168	0.927200	0.326500	0.765300
C1691	C169	0.872200	0.357400	0.751700
C1701	C170	0.967400	0.370900	0.755900
C1711	C171	0.948900	0.580100	0.795200
C1721	C172	0.912100	0.559200	0.752300
C1731	C173	0.856800	0.577900	0.742800
C1741	C174	0.921300	0.496400	0.749400
C1751	C175	0.081800	0.470000	0.666300
C1761	C176	0.053800	0.507600	0.631900
C1771	C177	0.082700	0.611000	0.771000
C1781	C178	0.069100	0.644200	0.720700
C1791	C179	0.051800	0.466500	0.860500
C1801	C180	0.004900	0.465000	0.899100
C1811	C181	0.395900	0.682100	0.374500
C1821	C182	0.445600	0.718200	0.362800
C1831	C183	0.438600	0.769300	0.327300
C1841	C184	0.463500	0.746100	0.419200
C1851	C185	0.567300	0.716900	0.222800
C1861	C186	0.572800	0.673500	0.265300
C1871	C187	0.627800	0.642600	0.251700
C1881	C188	0.532600	0.629100	0.255900
C1891	C189	0.551100	0.419900	0.295200
C1901	C190	0.587900	0.440800	0.252300
C1911	C191	0.643200	0.422100	0.242800
C1921	C192	0.578700	0.503600	0.249400
C1931	C193	0.418200	0.530000	0.166300
C1941	C194	0.446200	0.492400	0.131900
C1951	C195	0.417300	0.389000	0.271000
C1961	C196	0.430900	0.355800	0.220700
C1971	C197	0.448200	0.533500	0.360500
C1981	C198	0.495100	0.535000	0.399100
C1991	C199	0.604100	0.182100	0.125500
C2001	C200	0.554400	0.218200	0.137200
C2011	C201	0.561400	0.269300	0.172700
C2021	C202	0.536500	0.246100	0.080800
C2031	C203	0.432700	0.216900	0.277200
C2041	C204	0.427200	0.173500	0.234700
C2051	C205	0.372200	0.142600	0.248300
C2061	C206	0.467400	0.129100	0.244100
C2071	C207	0.448900	0.919900	0.204800
C2081	C208	0.412100	0.940800	0.247700
C2091	C209	0.356800	0.922100	0.257200
C2101	C210	0.421300	0.003600	0.250600
C2111	C211	0.581800	0.030000	0.333700
C2121	C212	0.553800	0.992400	0.368100
C2131	C213	0.582700	0.889000	0.229000
C2141	C214	0.569100	0.855800	0.279300
C2151	C215	0.551800	0.033500	0.139500
C2161	C216	0.504900	0.035000	0.100900
O11	O1	0.673000	0.869300	0.835300
O21	O2	0.724800	0.912400	0.743500
O31	O3	0.748200	0.978500	0.852000
O41	O4	0.791100	0.019300	0.756000
O51	O5	0.699800	0.050200	0.137300
O61	O6	0.752200	0.149700	0.132400
O71	O7	0.790100	0.942300	0.955600
O81	O8	0.847200	0.872400	0.950400
O91	O9	0.684000	0.926000	0.132900
O101	O10	0.734600	0.892600	0.068600
O111	O11	0.633600	0.913500	0.004600
O121	O12	0.672800	0.944800	0.928400
O131	O13	0.659200	0.809200	0.728000
O141	O14	0.733400	0.837800	0.926200
O151	O15	0.784500	0.885000	0.833200
O161	O16	0.778200	0.823700	0.727600
O171	O17	0.851800	0.209100	0.144700
O181	O18	0.827000	0.130700	0.335300
O191	O19	0.775200	0.087600	0.243500
O201	O20	0.751800	0.021500	0.352000
O211	O21	0.708900	0.980700	0.256000
O221	O22	0.800200	0.949800	0.637300
O231	O23	0.747800	0.850300	0.632400
O241	O24	0.709900	0.057700	0.455600
O251	O25	0.652800	0.127600	0.450400
O261	O26	0.816000	0.074000	0.632900
O271	O27	0.765400	0.107400	0.568600
O281	O28	0.866400	0.086500	0.504600
O291	O29	0.827200	0.055200	0.428400
O301	O30	0.840800	0.190800	0.228000
O311	O31	0.766600	0.162200	0.426200
O321	O32	0.715500	0.115000	0.333200
O331	O33	0.721800	0.176300	0.227600
O341	O34	0.648200	0.790900	0.644700
O351	O35	0.327000	0.369300	0.664700
O361	O36	0.275200	0.412400	0.756500
O371	O37	0.251800	0.478500	0.648000
O381	O38	0.208900	0.519300	0.744000
O391	O39	0.300200	0.550200	0.362700
O401	O40	0.247800	0.649700	0.367600
O411	O41	0.209900	0.442300	0.544400
O421	O42	0.152800	0.372400	0.549600
O431	O43	0.316000	0.426000	0.367100
O441	O44	0.265400	0.392600	0.431400
O451	O45	0.366400	0.413500	0.495400
O461	O46	0.327200	0.444800	0.571600
O471	O47	0.340800	0.309200	0.772000
O481	O48	0.266600	0.337800	0.573800
O491	O49	0.215500	0.385000	0.666800
O501	O50	0.221800	0.323700	0.772400
O511	O51	0.148200	0.709100	0.355300
O521	O52	0.173000	0.630700	0.164700
O531	O53	0.224800	0.587600	0.256500
O541	O54	0.248200	0.521500	0.148000
O551	O55	0.291100	0.480700	0.244000
O561	O56	0.199800	0.449800	0.862700
O571	O57	0.252200	0.350300	0.867600
O581	O58	0.290100	0.557700	0.044400
O591	O59	0.347200	0.627600	0.049600
O601	O60	0.184000	0.574000	0.867100
O611	O61	0.234600	0.607400	0.931400
O621	O62	0.133600	0.586500	0.995400
O631	O63	0.172800	0.555200	0.071600
O641	O64	0.159200	0.690800	0.272000
O651	O65	0.233400	0.662200	0.073800
O661	O66	0.284500	0.615000	0.166800
O671	O67	0.278200	0.676300	0.272400
O681	O68	0.351800	0.290900	0.855300
O691	O69	0.835300	0.673000	0.869300
O701	O70	0.743500	0.724800	0.912400
O711	O71	0.852000	0.748200	0.978500
O721	O72	0.756000	0.791100	0.019300
O731	O73	0.137300	0.699800	0.050200
O741	O74	0.132400	0.752200	0.149700
O751	O75	0.955600	0.790100	0.942300
O761	O76	0.950400	0.847200	0.872400
O771	O77	0.132900	0.684000	0.926000
O781	O78	0.068600	0.734600	0.892600
O791	O79	0.004600	0.633600	0.913500
O801	O80	0.928400	0.672800	0.944800
O811	O81	0.728000	0.659200	0.809200
O821	O82	0.926200	0.733400	0.837800
O831	O83	0.833200	0.784500	0.885000
O841	O84	0.727600	0.778200	0.823700
O851	O85	0.144700	0.851800	0.209100
O861	O86	0.335300	0.827000	0.130700
O871	O87	0.243500	0.775200	0.087600
O881	O88	0.352000	0.751800	0.021500
O891	O89	0.256000	0.708900	0.980700
O901	O90	0.637300	0.800200	0.949800
O911	O91	0.632400	0.747800	0.850300
O921	O92	0.455600	0.709900	0.057700
O931	O93	0.450400	0.652800	0.127600
O941	O94	0.632900	0.816000	0.074000
O951	O95	0.568600	0.765400	0.107400
O961	O96	0.504600	0.866400	0.086500
O971	O97	0.428400	0.827200	0.055200
O981	O98	0.228000	0.840800	0.190800
O991	O99	0.426200	0.766600	0.162200
O1001	O100	0.333200	0.715500	0.115000
O1011	O101	0.227600	0.721800	0.176300
O1021	O102	0.644700	0.648200	0.790900
O1031	O103	0.664700	0.327000	0.369300
O1041	O104	0.756500	0.275200	0.412400
O1051	O105	0.648000	0.251800	0.478500
O1061	O106	0.744000	0.208900	0.519300
O1071	O107	0.362700	0.300200	0.550200
O1081	O108	0.367600	0.247800	0.649700
O1091	O109	0.544400	0.209900	0.442300
O1101	O110	0.549600	0.152800	0.372400
O1111	O111	0.367100	0.316000	0.426000
O1121	O112	0.431400	0.265400	0.392600
O1131	O113	0.495400	0.366400	0.413500
O1141	O114	0.571600	0.327200	0.444800
O1151	O115	0.772000	0.340800	0.309200
O1161	O116	0.573800	0.266600	0.337800
O1171	O117	0.666800	0.215500	0.385000
O1181	O118	0.772400	0.221800	0.323700
O1191	O119	0.355300	0.148200	0.709100
O1201	O120	0.164700	0.173000	0.630700
O1211	O121	0.256500	0.224800	0.587600
O1221	O122	0.148000	0.248200	0.521500
O1231	O123	0.244000	0.291100	0.480700
O1241	O124	0.862700	0.199800	0.449800
O1251	O125	0.867600	0.252200	0.350300
O1261	O126	0.044400	0.290100	0.557700
O1271	O127	0.049600	0.347200	0.627600
O1281	O128	0.867100	0.184000	0.574000
O1291	O129	0.931400	0.234600	0.607400
O1301	O130	0.995400	0.133600	0.586500
O1311	O131	0.071600	0.172800	0.555200
O1321	O132	0.272000	0.159200	0.690800
O1331	O133	0.073800	0.233400	0.662200
O1341	O134	0.166800	0.284500	0.615000
O1351	O135	0.272400	0.278200	0.676300
O1361	O136	0.855300	0.351800	0.290900
O1371	O137	0.869300	0.835300	0.673000
O1381	O138	0.912400	0.743500	0.724800
O1391	O139	0.978500	0.852000	0.748200
O1401	O140	0.019300	0.756000	0.791100
O1411	O141	0.050200	0.137300	0.699800
O1421	O142	0.149700	0.132400	0.752200
O1431	O143	0.942300	0.955600	0.790100
O1441	O144	0.872400	0.950400	0.847200
O1451	O145	0.926000	0.132900	0.684000
O1461	O146	0.892600	0.068600	0.734600
O1471	O147	0.913500	0.004600	0.633600
O1481	O148	0.944800	0.928400	0.672800
O1491	O149	0.809200	0.728000	0.659200
O1501	O150	0.837800	0.926200	0.733400
O1511	O151	0.885000	0.833200	0.784500
O1521	O152	0.823700	0.727600	0.778200
O1531	O153	0.209100	0.144700	0.851800
O1541	O154	0.130700	0.335300	0.827000
O1551	O155	0.087600	0.243500	0.775200
O1561	O156	0.021500	0.352000	0.751800
O1571	O157	0.980700	0.256000	0.708900
O1581	O158	0.949800	0.637300	0.800200
O1591	O159	0.850300	0.632400	0.747800
O1601	O160	0.057700	0.455600	0.709900
O1611	O161	0.127600	0.450400	0.652800
O1621	O162	0.074000	0.632900	0.816000
O1631	O163	0.107400	0.568600	0.765400
O1641	O164	0.086500	0.504600	0.866400
O1651	O165	0.055200	0.428400	0.827200
O1661	O166	0.190800	0.228000	0.840800
O1671	O167	0.162200	0.426200	0.766600
O1681	O168	0.115000	0.333200	0.715500
O1691	O169	0.176300	0.227600	0.721800
O1701	O170	0.790900	0.644700	0.648200
O1711	O171	0.369300	0.664700	0.327000
O1721	O172	0.412400	0.756500	0.275200
O1731	O173	0.478500	0.648000	0.251800
O1741	O174	0.519300	0.744000	0.208900
O1751	O175	0.550200	0.362700	0.300200
O1761	O176	0.649700	0.367600	0.247800
O1771	O177	0.442300	0.544400	0.209900
O1781	O178	0.372400	0.549600	0.152800
O1791	O179	0.426000	0.367100	0.316000
O1801	O180	0.392600	0.431400	0.265400
O1811	O181	0.413500	0.495400	0.366400
O1821	O182	0.444800	0.571600	0.327200
O1831	O183	0.309200	0.772000	0.340800
O1841	O184	0.337800	0.573800	0.266600
O1851	O185	0.385000	0.666800	0.215500
O1861	O186	0.323700	0.772400	0.221800
O1871	O187	0.709100	0.355300	0.148200
O1881	O188	0.630700	0.164700	0.173000
O1891	O189	0.587600	0.256500	0.224800
O1901	O190	0.521500	0.148000	0.248200
O1911	O191	0.480700	0.244000	0.291100
O1921	O192	0.449800	0.862700	0.199800
O1931	O193	0.350300	0.867600	0.252200
O1941	O194	0.557700	0.044400	0.290100
O1951	O195	0.627600	0.049600	0.347200
O1961	O196	0.574000	0.867100	0.184000
O1971	O197	0.607400	0.931400	0.234600
O1981	O198	0.586500	0.995400	0.133600
O1991	O199	0.555200	0.071600	0.172800
O2001	O200	0.690800	0.272000	0.159200
O2011	O201	0.662200	0.073800	0.233400
O2021	O202	0.615000	0.166800	0.284500
O2031	O203	0.676300	0.272400	0.278200
O2041	O204	0.290900	0.855300	0.351800
O2051	O205	0.788000	0.288000	0.212000
O2061	O206	0.712000	0.712000	0.712000
O2071	O207	0.212000	0.788000	0.288000
O2081	O208	0.288000	0.212000	0.788000
