data_GEVYEN_freeONLY_PM
_symmetry_space_group_name_H-M	'P1'
_cell_length_a	7.697800
_cell_length_b	17.250000
_cell_length_c	14.089000
_cell_angle_alpha	90.000000
_cell_angle_beta	93.102000
_cell_angle_gamma	90.000000
_symmetry_Int_Tables_number 1

loop_
_symmetry_equiv_pos_as_xyz
'x,y,z'

loop_
_atom_site_label
_atom_site_type_symbol
_atom_site_fract_x
_atom_site_fract_y
_atom_site_fract_z
Zn11	Zn1	0.411490	0.626290	0.295070
O11	O1	0.345700	0.765080	0.799500
O21	O2	0.286700	0.777150	0.645600
O31	O3	0.957400	0.397950	0.644000
O41	O4	0.758100	0.454610	0.728600
N11	N1	0.596600	0.600330	0.205300
N21	N2	0.499400	0.616320	0.435300
C11	C1	0.659400	0.635100	0.470600
H11	H1	0.747100	0.642900	0.428800
C21	C2	0.698000	0.643300	0.566900
H21	H2	0.810500	0.655900	0.589100
C31	C3	0.570500	0.632800	0.629600
H31	H3	0.595100	0.638600	0.694600
C41	C4	0.404500	0.613300	0.595200
C51	C5	0.378300	0.604400	0.498300
H41	H4	0.268400	0.589100	0.475000
C61	C6	0.254200	0.602500	0.655700
C71	C7	0.205700	0.661000	0.719400
C81	C8	0.066600	0.648600	0.775500
H51	H5	0.038100	0.686100	0.819500
C91	C9	0.733600	0.645000	0.191400
H61	H6	0.744200	0.691500	0.224600
C101	C10	0.860800	0.625700	0.130500
H71	H7	0.954100	0.659000	0.123200
C111	C11	0.849700	0.556800	0.080100
C121	C12	0.704100	0.511100	0.092000
H81	H8	0.688600	0.465200	0.057900
C131	C13	0.583000	0.534000	0.154300
H91	H9	0.486900	0.502400	0.161800
C141	C14	0.990400	0.533800	0.019500
H101	H10	0.073700	0.571200	0.007800
C151	C15	0.904800	0.452800	0.690400
C161	C16	0.012200	0.524600	0.704100
C171	C17	0.156700	0.535000	0.649900
H111	H11	0.188300	0.495800	0.608900
C181	C18	0.969200	0.581600	0.767300
H121	H12	0.874200	0.574800	0.804500
C191	C19	0.287100	0.739600	0.719600
Zn21	Zn2	0.588510	0.126290	0.204930
O51	O5	0.654300	0.265080	0.700500
O61	O6	0.713300	0.277150	0.854400
O71	O7	0.042600	0.897950	0.856000
O81	O8	0.241900	0.954610	0.771400
N31	N3	0.403400	0.100330	0.294700
N41	N4	0.500600	0.116320	0.064700
C201	C20	0.340600	0.135100	0.029400
H131	H13	0.252900	0.142900	0.071200
C211	C21	0.302000	0.143300	0.933100
H141	H14	0.189500	0.155900	0.910900
C221	C22	0.429500	0.132800	0.870400
H151	H15	0.404900	0.138600	0.805400
C231	C23	0.595500	0.113300	0.904800
C241	C24	0.621700	0.104400	0.001700
H161	H16	0.731600	0.089100	0.025000
C251	C25	0.745800	0.102500	0.844300
C261	C26	0.794300	0.161000	0.780600
C271	C27	0.933400	0.148600	0.724500
H171	H17	0.961900	0.186100	0.680500
C281	C28	0.266400	0.145000	0.308600
H181	H18	0.255800	0.191500	0.275400
C291	C29	0.139200	0.125700	0.369500
H191	H19	0.045900	0.159000	0.376800
C301	C30	0.150300	0.056800	0.419900
C311	C31	0.295900	0.011100	0.408000
H201	H20	0.311400	0.965200	0.442100
C321	C32	0.417000	0.034000	0.345700
H211	H21	0.513100	0.002400	0.338200
C331	C33	0.009600	0.033800	0.480500
H221	H22	0.926300	0.071200	0.492200
C341	C34	0.095200	0.952800	0.809600
C351	C35	0.987800	0.024600	0.795900
C361	C36	0.843300	0.035000	0.850100
H231	H23	0.811700	0.995800	0.891100
C371	C37	0.030800	0.081600	0.732700
H241	H24	0.125800	0.074800	0.695500
C381	C38	0.712900	0.239600	0.780400
Zn31	Zn3	0.588510	0.373710	0.704930
O91	O9	0.654300	0.234920	0.200500
O101	O10	0.713300	0.222850	0.354400
O111	O11	0.042600	0.602050	0.356000
O121	O12	0.241900	0.545390	0.271400
N51	N5	0.403400	0.399670	0.794700
N61	N6	0.500600	0.383680	0.564700
C391	C39	0.340600	0.364900	0.529400
H251	H25	0.252900	0.357100	0.571200
C401	C40	0.302000	0.356700	0.433100
H261	H26	0.189500	0.344100	0.410900
C411	C41	0.429500	0.367200	0.370400
H271	H27	0.404900	0.361400	0.305400
C421	C42	0.595500	0.386700	0.404800
C431	C43	0.621700	0.395600	0.501700
H281	H28	0.731600	0.410900	0.525000
C441	C44	0.745800	0.397500	0.344300
C451	C45	0.794300	0.339000	0.280600
C461	C46	0.933400	0.351400	0.224500
H291	H29	0.961900	0.313900	0.180500
C471	C47	0.266400	0.355000	0.808600
H301	H30	0.255800	0.308500	0.775400
C481	C48	0.139200	0.374300	0.869500
H311	H31	0.045900	0.341000	0.876800
C491	C49	0.150300	0.443200	0.919900
C501	C50	0.295900	0.488900	0.908000
H321	H32	0.311400	0.534800	0.942100
C511	C51	0.417000	0.466000	0.845700
H331	H33	0.513100	0.497600	0.838200
C521	C52	0.009600	0.466200	0.980500
H341	H34	0.926300	0.428800	0.992200
C531	C53	0.095200	0.547200	0.309600
C541	C54	0.987800	0.475400	0.295900
C551	C55	0.843300	0.465000	0.350100
H351	H35	0.811700	0.504200	0.391100
C561	C56	0.030800	0.418400	0.232700
H361	H36	0.125800	0.425200	0.195500
C571	C57	0.712900	0.260400	0.280400
Zn41	Zn4	0.411490	0.873710	0.795070
O131	O13	0.345700	0.734920	0.299500
O141	O14	0.286700	0.722850	0.145600
O151	O15	0.957400	0.102050	0.144000
O161	O16	0.758100	0.045390	0.228600
N71	N7	0.596600	0.899670	0.705300
N81	N8	0.499400	0.883680	0.935300
C581	C58	0.659400	0.864900	0.970600
H371	H37	0.747100	0.857100	0.928800
C591	C59	0.698000	0.856700	0.066900
H381	H38	0.810500	0.844100	0.089100
C601	C60	0.570500	0.867200	0.129600
H391	H39	0.595100	0.861400	0.194600
C611	C61	0.404500	0.886700	0.095200
C621	C62	0.378300	0.895600	0.998300
H401	H40	0.268400	0.910900	0.975000
C631	C63	0.254200	0.897500	0.155700
C641	C64	0.205700	0.839000	0.219400
C651	C65	0.066600	0.851400	0.275500
H411	H41	0.038100	0.813900	0.319500
C661	C66	0.733600	0.855000	0.691400
H421	H42	0.744200	0.808500	0.724600
C671	C67	0.860800	0.874300	0.630500
H431	H43	0.954100	0.841000	0.623200
C681	C68	0.849700	0.943200	0.580100
C691	C69	0.704100	0.988900	0.592000
H441	H44	0.688600	0.034800	0.557900
C701	C70	0.583000	0.966000	0.654300
H451	H45	0.486900	0.997600	0.661800
C711	C71	0.990400	0.966200	0.519500
H461	H46	0.073700	0.928800	0.507800
C721	C72	0.904800	0.047200	0.190400
C731	C73	0.012200	0.975400	0.204100
C741	C74	0.156700	0.965000	0.149900
H471	H47	0.188300	0.004200	0.108900
C751	C75	0.969200	0.918400	0.267300
H481	H48	0.874200	0.925200	0.304500
C761	C76	0.287100	0.760400	0.219600
