data_GIKMOD08_freeONLY_PM
_symmetry_space_group_name_H-M	'P1'
_cell_length_a	7.337800
_cell_length_b	10.144700
_cell_length_c	18.201000
_cell_angle_alpha	90.000000
_cell_angle_beta	90.000000
_cell_angle_gamma	94.393000
_symmetry_Int_Tables_number 1

loop_
_symmetry_equiv_pos_as_xyz
'x,y,z'

loop_
_atom_site_label
_atom_site_type_symbol
_atom_site_fract_x
_atom_site_fract_y
_atom_site_fract_z
Cu11	Cu1	0.866520	0.217870	0.906010
Cu21	Cu2	0.047370	0.933290	0.931570
Cu31	Cu3	0.633480	0.282130	0.406010
Cu41	Cu4	0.452630	0.566710	0.431570
Cu51	Cu5	0.133480	0.782130	0.093990
Cu61	Cu6	0.952630	0.066710	0.068430
Cu71	Cu7	0.366520	0.717870	0.593990
Cu81	Cu8	0.547370	0.433290	0.568430
H11	H1	0.786500	0.166800	0.693800
H21	H2	0.947000	0.798000	0.706700
H31	H3	0.783500	0.939300	0.512500
H41	H4	0.713500	0.333200	0.193800
H51	H5	0.553000	0.702000	0.206700
H61	H6	0.716500	0.560700	0.012500
H71	H7	0.213500	0.833200	0.306200
H81	H8	0.053000	0.202000	0.293300
H91	H9	0.216500	0.060700	0.487500
H101	H10	0.286500	0.666800	0.806200
H111	H11	0.447000	0.298000	0.793300
H121	H12	0.283500	0.439300	0.987500
C11	C1	0.865500	0.850100	0.604580
C21	C2	0.774300	0.071900	0.596130
C31	C3	0.807600	0.087100	0.671190
C41	C4	0.871300	0.985900	0.712880
C51	C5	0.905500	0.009800	0.793040
C61	C6	0.902400	0.866200	0.679560
C71	C7	0.804400	0.951200	0.562520
C81	C8	0.704200	0.183500	0.554260
C91	C9	0.634500	0.649900	0.104580
C101	C10	0.725700	0.428100	0.096130
C111	C11	0.692400	0.412900	0.171190
C121	C12	0.628700	0.514100	0.212880
C131	C13	0.594500	0.490200	0.293040
C141	C14	0.597600	0.633800	0.179560
C151	C15	0.695600	0.548800	0.062520
C161	C16	0.795800	0.316500	0.054260
C171	C17	0.134500	0.149900	0.395420
C181	C18	0.225700	0.928100	0.403870
C191	C19	0.192400	0.912900	0.328810
C201	C20	0.128700	0.014100	0.287120
C211	C21	0.094500	0.990200	0.206960
C221	C22	0.097600	0.133800	0.320440
C231	C23	0.195600	0.048800	0.437480
C241	C24	0.295800	0.816500	0.445740
C251	C25	0.365500	0.350100	0.895420
C261	C26	0.274300	0.571900	0.903870
C271	C27	0.307600	0.587100	0.828810
C281	C28	0.371300	0.485900	0.787120
C291	C29	0.405500	0.509800	0.706960
C301	C30	0.402400	0.366200	0.820440
C311	C31	0.304400	0.451200	0.937480
C321	C32	0.204200	0.683500	0.945740
S11	S1	0.883130	0.691700	0.565770
S21	S2	0.616870	0.808300	0.065770
S31	S3	0.116870	0.308300	0.434230
S41	S4	0.383130	0.191700	0.934230
O11	O1	0.951600	0.915300	0.832070
O21	O2	0.870800	0.056300	0.964730
O31	O3	0.659700	0.163400	0.488190
O41	O4	0.883700	0.125700	0.814060
O51	O5	0.882700	0.702900	0.487130
O61	O6	0.693200	0.289100	0.589790
O71	O7	0.724500	0.615500	0.595150
O81	O8	0.049500	0.642700	0.595690
O91	O9	0.885500	0.378300	0.846150
O101	O10	0.548400	0.584700	0.332070
O111	O11	0.629200	0.443700	0.464730
O121	O12	0.840300	0.336600	0.988190
O131	O13	0.616300	0.374300	0.314060
O141	O14	0.617300	0.797100	0.987130
O151	O15	0.806800	0.210900	0.089790
O161	O16	0.775500	0.884500	0.095150
O171	O17	0.450500	0.857300	0.095690
O181	O18	0.614500	0.121700	0.346150
O191	O19	0.048400	0.084700	0.167930
O201	O20	0.129200	0.943700	0.035270
O211	O21	0.340300	0.836600	0.511810
O221	O22	0.116300	0.874300	0.185940
O231	O23	0.117300	0.297100	0.512870
O241	O24	0.306800	0.710900	0.410210
O251	O25	0.275500	0.384500	0.404850
O261	O26	0.950500	0.357300	0.404310
O271	O27	0.114500	0.621700	0.153850
O281	O28	0.451600	0.415300	0.667930
O291	O29	0.370800	0.556300	0.535270
O301	O30	0.159700	0.663400	0.011810
O311	O31	0.383700	0.625700	0.685940
O321	O32	0.382700	0.202900	0.012870
O331	O33	0.193200	0.789100	0.910210
O341	O34	0.224500	0.115500	0.904850
O351	O35	0.549500	0.142700	0.904310
O361	O36	0.385500	0.878300	0.653850
