data_GIKMOD09_freeONLY_PM
_symmetry_space_group_name_H-M	'P1'
_cell_length_a	7.341300
_cell_length_b	10.155700
_cell_length_c	18.175000
_cell_angle_alpha	90.000000
_cell_angle_beta	90.000000
_cell_angle_gamma	94.320000
_symmetry_Int_Tables_number 1

loop_
_symmetry_equiv_pos_as_xyz
'x,y,z'

loop_
_atom_site_label
_atom_site_type_symbol
_atom_site_fract_x
_atom_site_fract_y
_atom_site_fract_z
Cu11	Cu1	0.866370	0.217790	0.905650
Cu21	Cu2	0.045880	0.932470	0.931570
Cu31	Cu3	0.633630	0.282210	0.405650
Cu41	Cu4	0.454120	0.567530	0.431570
Cu51	Cu5	0.133630	0.782210	0.094350
Cu61	Cu6	0.954120	0.067530	0.068430
Cu71	Cu7	0.366370	0.717790	0.594350
Cu81	Cu8	0.545880	0.432470	0.568430
H11	H1	0.782700	0.165500	0.693200
H21	H2	0.943500	0.796800	0.706700
H31	H3	0.779600	0.938000	0.511800
H41	H4	0.717300	0.334500	0.193200
H51	H5	0.556500	0.703200	0.206700
H61	H6	0.720400	0.562000	0.011800
H71	H7	0.217300	0.834500	0.306800
H81	H8	0.056500	0.203200	0.293300
H91	H9	0.220400	0.062000	0.488200
H101	H10	0.282700	0.665500	0.806800
H111	H11	0.443500	0.296800	0.793300
H121	H12	0.279600	0.438000	0.988200
C11	C1	0.863600	0.849300	0.604490
C21	C2	0.773200	0.070300	0.595540
C31	C3	0.805200	0.086100	0.670680
C41	C4	0.870000	0.985100	0.712380
C51	C5	0.904500	0.009000	0.792880
C61	C6	0.900000	0.865200	0.679340
C71	C7	0.801700	0.950300	0.561800
C81	C8	0.702000	0.182300	0.553800
C91	C9	0.636400	0.650700	0.104490
C101	C10	0.726800	0.429700	0.095540
C111	C11	0.694800	0.413900	0.170680
C121	C12	0.630000	0.514900	0.212380
C131	C13	0.595500	0.491000	0.292880
C141	C14	0.600000	0.634800	0.179340
C151	C15	0.698300	0.549700	0.061800
C161	C16	0.798000	0.317700	0.053800
C171	C17	0.136400	0.150700	0.395510
C181	C18	0.226800	0.929700	0.404460
C191	C19	0.194800	0.913900	0.329320
C201	C20	0.130000	0.014900	0.287620
C211	C21	0.095500	0.991000	0.207120
C221	C22	0.100000	0.134800	0.320660
C231	C23	0.198300	0.049700	0.438200
C241	C24	0.298000	0.817700	0.446200
C251	C25	0.363600	0.349300	0.895510
C261	C26	0.273200	0.570300	0.904460
C271	C27	0.305200	0.586100	0.829320
C281	C28	0.370000	0.485100	0.787620
C291	C29	0.404500	0.509000	0.707120
C301	C30	0.400000	0.365200	0.820660
C311	C31	0.301700	0.450300	0.938200
C321	C32	0.202000	0.682300	0.946200
S11	S1	0.882000	0.690830	0.565520
S21	S2	0.618000	0.809170	0.065520
S31	S3	0.118000	0.309170	0.434480
S41	S4	0.382000	0.190830	0.934480
O11	O1	0.950400	0.914980	0.832030
O21	O2	0.870900	0.057170	0.964960
O31	O3	0.658700	0.162800	0.487570
O41	O4	0.883500	0.125290	0.813850
O51	O5	0.878900	0.702100	0.487290
O61	O6	0.690200	0.287400	0.589680
O71	O7	0.725600	0.613900	0.595740
O81	O8	0.049700	0.642600	0.594950
O91	O9	0.883900	0.377800	0.845320
O101	O10	0.549600	0.585020	0.332030
O111	O11	0.629100	0.442830	0.464960
O121	O12	0.841300	0.337200	0.987570
O131	O13	0.616500	0.374710	0.313850
O141	O14	0.621100	0.797900	0.987290
O151	O15	0.809800	0.212600	0.089680
O161	O16	0.774400	0.886100	0.095740
O171	O17	0.450300	0.857400	0.094950
O181	O18	0.616100	0.122200	0.345320
O191	O19	0.049600	0.085020	0.167970
O201	O20	0.129100	0.942830	0.035040
O211	O21	0.341300	0.837200	0.512430
O221	O22	0.116500	0.874710	0.186150
O231	O23	0.121100	0.297900	0.512710
O241	O24	0.309800	0.712600	0.410320
O251	O25	0.274400	0.386100	0.404260
O261	O26	0.950300	0.357400	0.405050
O271	O27	0.116100	0.622200	0.154680
O281	O28	0.450400	0.414980	0.667970
O291	O29	0.370900	0.557170	0.535040
O301	O30	0.158700	0.662800	0.012430
O311	O31	0.383500	0.625290	0.686150
O321	O32	0.378900	0.202100	0.012710
O331	O33	0.190200	0.787400	0.910320
O341	O34	0.225600	0.113900	0.904260
O351	O35	0.549700	0.142600	0.905050
O361	O36	0.383900	0.877800	0.654680
