data_GIQXIO_freeONLY_PM
_symmetry_space_group_name_H-M	'P1'
_cell_length_a	9.611600
_cell_length_b	9.611600
_cell_length_c	15.548000
_cell_angle_alpha	92.930200
_cell_angle_beta	92.930200
_cell_angle_gamma	99.074500
_symmetry_Int_Tables_number 1

loop_
_symmetry_equiv_pos_as_xyz
'x,y,z'

loop_
_atom_site_label
_atom_site_type_symbol
_atom_site_fract_x
_atom_site_fract_y
_atom_site_fract_z
Dy11	Dy1	0.010850	0.989150	0.750000
Dy21	Dy2	0.989150	0.010850	0.250000
P11	P1	0.353930	0.044830	0.645570
P21	P2	0.651500	0.976080	0.654290
P31	P3	0.955170	0.646070	0.854430
P41	P4	0.023920	0.348500	0.845710
P51	P5	0.646070	0.955170	0.354430
P61	P6	0.348500	0.023920	0.345710
P71	P7	0.044830	0.353930	0.145570
P81	P8	0.976080	0.651500	0.154290
H11	H1	0.475200	0.160800	0.814700
H21	H2	0.634300	0.131100	0.814900
H31	H3	0.577900	0.228300	0.744700
H41	H4	0.422000	0.824000	0.730000
H51	H5	0.624000	0.390000	0.560000
H61	H6	0.716000	0.364000	0.497000
H71	H7	0.090000	0.840000	0.599000
H81	H8	0.125000	0.757000	0.672000
H91	H9	0.934000	0.114000	0.905000
H101	H10	0.844000	0.986000	0.896000
H111	H11	0.839200	0.524800	0.685300
H121	H12	0.868900	0.365700	0.685100
H131	H13	0.771700	0.422100	0.755300
H141	H14	0.176000	0.578000	0.770000
H151	H15	0.610000	0.376000	0.940000
H161	H16	0.636000	0.284000	0.003000
H171	H17	0.160000	0.910000	0.901000
H181	H18	0.243000	0.875000	0.828000
H191	H19	0.886000	0.066000	0.595000
H201	H20	0.014000	0.156000	0.604000
H211	H21	0.524800	0.839200	0.185300
H221	H22	0.365700	0.868900	0.185100
H231	H23	0.422100	0.771700	0.255300
H241	H24	0.578000	0.176000	0.270000
H251	H25	0.376000	0.610000	0.440000
H261	H26	0.284000	0.636000	0.503000
H271	H27	0.910000	0.160000	0.401000
H281	H28	0.875000	0.243000	0.328000
H291	H29	0.066000	0.886000	0.095000
H301	H30	0.156000	0.014000	0.104000
H311	H31	0.160800	0.475200	0.314700
H321	H32	0.131100	0.634300	0.314900
H331	H33	0.228300	0.577900	0.244700
H341	H34	0.824000	0.422000	0.230000
H351	H35	0.390000	0.624000	0.060000
H361	H36	0.364000	0.716000	0.997000
H371	H37	0.840000	0.090000	0.099000
H381	H38	0.757000	0.125000	0.172000
H391	H39	0.114000	0.934000	0.405000
H401	H40	0.986000	0.844000	0.396000
Ru11	Ru1	0.545520	0.121600	0.502020
Ru21	Ru2	0.878400	0.454480	0.997980
Ru31	Ru3	0.454480	0.878400	0.497980
Ru41	Ru4	0.121600	0.545520	0.002020
C11	C1	0.506300	0.019100	0.718900
C21	C2	0.552400	0.145600	0.778400
C31	C3	0.980900	0.493700	0.781100
C41	C4	0.854400	0.447600	0.721600
C51	C5	0.493700	0.980900	0.281100
C61	C6	0.447600	0.854400	0.221600
C71	C7	0.019100	0.506300	0.218900
C81	C8	0.145600	0.552400	0.278400
O11	O1	0.408400	0.168400	0.589400
O21	O2	0.310000	0.909200	0.586300
O31	O3	0.234200	0.075800	0.699900
O41	O4	0.691900	0.103900	0.598600
O51	O5	0.595300	0.843100	0.594600
O61	O6	0.772200	0.954400	0.714400
O71	O7	0.449600	0.899600	0.767800
O81	O8	0.624500	0.357500	0.506200
O91	O9	0.058000	0.801200	0.649000
O101	O10	0.926200	0.023800	0.891100
O111	O11	0.831600	0.591600	0.910600
O121	O12	0.090800	0.690000	0.913700
O131	O13	0.924200	0.765800	0.800100
O141	O14	0.896100	0.308100	0.901400
O151	O15	0.156900	0.404700	0.905400
O161	O16	0.045600	0.227800	0.785600
O171	O17	0.100400	0.550400	0.732200
O181	O18	0.642500	0.375500	0.993800
O191	O19	0.198800	0.942000	0.851000
O201	O20	0.976200	0.073800	0.608900
O211	O21	0.591600	0.831600	0.410600
O221	O22	0.690000	0.090800	0.413700
O231	O23	0.765800	0.924200	0.300100
O241	O24	0.308100	0.896100	0.401400
O251	O25	0.404700	0.156900	0.405400
O261	O26	0.227800	0.045600	0.285600
O271	O27	0.550400	0.100400	0.232200
O281	O28	0.375500	0.642500	0.493800
O291	O29	0.942000	0.198800	0.351000
O301	O30	0.073800	0.976200	0.108900
O311	O31	0.168400	0.408400	0.089400
O321	O32	0.909200	0.310000	0.086300
O331	O33	0.075800	0.234200	0.199900
O341	O34	0.103900	0.691900	0.098600
O351	O35	0.843100	0.595300	0.094600
O361	O36	0.954400	0.772200	0.214400
O371	O37	0.899600	0.449600	0.267800
O381	O38	0.357500	0.624500	0.006200
O391	O39	0.801200	0.058000	0.149000
O401	O40	0.023800	0.926200	0.391100
