data_GIQYIP_freeONLY_PM
_symmetry_space_group_name_H-M	'P1'
_cell_length_a	9.660200
_cell_length_b	9.660200
_cell_length_c	15.625000
_cell_angle_alpha	92.905300
_cell_angle_beta	92.905300
_cell_angle_gamma	99.106200
_symmetry_Int_Tables_number 1

loop_
_symmetry_equiv_pos_as_xyz
'x,y,z'

loop_
_atom_site_label
_atom_site_type_symbol
_atom_site_fract_x
_atom_site_fract_y
_atom_site_fract_z
Nd11	Nd1	0.011350	0.988650	0.750000
Nd21	Nd2	0.988650	0.011350	0.250000
P11	P1	0.355310	0.044890	0.644240
P21	P2	0.650050	0.974910	0.652620
P31	P3	0.955110	0.644690	0.855760
P41	P4	0.025090	0.349950	0.847380
P51	P5	0.644690	0.955110	0.355760
P61	P6	0.349950	0.025090	0.347380
P71	P7	0.044890	0.355310	0.144240
P81	P8	0.974910	0.650050	0.152620
H11	H1	0.478600	0.154600	0.816300
H21	H2	0.637700	0.128500	0.812100
H31	H3	0.575400	0.226600	0.745500
H41	H4	0.419000	0.825000	0.732000
H51	H5	0.623000	0.393000	0.557000
H61	H6	0.714000	0.366000	0.499000
H71	H7	0.096000	0.840000	0.600000
H81	H8	0.132000	0.760000	0.672000
H91	H9	0.921000	0.109000	0.913000
H101	H10	0.839000	0.987000	0.898000
H111	H11	0.845400	0.521400	0.683700
H121	H12	0.871500	0.362300	0.687900
H131	H13	0.773400	0.424600	0.754500
H141	H14	0.175000	0.581000	0.768000
H151	H15	0.607000	0.377000	0.943000
H161	H16	0.634000	0.286000	0.001000
H171	H17	0.160000	0.904000	0.900000
H181	H18	0.240000	0.868000	0.828000
H191	H19	0.891000	0.079000	0.587000
H201	H20	0.013000	0.161000	0.602000
H211	H21	0.521400	0.845400	0.183700
H221	H22	0.362300	0.871500	0.187900
H231	H23	0.424600	0.773400	0.254500
H241	H24	0.581000	0.175000	0.268000
H251	H25	0.377000	0.607000	0.443000
H261	H26	0.286000	0.634000	0.501000
H271	H27	0.904000	0.160000	0.400000
H281	H28	0.868000	0.240000	0.328000
H291	H29	0.079000	0.891000	0.087000
H301	H30	0.161000	0.013000	0.102000
H311	H31	0.154600	0.478600	0.316300
H321	H32	0.128500	0.637700	0.312100
H331	H33	0.226600	0.575400	0.245500
H341	H34	0.825000	0.419000	0.232000
H351	H35	0.393000	0.623000	0.057000
H361	H36	0.366000	0.714000	0.999000
H371	H37	0.840000	0.096000	0.100000
H381	H38	0.760000	0.132000	0.172000
H391	H39	0.109000	0.921000	0.413000
H401	H40	0.987000	0.839000	0.398000
Ru11	Ru1	0.546030	0.120390	0.502210
Ru21	Ru2	0.879610	0.453970	0.997790
Ru31	Ru3	0.453970	0.879610	0.497790
Ru41	Ru4	0.120390	0.546030	0.002210
C11	C1	0.505800	0.015400	0.716200
C21	C2	0.553600	0.142600	0.778000
C31	C3	0.984600	0.494200	0.783800
C41	C4	0.857400	0.446400	0.722000
C51	C5	0.494200	0.984600	0.283800
C61	C6	0.446400	0.857400	0.222000
C71	C7	0.015400	0.505800	0.216200
C81	C8	0.142600	0.553600	0.278000
O11	O1	0.409700	0.168500	0.588890
O21	O2	0.310600	0.910000	0.585620
O31	O3	0.235400	0.077600	0.698560
O41	O4	0.690800	0.101800	0.598250
O51	O5	0.592520	0.843880	0.592380
O61	O6	0.768830	0.951370	0.712140
O71	O7	0.450100	0.898700	0.766000
O81	O8	0.624500	0.356500	0.506100
O91	O9	0.062500	0.794900	0.646800
O101	O10	0.924300	0.024900	0.895090
O111	O11	0.831500	0.590300	0.911110
O121	O12	0.090000	0.689400	0.914380
O131	O13	0.922400	0.764600	0.801440
O141	O14	0.898200	0.309200	0.901750
O151	O15	0.156120	0.407480	0.907620
O161	O16	0.048630	0.231170	0.787860
O171	O17	0.101300	0.549900	0.734000
O181	O18	0.643500	0.375500	0.993900
O191	O19	0.205100	0.937500	0.853200
O201	O20	0.975100	0.075700	0.604910
O211	O21	0.590300	0.831500	0.411110
O221	O22	0.689400	0.090000	0.414380
O231	O23	0.764600	0.922400	0.301440
O241	O24	0.309200	0.898200	0.401750
O251	O25	0.407480	0.156120	0.407620
O261	O26	0.231170	0.048630	0.287860
O271	O27	0.549900	0.101300	0.234000
O281	O28	0.375500	0.643500	0.493900
O291	O29	0.937500	0.205100	0.353200
O301	O30	0.075700	0.975100	0.104910
O311	O31	0.168500	0.409700	0.088890
O321	O32	0.910000	0.310600	0.085620
O331	O33	0.077600	0.235400	0.198560
O341	O34	0.101800	0.690800	0.098250
O351	O35	0.843880	0.592520	0.092380
O361	O36	0.951370	0.768830	0.212140
O371	O37	0.898700	0.450100	0.266000
O381	O38	0.356500	0.624500	0.006100
O391	O39	0.794900	0.062500	0.146800
O401	O40	0.024900	0.924300	0.395090
