data_GISNED_freeONLY_PM
_symmetry_space_group_name_H-M	'P1'
_cell_length_a	26.669000
_cell_length_b	26.669000
_cell_length_c	86.622000
_cell_angle_alpha	90.000000
_cell_angle_beta	90.000000
_cell_angle_gamma	120.000000
_symmetry_Int_Tables_number 1

loop_
_symmetry_equiv_pos_as_xyz
'x,y,z'

loop_
_atom_site_label
_atom_site_type_symbol
_atom_site_fract_x
_atom_site_fract_y
_atom_site_fract_z
O11	O1	0.332000	0.598670	0.537630
Zn11	Zn1	0.325060	0.594250	0.499370
C11	C1	0.319470	0.552630	0.530810
O21	O2	0.313440	0.543330	0.516340
O31	O3	0.387550	0.609670	0.485240
O41	O4	0.256170	0.552460	0.486780
C21	C2	0.318930	0.505290	0.540080
C31	C3	0.335180	0.514920	0.555550
C41	C4	0.301270	0.452000	0.534110
H11	H1	0.345700	0.550500	0.560000
C51	C5	0.335680	0.471600	0.564250
H21	H2	0.290300	0.445100	0.523800
C61	C6	0.299000	0.408130	0.542740
C71	C7	0.318410	0.417700	0.558080
H31	H3	0.347900	0.479100	0.574500
H41	H4	0.284400	0.371500	0.538400
O51	O5	0.317410	0.372930	0.565400
C81	C8	0.350110	0.386050	0.579250
H51	H5	0.330600	0.394200	0.587500
H61	H6	0.388100	0.419800	0.577800
C91	C9	0.378830	0.314710	0.569440
O61	O6	0.431100	0.364150	0.564770
H71	H7	0.350900	0.301100	0.561100
H81	H8	0.385900	0.283700	0.572400
C101	C10	0.461100	0.355700	0.553240
C111	C11	0.512000	0.405170	0.548990
C121	C12	0.445120	0.304250	0.546500
H91	H9	0.522400	0.440200	0.553800
C131	C13	0.546930	0.402710	0.537800
C141	C14	0.478900	0.300530	0.535070
H101	H10	0.411300	0.271300	0.549600
C151	C15	0.530600	0.350320	0.530470
H111	H11	0.581300	0.435800	0.535100
H121	H12	0.467700	0.265200	0.530400
C161	C16	0.568200	0.345630	0.518780
O71	O7	0.998670	0.932000	0.870960
Zn21	Zn2	0.991730	0.927580	0.832700
C171	C17	0.986140	0.885960	0.864140
O81	O8	0.980110	0.876660	0.849670
O91	O9	0.054220	0.943000	0.818570
O101	O10	0.922840	0.885790	0.820110
C181	C18	0.985600	0.838620	0.873410
C191	C19	0.001850	0.848250	0.888880
C201	C20	0.967940	0.785330	0.867440
H131	H13	0.012370	0.883830	0.893330
C211	C21	0.002350	0.804930	0.897580
H141	H14	0.956970	0.778430	0.857130
C221	C22	0.965670	0.741460	0.876070
C231	C23	0.985080	0.751030	0.891410
H151	H15	0.014570	0.812430	0.907830
H161	H16	0.951070	0.704830	0.871730
O111	O11	0.984080	0.706260	0.898730
C241	C24	0.016780	0.719380	0.912580
H171	H17	0.997270	0.727530	0.920830
H181	H18	0.054770	0.753130	0.911130
C251	C25	0.045500	0.648040	0.902770
O121	O12	0.097770	0.697480	0.898100
H191	H19	0.017570	0.634430	0.894430
H201	H20	0.052570	0.617030	0.905730
C261	C26	0.127770	0.689030	0.886570
C271	C27	0.178670	0.738500	0.882320
C281	C28	0.111790	0.637580	0.879830
H211	H21	0.189070	0.773530	0.887130
C291	C29	0.213600	0.736040	0.871130
C301	C30	0.145570	0.633860	0.868400
H221	H22	0.077970	0.604630	0.882930
C311	C31	0.197270	0.683650	0.863800
H231	H23	0.247970	0.769130	0.868430
H241	H24	0.134370	0.598530	0.863730
C321	C32	0.234870	0.678960	0.852110
O131	O13	0.665330	0.265340	0.204300
Zn31	Zn3	0.658400	0.260910	0.166030
C331	C33	0.652800	0.219300	0.197480
O141	O14	0.646770	0.210000	0.183010
O151	O15	0.720880	0.276340	0.151910
O161	O16	0.589500	0.219130	0.153450
C341	C34	0.652260	0.171960	0.206750
C351	C35	0.668510	0.181590	0.222220
C361	C36	0.634600	0.118670	0.200780
H251	H25	0.679030	0.217170	0.226670
C371	C37	0.669010	0.138270	0.230920
H261	H26	0.623630	0.111770	0.190470
C381	C38	0.632330	0.074800	0.209410
C391	C39	0.651740	0.084370	0.224750
H271	H27	0.681230	0.145770	0.241170
H281	H28	0.617730	0.038170	0.205070
O171	O17	0.650740	0.039600	0.232070
C401	C40	0.683440	0.052720	0.245920
H291	H29	0.663930	0.060870	0.254170
H301	H30	0.721430	0.086470	0.244470
C411	C41	0.712160	0.981380	0.236110
O181	O18	0.764430	0.030820	0.231440
H311	H31	0.684230	0.967770	0.227770
H321	H32	0.719230	0.950370	0.239070
C421	C42	0.794430	0.022370	0.219910
C431	C43	0.845330	0.071840	0.215660
C441	C44	0.778450	0.970920	0.213170
H331	H33	0.855730	0.106870	0.220470
C451	C45	0.880260	0.069380	0.204470
C461	C46	0.812230	0.967200	0.201740
H341	H34	0.744630	0.937970	0.216270
C471	C47	0.863930	0.016990	0.197140
H351	H35	0.914630	0.102470	0.201770
H361	H36	0.801030	0.931870	0.197070
C481	C48	0.901530	0.012300	0.185450
O191	O19	0.401330	0.733330	0.537630
Zn41	Zn4	0.405750	0.730820	0.499370
C491	C49	0.447370	0.766840	0.530810
O201	O20	0.456670	0.770110	0.516340
O211	O21	0.390330	0.777880	0.485240
O221	O22	0.447540	0.703710	0.486780
C501	C50	0.494710	0.813640	0.540080
C511	C51	0.485080	0.820260	0.555550
C521	C52	0.548000	0.849270	0.534110
H371	H37	0.449500	0.795200	0.560000
C531	C53	0.528400	0.864080	0.564250
H381	H38	0.554900	0.845200	0.523800
C541	C54	0.591870	0.890870	0.542740
C551	C55	0.582300	0.900710	0.558080
H391	H39	0.520900	0.868800	0.574500
H401	H40	0.628500	0.912900	0.538400
O231	O23	0.627070	0.944480	0.565400
C561	C56	0.613950	0.964060	0.579250
H411	H41	0.605800	0.936400	0.587500
H421	H42	0.580200	0.968300	0.577800
C571	C57	0.685290	0.064120	0.569440
O241	O24	0.635850	0.066950	0.564770
H431	H43	0.698900	0.049800	0.561100
H441	H44	0.716300	0.102200	0.572400
C581	C58	0.644300	0.105400	0.553240
C591	C59	0.594830	0.106830	0.548990
C601	C60	0.695750	0.140870	0.546500
H451	H45	0.559800	0.082200	0.553800
C611	C61	0.597290	0.144220	0.537800
C621	C62	0.699470	0.178370	0.535070
H461	H46	0.728700	0.140000	0.549600
C631	C63	0.649680	0.180280	0.530470
H471	H47	0.564200	0.145500	0.535100
H481	H48	0.734800	0.202500	0.530400
C641	C64	0.654370	0.222570	0.518780
O251	O25	0.068000	0.066660	0.870960
Zn51	Zn5	0.072420	0.064150	0.832700
C651	C65	0.114040	0.100170	0.864140
O261	O26	0.123340	0.103440	0.849670
O271	O27	0.057000	0.111210	0.818570
O281	O28	0.114210	0.037040	0.820110
C661	C66	0.161380	0.146970	0.873410
C671	C67	0.151750	0.153590	0.888880
C681	C68	0.214670	0.182600	0.867440
H491	H49	0.116170	0.128530	0.893330
C691	C69	0.195070	0.197410	0.897580
H501	H50	0.221570	0.178530	0.857130
C701	C70	0.258540	0.224200	0.876070
C711	C71	0.248970	0.234040	0.891410
H511	H51	0.187570	0.202130	0.907830
H521	H52	0.295170	0.246230	0.871730
O291	O29	0.293740	0.277810	0.898730
C721	C72	0.280620	0.297390	0.912580
H531	H53	0.272470	0.269730	0.920830
H541	H54	0.246870	0.301630	0.911130
C731	C73	0.351960	0.397450	0.902770
O301	O30	0.302520	0.400280	0.898100
H551	H55	0.365570	0.383130	0.894430
H561	H56	0.382970	0.435530	0.905730
C741	C74	0.310970	0.438730	0.886570
C751	C75	0.261500	0.440160	0.882320
C761	C76	0.362420	0.474200	0.879830
H571	H57	0.226470	0.415530	0.887130
C771	C77	0.263960	0.477550	0.871130
C781	C78	0.366140	0.511700	0.868400
H581	H58	0.395370	0.473330	0.882930
C791	C79	0.316350	0.513610	0.863800
H591	H59	0.230870	0.478830	0.868430
H601	H60	0.401470	0.535830	0.863730
C801	C80	0.321040	0.555900	0.852110
O311	O31	0.734660	0.400000	0.204300
Zn61	Zn6	0.739090	0.397480	0.166030
C811	C81	0.780700	0.433510	0.197480
O321	O32	0.790000	0.436780	0.183010
O331	O33	0.723660	0.444550	0.151910
O341	O34	0.780870	0.370380	0.153450
C821	C82	0.828040	0.480310	0.206750
C831	C83	0.818410	0.486930	0.222220
C841	C84	0.881330	0.515940	0.200780
H611	H61	0.782830	0.461870	0.226670
C851	C85	0.861730	0.530750	0.230920
H621	H62	0.888230	0.511870	0.190470
C861	C86	0.925200	0.557540	0.209410
C871	C87	0.915630	0.567380	0.224750
H631	H63	0.854230	0.535470	0.241170
H641	H64	0.961830	0.579570	0.205070
O351	O35	0.960400	0.611150	0.232070
C881	C88	0.947280	0.630730	0.245920
H651	H65	0.939130	0.603070	0.254170
H661	H66	0.913530	0.634970	0.244470
C891	C89	0.018620	0.730790	0.236110
O361	O36	0.969180	0.733620	0.231440
H671	H67	0.032230	0.716470	0.227770
H681	H68	0.049630	0.768870	0.239070
C901	C90	0.977630	0.772070	0.219910
C911	C91	0.928160	0.773500	0.215660
C921	C92	0.029080	0.807540	0.213170
H691	H69	0.893130	0.748870	0.220470
C931	C93	0.930620	0.810890	0.204470
C941	C94	0.032800	0.845040	0.201740
H701	H70	0.062030	0.806670	0.216270
C951	C95	0.983010	0.846950	0.197140
H711	H71	0.897530	0.812170	0.201770
H721	H72	0.068130	0.869170	0.197070
C961	C96	0.987700	0.889240	0.185450
O371	O37	0.266670	0.668000	0.537630
Zn71	Zn7	0.269180	0.674940	0.499370
C971	C97	0.233160	0.680530	0.530810
O381	O38	0.229890	0.686560	0.516340
O391	O39	0.222120	0.612450	0.485240
O401	O40	0.296290	0.743830	0.486780
C981	C98	0.186360	0.681070	0.540080
C991	C99	0.179740	0.664820	0.555550
C1001	C100	0.150730	0.698730	0.534110
H731	H73	0.204800	0.654300	0.560000
C1011	C101	0.135920	0.664320	0.564250
H741	H74	0.154800	0.709700	0.523800
C1021	C102	0.109130	0.701000	0.542740
C1031	C103	0.099290	0.681590	0.558080
H751	H75	0.131200	0.652100	0.574500
H761	H76	0.087100	0.715600	0.538400
O411	O41	0.055520	0.682590	0.565400
C1041	C104	0.035940	0.649890	0.579250
H771	H77	0.063600	0.669400	0.587500
H781	H78	0.031700	0.611900	0.577800
C1051	C105	0.935880	0.621170	0.569440
O421	O42	0.933050	0.568900	0.564770
H791	H79	0.950200	0.649100	0.561100
H801	H80	0.897800	0.614100	0.572400
C1061	C106	0.894600	0.538900	0.553240
C1071	C107	0.893170	0.488000	0.548990
C1081	C108	0.859130	0.554880	0.546500
H811	H81	0.917800	0.477600	0.553800
C1091	C109	0.855780	0.453070	0.537800
C1101	C110	0.821630	0.521100	0.535070
H821	H82	0.860000	0.588700	0.549600
C1111	C111	0.819720	0.469400	0.530470
H831	H83	0.854500	0.418700	0.535100
H841	H84	0.797500	0.532300	0.530400
C1121	C112	0.777430	0.431800	0.518780
O431	O43	0.933340	0.001330	0.870960
Zn81	Zn8	0.935850	0.008270	0.832700
C1131	C113	0.899830	0.013860	0.864140
O441	O44	0.896560	0.019890	0.849670
O451	O45	0.888790	0.945780	0.818570
O461	O46	0.962960	0.077160	0.820110
C1141	C114	0.853030	0.014400	0.873410
C1151	C115	0.846410	0.998150	0.888880
C1161	C116	0.817400	0.032060	0.867440
H851	H85	0.871470	0.987630	0.893330
C1171	C117	0.802590	0.997650	0.897580
H861	H86	0.821470	0.043030	0.857130
C1181	C118	0.775800	0.034330	0.876070
C1191	C119	0.765960	0.014920	0.891410
H871	H87	0.797870	0.985430	0.907830
H881	H88	0.753770	0.048930	0.871730
O471	O47	0.722190	0.015920	0.898730
C1201	C120	0.702610	0.983220	0.912580
H891	H89	0.730270	0.002730	0.920830
H901	H90	0.698370	0.945230	0.911130
C1211	C121	0.602550	0.954500	0.902770
O481	O48	0.599720	0.902230	0.898100
H911	H91	0.616870	0.982430	0.894430
H921	H92	0.564470	0.947430	0.905730
C1221	C122	0.561270	0.872230	0.886570
C1231	C123	0.559840	0.821330	0.882320
C1241	C124	0.525800	0.888210	0.879830
H931	H93	0.584470	0.810930	0.887130
C1251	C125	0.522450	0.786400	0.871130
C1261	C126	0.488300	0.854430	0.868400
H941	H94	0.526670	0.922030	0.882930
C1271	C127	0.486390	0.802730	0.863800
H951	H95	0.521170	0.752030	0.868430
H961	H96	0.464170	0.865630	0.863730
C1281	C128	0.444100	0.765130	0.852110
O491	O49	0.600000	0.334670	0.204300
Zn91	Zn9	0.602520	0.341600	0.166030
C1291	C129	0.566490	0.347200	0.197480
O501	O50	0.563220	0.353230	0.183010
O511	O51	0.555450	0.279120	0.151910
O521	O52	0.629620	0.410500	0.153450
C1301	C130	0.519690	0.347740	0.206750
C1311	C131	0.513070	0.331490	0.222220
C1321	C132	0.484060	0.365400	0.200780
H971	H97	0.538130	0.320970	0.226670
C1331	C133	0.469250	0.330990	0.230920
H981	H98	0.488130	0.376370	0.190470
C1341	C134	0.442460	0.367670	0.209410
C1351	C135	0.432620	0.348260	0.224750
H991	H99	0.464530	0.318770	0.241170
H1001	H100	0.420430	0.382270	0.205070
O531	O53	0.388850	0.349260	0.232070
C1361	C136	0.369270	0.316560	0.245920
H1011	H101	0.396930	0.336070	0.254170
H1021	H102	0.365030	0.278570	0.244470
C1371	C137	0.269210	0.287840	0.236110
O541	O54	0.266380	0.235570	0.231440
H1031	H103	0.283530	0.315770	0.227770
H1041	H104	0.231130	0.280770	0.239070
C1381	C138	0.227930	0.205570	0.219910
C1391	C139	0.226500	0.154670	0.215660
C1401	C140	0.192460	0.221550	0.213170
H1051	H105	0.251130	0.144270	0.220470
C1411	C141	0.189110	0.119740	0.204470
C1421	C142	0.154960	0.187770	0.201740
H1061	H106	0.193330	0.255370	0.216270
C1431	C143	0.153050	0.136070	0.197140
H1071	H107	0.187830	0.085370	0.201770
H1081	H108	0.130830	0.198970	0.197070
C1441	C144	0.110760	0.098470	0.185450
O551	O55	0.598670	0.332000	0.962370
Zn101	Zn10	0.594250	0.325060	0.000630
C1451	C145	0.552630	0.319470	0.969190
O561	O56	0.543330	0.313440	0.983660
O571	O57	0.609670	0.387550	0.014760
O581	O58	0.552460	0.256170	0.013220
C1461	C146	0.505290	0.318930	0.959920
C1471	C147	0.514920	0.335180	0.944450
C1481	C148	0.452000	0.301270	0.965890
H1091	H109	0.550500	0.345700	0.940000
C1491	C149	0.471600	0.335680	0.935750
H1101	H110	0.445100	0.290300	0.976200
C1501	C150	0.408130	0.299000	0.957260
C1511	C151	0.417700	0.318410	0.941920
H1111	H111	0.479100	0.347900	0.925500
H1121	H112	0.371500	0.284400	0.961600
O591	O59	0.372930	0.317410	0.934600
C1521	C152	0.386050	0.350110	0.920750
H1131	H113	0.394200	0.330600	0.912500
H1141	H114	0.419800	0.388100	0.922200
C1531	C153	0.314710	0.378830	0.930560
O601	O60	0.364150	0.431100	0.935230
H1151	H115	0.301100	0.350900	0.938900
H1161	H116	0.283700	0.385900	0.927600
C1541	C154	0.355700	0.461100	0.946760
C1551	C155	0.405170	0.512000	0.951010
C1561	C156	0.304250	0.445120	0.953500
H1171	H117	0.440200	0.522400	0.946200
C1571	C157	0.402710	0.546930	0.962200
C1581	C158	0.300530	0.478900	0.964930
H1181	H118	0.271300	0.411300	0.950400
C1591	C159	0.350320	0.530600	0.969530
H1191	H119	0.435800	0.581300	0.964900
H1201	H120	0.265200	0.467700	0.969600
C1601	C160	0.345630	0.568200	0.981220
O611	O61	0.265340	0.665330	0.295700
Zn111	Zn11	0.260910	0.658400	0.333970
C1611	C161	0.219300	0.652800	0.302520
O621	O62	0.210000	0.646770	0.316990
O631	O63	0.276340	0.720880	0.348090
O641	O64	0.219130	0.589500	0.346550
C1621	C162	0.171960	0.652260	0.293250
C1631	C163	0.181590	0.668510	0.277780
C1641	C164	0.118670	0.634600	0.299220
H1211	H121	0.217170	0.679030	0.273330
C1651	C165	0.138270	0.669010	0.269080
H1221	H122	0.111770	0.623630	0.309530
C1661	C166	0.074800	0.632330	0.290590
C1671	C167	0.084370	0.651740	0.275250
H1231	H123	0.145770	0.681230	0.258830
H1241	H124	0.038170	0.617730	0.294930
O651	O65	0.039600	0.650740	0.267930
C1681	C168	0.052720	0.683440	0.254080
H1251	H125	0.060870	0.663930	0.245830
H1261	H126	0.086470	0.721430	0.255530
C1691	C169	0.981380	0.712160	0.263890
O661	O66	0.030820	0.764430	0.268560
H1271	H127	0.967770	0.684230	0.272230
H1281	H128	0.950370	0.719230	0.260930
C1701	C170	0.022370	0.794430	0.280090
C1711	C171	0.071840	0.845330	0.284340
C1721	C172	0.970920	0.778450	0.286830
H1291	H129	0.106870	0.855730	0.279530
C1731	C173	0.069380	0.880260	0.295530
C1741	C174	0.967200	0.812230	0.298260
H1301	H130	0.937970	0.744630	0.283730
C1751	C175	0.016990	0.863930	0.302860
H1311	H131	0.102470	0.914630	0.298230
H1321	H132	0.931870	0.801030	0.302930
C1761	C176	0.012300	0.901530	0.314550
O671	O67	0.932000	0.998670	0.629040
Zn121	Zn12	0.927580	0.991730	0.667300
C1771	C177	0.885960	0.986140	0.635860
O681	O68	0.876660	0.980110	0.650330
O691	O69	0.943000	0.054220	0.681430
O701	O70	0.885790	0.922840	0.679890
C1781	C178	0.838620	0.985600	0.626590
C1791	C179	0.848250	0.001850	0.611120
C1801	C180	0.785330	0.967940	0.632560
H1331	H133	0.883830	0.012370	0.606670
C1811	C181	0.804930	0.002350	0.602420
H1341	H134	0.778430	0.956970	0.642870
C1821	C182	0.741460	0.965670	0.623930
C1831	C183	0.751030	0.985080	0.608590
H1351	H135	0.812430	0.014570	0.592170
H1361	H136	0.704830	0.951070	0.628270
O711	O71	0.706260	0.984080	0.601270
C1841	C184	0.719380	0.016780	0.587420
H1371	H137	0.727530	0.997270	0.579170
H1381	H138	0.753130	0.054770	0.588870
C1851	C185	0.648040	0.045500	0.597230
O721	O72	0.697480	0.097770	0.601900
H1391	H139	0.634430	0.017570	0.605570
H1401	H140	0.617030	0.052570	0.594270
C1861	C186	0.689030	0.127770	0.613430
C1871	C187	0.738500	0.178670	0.617680
C1881	C188	0.637580	0.111790	0.620170
H1411	H141	0.773530	0.189070	0.612870
C1891	C189	0.736040	0.213600	0.628870
C1901	C190	0.633860	0.145570	0.631600
H1421	H142	0.604630	0.077970	0.617070
C1911	C191	0.683650	0.197270	0.636200
H1431	H143	0.769130	0.247970	0.631570
H1441	H144	0.598530	0.134370	0.636270
C1921	C192	0.678960	0.234870	0.647890
O731	O73	0.733330	0.401330	0.962370
Zn131	Zn13	0.730820	0.405750	0.000630
C1931	C193	0.766840	0.447370	0.969190
O741	O74	0.770110	0.456670	0.983660
O751	O75	0.777880	0.390330	0.014760
O761	O76	0.703710	0.447540	0.013220
C1941	C194	0.813640	0.494710	0.959920
C1951	C195	0.820260	0.485080	0.944450
C1961	C196	0.849270	0.548000	0.965890
H1451	H145	0.795200	0.449500	0.940000
C1971	C197	0.864080	0.528400	0.935750
H1461	H146	0.845200	0.554900	0.976200
C1981	C198	0.890870	0.591870	0.957260
C1991	C199	0.900710	0.582300	0.941920
H1471	H147	0.868800	0.520900	0.925500
H1481	H148	0.912900	0.628500	0.961600
O771	O77	0.944480	0.627070	0.934600
C2001	C200	0.964060	0.613950	0.920750
H1491	H149	0.936400	0.605800	0.912500
H1501	H150	0.968300	0.580200	0.922200
C2011	C201	0.064120	0.685290	0.930560
O781	O78	0.066950	0.635850	0.935230
H1511	H151	0.049800	0.698900	0.938900
H1521	H152	0.102200	0.716300	0.927600
C2021	C202	0.105400	0.644300	0.946760
C2031	C203	0.106830	0.594830	0.951010
C2041	C204	0.140870	0.695750	0.953500
H1531	H153	0.082200	0.559800	0.946200
C2051	C205	0.144220	0.597290	0.962200
C2061	C206	0.178370	0.699470	0.964930
H1541	H154	0.140000	0.728700	0.950400
C2071	C207	0.180280	0.649680	0.969530
H1551	H155	0.145500	0.564200	0.964900
H1561	H156	0.202500	0.734800	0.969600
C2081	C208	0.222570	0.654370	0.981220
O791	O79	0.400000	0.734660	0.295700
Zn141	Zn14	0.397480	0.739090	0.333970
C2091	C209	0.433510	0.780700	0.302520
O801	O80	0.436780	0.790000	0.316990
O811	O81	0.444550	0.723660	0.348090
O821	O82	0.370380	0.780870	0.346550
C2101	C210	0.480310	0.828040	0.293250
C2111	C211	0.486930	0.818410	0.277780
C2121	C212	0.515940	0.881330	0.299220
H1571	H157	0.461870	0.782830	0.273330
C2131	C213	0.530750	0.861730	0.269080
H1581	H158	0.511870	0.888230	0.309530
C2141	C214	0.557540	0.925200	0.290590
C2151	C215	0.567380	0.915630	0.275250
H1591	H159	0.535470	0.854230	0.258830
H1601	H160	0.579570	0.961830	0.294930
O831	O83	0.611150	0.960400	0.267930
C2161	C216	0.630730	0.947280	0.254080
H1611	H161	0.603070	0.939130	0.245830
H1621	H162	0.634970	0.913530	0.255530
C2171	C217	0.730790	0.018620	0.263890
O841	O84	0.733620	0.969180	0.268560
H1631	H163	0.716470	0.032230	0.272230
H1641	H164	0.768870	0.049630	0.260930
C2181	C218	0.772070	0.977630	0.280090
C2191	C219	0.773500	0.928160	0.284340
C2201	C220	0.807540	0.029080	0.286830
H1651	H165	0.748870	0.893130	0.279530
C2211	C221	0.810890	0.930620	0.295530
C2221	C222	0.845040	0.032800	0.298260
H1661	H166	0.806670	0.062030	0.283730
C2231	C223	0.846950	0.983010	0.302860
H1671	H167	0.812170	0.897530	0.298230
H1681	H168	0.869170	0.068130	0.302930
C2241	C224	0.889240	0.987700	0.314550
O851	O85	0.066660	0.068000	0.629040
Zn151	Zn15	0.064150	0.072420	0.667300
C2251	C225	0.100170	0.114040	0.635860
O861	O86	0.103440	0.123340	0.650330
O871	O87	0.111210	0.057000	0.681430
O881	O88	0.037040	0.114210	0.679890
C2261	C226	0.146970	0.161380	0.626590
C2271	C227	0.153590	0.151750	0.611120
C2281	C228	0.182600	0.214670	0.632560
H1691	H169	0.128530	0.116170	0.606670
C2291	C229	0.197410	0.195070	0.602420
H1701	H170	0.178530	0.221570	0.642870
C2301	C230	0.224200	0.258540	0.623930
C2311	C231	0.234040	0.248970	0.608590
H1711	H171	0.202130	0.187570	0.592170
H1721	H172	0.246230	0.295170	0.628270
O891	O89	0.277810	0.293740	0.601270
C2321	C232	0.297390	0.280620	0.587420
H1731	H173	0.269730	0.272470	0.579170
H1741	H174	0.301630	0.246870	0.588870
C2331	C233	0.397450	0.351960	0.597230
O901	O90	0.400280	0.302520	0.601900
H1751	H175	0.383130	0.365570	0.605570
H1761	H176	0.435530	0.382970	0.594270
C2341	C234	0.438730	0.310970	0.613430
C2351	C235	0.440160	0.261500	0.617680
C2361	C236	0.474200	0.362420	0.620170
H1771	H177	0.415530	0.226470	0.612870
C2371	C237	0.477550	0.263960	0.628870
C2381	C238	0.511700	0.366140	0.631600
H1781	H178	0.473330	0.395370	0.617070
C2391	C239	0.513610	0.316350	0.636200
H1791	H179	0.478830	0.230870	0.631570
H1801	H180	0.535830	0.401470	0.636270
C2401	C240	0.555900	0.321040	0.647890
O911	O91	0.668000	0.266670	0.962370
Zn161	Zn16	0.674940	0.269180	0.000630
C2411	C241	0.680530	0.233160	0.969190
O921	O92	0.686560	0.229890	0.983660
O931	O93	0.612450	0.222120	0.014760
O941	O94	0.743830	0.296290	0.013220
C2421	C242	0.681070	0.186360	0.959920
C2431	C243	0.664820	0.179740	0.944450
C2441	C244	0.698730	0.150730	0.965890
H1811	H181	0.654300	0.204800	0.940000
C2451	C245	0.664320	0.135920	0.935750
H1821	H182	0.709700	0.154800	0.976200
C2461	C246	0.701000	0.109130	0.957260
C2471	C247	0.681590	0.099290	0.941920
H1831	H183	0.652100	0.131200	0.925500
H1841	H184	0.715600	0.087100	0.961600
O951	O95	0.682590	0.055520	0.934600
C2481	C248	0.649890	0.035940	0.920750
H1851	H185	0.669400	0.063600	0.912500
H1861	H186	0.611900	0.031700	0.922200
C2491	C249	0.621170	0.935880	0.930560
O961	O96	0.568900	0.933050	0.935230
H1871	H187	0.649100	0.950200	0.938900
H1881	H188	0.614100	0.897800	0.927600
C2501	C250	0.538900	0.894600	0.946760
C2511	C251	0.488000	0.893170	0.951010
C2521	C252	0.554880	0.859130	0.953500
H1891	H189	0.477600	0.917800	0.946200
C2531	C253	0.453070	0.855780	0.962200
C2541	C254	0.521100	0.821630	0.964930
H1901	H190	0.588700	0.860000	0.950400
C2551	C255	0.469400	0.819720	0.969530
H1911	H191	0.418700	0.854500	0.964900
H1921	H192	0.532300	0.797500	0.969600
C2561	C256	0.431800	0.777430	0.981220
O971	O97	0.334670	0.600000	0.295700
Zn171	Zn17	0.341600	0.602520	0.333970
C2571	C257	0.347200	0.566490	0.302520
O981	O98	0.353230	0.563220	0.316990
O991	O99	0.279120	0.555450	0.348090
O1001	O100	0.410500	0.629620	0.346550
C2581	C258	0.347740	0.519690	0.293250
C2591	C259	0.331490	0.513070	0.277780
C2601	C260	0.365400	0.484060	0.299220
H1931	H193	0.320970	0.538130	0.273330
C2611	C261	0.330990	0.469250	0.269080
H1941	H194	0.376370	0.488130	0.309530
C2621	C262	0.367670	0.442460	0.290590
C2631	C263	0.348260	0.432620	0.275250
H1951	H195	0.318770	0.464530	0.258830
H1961	H196	0.382270	0.420430	0.294930
O1011	O101	0.349260	0.388850	0.267930
C2641	C264	0.316560	0.369270	0.254080
H1971	H197	0.336070	0.396930	0.245830
H1981	H198	0.278570	0.365030	0.255530
C2651	C265	0.287840	0.269210	0.263890
O1021	O102	0.235570	0.266380	0.268560
H1991	H199	0.315770	0.283530	0.272230
H2001	H200	0.280770	0.231130	0.260930
C2661	C266	0.205570	0.227930	0.280090
C2671	C267	0.154670	0.226500	0.284340
C2681	C268	0.221550	0.192460	0.286830
H2011	H201	0.144270	0.251130	0.279530
C2691	C269	0.119740	0.189110	0.295530
C2701	C270	0.187770	0.154960	0.298260
H2021	H202	0.255370	0.193330	0.283730
C2711	C271	0.136070	0.153050	0.302860
H2031	H203	0.085370	0.187830	0.298230
H2041	H204	0.198970	0.130830	0.302930
C2721	C272	0.098470	0.110760	0.314550
O1031	O103	0.001330	0.933340	0.629040
Zn181	Zn18	0.008270	0.935850	0.667300
C2731	C273	0.013860	0.899830	0.635860
O1041	O104	0.019890	0.896560	0.650330
O1051	O105	0.945780	0.888790	0.681430
O1061	O106	0.077160	0.962960	0.679890
C2741	C274	0.014400	0.853030	0.626590
C2751	C275	0.998150	0.846410	0.611120
C2761	C276	0.032060	0.817400	0.632560
H2051	H205	0.987630	0.871470	0.606670
C2771	C277	0.997650	0.802590	0.602420
H2061	H206	0.043030	0.821470	0.642870
C2781	C278	0.034330	0.775800	0.623930
C2791	C279	0.014920	0.765960	0.608590
H2071	H207	0.985430	0.797870	0.592170
H2081	H208	0.048930	0.753770	0.628270
O1071	O107	0.015920	0.722190	0.601270
C2801	C280	0.983220	0.702610	0.587420
H2091	H209	0.002730	0.730270	0.579170
H2101	H210	0.945230	0.698370	0.588870
C2811	C281	0.954500	0.602550	0.597230
O1081	O108	0.902230	0.599720	0.601900
H2111	H211	0.982430	0.616870	0.605570
H2121	H212	0.947430	0.564470	0.594270
C2821	C282	0.872230	0.561270	0.613430
C2831	C283	0.821330	0.559840	0.617680
C2841	C284	0.888210	0.525800	0.620170
H2131	H213	0.810930	0.584470	0.612870
C2851	C285	0.786400	0.522450	0.628870
C2861	C286	0.854430	0.488300	0.631600
H2141	H214	0.922030	0.526670	0.617070
C2871	C287	0.802730	0.486390	0.636200
H2151	H215	0.752030	0.521170	0.631570
H2161	H216	0.865630	0.464170	0.636270
C2881	C288	0.765130	0.444100	0.647890
O1091	O109	0.668000	0.401330	0.462370
Zn191	Zn19	0.674940	0.405750	0.500630
C2891	C289	0.680530	0.447370	0.469190
O1101	O110	0.686560	0.456670	0.483660
O1111	O111	0.612450	0.390330	0.514760
O1121	O112	0.743830	0.447540	0.513220
C2901	C290	0.681070	0.494710	0.459920
C2911	C291	0.664820	0.485080	0.444450
C2921	C292	0.698730	0.548000	0.465890
H2171	H217	0.654300	0.449500	0.440000
C2931	C293	0.664320	0.528400	0.435750
H2181	H218	0.709700	0.554900	0.476200
C2941	C294	0.701000	0.591870	0.457260
C2951	C295	0.681590	0.582300	0.441920
H2191	H219	0.652100	0.520900	0.425500
H2201	H220	0.715600	0.628500	0.461600
O1131	O113	0.682590	0.627070	0.434600
C2961	C296	0.649890	0.613950	0.420750
H2211	H221	0.669400	0.605800	0.412500
H2221	H222	0.611900	0.580200	0.422200
C2971	C297	0.621170	0.685290	0.430560
O1141	O114	0.568900	0.635850	0.435230
H2231	H223	0.649100	0.698900	0.438900
H2241	H224	0.614100	0.716300	0.427600
C2981	C298	0.538900	0.644300	0.446760
C2991	C299	0.488000	0.594830	0.451010
C3001	C300	0.554880	0.695750	0.453500
H2251	H225	0.477600	0.559800	0.446200
C3011	C301	0.453070	0.597290	0.462200
C3021	C302	0.521100	0.699470	0.464930
H2261	H226	0.588700	0.728700	0.450400
C3031	C303	0.469400	0.649680	0.469530
H2271	H227	0.418700	0.564200	0.464900
H2281	H228	0.532300	0.734800	0.469600
C3041	C304	0.431800	0.654370	0.481220
O1151	O115	0.334670	0.734660	0.795700
Zn201	Zn20	0.341600	0.739090	0.833970
C3051	C305	0.347200	0.780700	0.802520
O1161	O116	0.353230	0.790000	0.816990
O1171	O117	0.279120	0.723660	0.848090
O1181	O118	0.410500	0.780870	0.846550
C3061	C306	0.347740	0.828040	0.793250
C3071	C307	0.331490	0.818410	0.777780
C3081	C308	0.365400	0.881330	0.799220
H2291	H229	0.320970	0.782830	0.773330
C3091	C309	0.330990	0.861730	0.769080
H2301	H230	0.376370	0.888230	0.809530
C3101	C310	0.367670	0.925200	0.790590
C3111	C311	0.348260	0.915630	0.775250
H2311	H231	0.318770	0.854230	0.758830
H2321	H232	0.382270	0.961830	0.794930
O1191	O119	0.349260	0.960400	0.767930
C3121	C312	0.316560	0.947280	0.754080
H2331	H233	0.336070	0.939130	0.745830
H2341	H234	0.278570	0.913530	0.755530
C3131	C313	0.287840	0.018620	0.763890
O1201	O120	0.235570	0.969180	0.768560
H2351	H235	0.315770	0.032230	0.772230
H2361	H236	0.280770	0.049630	0.760930
C3141	C314	0.205570	0.977630	0.780090
C3151	C315	0.154670	0.928160	0.784340
C3161	C316	0.221550	0.029080	0.786830
H2371	H237	0.144270	0.893130	0.779530
C3171	C317	0.119740	0.930620	0.795530
C3181	C318	0.187770	0.032800	0.798260
H2381	H238	0.255370	0.062030	0.783730
C3191	C319	0.136070	0.983010	0.802860
H2391	H239	0.085370	0.897530	0.798230
H2401	H240	0.198970	0.068130	0.802930
C3201	C320	0.098470	0.987700	0.814550
O1211	O121	0.001330	0.068000	0.129040
Zn211	Zn21	0.008270	0.072420	0.167300
C3211	C321	0.013860	0.114040	0.135860
O1221	O122	0.019890	0.123340	0.150330
O1231	O123	0.945780	0.057000	0.181430
O1241	O124	0.077160	0.114210	0.179890
C3221	C322	0.014400	0.161380	0.126590
C3231	C323	0.998150	0.151750	0.111120
C3241	C324	0.032060	0.214670	0.132560
H2411	H241	0.987630	0.116170	0.106670
C3251	C325	0.997650	0.195070	0.102420
H2421	H242	0.043030	0.221570	0.142870
C3261	C326	0.034330	0.258540	0.123930
C3271	C327	0.014920	0.248970	0.108590
H2431	H243	0.985430	0.187570	0.092170
H2441	H244	0.048930	0.295170	0.128270
O1251	O125	0.015920	0.293740	0.101270
C3281	C328	0.983220	0.280620	0.087420
H2451	H245	0.002730	0.272470	0.079170
H2461	H246	0.945230	0.246870	0.088870
C3291	C329	0.954500	0.351960	0.097230
O1261	O126	0.902230	0.302520	0.101900
H2471	H247	0.982430	0.365570	0.105570
H2481	H248	0.947430	0.382970	0.094270
C3301	C330	0.872230	0.310970	0.113430
C3311	C331	0.821330	0.261500	0.117680
C3321	C332	0.888210	0.362420	0.120170
H2491	H249	0.810930	0.226470	0.112870
C3331	C333	0.786400	0.263960	0.128870
C3341	C334	0.854430	0.366140	0.131600
H2501	H250	0.922030	0.395370	0.117070
C3351	C335	0.802730	0.316350	0.136200
H2511	H251	0.752030	0.230870	0.131570
H2521	H252	0.865630	0.401470	0.136270
C3361	C336	0.765130	0.321040	0.147890
O1271	O127	0.598670	0.266670	0.462370
Zn221	Zn22	0.594250	0.269180	0.500630
C3371	C337	0.552630	0.233160	0.469190
O1281	O128	0.543330	0.229890	0.483660
O1291	O129	0.609670	0.222120	0.514760
O1301	O130	0.552460	0.296290	0.513220
C3381	C338	0.505290	0.186360	0.459920
C3391	C339	0.514920	0.179740	0.444450
C3401	C340	0.452000	0.150730	0.465890
H2531	H253	0.550500	0.204800	0.440000
C3411	C341	0.471600	0.135920	0.435750
H2541	H254	0.445100	0.154800	0.476200
C3421	C342	0.408130	0.109130	0.457260
C3431	C343	0.417700	0.099290	0.441920
H2551	H255	0.479100	0.131200	0.425500
H2561	H256	0.371500	0.087100	0.461600
O1311	O131	0.372930	0.055520	0.434600
C3441	C344	0.386050	0.035940	0.420750
H2571	H257	0.394200	0.063600	0.412500
H2581	H258	0.419800	0.031700	0.422200
C3451	C345	0.314710	0.935880	0.430560
O1321	O132	0.364150	0.933050	0.435230
H2591	H259	0.301100	0.950200	0.438900
H2601	H260	0.283700	0.897800	0.427600
C3461	C346	0.355700	0.894600	0.446760
C3471	C347	0.405170	0.893170	0.451010
C3481	C348	0.304250	0.859130	0.453500
H2611	H261	0.440200	0.917800	0.446200
C3491	C349	0.402710	0.855780	0.462200
C3501	C350	0.300530	0.821630	0.464930
H2621	H262	0.271300	0.860000	0.450400
C3511	C351	0.350320	0.819720	0.469530
H2631	H263	0.435800	0.854500	0.464900
H2641	H264	0.265200	0.797500	0.469600
C3521	C352	0.345630	0.777430	0.481220
O1331	O133	0.265340	0.600000	0.795700
Zn231	Zn23	0.260910	0.602520	0.833970
C3531	C353	0.219300	0.566490	0.802520
O1341	O134	0.210000	0.563220	0.816990
O1351	O135	0.276340	0.555450	0.848090
O1361	O136	0.219130	0.629620	0.846550
C3541	C354	0.171960	0.519690	0.793250
C3551	C355	0.181590	0.513070	0.777780
C3561	C356	0.118670	0.484060	0.799220
H2651	H265	0.217170	0.538130	0.773330
C3571	C357	0.138270	0.469250	0.769080
H2661	H266	0.111770	0.488130	0.809530
C3581	C358	0.074800	0.442460	0.790590
C3591	C359	0.084370	0.432620	0.775250
H2671	H267	0.145770	0.464530	0.758830
H2681	H268	0.038170	0.420430	0.794930
O1371	O137	0.039600	0.388850	0.767930
C3601	C360	0.052720	0.369270	0.754080
H2691	H269	0.060870	0.396930	0.745830
H2701	H270	0.086470	0.365030	0.755530
C3611	C361	0.981380	0.269210	0.763890
O1381	O138	0.030820	0.266380	0.768560
H2711	H271	0.967770	0.283530	0.772230
H2721	H272	0.950370	0.231130	0.760930
C3621	C362	0.022370	0.227930	0.780090
C3631	C363	0.071840	0.226500	0.784340
C3641	C364	0.970920	0.192460	0.786830
H2731	H273	0.106870	0.251130	0.779530
C3651	C365	0.069380	0.189110	0.795530
C3661	C366	0.967200	0.154960	0.798260
H2741	H274	0.937970	0.193330	0.783730
C3671	C367	0.016990	0.153050	0.802860
H2751	H275	0.102470	0.187830	0.798230
H2761	H276	0.931870	0.130830	0.802930
C3681	C368	0.012300	0.110760	0.814550
O1391	O139	0.932000	0.933340	0.129040
Zn241	Zn24	0.927580	0.935850	0.167300
C3691	C369	0.885960	0.899830	0.135860
O1401	O140	0.876660	0.896560	0.150330
O1411	O141	0.943000	0.888790	0.181430
O1421	O142	0.885790	0.962960	0.179890
C3701	C370	0.838620	0.853030	0.126590
C3711	C371	0.848250	0.846410	0.111120
C3721	C372	0.785330	0.817400	0.132560
H2771	H277	0.883830	0.871470	0.106670
C3731	C373	0.804930	0.802590	0.102420
H2781	H278	0.778430	0.821470	0.142870
C3741	C374	0.741460	0.775800	0.123930
C3751	C375	0.751030	0.765960	0.108590
H2791	H279	0.812430	0.797870	0.092170
H2801	H280	0.704830	0.753770	0.128270
O1431	O143	0.706260	0.722190	0.101270
C3761	C376	0.719380	0.702610	0.087420
H2811	H281	0.727530	0.730270	0.079170
H2821	H282	0.753130	0.698370	0.088870
C3771	C377	0.648040	0.602550	0.097230
O1441	O144	0.697480	0.599720	0.101900
H2831	H283	0.634430	0.616870	0.105570
H2841	H284	0.617030	0.564470	0.094270
C3781	C378	0.689030	0.561270	0.113430
C3791	C379	0.738500	0.559840	0.117680
C3801	C380	0.637580	0.525800	0.120170
H2851	H285	0.773530	0.584470	0.112870
C3811	C381	0.736040	0.522450	0.128870
C3821	C382	0.633860	0.488300	0.131600
H2861	H286	0.604630	0.526670	0.117070
C3831	C383	0.683650	0.486390	0.136200
H2871	H287	0.769130	0.521170	0.131570
H2881	H288	0.598530	0.464170	0.136270
C3841	C384	0.678960	0.444100	0.147890
O1451	O145	0.733330	0.332000	0.462370
Zn251	Zn25	0.730820	0.325060	0.500630
C3851	C385	0.766840	0.319470	0.469190
O1461	O146	0.770110	0.313440	0.483660
O1471	O147	0.777880	0.387550	0.514760
O1481	O148	0.703710	0.256170	0.513220
C3861	C386	0.813640	0.318930	0.459920
C3871	C387	0.820260	0.335180	0.444450
C3881	C388	0.849270	0.301270	0.465890
H2891	H289	0.795200	0.345700	0.440000
C3891	C389	0.864080	0.335680	0.435750
H2901	H290	0.845200	0.290300	0.476200
C3901	C390	0.890870	0.299000	0.457260
C3911	C391	0.900710	0.318410	0.441920
H2911	H291	0.868800	0.347900	0.425500
H2921	H292	0.912900	0.284400	0.461600
O1491	O149	0.944480	0.317410	0.434600
C3921	C392	0.964060	0.350110	0.420750
H2931	H293	0.936400	0.330600	0.412500
H2941	H294	0.968300	0.388100	0.422200
C3931	C393	0.064120	0.378830	0.430560
O1501	O150	0.066950	0.431100	0.435230
H2951	H295	0.049800	0.350900	0.438900
H2961	H296	0.102200	0.385900	0.427600
C3941	C394	0.105400	0.461100	0.446760
C3951	C395	0.106830	0.512000	0.451010
C3961	C396	0.140870	0.445120	0.453500
H2971	H297	0.082200	0.522400	0.446200
C3971	C397	0.144220	0.546930	0.462200
C3981	C398	0.178370	0.478900	0.464930
H2981	H298	0.140000	0.411300	0.450400
C3991	C399	0.180280	0.530600	0.469530
H2991	H299	0.145500	0.581300	0.464900
H3001	H300	0.202500	0.467700	0.469600
C4001	C400	0.222570	0.568200	0.481220
O1511	O151	0.400000	0.665330	0.795700
Zn261	Zn26	0.397480	0.658400	0.833970
C4011	C401	0.433510	0.652800	0.802520
O1521	O152	0.436780	0.646770	0.816990
O1531	O153	0.444550	0.720880	0.848090
O1541	O154	0.370380	0.589500	0.846550
C4021	C402	0.480310	0.652260	0.793250
C4031	C403	0.486930	0.668510	0.777780
C4041	C404	0.515940	0.634600	0.799220
H3011	H301	0.461870	0.679030	0.773330
C4051	C405	0.530750	0.669010	0.769080
H3021	H302	0.511870	0.623630	0.809530
C4061	C406	0.557540	0.632330	0.790590
C4071	C407	0.567380	0.651740	0.775250
H3031	H303	0.535470	0.681230	0.758830
H3041	H304	0.579570	0.617730	0.794930
O1551	O155	0.611150	0.650740	0.767930
C4081	C408	0.630730	0.683440	0.754080
H3051	H305	0.603070	0.663930	0.745830
H3061	H306	0.634970	0.721430	0.755530
C4091	C409	0.730790	0.712160	0.763890
O1561	O156	0.733620	0.764430	0.768560
H3071	H307	0.716470	0.684230	0.772230
H3081	H308	0.768870	0.719230	0.760930
C4101	C410	0.772070	0.794430	0.780090
C4111	C411	0.773500	0.845330	0.784340
C4121	C412	0.807540	0.778450	0.786830
H3091	H309	0.748870	0.855730	0.779530
C4131	C413	0.810890	0.880260	0.795530
C4141	C414	0.845040	0.812230	0.798260
H3101	H310	0.806670	0.744630	0.783730
C4151	C415	0.846950	0.863930	0.802860
H3111	H311	0.812170	0.914630	0.798230
H3121	H312	0.869170	0.801030	0.802930
C4161	C416	0.889240	0.901530	0.814550
O1571	O157	0.066660	0.998670	0.129040
Zn271	Zn27	0.064150	0.991730	0.167300
C4171	C417	0.100170	0.986140	0.135860
O1581	O158	0.103440	0.980110	0.150330
O1591	O159	0.111210	0.054220	0.181430
O1601	O160	0.037040	0.922840	0.179890
C4181	C418	0.146970	0.985600	0.126590
C4191	C419	0.153590	0.001850	0.111120
C4201	C420	0.182600	0.967940	0.132560
H3131	H313	0.128530	0.012370	0.106670
C4211	C421	0.197410	0.002350	0.102420
H3141	H314	0.178530	0.956970	0.142870
C4221	C422	0.224200	0.965670	0.123930
C4231	C423	0.234040	0.985080	0.108590
H3151	H315	0.202130	0.014570	0.092170
H3161	H316	0.246230	0.951070	0.128270
O1611	O161	0.277810	0.984080	0.101270
C4241	C424	0.297390	0.016780	0.087420
H3171	H317	0.269730	0.997270	0.079170
H3181	H318	0.301630	0.054770	0.088870
C4251	C425	0.397450	0.045500	0.097230
O1621	O162	0.400280	0.097770	0.101900
H3191	H319	0.383130	0.017570	0.105570
H3201	H320	0.435530	0.052570	0.094270
C4261	C426	0.438730	0.127770	0.113430
C4271	C427	0.440160	0.178670	0.117680
C4281	C428	0.474200	0.111790	0.120170
H3211	H321	0.415530	0.189070	0.112870
C4291	C429	0.477550	0.213600	0.128870
C4301	C430	0.511700	0.145570	0.131600
H3221	H322	0.473330	0.077970	0.117070
C4311	C431	0.513610	0.197270	0.136200
H3231	H323	0.478830	0.247970	0.131570
H3241	H324	0.535830	0.134370	0.136270
C4321	C432	0.555900	0.234870	0.147890
O1631	O163	0.401330	0.668000	0.037630
Zn281	Zn28	0.405750	0.674940	0.999370
C4331	C433	0.447370	0.680530	0.030810
O1641	O164	0.456670	0.686560	0.016340
O1651	O165	0.390330	0.612450	0.985240
O1661	O166	0.447540	0.743830	0.986780
C4341	C434	0.494710	0.681070	0.040080
C4351	C435	0.485080	0.664820	0.055550
C4361	C436	0.548000	0.698730	0.034110
H3251	H325	0.449500	0.654300	0.060000
C4371	C437	0.528400	0.664320	0.064250
H3261	H326	0.554900	0.709700	0.023800
C4381	C438	0.591870	0.701000	0.042740
C4391	C439	0.582300	0.681590	0.058080
H3271	H327	0.520900	0.652100	0.074500
H3281	H328	0.628500	0.715600	0.038400
O1671	O167	0.627070	0.682590	0.065400
C4401	C440	0.613950	0.649890	0.079250
H3291	H329	0.605800	0.669400	0.087500
H3301	H330	0.580200	0.611900	0.077800
C4411	C441	0.685290	0.621170	0.069440
O1681	O168	0.635850	0.568900	0.064770
H3311	H331	0.698900	0.649100	0.061100
H3321	H332	0.716300	0.614100	0.072400
C4421	C442	0.644300	0.538900	0.053240
C4431	C443	0.594830	0.488000	0.048990
C4441	C444	0.695750	0.554880	0.046500
H3331	H333	0.559800	0.477600	0.053800
C4451	C445	0.597290	0.453070	0.037800
C4461	C446	0.699470	0.521100	0.035070
H3341	H334	0.728700	0.588700	0.049600
C4471	C447	0.649680	0.469400	0.030470
H3351	H335	0.564200	0.418700	0.035100
H3361	H336	0.734800	0.532300	0.030400
C4481	C448	0.654370	0.431800	0.018780
O1691	O169	0.068000	0.001330	0.370960
Zn291	Zn29	0.072420	0.008270	0.332700
C4491	C449	0.114040	0.013860	0.364140
O1701	O170	0.123340	0.019890	0.349670
O1711	O171	0.057000	0.945780	0.318570
O1721	O172	0.114210	0.077160	0.320110
C4501	C450	0.161380	0.014400	0.373410
C4511	C451	0.151750	0.998150	0.388880
C4521	C452	0.214670	0.032060	0.367440
H3371	H337	0.116170	0.987630	0.393330
C4531	C453	0.195070	0.997650	0.397580
H3381	H338	0.221570	0.043030	0.357130
C4541	C454	0.258540	0.034330	0.376070
C4551	C455	0.248970	0.014920	0.391410
H3391	H339	0.187570	0.985430	0.407830
H3401	H340	0.295170	0.048930	0.371730
O1731	O173	0.293740	0.015920	0.398730
C4561	C456	0.280620	0.983220	0.412580
H3411	H341	0.272470	0.002730	0.420830
H3421	H342	0.246870	0.945230	0.411130
C4571	C457	0.351960	0.954500	0.402770
O1741	O174	0.302520	0.902230	0.398100
H3431	H343	0.365570	0.982430	0.394430
H3441	H344	0.382970	0.947430	0.405730
C4581	C458	0.310970	0.872230	0.386570
C4591	C459	0.261500	0.821330	0.382320
C4601	C460	0.362420	0.888210	0.379830
H3451	H345	0.226470	0.810930	0.387130
C4611	C461	0.263960	0.786400	0.371130
C4621	C462	0.366140	0.854430	0.368400
H3461	H346	0.395370	0.922030	0.382930
C4631	C463	0.316350	0.802730	0.363800
H3471	H347	0.230870	0.752030	0.368430
H3481	H348	0.401470	0.865630	0.363730
C4641	C464	0.321040	0.765130	0.352110
O1751	O175	0.734660	0.334670	0.704300
Zn301	Zn30	0.739090	0.341600	0.666030
C4651	C465	0.780700	0.347200	0.697480
O1761	O176	0.790000	0.353230	0.683010
O1771	O177	0.723660	0.279120	0.651910
O1781	O178	0.780870	0.410500	0.653450
C4661	C466	0.828040	0.347740	0.706750
C4671	C467	0.818410	0.331490	0.722220
C4681	C468	0.881330	0.365400	0.700780
H3491	H349	0.782830	0.320970	0.726670
C4691	C469	0.861730	0.330990	0.730920
H3501	H350	0.888230	0.376370	0.690470
C4701	C470	0.925200	0.367670	0.709410
C4711	C471	0.915630	0.348260	0.724750
H3511	H351	0.854230	0.318770	0.741170
H3521	H352	0.961830	0.382270	0.705070
O1791	O179	0.960400	0.349260	0.732070
C4721	C472	0.947280	0.316560	0.745920
H3531	H353	0.939130	0.336070	0.754170
H3541	H354	0.913530	0.278570	0.744470
C4731	C473	0.018620	0.287840	0.736110
O1801	O180	0.969180	0.235570	0.731440
H3551	H355	0.032230	0.315770	0.727770
H3561	H356	0.049630	0.280770	0.739070
C4741	C474	0.977630	0.205570	0.719910
C4751	C475	0.928160	0.154670	0.715660
C4761	C476	0.029080	0.221550	0.713170
H3571	H357	0.893130	0.144270	0.720470
C4771	C477	0.930620	0.119740	0.704470
C4781	C478	0.032800	0.187770	0.701740
H3581	H358	0.062030	0.255370	0.716270
C4791	C479	0.983010	0.136070	0.697140
H3591	H359	0.897530	0.085370	0.701770
H3601	H360	0.068130	0.198970	0.697070
C4801	C480	0.987700	0.098470	0.685450
O1811	O181	0.266670	0.598670	0.037630
Zn311	Zn31	0.269180	0.594250	0.999370
C4811	C481	0.233160	0.552630	0.030810
O1821	O182	0.229890	0.543330	0.016340
O1831	O183	0.222120	0.609670	0.985240
O1841	O184	0.296290	0.552460	0.986780
C4821	C482	0.186360	0.505290	0.040080
C4831	C483	0.179740	0.514920	0.055550
C4841	C484	0.150730	0.452000	0.034110
H3611	H361	0.204800	0.550500	0.060000
C4851	C485	0.135920	0.471600	0.064250
H3621	H362	0.154800	0.445100	0.023800
C4861	C486	0.109130	0.408130	0.042740
C4871	C487	0.099290	0.417700	0.058080
H3631	H363	0.131200	0.479100	0.074500
H3641	H364	0.087100	0.371500	0.038400
O1851	O185	0.055520	0.372930	0.065400
C4881	C488	0.035940	0.386050	0.079250
H3651	H365	0.063600	0.394200	0.087500
H3661	H366	0.031700	0.419800	0.077800
C4891	C489	0.935880	0.314710	0.069440
O1861	O186	0.933050	0.364150	0.064770
H3671	H367	0.950200	0.301100	0.061100
H3681	H368	0.897800	0.283700	0.072400
C4901	C490	0.894600	0.355700	0.053240
C4911	C491	0.893170	0.405170	0.048990
C4921	C492	0.859130	0.304250	0.046500
H3691	H369	0.917800	0.440200	0.053800
C4931	C493	0.855780	0.402710	0.037800
C4941	C494	0.821630	0.300530	0.035070
H3701	H370	0.860000	0.271300	0.049600
C4951	C495	0.819720	0.350320	0.030470
H3711	H371	0.854500	0.435800	0.035100
H3721	H372	0.797500	0.265200	0.030400
C4961	C496	0.777430	0.345630	0.018780
O1871	O187	0.933340	0.932000	0.370960
Zn321	Zn32	0.935850	0.927580	0.332700
C4971	C497	0.899830	0.885960	0.364140
O1881	O188	0.896560	0.876660	0.349670
O1891	O189	0.888790	0.943000	0.318570
O1901	O190	0.962960	0.885790	0.320110
C4981	C498	0.853030	0.838620	0.373410
C4991	C499	0.846410	0.848250	0.388880
C5001	C500	0.817400	0.785330	0.367440
H3731	H373	0.871470	0.883830	0.393330
C5011	C501	0.802590	0.804930	0.397580
H3741	H374	0.821470	0.778430	0.357130
C5021	C502	0.775800	0.741460	0.376070
C5031	C503	0.765960	0.751030	0.391410
H3751	H375	0.797870	0.812430	0.407830
H3761	H376	0.753770	0.704830	0.371730
O1911	O191	0.722190	0.706260	0.398730
C5041	C504	0.702610	0.719380	0.412580
H3771	H377	0.730270	0.727530	0.420830
H3781	H378	0.698370	0.753130	0.411130
C5051	C505	0.602550	0.648040	0.402770
O1921	O192	0.599720	0.697480	0.398100
H3791	H379	0.616870	0.634430	0.394430
H3801	H380	0.564470	0.617030	0.405730
C5061	C506	0.561270	0.689030	0.386570
C5071	C507	0.559840	0.738500	0.382320
C5081	C508	0.525800	0.637580	0.379830
H3811	H381	0.584470	0.773530	0.387130
C5091	C509	0.522450	0.736040	0.371130
C5101	C510	0.488300	0.633860	0.368400
H3821	H382	0.526670	0.604630	0.382930
C5111	C511	0.486390	0.683650	0.363800
H3831	H383	0.521170	0.769130	0.368430
H3841	H384	0.464170	0.598530	0.363730
C5121	C512	0.444100	0.678960	0.352110
O1931	O193	0.600000	0.265340	0.704300
Zn331	Zn33	0.602520	0.260910	0.666030
C5131	C513	0.566490	0.219300	0.697480
O1941	O194	0.563220	0.210000	0.683010
O1951	O195	0.555450	0.276340	0.651910
O1961	O196	0.629620	0.219130	0.653450
C5141	C514	0.519690	0.171960	0.706750
C5151	C515	0.513070	0.181590	0.722220
C5161	C516	0.484060	0.118670	0.700780
H3851	H385	0.538130	0.217170	0.726670
C5171	C517	0.469250	0.138270	0.730920
H3861	H386	0.488130	0.111770	0.690470
C5181	C518	0.442460	0.074800	0.709410
C5191	C519	0.432620	0.084370	0.724750
H3871	H387	0.464530	0.145770	0.741170
H3881	H388	0.420430	0.038170	0.705070
O1971	O197	0.388850	0.039600	0.732070
C5201	C520	0.369270	0.052720	0.745920
H3891	H389	0.396930	0.060870	0.754170
H3901	H390	0.365030	0.086470	0.744470
C5211	C521	0.269210	0.981380	0.736110
O1981	O198	0.266380	0.030820	0.731440
H3911	H391	0.283530	0.967770	0.727770
H3921	H392	0.231130	0.950370	0.739070
C5221	C522	0.227930	0.022370	0.719910
C5231	C523	0.226500	0.071840	0.715660
C5241	C524	0.192460	0.970920	0.713170
H3931	H393	0.251130	0.106870	0.720470
C5251	C525	0.189110	0.069380	0.704470
C5261	C526	0.154960	0.967200	0.701740
H3941	H394	0.193330	0.937970	0.716270
C5271	C527	0.153050	0.016990	0.697140
H3951	H395	0.187830	0.102470	0.701770
H3961	H396	0.130830	0.931870	0.697070
C5281	C528	0.110760	0.012300	0.685450
O1991	O199	0.332000	0.733330	0.037630
Zn341	Zn34	0.325060	0.730820	0.999370
C5291	C529	0.319470	0.766840	0.030810
O2001	O200	0.313440	0.770110	0.016340
O2011	O201	0.387550	0.777880	0.985240
O2021	O202	0.256170	0.703710	0.986780
C5301	C530	0.318930	0.813640	0.040080
C5311	C531	0.335180	0.820260	0.055550
C5321	C532	0.301270	0.849270	0.034110
H3971	H397	0.345700	0.795200	0.060000
C5331	C533	0.335680	0.864080	0.064250
H3981	H398	0.290300	0.845200	0.023800
C5341	C534	0.299000	0.890870	0.042740
C5351	C535	0.318410	0.900710	0.058080
H3991	H399	0.347900	0.868800	0.074500
H4001	H400	0.284400	0.912900	0.038400
O2031	O203	0.317410	0.944480	0.065400
C5361	C536	0.350110	0.964060	0.079250
H4011	H401	0.330600	0.936400	0.087500
H4021	H402	0.388100	0.968300	0.077800
C5371	C537	0.378830	0.064120	0.069440
O2041	O204	0.431100	0.066950	0.064770
H4031	H403	0.350900	0.049800	0.061100
H4041	H404	0.385900	0.102200	0.072400
C5381	C538	0.461100	0.105400	0.053240
C5391	C539	0.512000	0.106830	0.048990
C5401	C540	0.445120	0.140870	0.046500
H4051	H405	0.522400	0.082200	0.053800
C5411	C541	0.546930	0.144220	0.037800
C5421	C542	0.478900	0.178370	0.035070
H4061	H406	0.411300	0.140000	0.049600
C5431	C543	0.530600	0.180280	0.030470
H4071	H407	0.581300	0.145500	0.035100
H4081	H408	0.467700	0.202500	0.030400
C5441	C544	0.568200	0.222570	0.018780
O2051	O205	0.998670	0.066660	0.370960
Zn351	Zn35	0.991730	0.064150	0.332700
C5451	C545	0.986140	0.100170	0.364140
O2061	O206	0.980110	0.103440	0.349670
O2071	O207	0.054220	0.111210	0.318570
O2081	O208	0.922840	0.037040	0.320110
C5461	C546	0.985600	0.146970	0.373410
C5471	C547	0.001850	0.153590	0.388880
C5481	C548	0.967940	0.182600	0.367440
H4091	H409	0.012370	0.128530	0.393330
C5491	C549	0.002350	0.197410	0.397580
H4101	H410	0.956970	0.178530	0.357130
C5501	C550	0.965670	0.224200	0.376070
C5511	C551	0.985080	0.234040	0.391410
H4111	H411	0.014570	0.202130	0.407830
H4121	H412	0.951070	0.246230	0.371730
O2091	O209	0.984080	0.277810	0.398730
C5521	C552	0.016780	0.297390	0.412580
H4131	H413	0.997270	0.269730	0.420830
H4141	H414	0.054770	0.301630	0.411130
C5531	C553	0.045500	0.397450	0.402770
O2101	O210	0.097770	0.400280	0.398100
H4151	H415	0.017570	0.383130	0.394430
H4161	H416	0.052570	0.435530	0.405730
C5541	C554	0.127770	0.438730	0.386570
C5551	C555	0.178670	0.440160	0.382320
C5561	C556	0.111790	0.474200	0.379830
H4171	H417	0.189070	0.415530	0.387130
C5571	C557	0.213600	0.477550	0.371130
C5581	C558	0.145570	0.511700	0.368400
H4181	H418	0.077970	0.473330	0.382930
C5591	C559	0.197270	0.513610	0.363800
H4191	H419	0.247970	0.478830	0.368430
H4201	H420	0.134370	0.535830	0.363730
C5601	C560	0.234870	0.555900	0.352110
O2111	O211	0.665330	0.400000	0.704300
Zn361	Zn36	0.658400	0.397480	0.666030
C5611	C561	0.652800	0.433510	0.697480
O2121	O212	0.646770	0.436780	0.683010
O2131	O213	0.720880	0.444550	0.651910
O2141	O214	0.589500	0.370380	0.653450
C5621	C562	0.652260	0.480310	0.706750
C5631	C563	0.668510	0.486930	0.722220
C5641	C564	0.634600	0.515940	0.700780
H4211	H421	0.679030	0.461870	0.726670
C5651	C565	0.669010	0.530750	0.730920
H4221	H422	0.623630	0.511870	0.690470
C5661	C566	0.632330	0.557540	0.709410
C5671	C567	0.651740	0.567380	0.724750
H4231	H423	0.681230	0.535470	0.741170
H4241	H424	0.617730	0.579570	0.705070
O2151	O215	0.650740	0.611150	0.732070
C5681	C568	0.683440	0.630730	0.745920
H4251	H425	0.663930	0.603070	0.754170
H4261	H426	0.721430	0.634970	0.744470
C5691	C569	0.712160	0.730790	0.736110
O2161	O216	0.764430	0.733620	0.731440
H4271	H427	0.684230	0.716470	0.727770
H4281	H428	0.719230	0.768870	0.739070
C5701	C570	0.794430	0.772070	0.719910
C5711	C571	0.845330	0.773500	0.715660
C5721	C572	0.778450	0.807540	0.713170
H4291	H429	0.855730	0.748870	0.720470
C5731	C573	0.880260	0.810890	0.704470
C5741	C574	0.812230	0.845040	0.701740
H4301	H430	0.744630	0.806670	0.716270
C5751	C575	0.863930	0.846950	0.697140
H4311	H431	0.914630	0.812170	0.701770
H4321	H432	0.801030	0.869170	0.697070
C5761	C576	0.901530	0.889240	0.685450
Zn371	Zn37	0.333330	0.666670	0.529190
O2171	O217	0.333330	0.666670	0.506680
Zn381	Zn38	0.000000	0.000000	0.862520
O2181	O218	0.000000	0.000000	0.840010
Zn391	Zn39	0.666670	0.333330	0.195850
O2191	O219	0.666670	0.333330	0.173350
Zn401	Zn40	0.666670	0.333330	0.970820
O2201	O220	0.666670	0.333330	0.993320
Zn411	Zn41	0.333330	0.666670	0.304150
O2211	O221	0.333330	0.666670	0.326650
Zn421	Zn42	0.000000	0.000000	0.637480
O2221	O222	0.000000	0.000000	0.659990
Zn431	Zn43	0.666670	0.333330	0.470810
O2231	O223	0.666670	0.333330	0.493320
Zn441	Zn44	0.333330	0.666670	0.804150
O2241	O224	0.333330	0.666670	0.826650
Zn451	Zn45	0.000000	0.000000	0.137480
O2251	O225	0.000000	0.000000	0.159990
Zn461	Zn46	0.333330	0.666670	0.029190
O2261	O226	0.333330	0.666670	0.006680
Zn471	Zn47	0.000000	0.000000	0.362520
O2271	O227	0.000000	0.000000	0.340010
Zn481	Zn48	0.666670	0.333330	0.695850
O2281	O228	0.666670	0.333330	0.673350
C5771	C577	0.355710	0.333330	0.583330
C5781	C578	0.666670	0.022370	0.583330
C5791	C579	0.977630	0.644290	0.583330
C5801	C580	0.333330	0.355710	0.916670
C5811	C581	0.000000	0.689040	0.250000
C5821	C582	0.022370	0.666670	0.916670
C5831	C583	0.689040	0.000000	0.250000
C5841	C584	0.644290	0.977630	0.916670
C5851	C585	0.310960	0.310960	0.250000
C5861	C586	0.644290	0.666670	0.416670
C5871	C587	0.310960	0.000000	0.750000
C5881	C588	0.333330	0.977630	0.416670
C5891	C589	0.000000	0.310960	0.750000
C5901	C590	0.022370	0.355710	0.416670
C5911	C591	0.689040	0.689040	0.750000
C5921	C592	0.666670	0.644290	0.083330
C5931	C593	0.977630	0.333330	0.083330
C5941	C594	0.355710	0.022370	0.083330
