data_GITTOT01_manual_PM
_symmetry_space_group_name_H-M	'P1'
_cell_length_a	14.686800
_cell_length_b	14.686800
_cell_length_c	14.686800
_cell_angle_alpha	109.471000
_cell_angle_beta	109.471000
_cell_angle_gamma	109.471000
_symmetry_Int_Tables_number 1

loop_
_symmetry_equiv_pos_as_xyz
'x,y,z'

loop_
_atom_site_label
_atom_site_type_symbol
_atom_site_fract_x
_atom_site_fract_y
_atom_site_fract_z
Co11	Co1	0.750000	0.250000	0.500000
Co21	Co2	0.250000	0.750000	0.500000
Co31	Co3	0.500000	0.250000	0.750000
Co41	Co4	0.500000	0.750000	0.250000
Co51	Co5	0.250000	0.500000	0.750000
Co61	Co6	0.750000	0.500000	0.250000
H11	H1	0.572110	0.352020	0.469070
H21	H2	0.117060	0.647980	0.220090
H31	H3	0.427890	0.896970	0.779910
H41	H4	0.220090	0.117060	0.647980
H51	H5	0.779910	0.427890	0.896970
H61	H6	0.469070	0.572110	0.352020
H71	H7	0.530920	0.882940	0.103030
H81	H8	0.352020	0.469070	0.572110
H91	H9	0.896970	0.779910	0.427890
H101	H10	0.647980	0.220090	0.117060
H111	H11	0.103030	0.882940	0.530920
H121	H12	0.352020	0.572110	0.469070
H131	H13	0.896970	0.427890	0.779910
H141	H14	0.647980	0.117060	0.220090
H151	H15	0.572110	0.469070	0.352020
H161	H16	0.882940	0.530920	0.103030
H171	H17	0.117060	0.220090	0.647980
H181	H18	0.427890	0.779910	0.896970
H191	H19	0.220090	0.647980	0.117060
H201	H20	0.779910	0.896970	0.427890
H211	H21	0.469070	0.352020	0.572110
H221	H22	0.530920	0.103030	0.882940
C11	C1	0.584100	0.317700	0.528600
C21	C2	0.789100	0.055500	0.471400
C31	C3	0.210900	0.682300	0.266400
C41	C4	0.415900	0.944500	0.733600
C51	C5	0.266400	0.210900	0.682300
C61	C6	0.733600	0.415900	0.944500
C71	C7	0.528600	0.584100	0.317700
C81	C8	0.471400	0.789100	0.055500
C91	C9	0.055500	0.471400	0.789100
C101	C10	0.317700	0.528600	0.584100
C111	C11	0.944500	0.733600	0.415900
C121	C12	0.682300	0.266400	0.210900
C131	C13	0.055500	0.789100	0.471400
C141	C14	0.317700	0.584100	0.528600
C151	C15	0.944500	0.415900	0.733600
C161	C16	0.682300	0.210900	0.266400
C171	C17	0.584100	0.528600	0.317700
C181	C18	0.789100	0.471400	0.055500
C191	C19	0.210900	0.266400	0.682300
C201	C20	0.415900	0.733600	0.944500
C211	C21	0.266400	0.682300	0.210900
C221	C22	0.733600	0.944500	0.415900
C231	C23	0.528600	0.317700	0.584100
C241	C24	0.471400	0.055500	0.789100
C251	C25	0.628200	0.245400	0.628200
C261	C26	0.678300	0.187600	0.678300
C271	C27	0.617200	0.000000	0.371800
C281	C28	0.509300	0.000000	0.321700
C291	C29	0.382800	0.754600	0.382800
C301	C30	0.490700	0.812400	0.490700
C311	C31	0.371800	0.000000	0.617200
C321	C32	0.321700	0.000000	0.509300
C331	C33	0.382800	0.382800	0.754600
C341	C34	0.490700	0.490700	0.812400
C351	C35	0.617200	0.371800	0.000000
C361	C36	0.509300	0.321700	0.000000
C371	C37	0.628200	0.628200	0.245400
C381	C38	0.678300	0.678300	0.187600
C391	C39	0.371800	0.617200	0.000000
C401	C40	0.321700	0.509300	0.000000
C411	C41	0.000000	0.371800	0.617200
C421	C42	0.000000	0.321700	0.509300
C431	C43	0.245400	0.628200	0.628200
C441	C44	0.187600	0.678300	0.678300
C451	C45	0.000000	0.617200	0.371800
C461	C46	0.000000	0.509300	0.321700
C471	C47	0.754600	0.382800	0.382800
C481	C48	0.812400	0.490700	0.490700
N11	N1	0.649700	0.272500	0.557200
N21	N2	0.715300	0.092500	0.442800
N31	N3	0.284700	0.727500	0.377200
N41	N4	0.350300	0.907500	0.622800
N51	N5	0.377200	0.284700	0.727500
N61	N6	0.622800	0.350300	0.907500
N71	N7	0.557200	0.649700	0.272500
N81	N8	0.442800	0.715300	0.092500
N91	N9	0.092500	0.442800	0.715300
N101	N10	0.272500	0.557200	0.649700
N111	N11	0.907500	0.622800	0.350300
N121	N12	0.727500	0.377200	0.284700
N131	N13	0.092500	0.715300	0.442800
N141	N14	0.272500	0.649700	0.557200
N151	N15	0.907500	0.350300	0.622800
N161	N16	0.727500	0.284700	0.377200
N171	N17	0.649700	0.557200	0.272500
N181	N18	0.715300	0.442800	0.092500
N191	N19	0.284700	0.377200	0.727500
N201	N20	0.350300	0.622800	0.907500
N211	N21	0.377200	0.727500	0.284700
N221	N22	0.622800	0.907500	0.350300
N231	N23	0.557200	0.272500	0.649700
N241	N24	0.442800	0.092500	0.715300
H231	H23	0.736850	0.174330	0.647230
H241	H24	0.608910	0.103460	0.652450
H251	H25	0.727010	0.241320	0.773080
H261	H26	0.436130	0.914190	0.286080
H271	H27	0.502760	0.020490	0.252230
H281	H28	0.507460	0.065320	0.388930
H291	H29	0.560210	0.874470	0.488300
H301	H30	0.512450	0.747890	0.502090
H311	H31	0.480980	0.858530	0.563260
H321	H32	0.303220	0.921570	0.437730
H331	H33	0.383020	0.076780	0.515000
H341	H34	0.240990	0.001650	0.493620
H351	H35	0.497240	0.517730	0.749460
H361	H36	0.563870	0.478060	0.849950
H371	H37	0.492540	0.557850	0.881470
H381	H38	0.487550	0.235430	0.989640
H391	H39	0.439790	0.314250	0.928080
H401	H40	0.519020	0.377550	0.082280
H411	H41	0.616980	0.693760	0.131980
H421	H42	0.696780	0.618350	0.134510
H431	H43	0.759010	0.760660	0.252630
H441	H44	0.391090	0.494550	0.043550
H451	H45	0.263150	0.437480	0.910380
H461	H46	0.272990	0.514320	0.046070
H471	H47	0.051800	0.391230	0.499300
H481	H48	0.910760	0.270830	0.436510
H491	H49	0.037450	0.265180	0.510550
H501	H50	0.127940	0.614950	0.688800
H511	H51	0.138780	0.701710	0.620810
H521	H52	0.252400	0.756110	0.763150
H531	H53	0.023610	0.504230	0.254390
H541	H54	0.913320	0.436060	0.283260
H551	H55	0.063070	0.506070	0.389580
H561	H56	0.861220	0.562930	0.482030
H571	H57	0.872060	0.487000	0.560860
H581	H58	0.747600	0.503710	0.510760
