data_GITVEL01_freeONLY_PM
_symmetry_space_group_name_H-M	'P1'
_cell_length_a	18.020800
_cell_length_b	27.011100
_cell_length_c	27.011100
_cell_angle_alpha	120.000000
_cell_angle_beta	90.000000
_cell_angle_gamma	90.000000
_symmetry_Int_Tables_number 1

loop_
_symmetry_equiv_pos_as_xyz
'x,y,z'

loop_
_atom_site_label
_atom_site_type_symbol
_atom_site_fract_x
_atom_site_fract_y
_atom_site_fract_z
Zn11	Zn1	0.579660	0.332780	0.443520
Zn21	Zn2	0.579660	0.110740	0.667220
Zn31	Zn3	0.579660	0.556480	0.889260
Zn41	Zn4	0.079660	0.667220	0.556480
Zn51	Zn5	0.079660	0.889260	0.332780
Zn61	Zn6	0.079660	0.443520	0.110740
Zn71	Zn7	0.420340	0.889260	0.556480
Zn81	Zn8	0.420340	0.443520	0.332780
Zn91	Zn9	0.420340	0.667220	0.110740
Zn101	Zn10	0.920340	0.110740	0.443520
Zn111	Zn11	0.920340	0.556480	0.667220
Zn121	Zn12	0.920340	0.332780	0.889260
Zn131	Zn13	0.420340	0.667220	0.556480
Zn141	Zn14	0.420340	0.889260	0.332780
Zn151	Zn15	0.420340	0.443520	0.110740
Zn161	Zn16	0.920340	0.332780	0.443520
Zn171	Zn17	0.920340	0.110740	0.667220
Zn181	Zn18	0.920340	0.556480	0.889260
Zn191	Zn19	0.579660	0.110740	0.443520
Zn201	Zn20	0.579660	0.556480	0.667220
Zn211	Zn21	0.579660	0.332780	0.889260
Zn221	Zn22	0.079660	0.889260	0.556480
Zn231	Zn23	0.079660	0.443520	0.332780
Zn241	Zn24	0.079660	0.667220	0.110740
H11	H1	0.445200	0.244700	0.398100
H21	H2	0.682100	0.331900	0.347300
H31	H3	0.432000	0.401300	0.508900
H41	H4	0.530400	0.262000	0.308400
H51	H5	0.445200	0.153400	0.755300
H61	H6	0.682100	0.015400	0.668100
H71	H7	0.432000	0.107600	0.598700
H81	H8	0.530400	0.046400	0.738000
H91	H9	0.445200	0.601900	0.846600
H101	H10	0.682100	0.652700	0.984600
H111	H11	0.432000	0.491100	0.892400
H121	H12	0.530400	0.691600	0.953600
H131	H13	0.945200	0.755300	0.601900
H141	H14	0.182100	0.668100	0.652700
H151	H15	0.932000	0.598700	0.491100
H161	H16	0.030400	0.738000	0.691600
H171	H17	0.945200	0.846600	0.244700
H181	H18	0.182100	0.984600	0.331900
H191	H19	0.932000	0.892400	0.401300
H201	H20	0.030400	0.953600	0.262000
H211	H21	0.945200	0.398100	0.153400
H221	H22	0.182100	0.347300	0.015400
H231	H23	0.932000	0.508900	0.107600
H241	H24	0.030400	0.308400	0.046400
H251	H25	0.554800	0.846600	0.601900
H261	H26	0.317900	0.984600	0.652700
H271	H27	0.568000	0.892400	0.491100
H281	H28	0.469600	0.953600	0.691600
H291	H29	0.554800	0.398100	0.244700
H301	H30	0.317900	0.347300	0.331900
H311	H31	0.568000	0.508900	0.401300
H321	H32	0.469600	0.308400	0.262000
H331	H33	0.554800	0.755300	0.153400
H341	H34	0.317900	0.668100	0.015400
H351	H35	0.568000	0.598700	0.107600
H361	H36	0.469600	0.738000	0.046400
H371	H37	0.054800	0.153400	0.398100
H381	H38	0.817900	0.015400	0.347300
H391	H39	0.068000	0.107600	0.508900
H401	H40	0.969600	0.046400	0.308400
H411	H41	0.054800	0.601900	0.755300
H421	H42	0.817900	0.652700	0.668100
H431	H43	0.068000	0.491100	0.598700
H441	H44	0.969600	0.691600	0.738000
H451	H45	0.054800	0.244700	0.846600
H461	H46	0.817900	0.331900	0.984600
H471	H47	0.068000	0.401300	0.892400
H481	H48	0.969600	0.262000	0.953600
H491	H49	0.554800	0.755300	0.601900
H501	H50	0.317900	0.668100	0.652700
H511	H51	0.568000	0.598700	0.491100
H521	H52	0.469600	0.738000	0.691600
H531	H53	0.554800	0.846600	0.244700
H541	H54	0.317900	0.984600	0.331900
H551	H55	0.568000	0.892400	0.401300
H561	H56	0.469600	0.953600	0.262000
H571	H57	0.554800	0.398100	0.153400
H581	H58	0.317900	0.347300	0.015400
H591	H59	0.568000	0.508900	0.107600
H601	H60	0.469600	0.308400	0.046400
H611	H61	0.054800	0.244700	0.398100
H621	H62	0.817900	0.331900	0.347300
H631	H63	0.068000	0.401300	0.508900
H641	H64	0.969600	0.262000	0.308400
H651	H65	0.054800	0.153400	0.755300
H661	H66	0.817900	0.015400	0.668100
H671	H67	0.068000	0.107600	0.598700
H681	H68	0.969600	0.046400	0.738000
H691	H69	0.054800	0.601900	0.846600
H701	H70	0.817900	0.652700	0.984600
H711	H71	0.068000	0.491100	0.892400
H721	H72	0.969600	0.691600	0.953600
H731	H73	0.445200	0.153400	0.398100
H741	H74	0.682100	0.015400	0.347300
H751	H75	0.432000	0.107600	0.508900
H761	H76	0.530400	0.046400	0.308400
H771	H77	0.445200	0.601900	0.755300
H781	H78	0.682100	0.652700	0.668100
H791	H79	0.432000	0.491100	0.598700
H801	H80	0.530400	0.691600	0.738000
H811	H81	0.445200	0.244700	0.846600
H821	H82	0.682100	0.331900	0.984600
H831	H83	0.432000	0.401300	0.892400
H841	H84	0.530400	0.262000	0.953600
H851	H85	0.945200	0.846600	0.601900
H861	H86	0.182100	0.984600	0.652700
H871	H87	0.932000	0.892400	0.491100
H881	H88	0.030400	0.953600	0.691600
H891	H89	0.945200	0.398100	0.244700
H901	H90	0.182100	0.347300	0.331900
H911	H91	0.932000	0.508900	0.401300
H921	H92	0.030400	0.308400	0.262000
H931	H93	0.945200	0.755300	0.153400
H941	H94	0.182100	0.668100	0.015400
H951	H95	0.932000	0.598700	0.107600
H961	H96	0.030400	0.738000	0.046400
H971	H97	0.628900	0.223400	0.446800
H981	H98	0.628900	0.223400	0.776600
H991	H99	0.628900	0.553200	0.776600
H1001	H100	0.128900	0.776600	0.553200
H1011	H101	0.128900	0.776600	0.223400
H1021	H102	0.128900	0.446800	0.223400
H1031	H103	0.371100	0.776600	0.553200
H1041	H104	0.371100	0.446800	0.223400
H1051	H105	0.371100	0.776600	0.223400
H1061	H106	0.871100	0.223400	0.446800
H1071	H107	0.871100	0.553200	0.776600
H1081	H108	0.871100	0.223400	0.776600
H1091	H109	0.627300	0.453850	0.546150
H1101	H110	0.627300	0.092300	0.546150
H1111	H111	0.627300	0.453850	0.907700
H1121	H112	0.127300	0.546150	0.453850
H1131	H113	0.127300	0.907700	0.453850
H1141	H114	0.127300	0.546150	0.092300
H1151	H115	0.372700	0.907700	0.453850
H1161	H116	0.372700	0.546150	0.453850
H1171	H117	0.372700	0.546150	0.092300
H1181	H118	0.872700	0.092300	0.546150
H1191	H119	0.872700	0.453850	0.546150
H1201	H120	0.872700	0.453850	0.907700
H1211	H121	0.500000	0.421500	0.421500
H1221	H122	0.500000	0.000000	0.578500
H1231	H123	0.500000	0.578500	0.000000
H1241	H124	0.000000	0.578500	0.578500
H1251	H125	0.000000	0.000000	0.421500
H1261	H126	0.000000	0.421500	0.000000
H1271	H127	0.500000	0.578500	0.578500
H1281	H128	0.500000	0.000000	0.421500
H1291	H129	0.500000	0.421500	0.000000
H1301	H130	0.000000	0.421500	0.421500
H1311	H131	0.000000	0.000000	0.578500
H1321	H132	0.000000	0.578500	0.000000
C11	C1	0.481400	0.232500	0.414200
C21	C2	0.712000	0.331600	0.375200
C31	C3	0.473600	0.419500	0.530700
C41	C4	0.517000	0.300390	0.326120
C51	C5	0.481400	0.181700	0.767500
C61	C6	0.712000	0.043600	0.668400
C71	C7	0.473600	0.111200	0.580500
C81	C8	0.517000	0.025730	0.699610
C91	C9	0.481400	0.585800	0.818300
C101	C10	0.712000	0.624800	0.956400
C111	C11	0.473600	0.469300	0.888800
C121	C12	0.517000	0.673880	0.974270
C131	C13	0.981400	0.767500	0.585800
C141	C14	0.212000	0.668400	0.624800
C151	C15	0.973600	0.580500	0.469300
C161	C16	0.017000	0.699610	0.673880
C171	C17	0.981400	0.818300	0.232500
C181	C18	0.212000	0.956400	0.331600
C191	C19	0.973600	0.888800	0.419500
C201	C20	0.017000	0.974270	0.300390
C211	C21	0.981400	0.414200	0.181700
C221	C22	0.212000	0.375200	0.043600
C231	C23	0.973600	0.530700	0.111200
C241	C24	0.017000	0.326120	0.025730
C251	C25	0.518600	0.818300	0.585800
C261	C26	0.288000	0.956400	0.624800
C271	C27	0.526400	0.888800	0.469300
C281	C28	0.483000	0.974270	0.673880
C291	C29	0.518600	0.414200	0.232500
C301	C30	0.288000	0.375200	0.331600
C311	C31	0.526400	0.530700	0.419500
C321	C32	0.483000	0.326120	0.300390
C331	C33	0.518600	0.767500	0.181700
C341	C34	0.288000	0.668400	0.043600
C351	C35	0.526400	0.580500	0.111200
C361	C36	0.483000	0.699610	0.025730
C371	C37	0.018600	0.181700	0.414200
C381	C38	0.788000	0.043600	0.375200
C391	C39	0.026400	0.111200	0.530700
C401	C40	0.983000	0.025730	0.326120
C411	C41	0.018600	0.585800	0.767500
C421	C42	0.788000	0.624800	0.668400
C431	C43	0.026400	0.469300	0.580500
C441	C44	0.983000	0.673880	0.699610
C451	C45	0.018600	0.232500	0.818300
C461	C46	0.788000	0.331600	0.956400
C471	C47	0.026400	0.419500	0.888800
C481	C48	0.983000	0.300390	0.974270
C491	C49	0.518600	0.767500	0.585800
C501	C50	0.288000	0.668400	0.624800
C511	C51	0.526400	0.580500	0.469300
C521	C52	0.483000	0.699610	0.673880
C531	C53	0.518600	0.818300	0.232500
C541	C54	0.288000	0.956400	0.331600
C551	C55	0.526400	0.888800	0.419500
C561	C56	0.483000	0.974270	0.300390
C571	C57	0.518600	0.414200	0.181700
C581	C58	0.288000	0.375200	0.043600
C591	C59	0.526400	0.530700	0.111200
C601	C60	0.483000	0.326120	0.025730
C611	C61	0.018600	0.232500	0.414200
C621	C62	0.788000	0.331600	0.375200
C631	C63	0.026400	0.419500	0.530700
C641	C64	0.983000	0.300390	0.326120
C651	C65	0.018600	0.181700	0.767500
C661	C66	0.788000	0.043600	0.668400
C671	C67	0.026400	0.111200	0.580500
C681	C68	0.983000	0.025730	0.699610
C691	C69	0.018600	0.585800	0.818300
C701	C70	0.788000	0.624800	0.956400
C711	C71	0.026400	0.469300	0.888800
C721	C72	0.983000	0.673880	0.974270
C731	C73	0.481400	0.181700	0.414200
C741	C74	0.712000	0.043600	0.375200
C751	C75	0.473600	0.111200	0.530700
C761	C76	0.517000	0.025730	0.326120
C771	C77	0.481400	0.585800	0.767500
C781	C78	0.712000	0.624800	0.668400
C791	C79	0.473600	0.469300	0.580500
C801	C80	0.517000	0.673880	0.699610
C811	C81	0.481400	0.232500	0.818300
C821	C82	0.712000	0.331600	0.956400
C831	C83	0.473600	0.419500	0.888800
C841	C84	0.517000	0.300390	0.974270
C851	C85	0.981400	0.818300	0.585800
C861	C86	0.212000	0.956400	0.624800
C871	C87	0.973600	0.888800	0.469300
C881	C88	0.017000	0.974270	0.673880
C891	C89	0.981400	0.414200	0.232500
C901	C90	0.212000	0.375200	0.331600
C911	C91	0.973600	0.530700	0.419500
C921	C92	0.017000	0.326120	0.300390
C931	C93	0.981400	0.767500	0.181700
C941	C94	0.212000	0.668400	0.043600
C951	C95	0.973600	0.580500	0.111200
C961	C96	0.017000	0.699610	0.025730
C971	C97	0.577400	0.222060	0.444120
C981	C98	0.577400	0.222060	0.777940
C991	C99	0.577400	0.555880	0.777940
C1001	C100	0.077400	0.777940	0.555880
C1011	C101	0.077400	0.777940	0.222060
C1021	C102	0.077400	0.444120	0.222060
C1031	C103	0.422600	0.777940	0.555880
C1041	C104	0.422600	0.444120	0.222060
C1051	C105	0.422600	0.777940	0.222060
C1061	C106	0.922600	0.222060	0.444120
C1071	C107	0.922600	0.555880	0.777940
C1081	C108	0.922600	0.222060	0.777940
C1091	C109	0.750000	0.331530	0.447160
C1101	C110	0.750000	0.115630	0.668470
C1111	C111	0.750000	0.552840	0.884370
C1121	C112	0.250000	0.668470	0.552840
C1131	C113	0.250000	0.884370	0.331530
C1141	C114	0.250000	0.447160	0.115630
C1151	C115	0.250000	0.884370	0.552840
C1161	C116	0.250000	0.447160	0.331530
C1171	C117	0.250000	0.668470	0.115630
C1181	C118	0.750000	0.115630	0.447160
C1191	C119	0.750000	0.552840	0.668470
C1201	C120	0.750000	0.331530	0.884370
C1211	C121	0.579500	0.446400	0.553600
C1221	C122	0.579500	0.107200	0.553600
C1231	C123	0.579500	0.446400	0.892800
C1241	C124	0.079500	0.553600	0.446400
C1251	C125	0.079500	0.892800	0.446400
C1261	C126	0.079500	0.553600	0.107200
C1271	C127	0.420500	0.892800	0.446400
C1281	C128	0.420500	0.553600	0.446400
C1291	C129	0.420500	0.553600	0.107200
C1301	C130	0.920500	0.107200	0.553600
C1311	C131	0.920500	0.446400	0.553600
C1321	C132	0.920500	0.446400	0.892800
C1331	C133	0.500000	0.387080	0.387080
C1341	C134	0.500000	0.000000	0.612920
C1351	C135	0.500000	0.612920	0.000000
C1361	C136	0.000000	0.612920	0.612920
C1371	C137	0.000000	0.000000	0.387080
C1381	C138	0.000000	0.387080	0.000000
C1391	C139	0.500000	0.612920	0.612920
C1401	C140	0.500000	0.000000	0.387080
C1411	C141	0.500000	0.387080	0.000000
C1421	C142	0.000000	0.387080	0.387080
C1431	C143	0.000000	0.000000	0.612920
C1441	C144	0.000000	0.612920	0.000000
N11	N1	0.545440	0.262620	0.442500
N21	N2	0.687600	0.331090	0.422100
N31	N3	0.546200	0.399800	0.517410
N41	N4	0.528360	0.339600	0.381910
N51	N5	0.545440	0.179880	0.737380
N61	N6	0.687600	0.091010	0.668910
N71	N7	0.546200	0.117610	0.600200
N81	N8	0.528360	0.042310	0.660400
N91	N9	0.545440	0.557500	0.820120
N101	N10	0.687600	0.577900	0.908990
N111	N11	0.546200	0.482590	0.882390
N121	N12	0.528360	0.618090	0.957690
N131	N13	0.045440	0.737380	0.557500
N141	N14	0.187600	0.668910	0.577900
N151	N15	0.046200	0.600200	0.482590
N161	N16	0.028360	0.660400	0.618090
N171	N17	0.045440	0.820120	0.262620
N181	N18	0.187600	0.908990	0.331090
N191	N19	0.046200	0.882390	0.399800
N201	N20	0.028360	0.957690	0.339600
N211	N21	0.045440	0.442500	0.179880
N221	N22	0.187600	0.422100	0.091010
N231	N23	0.046200	0.517410	0.117610
N241	N24	0.028360	0.381910	0.042310
N251	N25	0.454560	0.820120	0.557500
N261	N26	0.312400	0.908990	0.577900
N271	N27	0.453800	0.882390	0.482590
N281	N28	0.471640	0.957690	0.618090
N291	N29	0.454560	0.442500	0.262620
N301	N30	0.312400	0.422100	0.331090
N311	N31	0.453800	0.517410	0.399800
N321	N32	0.471640	0.381910	0.339600
N331	N33	0.454560	0.737380	0.179880
N341	N34	0.312400	0.668910	0.091010
N351	N35	0.453800	0.600200	0.117610
N361	N36	0.471640	0.660400	0.042310
N371	N37	0.954560	0.179880	0.442500
N381	N38	0.812400	0.091010	0.422100
N391	N39	0.953800	0.117610	0.517410
N401	N40	0.971640	0.042310	0.381910
N411	N41	0.954560	0.557500	0.737380
N421	N42	0.812400	0.577900	0.668910
N431	N43	0.953800	0.482590	0.600200
N441	N44	0.971640	0.618090	0.660400
N451	N45	0.954560	0.262620	0.820120
N461	N46	0.812400	0.331090	0.908990
N471	N47	0.953800	0.399800	0.882390
N481	N48	0.971640	0.339600	0.957690
N491	N49	0.454560	0.737380	0.557500
N501	N50	0.312400	0.668910	0.577900
N511	N51	0.453800	0.600200	0.482590
N521	N52	0.471640	0.660400	0.618090
N531	N53	0.454560	0.820120	0.262620
N541	N54	0.312400	0.908990	0.331090
N551	N55	0.453800	0.882390	0.399800
N561	N56	0.471640	0.957690	0.339600
N571	N57	0.454560	0.442500	0.179880
N581	N58	0.312400	0.422100	0.091010
N591	N59	0.453800	0.517410	0.117610
N601	N60	0.471640	0.381910	0.042310
N611	N61	0.954560	0.262620	0.442500
N621	N62	0.812400	0.331090	0.422100
N631	N63	0.953800	0.399800	0.517410
N641	N64	0.971640	0.339600	0.381910
N651	N65	0.954560	0.179880	0.737380
N661	N66	0.812400	0.091010	0.668910
N671	N67	0.953800	0.117610	0.600200
N681	N68	0.971640	0.042310	0.660400
N691	N69	0.954560	0.557500	0.820120
N701	N70	0.812400	0.577900	0.908990
N711	N71	0.953800	0.482590	0.882390
N721	N72	0.971640	0.618090	0.957690
N731	N73	0.545440	0.179880	0.442500
N741	N74	0.687600	0.091010	0.422100
N751	N75	0.546200	0.117610	0.517410
N761	N76	0.528360	0.042310	0.381910
N771	N77	0.545440	0.557500	0.737380
N781	N78	0.687600	0.577900	0.668910
N791	N79	0.546200	0.482590	0.600200
N801	N80	0.528360	0.618090	0.660400
N811	N81	0.545440	0.262620	0.820120
N821	N82	0.687600	0.331090	0.908990
N831	N83	0.546200	0.399800	0.882390
N841	N84	0.528360	0.339600	0.957690
N851	N85	0.045440	0.820120	0.557500
N861	N86	0.187600	0.908990	0.577900
N871	N87	0.046200	0.882390	0.482590
N881	N88	0.028360	0.957690	0.618090
N891	N89	0.045440	0.442500	0.262620
N901	N90	0.187600	0.422100	0.331090
N911	N91	0.046200	0.517410	0.399800
N921	N92	0.028360	0.381910	0.339600
N931	N93	0.045440	0.737380	0.179880
N941	N94	0.187600	0.668910	0.091010
N951	N95	0.046200	0.600200	0.117610
N961	N96	0.028360	0.660400	0.042310
N971	N97	0.750000	0.331990	0.501530
N981	N98	0.750000	0.169540	0.668010
N991	N99	0.750000	0.498470	0.830460
N1001	N100	0.250000	0.668010	0.498470
N1011	N101	0.250000	0.830460	0.331990
N1021	N102	0.250000	0.501530	0.169540
N1031	N103	0.250000	0.830460	0.498470
N1041	N104	0.250000	0.501530	0.331990
N1051	N105	0.250000	0.668010	0.169540
N1061	N106	0.750000	0.169540	0.501530
N1071	N107	0.750000	0.498470	0.668010
N1081	N108	0.750000	0.331990	0.830460
O11	O1	0.690350	0.332120	0.522740
O21	O2	0.690350	0.190620	0.667880
O31	O3	0.690350	0.477260	0.809380
O41	O4	0.190350	0.667880	0.477260
O51	O5	0.190350	0.809380	0.332120
O61	O6	0.190350	0.522740	0.190620
O71	O7	0.309650	0.809380	0.477260
O81	O8	0.309650	0.522740	0.332120
O91	O9	0.309650	0.667880	0.190620
O101	O10	0.809650	0.190620	0.522740
O111	O11	0.809650	0.477260	0.667880
O121	O12	0.809650	0.332120	0.809380
O131	O13	0.309650	0.667880	0.477260
O141	O14	0.309650	0.809380	0.332120
O151	O15	0.309650	0.522740	0.190620
O161	O16	0.809650	0.332120	0.522740
O171	O17	0.809650	0.190620	0.667880
O181	O18	0.809650	0.477260	0.809380
O191	O19	0.690350	0.190620	0.522740
O201	O20	0.690350	0.477260	0.667880
O211	O21	0.690350	0.332120	0.809380
O221	O22	0.190350	0.809380	0.477260
O231	O23	0.190350	0.522740	0.332120
O241	O24	0.190350	0.667880	0.190620
