data_GIWBOE_charged_PM
_symmetry_space_group_name_H-M	'P1'
_cell_length_a	12.563000
_cell_length_b	27.172000
_cell_length_c	33.700000
_cell_angle_alpha	90.000000
_cell_angle_beta	90.000000
_cell_angle_gamma	90.000000
_symmetry_Int_Tables_number 1

loop_
_symmetry_equiv_pos_as_xyz
'x,y,z'

loop_
_atom_site_label
_atom_site_type_symbol
_atom_site_fract_x
_atom_site_fract_y
_atom_site_fract_z
Ga11	Ga1	0.988200	0.433650	0.384900
Ga21	Ga2	0.511800	0.933650	0.615100
Ga31	Ga3	0.488200	0.933650	0.115100
Ga41	Ga4	0.011800	0.433650	0.884900
Ag11	Ag1	0.738090	0.280310	0.636730
Ag21	Ag2	0.761910	0.780310	0.363270
Ag31	Ag3	0.238090	0.780310	0.863270
Ag41	Ag4	0.261910	0.280310	0.136730
H11	H1	0.147100	0.492600	0.442300
H21	H2	0.159900	0.483200	0.516300
H31	H3	0.029900	0.419000	0.536800
H41	H4	0.768500	0.299500	0.454500
H51	H5	0.746400	0.283600	0.382600
H61	H6	0.845500	0.350000	0.346000
H71	H7	0.944500	0.286300	0.504000
H81	H8	0.878500	0.254100	0.562500
H91	H9	0.724100	0.376500	0.586400
H101	H10	0.793900	0.414500	0.530400
H111	H11	0.192700	0.468600	0.823500
H121	H12	0.199700	0.450800	0.750800
H131	H13	0.044000	0.398700	0.734900
H141	H14	0.736400	0.316600	0.823300
H151	H15	0.685700	0.323000	0.895200
H161	H16	0.814400	0.381400	0.926100
H171	H17	0.732700	0.385000	0.764300
H181	H18	0.671400	0.347300	0.705900
H191	H19	0.934500	0.270700	0.696200
H201	H20	0.003900	0.305200	0.754900
H211	H21	0.277200	0.967100	0.642600
H221	H22	0.221700	0.051800	0.663700
H231	H23	0.382300	0.106100	0.656500
H241	H24	0.777700	0.077400	0.601400
H251	H25	0.874900	0.004000	0.577000
H261	H26	0.752000	0.932100	0.582000
H271	H27	0.697000	0.099500	0.678700
H281	H28	0.740200	0.182000	0.686900
H291	H29	0.545800	0.220600	0.601600
H301	H30	0.495300	0.139000	0.590800
H311	H31	0.352900	0.992600	0.557700
H321	H32	0.340100	0.983200	0.483700
H331	H33	0.470100	0.919000	0.463200
H341	H34	0.731500	0.799500	0.545500
H351	H35	0.753600	0.783600	0.617400
H361	H36	0.654500	0.850000	0.654000
H371	H37	0.555500	0.786300	0.496000
H381	H38	0.621500	0.754100	0.437500
H391	H39	0.775900	0.876500	0.413600
H401	H40	0.706100	0.914500	0.469600
H411	H41	0.307300	0.968600	0.176500
H421	H42	0.300300	0.950800	0.249200
H431	H43	0.456000	0.898700	0.265100
H441	H44	0.763600	0.816600	0.176700
H451	H45	0.814300	0.823000	0.104800
H461	H46	0.685600	0.881400	0.073900
H471	H47	0.767300	0.885000	0.235700
H481	H48	0.828600	0.847300	0.294100
H491	H49	0.565500	0.770700	0.303800
H501	H50	0.496100	0.805200	0.245100
H511	H51	0.222800	0.467100	0.357400
H521	H52	0.278300	0.551800	0.336300
H531	H53	0.117700	0.606100	0.343500
H541	H54	0.722300	0.577400	0.398600
H551	H55	0.625100	0.504000	0.423000
H561	H56	0.748000	0.432100	0.418000
H571	H57	0.803000	0.599500	0.321300
H581	H58	0.759800	0.682000	0.313100
H591	H59	0.954200	0.720600	0.398400
H601	H60	0.004700	0.639000	0.409200
H611	H61	0.647100	0.992600	0.057700
H621	H62	0.659900	0.983200	0.983700
H631	H63	0.529900	0.919000	0.963200
H641	H64	0.268500	0.799500	0.045500
H651	H65	0.246400	0.783600	0.117400
H661	H66	0.345500	0.850000	0.154000
H671	H67	0.444500	0.786300	0.996000
H681	H68	0.378500	0.754100	0.937500
H691	H69	0.224100	0.876500	0.913600
H701	H70	0.293900	0.914500	0.969600
H711	H71	0.692700	0.968600	0.676500
H721	H72	0.699700	0.950800	0.749200
H731	H73	0.544000	0.898700	0.765100
H741	H74	0.236400	0.816600	0.676700
H751	H75	0.185700	0.823000	0.604800
H761	H76	0.314400	0.881400	0.573900
H771	H77	0.232700	0.885000	0.735700
H781	H78	0.171400	0.847300	0.794100
H791	H79	0.434500	0.770700	0.803800
H801	H80	0.503900	0.805200	0.745100
H811	H81	0.777200	0.467100	0.857400
H821	H82	0.721700	0.551800	0.836300
H831	H83	0.882300	0.606100	0.843500
H841	H84	0.277700	0.577400	0.898600
H851	H85	0.374900	0.504000	0.923000
H861	H86	0.252000	0.432100	0.918000
H871	H87	0.197000	0.599500	0.821300
H881	H88	0.240200	0.682000	0.813100
H891	H89	0.045800	0.720600	0.898400
H901	H90	0.995300	0.639000	0.909200
H911	H91	0.852900	0.492600	0.942300
H921	H92	0.840100	0.483200	0.016300
H931	H93	0.970100	0.419000	0.036800
H941	H94	0.231500	0.299500	0.954500
H951	H95	0.253600	0.283600	0.882600
H961	H96	0.154500	0.350000	0.846000
H971	H97	0.055500	0.286300	0.004000
H981	H98	0.121500	0.254100	0.062500
H991	H99	0.275900	0.376500	0.086400
H1001	H100	0.206100	0.414500	0.030400
H1011	H101	0.807300	0.468600	0.323500
H1021	H102	0.800300	0.450800	0.250800
H1031	H103	0.956000	0.398700	0.234900
H1041	H104	0.263600	0.316600	0.323300
H1051	H105	0.314300	0.323000	0.395200
H1061	H106	0.185600	0.381400	0.426100
H1071	H107	0.267300	0.385000	0.264300
H1081	H108	0.328600	0.347300	0.205900
H1091	H109	0.065500	0.270700	0.196200
H1101	H110	0.996100	0.305200	0.254900
H1111	H111	0.722800	0.967100	0.142600
H1121	H112	0.778300	0.051800	0.163700
H1131	H113	0.617700	0.106100	0.156500
H1141	H114	0.222300	0.077400	0.101400
H1151	H115	0.125100	0.004000	0.077000
H1161	H116	0.248000	0.932100	0.082000
H1171	H117	0.303000	0.099500	0.178700
H1181	H118	0.259800	0.182000	0.186900
H1191	H119	0.454200	0.220600	0.101600
H1201	H120	0.504700	0.139000	0.090800
C11	C1	0.105800	0.470500	0.457750
C21	C2	0.113500	0.465360	0.499250
C31	C3	0.042300	0.430300	0.510570
C41	C4	0.990300	0.413860	0.475700
C51	C5	0.915200	0.375880	0.472640
C61	C6	0.873800	0.355830	0.437240
C71	C7	0.801600	0.317000	0.433400
C81	C8	0.787600	0.309000	0.394300
C91	C9	0.845500	0.345600	0.373970
C101	C10	0.875400	0.354770	0.509800
C111	C11	0.900300	0.305870	0.520580
C121	C12	0.860000	0.286800	0.555260
C131	C13	0.770700	0.358300	0.569700
C141	C14	0.810700	0.381000	0.535810
C151	C15	0.142500	0.449100	0.809500
C161	C16	0.147200	0.439400	0.768860
C171	C17	0.062800	0.410800	0.760380
C181	C18	0.006900	0.402060	0.796300
C191	C19	0.915500	0.374800	0.801710
C201	C20	0.859000	0.366970	0.837200
C211	C21	0.770500	0.336100	0.843000
C221	C22	0.742500	0.339500	0.882200
C231	C23	0.814700	0.372200	0.898920
C241	C24	0.873500	0.349500	0.765270
C251	C25	0.775900	0.361700	0.750900
C261	C26	0.740000	0.339000	0.715700
C271	C27	0.893400	0.294300	0.710220
C281	C28	0.935800	0.314700	0.745270
C291	C29	0.322100	0.995300	0.642380
C301	C30	0.290200	0.042300	0.654490
C311	C31	0.378400	0.072000	0.650380
C321	C32	0.461600	0.042710	0.635550
C331	C33	0.566900	0.058250	0.626430
C341	C34	0.648500	0.028960	0.610870
C351	C35	0.750900	0.044800	0.599790
C361	C36	0.803800	0.004800	0.586510
C371	C37	0.734300	0.964800	0.589450
C381	C38	0.592400	0.110200	0.633450
C391	C39	0.665200	0.123660	0.662190
C401	C40	0.691300	0.173200	0.666660
C411	C41	0.578100	0.195500	0.617110
C421	C42	0.546700	0.146730	0.610500
C431	C43	0.394200	0.970500	0.542250
C441	C44	0.386500	0.965360	0.500750
C451	C45	0.457700	0.930300	0.489430
C461	C46	0.509700	0.913860	0.524300
C471	C47	0.584800	0.875880	0.527360
C481	C48	0.626200	0.855830	0.562760
C491	C49	0.698400	0.817000	0.566600
C501	C50	0.712400	0.809000	0.605700
C511	C51	0.654500	0.845600	0.626030
C521	C52	0.624600	0.854770	0.490200
C531	C53	0.599700	0.805870	0.479420
C541	C54	0.640000	0.786800	0.444740
C551	C55	0.729300	0.858300	0.430300
C561	C56	0.689300	0.881000	0.464190
C571	C57	0.357500	0.949100	0.190500
C581	C58	0.352800	0.939400	0.231140
C591	C59	0.437200	0.910800	0.239620
C601	C60	0.493100	0.902060	0.203700
C611	C61	0.584500	0.874800	0.198290
C621	C62	0.641000	0.866970	0.162800
C631	C63	0.729500	0.836100	0.157000
C641	C64	0.757500	0.839500	0.117800
C651	C65	0.685300	0.872200	0.101080
C661	C66	0.626500	0.849500	0.234730
C671	C67	0.724100	0.861700	0.249100
C681	C68	0.760000	0.839000	0.284300
C691	C69	0.606600	0.794300	0.289780
C701	C70	0.564200	0.814700	0.254730
C711	C71	0.177900	0.495300	0.357620
C721	C72	0.209800	0.542300	0.345510
C731	C73	0.121600	0.572000	0.349620
C741	C74	0.038400	0.542710	0.364450
C751	C75	0.933100	0.558250	0.373570
C761	C76	0.851500	0.528960	0.389130
C771	C77	0.749100	0.544800	0.400210
C781	C78	0.696200	0.504800	0.413490
C791	C79	0.765700	0.464800	0.410550
C801	C80	0.907600	0.610200	0.366550
C811	C81	0.834800	0.623660	0.337810
C821	C82	0.808700	0.673200	0.333340
C831	C83	0.921900	0.695500	0.382890
C841	C84	0.953300	0.646730	0.389500
C851	C85	0.605800	0.970500	0.042250
C861	C86	0.613500	0.965360	0.000750
C871	C87	0.542300	0.930300	0.989430
C881	C88	0.490300	0.913860	0.024300
C891	C89	0.415200	0.875880	0.027360
C901	C90	0.373800	0.855830	0.062760
C911	C91	0.301600	0.817000	0.066600
C921	C92	0.287600	0.809000	0.105700
C931	C93	0.345500	0.845600	0.126030
C941	C94	0.375400	0.854770	0.990200
C951	C95	0.400300	0.805870	0.979420
C961	C96	0.360000	0.786800	0.944740
C971	C97	0.270700	0.858300	0.930300
C981	C98	0.310700	0.881000	0.964190
C991	C99	0.642500	0.949100	0.690500
C1001	C100	0.647200	0.939400	0.731140
C1011	C101	0.562800	0.910800	0.739620
C1021	C102	0.506900	0.902060	0.703700
C1031	C103	0.415500	0.874800	0.698290
C1041	C104	0.359000	0.866970	0.662800
C1051	C105	0.270500	0.836100	0.657000
C1061	C106	0.242500	0.839500	0.617800
C1071	C107	0.314700	0.872200	0.601080
C1081	C108	0.373500	0.849500	0.734730
C1091	C109	0.275900	0.861700	0.749100
C1101	C110	0.240000	0.839000	0.784300
C1111	C111	0.393400	0.794300	0.789780
C1121	C112	0.435800	0.814700	0.754730
C1131	C113	0.822100	0.495300	0.857620
C1141	C114	0.790200	0.542300	0.845510
C1151	C115	0.878400	0.572000	0.849620
C1161	C116	0.961600	0.542710	0.864450
C1171	C117	0.066900	0.558250	0.873570
C1181	C118	0.148500	0.528960	0.889130
C1191	C119	0.250900	0.544800	0.900210
C1201	C120	0.303800	0.504800	0.913490
C1211	C121	0.234300	0.464800	0.910550
C1221	C122	0.092400	0.610200	0.866550
C1231	C123	0.165200	0.623660	0.837810
C1241	C124	0.191300	0.673200	0.833340
C1251	C125	0.078100	0.695500	0.882890
C1261	C126	0.046700	0.646730	0.889500
C1271	C127	0.894200	0.470500	0.957750
C1281	C128	0.886500	0.465360	0.999250
C1291	C129	0.957700	0.430300	0.010570
C1301	C130	0.009700	0.413860	0.975700
C1311	C131	0.084800	0.375880	0.972640
C1321	C132	0.126200	0.355830	0.937240
C1331	C133	0.198400	0.317000	0.933400
C1341	C134	0.212400	0.309000	0.894300
C1351	C135	0.154500	0.345600	0.873970
C1361	C136	0.124600	0.354770	0.009800
C1371	C137	0.099700	0.305870	0.020580
C1381	C138	0.140000	0.286800	0.055260
C1391	C139	0.229300	0.358300	0.069700
C1401	C140	0.189300	0.381000	0.035810
C1411	C141	0.857500	0.449100	0.309500
C1421	C142	0.852800	0.439400	0.268860
C1431	C143	0.937200	0.410800	0.260380
C1441	C144	0.993100	0.402060	0.296300
C1451	C145	0.084500	0.374800	0.301710
C1461	C146	0.141000	0.366970	0.337200
C1471	C147	0.229500	0.336100	0.343000
C1481	C148	0.257500	0.339500	0.382200
C1491	C149	0.185300	0.372200	0.398920
C1501	C150	0.126500	0.349500	0.265270
C1511	C151	0.224100	0.361700	0.250900
C1521	C152	0.260000	0.339000	0.215700
C1531	C153	0.106600	0.294300	0.210220
C1541	C154	0.064200	0.314700	0.245270
C1551	C155	0.677900	0.995300	0.142380
C1561	C156	0.709800	0.042300	0.154490
C1571	C157	0.621600	0.072000	0.150380
C1581	C158	0.538400	0.042710	0.135550
C1591	C159	0.433100	0.058250	0.126430
C1601	C160	0.351500	0.028960	0.110870
C1611	C161	0.249100	0.044800	0.099790
C1621	C162	0.196200	0.004800	0.086510
C1631	C163	0.265700	0.964800	0.089450
C1641	C164	0.407600	0.110200	0.133450
C1651	C165	0.334800	0.123660	0.162190
C1661	C166	0.308700	0.173200	0.166660
C1671	C167	0.421900	0.195500	0.117110
C1681	C168	0.453300	0.146730	0.110500
N11	N1	0.032000	0.439720	0.443180
N21	N2	0.899600	0.372640	0.399310
N31	N3	0.794600	0.312880	0.579590
N41	N4	0.058200	0.427260	0.826220
N51	N5	0.883800	0.388840	0.872760
N61	N6	0.797700	0.306700	0.695780
N71	N7	0.423300	0.994890	0.630450
N81	N8	0.641100	0.978170	0.603930
N91	N9	0.650900	0.208880	0.643930
N101	N10	0.468000	0.939720	0.556820
N111	N11	0.600400	0.872640	0.600690
N121	N12	0.705400	0.812880	0.420410
N131	N13	0.441800	0.927260	0.173780
N141	N14	0.616200	0.888840	0.127240
N151	N15	0.702300	0.806700	0.304220
N161	N16	0.076700	0.494890	0.369550
N171	N17	0.858900	0.478170	0.396070
N181	N18	0.849100	0.708880	0.356070
N191	N19	0.532000	0.939720	0.056820
N201	N20	0.399600	0.872640	0.100690
N211	N21	0.294600	0.812880	0.920410
N221	N22	0.558200	0.927260	0.673780
N231	N23	0.383800	0.888840	0.627240
N241	N24	0.297700	0.806700	0.804220
N251	N25	0.923300	0.494890	0.869550
N261	N26	0.141100	0.478170	0.896070
N271	N27	0.150900	0.708880	0.856070
N281	N28	0.968000	0.439720	0.943180
N291	N29	0.100400	0.372640	0.899310
N301	N30	0.205400	0.312880	0.079590
N311	N31	0.941800	0.427260	0.326220
N321	N32	0.116200	0.388840	0.372760
N331	N33	0.202300	0.306700	0.195780
N341	N34	0.576700	0.994890	0.130450
N351	N35	0.358900	0.978170	0.103930
N361	N36	0.349100	0.208880	0.143930
Ga51	Ga5	0.511800	0.066350	0.884900
Ga61	Ga6	0.988200	0.566350	0.115100
Ga71	Ga7	0.011800	0.566350	0.615100
Ga81	Ga8	0.488200	0.066350	0.384900
Ag51	Ag5	0.761910	0.219690	0.136730
Ag61	Ag6	0.738090	0.719690	0.863270
Ag71	Ag7	0.261910	0.719690	0.363270
Ag81	Ag8	0.238090	0.219690	0.636730
H1211	H121	0.352900	0.007400	0.942300
H1221	H122	0.340100	0.016800	0.016300
H1231	H123	0.470100	0.081000	0.036800
H1241	H124	0.731500	0.200500	0.954500
H1251	H125	0.753600	0.216400	0.882600
H1261	H126	0.654500	0.150000	0.846000
H1271	H127	0.555500	0.213700	0.004000
H1281	H128	0.621500	0.245900	0.062500
H1291	H129	0.775900	0.123500	0.086400
H1301	H130	0.706100	0.085500	0.030400
H1311	H131	0.307300	0.031400	0.323500
H1321	H132	0.300300	0.049200	0.250800
H1331	H133	0.456000	0.101300	0.234900
H1341	H134	0.763600	0.183400	0.323300
H1351	H135	0.814300	0.177000	0.395200
H1361	H136	0.685600	0.118600	0.426100
H1371	H137	0.767300	0.115000	0.264300
H1381	H138	0.828600	0.152700	0.205900
H1391	H139	0.565500	0.229300	0.196200
H1401	H140	0.496100	0.194800	0.254900
H1411	H141	0.222800	0.532900	0.142600
H1421	H142	0.278300	0.448200	0.163700
H1431	H143	0.117700	0.393900	0.156500
H1441	H144	0.722300	0.422600	0.101400
H1451	H145	0.625100	0.496000	0.077000
H1461	H146	0.748000	0.567900	0.082000
H1471	H147	0.803000	0.400500	0.178700
H1481	H148	0.759800	0.318000	0.186900
H1491	H149	0.954200	0.279400	0.101600
H1501	H150	0.004700	0.361000	0.090800
H1511	H151	0.147100	0.507400	0.057700
H1521	H152	0.159900	0.516800	0.983700
H1531	H153	0.029900	0.581000	0.963200
H1541	H154	0.768500	0.700500	0.045500
H1551	H155	0.746400	0.716400	0.117400
H1561	H156	0.845500	0.650000	0.154000
H1571	H157	0.944500	0.713700	0.996000
H1581	H158	0.878500	0.745900	0.937500
H1591	H159	0.724100	0.623500	0.913600
H1601	H160	0.793900	0.585500	0.969600
H1611	H161	0.192700	0.531400	0.676500
H1621	H162	0.199700	0.549200	0.749200
H1631	H163	0.044000	0.601300	0.765100
H1641	H164	0.736400	0.683400	0.676700
H1651	H165	0.685700	0.677000	0.604800
H1661	H166	0.814400	0.618600	0.573900
H1671	H167	0.732700	0.615000	0.735700
H1681	H168	0.671400	0.652700	0.794100
H1691	H169	0.934500	0.729300	0.803800
H1701	H170	0.003900	0.694800	0.745100
H1711	H171	0.277200	0.032900	0.857400
H1721	H172	0.221700	0.948200	0.836300
H1731	H173	0.382300	0.893900	0.843500
H1741	H174	0.777700	0.922600	0.898600
H1751	H175	0.874900	0.996000	0.923000
H1761	H176	0.752000	0.067900	0.918000
H1771	H177	0.697000	0.900500	0.821300
H1781	H178	0.740200	0.818000	0.813100
H1791	H179	0.545800	0.779400	0.898400
H1801	H180	0.495300	0.861000	0.909200
H1811	H181	0.852900	0.507400	0.557700
H1821	H182	0.840100	0.516800	0.483700
H1831	H183	0.970100	0.581000	0.463200
H1841	H184	0.231500	0.700500	0.545500
H1851	H185	0.253600	0.716400	0.617400
H1861	H186	0.154500	0.650000	0.654000
H1871	H187	0.055500	0.713700	0.496000
H1881	H188	0.121500	0.745900	0.437500
H1891	H189	0.275900	0.623500	0.413600
H1901	H190	0.206100	0.585500	0.469600
H1911	H191	0.807300	0.531400	0.176500
H1921	H192	0.800300	0.549200	0.249200
H1931	H193	0.956000	0.601300	0.265100
H1941	H194	0.263600	0.683400	0.176700
H1951	H195	0.314300	0.677000	0.104800
H1961	H196	0.185600	0.618600	0.073900
H1971	H197	0.267300	0.615000	0.235700
H1981	H198	0.328600	0.652700	0.294100
H1991	H199	0.065500	0.729300	0.303800
H2001	H200	0.996100	0.694800	0.245100
H2011	H201	0.722800	0.032900	0.357400
H2021	H202	0.778300	0.948200	0.336300
H2031	H203	0.617700	0.893900	0.343500
H2041	H204	0.222300	0.922600	0.398600
H2051	H205	0.125100	0.996000	0.423000
H2061	H206	0.248000	0.067900	0.418000
H2071	H207	0.303000	0.900500	0.321300
H2081	H208	0.259800	0.818000	0.313100
H2091	H209	0.454200	0.779400	0.398400
H2101	H210	0.504700	0.861000	0.409200
H2111	H211	0.647100	0.007400	0.442300
H2121	H212	0.659900	0.016800	0.516300
H2131	H213	0.529900	0.081000	0.536800
H2141	H214	0.268500	0.200500	0.454500
H2151	H215	0.246400	0.216400	0.382600
H2161	H216	0.345500	0.150000	0.346000
H2171	H217	0.444500	0.213700	0.504000
H2181	H218	0.378500	0.245900	0.562500
H2191	H219	0.224100	0.123500	0.586400
H2201	H220	0.293900	0.085500	0.530400
H2211	H221	0.692700	0.031400	0.823500
H2221	H222	0.699700	0.049200	0.750800
H2231	H223	0.544000	0.101300	0.734900
H2241	H224	0.236400	0.183400	0.823300
H2251	H225	0.185700	0.177000	0.895200
H2261	H226	0.314400	0.118600	0.926100
H2271	H227	0.232700	0.115000	0.764300
H2281	H228	0.171400	0.152700	0.705900
H2291	H229	0.434500	0.229300	0.696200
H2301	H230	0.503900	0.194800	0.754900
H2311	H231	0.777200	0.532900	0.642600
H2321	H232	0.721700	0.448200	0.663700
H2331	H233	0.882300	0.393900	0.656500
H2341	H234	0.277700	0.422600	0.601400
H2351	H235	0.374900	0.496000	0.577000
H2361	H236	0.252000	0.567900	0.582000
H2371	H237	0.197000	0.400500	0.678700
H2381	H238	0.240200	0.318000	0.686900
H2391	H239	0.045800	0.279400	0.601600
H2401	H240	0.995300	0.361000	0.590800
C1691	C169	0.394200	0.029500	0.957750
C1701	C170	0.386500	0.034640	0.999250
C1711	C171	0.457700	0.069700	0.010570
C1721	C172	0.509700	0.086140	0.975700
C1731	C173	0.584800	0.124120	0.972640
C1741	C174	0.626200	0.144170	0.937240
C1751	C175	0.698400	0.183000	0.933400
C1761	C176	0.712400	0.191000	0.894300
C1771	C177	0.654500	0.154400	0.873970
C1781	C178	0.624600	0.145230	0.009800
C1791	C179	0.599700	0.194130	0.020580
C1801	C180	0.640000	0.213200	0.055260
C1811	C181	0.729300	0.141700	0.069700
C1821	C182	0.689300	0.119000	0.035810
C1831	C183	0.357500	0.050900	0.309500
C1841	C184	0.352800	0.060600	0.268860
C1851	C185	0.437200	0.089200	0.260380
C1861	C186	0.493100	0.097940	0.296300
C1871	C187	0.584500	0.125200	0.301710
C1881	C188	0.641000	0.133030	0.337200
C1891	C189	0.729500	0.163900	0.343000
C1901	C190	0.757500	0.160500	0.382200
C1911	C191	0.685300	0.127800	0.398920
C1921	C192	0.626500	0.150500	0.265270
C1931	C193	0.724100	0.138300	0.250900
C1941	C194	0.760000	0.161000	0.215700
C1951	C195	0.606600	0.205700	0.210220
C1961	C196	0.564200	0.185300	0.245270
C1971	C197	0.177900	0.504700	0.142380
C1981	C198	0.209800	0.457700	0.154490
C1991	C199	0.121600	0.428000	0.150380
C2001	C200	0.038400	0.457290	0.135550
C2011	C201	0.933100	0.441750	0.126430
C2021	C202	0.851500	0.471040	0.110870
C2031	C203	0.749100	0.455200	0.099790
C2041	C204	0.696200	0.495200	0.086510
C2051	C205	0.765700	0.535200	0.089450
C2061	C206	0.907600	0.389800	0.133450
C2071	C207	0.834800	0.376340	0.162190
C2081	C208	0.808700	0.326800	0.166660
C2091	C209	0.921900	0.304500	0.117110
C2101	C210	0.953300	0.353270	0.110500
C2111	C211	0.105800	0.529500	0.042250
C2121	C212	0.113500	0.534640	0.000750
C2131	C213	0.042300	0.569700	0.989430
C2141	C214	0.990300	0.586140	0.024300
C2151	C215	0.915200	0.624120	0.027360
C2161	C216	0.873800	0.644170	0.062760
C2171	C217	0.801600	0.683000	0.066600
C2181	C218	0.787600	0.691000	0.105700
C2191	C219	0.845500	0.654400	0.126030
C2201	C220	0.875400	0.645230	0.990200
C2211	C221	0.900300	0.694130	0.979420
C2221	C222	0.860000	0.713200	0.944740
C2231	C223	0.770700	0.641700	0.930300
C2241	C224	0.810700	0.619000	0.964190
C2251	C225	0.142500	0.550900	0.690500
C2261	C226	0.147200	0.560600	0.731140
C2271	C227	0.062800	0.589200	0.739620
C2281	C228	0.006900	0.597940	0.703700
C2291	C229	0.915500	0.625200	0.698290
C2301	C230	0.859000	0.633030	0.662800
C2311	C231	0.770500	0.663900	0.657000
C2321	C232	0.742500	0.660500	0.617800
C2331	C233	0.814700	0.627800	0.601080
C2341	C234	0.873500	0.650500	0.734730
C2351	C235	0.775900	0.638300	0.749100
C2361	C236	0.740000	0.661000	0.784300
C2371	C237	0.893400	0.705700	0.789780
C2381	C238	0.935800	0.685300	0.754730
C2391	C239	0.322100	0.004700	0.857620
C2401	C240	0.290200	0.957700	0.845510
C2411	C241	0.378400	0.928000	0.849620
C2421	C242	0.461600	0.957290	0.864450
C2431	C243	0.566900	0.941750	0.873570
C2441	C244	0.648500	0.971040	0.889130
C2451	C245	0.750900	0.955200	0.900210
C2461	C246	0.803800	0.995200	0.913490
C2471	C247	0.734300	0.035200	0.910550
C2481	C248	0.592400	0.889800	0.866550
C2491	C249	0.665200	0.876340	0.837810
C2501	C250	0.691300	0.826800	0.833340
C2511	C251	0.578100	0.804500	0.882890
C2521	C252	0.546700	0.853270	0.889500
C2531	C253	0.894200	0.529500	0.542250
C2541	C254	0.886500	0.534640	0.500750
C2551	C255	0.957700	0.569700	0.489430
C2561	C256	0.009700	0.586140	0.524300
C2571	C257	0.084800	0.624120	0.527360
C2581	C258	0.126200	0.644170	0.562760
C2591	C259	0.198400	0.683000	0.566600
C2601	C260	0.212400	0.691000	0.605700
C2611	C261	0.154500	0.654400	0.626030
C2621	C262	0.124600	0.645230	0.490200
C2631	C263	0.099700	0.694130	0.479420
C2641	C264	0.140000	0.713200	0.444740
C2651	C265	0.229300	0.641700	0.430300
C2661	C266	0.189300	0.619000	0.464190
C2671	C267	0.857500	0.550900	0.190500
C2681	C268	0.852800	0.560600	0.231140
C2691	C269	0.937200	0.589200	0.239620
C2701	C270	0.993100	0.597940	0.203700
C2711	C271	0.084500	0.625200	0.198290
C2721	C272	0.141000	0.633030	0.162800
C2731	C273	0.229500	0.663900	0.157000
C2741	C274	0.257500	0.660500	0.117800
C2751	C275	0.185300	0.627800	0.101080
C2761	C276	0.126500	0.650500	0.234730
C2771	C277	0.224100	0.638300	0.249100
C2781	C278	0.260000	0.661000	0.284300
C2791	C279	0.106600	0.705700	0.289780
C2801	C280	0.064200	0.685300	0.254730
C2811	C281	0.677900	0.004700	0.357620
C2821	C282	0.709800	0.957700	0.345510
C2831	C283	0.621600	0.928000	0.349620
C2841	C284	0.538400	0.957290	0.364450
C2851	C285	0.433100	0.941750	0.373570
C2861	C286	0.351500	0.971040	0.389130
C2871	C287	0.249100	0.955200	0.400210
C2881	C288	0.196200	0.995200	0.413490
C2891	C289	0.265700	0.035200	0.410550
C2901	C290	0.407600	0.889800	0.366550
C2911	C291	0.334800	0.876340	0.337810
C2921	C292	0.308700	0.826800	0.333340
C2931	C293	0.421900	0.804500	0.382890
C2941	C294	0.453300	0.853270	0.389500
C2951	C295	0.605800	0.029500	0.457750
C2961	C296	0.613500	0.034640	0.499250
C2971	C297	0.542300	0.069700	0.510570
C2981	C298	0.490300	0.086140	0.475700
C2991	C299	0.415200	0.124120	0.472640
C3001	C300	0.373800	0.144170	0.437240
C3011	C301	0.301600	0.183000	0.433400
C3021	C302	0.287600	0.191000	0.394300
C3031	C303	0.345500	0.154400	0.373970
C3041	C304	0.375400	0.145230	0.509800
C3051	C305	0.400300	0.194130	0.520580
C3061	C306	0.360000	0.213200	0.555260
C3071	C307	0.270700	0.141700	0.569700
C3081	C308	0.310700	0.119000	0.535810
C3091	C309	0.642500	0.050900	0.809500
C3101	C310	0.647200	0.060600	0.768860
C3111	C311	0.562800	0.089200	0.760380
C3121	C312	0.506900	0.097940	0.796300
C3131	C313	0.415500	0.125200	0.801710
C3141	C314	0.359000	0.133030	0.837200
C3151	C315	0.270500	0.163900	0.843000
C3161	C316	0.242500	0.160500	0.882200
C3171	C317	0.314700	0.127800	0.898920
C3181	C318	0.373500	0.150500	0.765270
C3191	C319	0.275900	0.138300	0.750900
C3201	C320	0.240000	0.161000	0.715700
C3211	C321	0.393400	0.205700	0.710220
C3221	C322	0.435800	0.185300	0.745270
C3231	C323	0.822100	0.504700	0.642380
C3241	C324	0.790200	0.457700	0.654490
C3251	C325	0.878400	0.428000	0.650380
C3261	C326	0.961600	0.457290	0.635550
C3271	C327	0.066900	0.441750	0.626430
C3281	C328	0.148500	0.471040	0.610870
C3291	C329	0.250900	0.455200	0.599790
C3301	C330	0.303800	0.495200	0.586510
C3311	C331	0.234300	0.535200	0.589450
C3321	C332	0.092400	0.389800	0.633450
C3331	C333	0.165200	0.376340	0.662190
C3341	C334	0.191300	0.326800	0.666660
C3351	C335	0.078100	0.304500	0.617110
C3361	C336	0.046700	0.353270	0.610500
N371	N37	0.468000	0.060280	0.943180
N381	N38	0.600400	0.127360	0.899310
N391	N39	0.705400	0.187120	0.079590
N401	N40	0.441800	0.072740	0.326220
N411	N41	0.616200	0.111160	0.372760
N421	N42	0.702300	0.193300	0.195780
N431	N43	0.076700	0.505110	0.130450
N441	N44	0.858900	0.521830	0.103930
N451	N45	0.849100	0.291120	0.143930
N461	N46	0.032000	0.560280	0.056820
N471	N47	0.899600	0.627360	0.100690
N481	N48	0.794600	0.687120	0.920410
N491	N49	0.058200	0.572740	0.673780
N501	N50	0.883800	0.611160	0.627240
N511	N51	0.797700	0.693300	0.804220
N521	N52	0.423300	0.005110	0.869550
N531	N53	0.641100	0.021830	0.896070
N541	N54	0.650900	0.791120	0.856070
N551	N55	0.968000	0.560280	0.556820
N561	N56	0.100400	0.627360	0.600690
N571	N57	0.205400	0.687120	0.420410
N581	N58	0.941800	0.572740	0.173780
N591	N59	0.116200	0.611160	0.127240
N601	N60	0.202300	0.693300	0.304220
N611	N61	0.576700	0.005110	0.369550
N621	N62	0.358900	0.021830	0.396070
N631	N63	0.349100	0.791120	0.356070
N641	N64	0.532000	0.060280	0.443180
N651	N65	0.399600	0.127360	0.399310
N661	N66	0.294600	0.187120	0.579590
N671	N67	0.558200	0.072740	0.826220
N681	N68	0.383800	0.111160	0.872760
N691	N69	0.297700	0.193300	0.695780
N701	N70	0.923300	0.505110	0.630450
N711	N71	0.141100	0.521830	0.603930
N721	N72	0.150900	0.291120	0.643930
P11	P1	0.471500	0.343580	0.624300
F11	F1	0.582400	0.349500	0.638700
F21	F2	0.455400	0.297100	0.650400
F31	F3	0.365700	0.335600	0.601800
F41	F4	0.490800	0.390800	0.595500
F51	F5	0.504700	0.311200	0.582600
F61	F6	0.422400	0.376900	0.655500
P21	P2	0.028500	0.156420	0.124300
F71	F7	0.917600	0.150500	0.138700
F81	F8	0.044600	0.202900	0.150400
F91	F9	0.134300	0.164400	0.101800
F101	F10	0.009200	0.109200	0.095500
F111	F11	0.995300	0.188800	0.082600
F121	F12	0.077600	0.123100	0.155500
P31	P3	0.471500	0.656420	0.875700
F131	F13	0.582400	0.650500	0.861300
F141	F14	0.455400	0.702900	0.849600
F151	F15	0.365700	0.664400	0.898200
F161	F16	0.490800	0.609200	0.904500
F171	F17	0.504700	0.688800	0.917400
F181	F18	0.422400	0.623100	0.844500
P41	P4	0.028500	0.843580	0.375700
F191	F19	0.917600	0.849500	0.361300
F201	F20	0.044600	0.797100	0.349600
F211	F21	0.134300	0.835600	0.398200
F221	F22	0.009200	0.890800	0.404500
F231	F23	0.995300	0.811200	0.417400
F241	F24	0.077600	0.876900	0.344500
P51	P5	0.528500	0.656420	0.375700
F251	F25	0.417600	0.650500	0.361300
F261	F26	0.544600	0.702900	0.349600
F271	F27	0.634300	0.664400	0.398200
F281	F28	0.509200	0.609200	0.404500
F291	F29	0.495300	0.688800	0.417400
F301	F30	0.577600	0.623100	0.344500
P61	P6	0.971500	0.843580	0.875700
F311	F31	0.082400	0.849500	0.861300
F321	F32	0.955400	0.797100	0.849600
F331	F33	0.865700	0.835600	0.898200
F341	F34	0.990800	0.890800	0.904500
F351	F35	0.004700	0.811200	0.917400
F361	F36	0.922400	0.876900	0.844500
P71	P7	0.528500	0.343580	0.124300
F371	F37	0.417600	0.349500	0.138700
F381	F38	0.544600	0.297100	0.150400
F391	F39	0.634300	0.335600	0.101800
F401	F40	0.509200	0.390800	0.095500
F411	F41	0.495300	0.311200	0.082600
F421	F42	0.577600	0.376900	0.155500
P81	P8	0.971500	0.156420	0.624300
F431	F43	0.082400	0.150500	0.638700
F441	F44	0.955400	0.202900	0.650400
F451	F45	0.865700	0.164400	0.601800
F461	F46	0.990800	0.109200	0.595500
F471	F47	0.004700	0.188800	0.582600
F481	F48	0.922400	0.123100	0.655500
