data_GIWCIZ_ion_b_PM
_symmetry_space_group_name_H-M	'P1'
_cell_length_a	37.285600
_cell_length_b	37.285600
_cell_length_c	14.967800
_cell_angle_alpha	98.829600
_cell_angle_beta	98.829600
_cell_angle_gamma	126.826700
_symmetry_Int_Tables_number 1

loop_
_symmetry_equiv_pos_as_xyz
'x,y,z'

loop_
_atom_site_label
_atom_site_type_symbol
_atom_site_fract_x
_atom_site_fract_y
_atom_site_fract_z
Ag11	Ag1	0.029090	0.277620	0.088510
Ag21	Ag2	0.458370	0.200850	0.978910
C31	C3	0.107550	0.092370	0.913200
H41	H4	0.114800	0.073600	0.886100
C51	C5	0.079730	0.100230	0.859500
H61	H6	0.064400	0.087200	0.792900
C71	C7	0.079320	0.130720	0.923600
H81	H8	0.064300	0.143500	0.908800
C91	C9	0.106070	0.139870	0.018000
C101	C10	0.113870	0.166590	0.104400
C111	C11	0.138740	0.173840	0.194300
C121	C12	0.144160	0.198860	0.285000
H131	H13	0.131000	0.213800	0.296100
C141	C14	0.171370	0.197090	0.351600
H151	H15	0.180700	0.210300	0.418500
C161	C16	0.183400	0.171940	0.303600
H171	H17	0.202900	0.166100	0.333900
C181	C18	0.092360	0.190920	0.101300
C191	C19	0.045090	0.166450	0.076100
H201	H20	0.023900	0.133100	0.060300
C211	C21	0.027680	0.191400	0.073800
H221	H22	0.994600	0.174200	0.056300
C231	C23	0.101580	0.260720	0.120100
H241	H24	0.122400	0.294000	0.135100
C251	C25	0.120770	0.238190	0.125300
H261	H26	0.154000	0.256400	0.146000
C271	C27	0.149820	0.034280	0.974500
H281	H28	0.118200	0.013600	0.975500
C291	C29	0.172280	0.018820	0.931800
H301	H30	0.158800	0.987400	0.899600
C311	C31	0.216540	0.058400	0.947400
H321	H32	0.240600	0.059800	0.929600
C331	C33	0.221340	0.097860	0.994600
C341	C34	0.260360	0.145740	0.019200
C351	C35	0.261380	0.182580	0.058500
C361	C36	0.297580	0.231640	0.073000
H371	H37	0.326600	0.245400	0.060300
C381	C38	0.282980	0.255600	0.109000
H391	H39	0.299600	0.288600	0.125000
C401	C40	0.238740	0.221300	0.116800
H411	H41	0.220400	0.227800	0.140300
C421	C42	0.304290	0.157150	0.004300
C431	C43	0.319200	0.172180	0.933700
H441	H44	0.303300	0.178500	0.891700
C451	C45	0.359610	0.178790	0.921500
H461	H46	0.367000	0.184800	0.864800
C471	C47	0.372350	0.164210	0.057000
H481	H48	0.391200	0.161800	0.102100
C491	C49	0.331600	0.154040	0.072600
H501	H50	0.322900	0.145500	0.126800
C511	C51	0.265490	0.164150	0.254300
H521	H52	0.279900	0.194700	0.249000
C531	C53	0.288970	0.151190	0.305500
H541	H54	0.321600	0.171600	0.340400
C551	C55	0.257080	0.104660	0.296400
H561	H56	0.263100	0.086500	0.323000
C571	C57	0.211310	0.087770	0.237300
C581	C58	0.168020	0.043140	0.214200
C591	C59	0.124440	0.029060	0.169300
C601	C60	0.078840	0.985200	0.149600
H611	H61	0.072000	0.958400	0.164900
C621	C62	0.046150	0.988210	0.104400
H631	H63	0.012800	0.964600	0.085600
C641	C64	0.071210	0.032590	0.091700
H651	H65	0.057100	0.043500	0.060000
C661	C66	0.168810	0.005870	0.238000
C671	C67	0.183870	0.988110	0.183400
H681	H68	0.194700	0.999900	0.133300
C691	C69	0.183220	0.952720	0.201600
H701	H70	0.193300	0.940300	0.161900
C711	C71	0.137800	0.943200	0.311200
H721	H72	0.119200	0.924600	0.347000
C731	C73	0.138850	0.978750	0.292300
H741	H74	0.120200	0.985400	0.314400
C751	C75	0.978200	0.446360	0.800000
H761	H76	0.978100	0.469300	0.780300
C771	C77	0.994360	0.450260	0.894900
H781	H78	0.005900	0.475300	0.949400
C791	C79	0.990470	0.411270	0.894400
H801	H80	0.999400	0.404400	0.947900
C811	C81	0.969990	0.382890	0.796300
C821	C82	0.958670	0.339570	0.762400
C831	C83	0.935930	0.310530	0.667400
C841	C84	0.922950	0.264830	0.630100
H851	H85	0.929200	0.248800	0.664700
C861	C86	0.899960	0.249220	0.535500
H871	H87	0.886700	0.219900	0.491400
C881	C88	0.899520	0.284600	0.515300
H891	H89	0.885600	0.282600	0.454000
C901	C90	0.973560	0.321960	0.833400
C911	C91	0.941520	0.286000	0.863200
H921	H92	0.908900	0.270900	0.840000
C931	C93	0.957200	0.271800	0.927800
H941	H94	0.934700	0.246900	0.948900
C951	C95	0.033020	0.326020	0.930600
H961	H96	0.065400	0.340200	0.953500
C971	C97	0.020020	0.342040	0.866700
H981	H98	0.042900	0.366700	0.845800
C991	C99	0.012790	0.492450	0.617400
H1001	H100	0.038300	0.492100	0.626000
C1011	C101	0.017450	0.532630	0.620000
H1021	H102	0.046000	0.563400	0.630700
C1031	C103	0.973480	0.519680	0.604300
H1041	H104	0.965600	0.539600	0.601800
C1051	C105	0.941460	0.470040	0.592300
C1061	C106	0.893760	0.441740	0.579200
C1071	C107	0.863410	0.395170	0.575900
C1081	C108	0.813240	0.363640	0.554200
H1091	H109	0.793400	0.371600	0.542400
C1101	C110	0.798860	0.320260	0.553500
H1111	H111	0.767400	0.292600	0.542100
C1121	C112	0.839500	0.324440	0.573000
H1131	H113	0.839200	0.299000	0.576000
C1141	C114	0.870770	0.464810	0.566900
C1151	C115	0.865230	0.475350	0.483300
H1161	H116	0.875200	0.468400	0.433700
C1171	C117	0.844960	0.496040	0.473900
H1181	H118	0.840100	0.502500	0.416300
C1191	C119	0.837860	0.497740	0.623400
H1201	H120	0.829000	0.506400	0.673200
C1211	C121	0.856590	0.475610	0.636400
H1221	H122	0.859500	0.468100	0.693500
C1231	C123	0.887310	0.354570	0.391600
H1241	H124	0.865600	0.357400	0.409800
C1251	C125	0.882940	0.336680	0.297600
H1261	H126	0.858400	0.325600	0.242300
C1271	C127	0.920670	0.338130	0.300800
H1281	H128	0.927300	0.328100	0.248000
C1291	C129	0.948370	0.357550	0.398800
C1301	C130	0.990200	0.365360	0.435800
C1311	C131	0.019400	0.389060	0.531600
C1321	C132	0.063110	0.399690	0.570700
H1331	H133	0.077800	0.390800	0.537900
C1341	C134	0.079900	0.424820	0.663800
H1351	H135	0.108900	0.437700	0.708300
C1361	C136	0.045640	0.427980	0.681300
H1371	H137	0.048100	0.443100	0.741900
C1381	C138	0.005050	0.347050	0.368700
C1391	C139	0.046770	0.375370	0.347200
H1401	H140	0.068400	0.408400	0.378300
C1411	C141	0.056720	0.355160	0.279800
H1421	H142	0.085500	0.375100	0.266100
C1431	C143	0.988000	0.281760	0.255800
H1441	H144	0.967200	0.248800	0.223900
C1451	C145	0.975480	0.298580	0.321800
H1461	H146	0.947000	0.277400	0.335500
C1471	C147	0.319640	0.762660	0.456100
H1481	H148	0.320100	0.786700	0.441000
C1491	C149	0.335060	0.763860	0.549500
H1501	H150	0.346900	0.787900	0.606700
C1511	C151	0.329630	0.723970	0.541500
H1521	H152	0.337500	0.714900	0.592300
C1531	C153	0.310050	0.698250	0.443100
C1541	C154	0.298940	0.655320	0.402300
C1551	C155	0.278320	0.628780	0.307700
C1561	C156	0.263850	0.583350	0.266000
H1571	H157	0.267700	0.565300	0.298600
C1581	C158	0.243420	0.570440	0.170300
H1591	H159	0.230000	0.541600	0.124100
C1601	C160	0.246060	0.607580	0.153900
H1611	H161	0.234900	0.607900	0.092800
C1621	C162	0.313340	0.637440	0.471000
C1631	C163	0.283980	0.608460	0.517200
H1641	H164	0.252100	0.595900	0.501600
C1651	C165	0.302110	0.597910	0.587600
H1661	H166	0.281600	0.577600	0.618800
C1671	C167	0.373460	0.640820	0.565900
H1681	H168	0.404900	0.651900	0.582600
C1691	C169	0.359180	0.653240	0.493100
H1701	H170	0.380000	0.671800	0.460100
C1711	C171	0.183420	0.642920	0.212700
H1721	H172	0.183500	0.617300	0.209900
C1731	C173	0.142420	0.638160	0.194600
H1741	H174	0.110900	0.609700	0.177400
C1751	C175	0.156950	0.682630	0.206500
H1761	H176	0.137300	0.690900	0.199600
C1771	C177	0.207340	0.714420	0.231400
C1781	C178	0.199900	0.791580	0.325600
H1791	H179	0.203200	0.781400	0.378400
C1801	C180	0.180150	0.813070	0.323200
H1811	H181	0.171100	0.818300	0.376400
C1821	C182	0.623000	0.498840	0.884300
H1831	H183	0.640500	0.528500	0.873000
C1841	C184	0.643620	0.484320	0.937300
H1851	H185	0.676200	0.501400	0.967700
C1861	C186	0.606450	0.440190	0.935600
H1871	H187	0.608600	0.420200	0.964200
C1881	C188	0.564410	0.429450	0.883700
C1891	C189	0.518110	0.388570	0.868300
C1901	C190	0.477010	0.379690	0.817800
C1911	C191	0.429640	0.339740	0.803600
H1921	H192	0.419900	0.313900	0.826900
C1931	C193	0.400890	0.344730	0.751400
H1941	H194	0.367400	0.323400	0.730500
C1951	C195	0.430770	0.387910	0.734600
H1961	H196	0.419600	0.400200	0.699100
C1971	C197	0.511160	0.350320	0.903300
C1981	C198	0.515850	0.350710	0.996100
H1991	H199	0.525000	0.377200	0.043600
C2001	C200	0.507180	0.312380	0.020700
H2011	H201	0.510400	0.313400	0.085400
C2021	C202	0.491390	0.274350	0.869100
H2031	H203	0.483500	0.247700	0.824400
C2041	C204	0.498590	0.309910	0.835200
H2051	H205	0.495400	0.307800	0.770000
C2061	C206	0.472380	0.445760	0.556700
H2071	H207	0.478800	0.426400	0.528900
C2081	C208	0.443870	0.453970	0.504100
H2091	H209	0.428700	0.442100	0.437400
C2101	C210	0.443530	0.482810	0.571500
H2111	H211	0.426900	0.494300	0.559700
C2121	C212	0.471600	0.492920	0.661400
C2131	C213	0.474070	0.579750	0.713300
H2141	H214	0.499200	0.591200	0.686900
C2151	C215	0.452200	0.600300	0.716600
H2161	H216	0.463800	0.626600	0.694100
C2171	C217	0.185890	0.423710	0.073900
C2181	C218	0.768290	0.511090	0.160900
C2191	C219	0.124020	0.866580	0.880300
F2201	F220	0.163160	0.436320	0.033800
F2211	F221	0.182400	0.394320	0.004800
F2221	F222	0.230590	0.462650	0.110500
F2231	F223	0.808110	0.522310	0.154900
F2241	F224	0.772650	0.549290	0.172800
F2251	F225	0.735600	0.481200	0.077600
F2261	F226	0.160450	0.914810	0.922600
F2271	F227	0.090790	0.864810	0.824700
F2281	F228	0.131540	0.837200	0.855600
Ga2291	Ga229	0.169900	0.119350	0.108690
Ga2301	Ga230	0.943570	0.388150	0.596320
N2311	N231	0.122800	0.114460	0.007100
N2321	N232	0.163260	0.157240	0.208100
N2331	N233	0.056180	0.237820	0.095200
N2341	N234	0.178280	0.080660	0.012200
N2351	N235	0.225310	0.177790	0.087000
N2361	N236	0.386700	0.177260	0.981200
N2371	N237	0.218630	0.125490	0.213300
N2381	N238	0.118940	0.058620	0.130900
N2391	N239	0.169830	0.935490	0.268900
N2401	N240	0.962790	0.405290	0.740100
N2411	N241	0.920980	0.321240	0.592600
N2421	N242	0.002450	0.291570	0.961900
N2431	N243	0.967680	0.454320	0.601100
N2441	N244	0.878900	0.368640	0.587100
N2451	N245	0.492800	0.168020	0.956800
N2461	N246	0.926150	0.367210	0.452700
N2471	N247	0.009220	0.407240	0.602600
N2481	N248	0.027860	0.309260	0.233800
N2491	N249	0.304530	0.723810	0.392000
N2501	N250	0.266480	0.643040	0.234900
N2511	N251	0.345640	0.614320	0.613000
N2521	N252	0.222060	0.687520	0.234140
N2531	N253	0.576780	0.467200	0.851900
N2541	N254	0.476950	0.410350	0.773800
N2551	N255	0.494510	0.273990	0.957500
N2561	N256	0.488660	0.468400	0.648500
O2571	O257	0.191330	0.386310	0.198700
O2581	O258	0.167400	0.433620	0.226900
O2591	O259	0.114080	0.356500	0.109400
O2601	O260	0.706470	0.475050	0.250000
O2611	O261	0.790000	0.523020	0.339800
O2621	O262	0.748230	0.445210	0.232600
O2631	O263	0.060180	0.800520	0.941300
O2641	O264	0.140800	0.856240	0.049500
O2651	O265	0.093940	0.883620	0.008600
S2661	S266	0.162150	0.397050	0.162340
S2671	S267	0.750870	0.485550	0.256590
S2681	S268	0.104590	0.844870	0.973950
Ag2691	Ag269	0.722380	0.970910	0.411490
Ag2701	Ag270	0.799150	0.541630	0.521090
C2711	C271	0.907630	0.892450	0.586800
H2721	H272	0.926400	0.885200	0.613900
C2731	C273	0.899770	0.920270	0.640500
H2741	H274	0.912800	0.935600	0.707100
C2751	C275	0.869280	0.920680	0.576400
H2761	H276	0.856500	0.935700	0.591200
C2771	C277	0.860130	0.893930	0.482000
C2781	C278	0.833410	0.886130	0.395600
C2791	C279	0.826160	0.861260	0.305700
C2801	C280	0.801140	0.855840	0.215000
H2811	H281	0.786200	0.869000	0.203900
C2821	C282	0.802910	0.828630	0.148400
H2831	H283	0.789700	0.819300	0.081500
C2841	C284	0.828060	0.816600	0.196400
H2851	H285	0.833900	0.797100	0.166100
C2861	C286	0.809080	0.907640	0.398700
C2871	C287	0.833550	0.954910	0.423900
H2881	H288	0.866900	0.976100	0.439700
C2891	C289	0.808600	0.972320	0.426200
H2901	H290	0.825800	0.005400	0.443700
C2911	C291	0.739280	0.898420	0.379900
H2921	H292	0.706000	0.877600	0.364900
C2931	C293	0.761810	0.879230	0.374700
H2941	H294	0.743600	0.846000	0.354000
C2951	C295	0.965720	0.850180	0.525500
H2961	H296	0.986400	0.881800	0.524500
C2971	C297	0.981180	0.827720	0.568200
H2981	H298	0.012600	0.841200	0.600400
C2991	C299	0.941600	0.783460	0.552600
H3001	H300	0.940200	0.759400	0.570400
C3011	C301	0.902140	0.778660	0.505400
C3021	C302	0.854260	0.739640	0.480800
C3031	C303	0.817420	0.738620	0.441500
C3041	C304	0.768360	0.702420	0.427000
H3051	H305	0.754600	0.673400	0.439700
C3061	C306	0.744400	0.717020	0.391000
H3071	H307	0.711400	0.700400	0.375000
C3081	C308	0.778700	0.761260	0.383200
H3091	H309	0.772200	0.779600	0.359700
C3101	C310	0.842850	0.695710	0.495700
C3111	C311	0.827820	0.680800	0.566300
H3121	H312	0.821500	0.696700	0.608300
C3131	C313	0.821210	0.640390	0.578500
H3141	H314	0.815200	0.633000	0.635200
C3151	C315	0.835790	0.627650	0.443000
H3161	H316	0.838200	0.608800	0.397900
C3171	C317	0.845960	0.668400	0.427400
H3181	H318	0.854500	0.677100	0.373200
C3191	C319	0.835850	0.734510	0.245700
H3201	H320	0.805300	0.720100	0.251000
C3211	C321	0.848810	0.711030	0.194500
H3221	H322	0.828400	0.678400	0.159600
C3231	C323	0.895340	0.742920	0.203600
H3241	H324	0.913500	0.736900	0.177000
C3251	C325	0.912230	0.788690	0.262700
C3261	C326	0.956860	0.831980	0.285800
C3271	C327	0.970940	0.875560	0.330700
C3281	C328	0.014800	0.921160	0.350400
H3291	H329	0.041600	0.928000	0.335100
C3301	C330	0.011790	0.953850	0.395600
H3311	H331	0.035400	0.987200	0.414400
C3321	C332	0.967410	0.928790	0.408300
H3331	H333	0.956500	0.942900	0.440000
C3341	C334	0.994130	0.831190	0.262000
C3351	C335	0.011890	0.816130	0.316600
H3361	H336	0.000100	0.805300	0.366700
C3371	C337	0.047280	0.816780	0.298400
H3381	H338	0.059700	0.806700	0.338100
C3391	C339	0.056800	0.862200	0.188800
H3401	H340	0.075400	0.880800	0.153000
C3411	C341	0.021250	0.861150	0.207700
H3421	H342	0.014600	0.879800	0.185600
C3431	C343	0.553640	0.021800	0.700000
H3441	H344	0.530700	0.021900	0.719700
C3451	C345	0.549740	0.005640	0.605100
H3461	H346	0.524700	0.994100	0.550600
C3471	C347	0.588730	0.009530	0.605600
H3481	H348	0.595600	0.000600	0.552100
C3491	C349	0.617110	0.030010	0.703700
C3501	C350	0.660430	0.041330	0.737600
C3511	C351	0.689470	0.064070	0.832600
C3521	C352	0.735170	0.077050	0.869900
H3531	H353	0.751200	0.070800	0.835300
C3541	C354	0.750780	0.100040	0.964500
H3551	H355	0.780100	0.113300	0.008600
C3561	C356	0.715400	0.100480	0.984700
H3571	H357	0.717400	0.114400	0.046000
C3581	C358	0.678040	0.026440	0.666600
C3591	C359	0.714000	0.058480	0.636800
H3601	H360	0.729100	0.091100	0.660000
C3611	C361	0.728200	0.042800	0.572200
H3621	H362	0.753100	0.065300	0.551100
C3631	C363	0.673980	0.966980	0.569400
H3641	H364	0.659800	0.934600	0.546500
C3651	C365	0.657960	0.979980	0.633300
H3661	H366	0.633300	0.957100	0.654200
C3671	C367	0.507550	0.987210	0.882600
H3681	H368	0.507900	0.961700	0.874000
C3691	C369	0.467370	0.982550	0.880000
H3701	H370	0.436600	0.954000	0.869300
C3711	C371	0.480320	0.026520	0.895700
H3721	H372	0.460400	0.034400	0.898200
C3731	C373	0.529960	0.058540	0.907700
C3741	C374	0.558260	0.106240	0.920800
C3751	C375	0.604830	0.136590	0.924100
C3761	C376	0.636360	0.186760	0.945800
H3771	H377	0.628400	0.206600	0.957600
C3781	C378	0.679740	0.201140	0.946500
H3791	H379	0.707400	0.232600	0.957900
C3801	C380	0.675560	0.160500	0.927000
H3811	H381	0.701000	0.160800	0.924000
C3821	C382	0.535190	0.129230	0.933100
C3831	C383	0.524650	0.134770	0.016700
H3841	H384	0.531600	0.124800	0.066300
C3851	C385	0.503960	0.155040	0.026100
H3861	H386	0.497500	0.159900	0.083700
C3871	C387	0.502260	0.162140	0.876600
H3881	H388	0.493600	0.171000	0.826800
C3891	C389	0.524390	0.143410	0.863600
H3901	H390	0.531900	0.140500	0.806500
C3911	C391	0.645430	0.112690	0.108400
H3921	H392	0.642600	0.134400	0.090200
C3931	C393	0.663320	0.117060	0.202400
H3941	H394	0.674400	0.141600	0.257700
C3951	C395	0.661870	0.079330	0.199200
H3961	H396	0.671900	0.072700	0.252000
C3971	C397	0.642450	0.051630	0.101200
C3981	C398	0.634640	0.009800	0.064200
C3991	C399	0.610940	0.980600	0.968400
C4001	C400	0.600310	0.936890	0.929300
H4011	H401	0.609200	0.922200	0.962100
C4021	C402	0.575180	0.920100	0.836200
H4031	H403	0.562300	0.891100	0.791700
C4041	C404	0.572020	0.954360	0.818700
H4051	H405	0.556900	0.951900	0.758100
C4061	C406	0.652950	0.994950	0.131300
C4071	C407	0.624630	0.953230	0.152800
H4081	H408	0.591600	0.931600	0.121700
C4091	C409	0.644840	0.943280	0.220200
H4101	H410	0.624900	0.914500	0.233900
C4111	C411	0.718240	0.012000	0.244200
H4121	H412	0.751200	0.032800	0.276100
C4131	C413	0.701420	0.024520	0.178200
H4141	H414	0.722600	0.053000	0.164500
C4151	C415	0.237340	0.680360	0.043900
H4161	H416	0.213300	0.679900	0.059000
C4171	C417	0.236140	0.664940	0.950500
H4181	H418	0.212100	0.653100	0.893300
C4191	C419	0.276030	0.670370	0.958500
H4201	H420	0.285100	0.662500	0.907700
C4211	C421	0.301750	0.689950	0.056900
C4221	C422	0.344680	0.701060	0.097700
C4231	C423	0.371220	0.721680	0.192300
C4241	C424	0.416650	0.736150	0.234000
H4251	H425	0.434700	0.732300	0.201400
C4261	C426	0.429560	0.756580	0.329700
H4271	H427	0.458400	0.770000	0.375900
C4281	C428	0.392420	0.753940	0.346100
H4291	H429	0.392100	0.765100	0.407200
C4301	C430	0.362560	0.686660	0.029000
C4311	C431	0.391540	0.716020	0.982800
H4321	H432	0.404100	0.747900	0.998400
C4331	C433	0.402090	0.697890	0.912400
H4341	H434	0.422400	0.718400	0.881200
C4351	C435	0.359180	0.626540	0.934100
H4361	H436	0.348100	0.595100	0.917400
C4371	C437	0.346760	0.640820	0.006900
H4381	H438	0.328200	0.620000	0.039900
C4391	C439	0.357080	0.816580	0.287300
H4401	H440	0.382700	0.816500	0.290100
C4411	C441	0.361840	0.857580	0.305400
H4421	H442	0.390300	0.889100	0.322600
C4431	C443	0.317370	0.843050	0.293500
H4441	H444	0.309100	0.862700	0.300400
C4451	C445	0.285580	0.792660	0.268600
C4461	C446	0.208420	0.800100	0.174400
H4471	H447	0.218600	0.796800	0.121600
C4481	C448	0.186930	0.819850	0.176800
H4491	H449	0.181700	0.828900	0.123600
C4501	C450	0.501160	0.377000	0.615700
H4511	H451	0.471500	0.359500	0.627000
C4521	C452	0.515680	0.356380	0.562700
H4531	H453	0.498600	0.323800	0.532300
C4541	C454	0.559810	0.393550	0.564400
H4551	H455	0.579800	0.391400	0.535800
C4561	C456	0.570550	0.435590	0.616300
C4571	C457	0.611430	0.481890	0.631700
C4581	C458	0.620310	0.522990	0.682200
C4591	C459	0.660260	0.570360	0.696400
H4601	H460	0.686100	0.580100	0.673100
C4611	C461	0.655270	0.599110	0.748600
H4621	H462	0.676600	0.632600	0.769500
C4631	C463	0.612090	0.569230	0.765400
H4641	H464	0.599800	0.580400	0.800900
C4651	C465	0.649680	0.488840	0.596700
C4661	C466	0.649290	0.484150	0.503900
H4671	H467	0.622800	0.475000	0.456400
C4681	C468	0.687620	0.492820	0.479300
H4691	H469	0.686600	0.489600	0.414600
C4701	C470	0.725650	0.508610	0.630900
H4711	H471	0.752300	0.516500	0.675600
C4721	C472	0.690090	0.501410	0.664800
H4731	H473	0.692200	0.504600	0.730000
C4741	C474	0.554240	0.527620	0.943300
H4751	H475	0.573600	0.521200	0.971100
C4761	C476	0.546030	0.556130	0.995900
H4771	H477	0.557900	0.571300	0.062600
C4781	C478	0.517190	0.556470	0.928500
H4791	H479	0.505700	0.573100	0.940300
C4801	C480	0.507080	0.528400	0.838600
C4811	C481	0.420250	0.525930	0.786700
H4821	H482	0.408800	0.500800	0.813100
C4831	C483	0.399700	0.547800	0.783400
H4841	H484	0.373400	0.536200	0.805900
C4851	C485	0.576290	0.814110	0.426100
C4861	C486	0.488910	0.231710	0.339100
C4871	C487	0.133420	0.875980	0.619700
F4881	F488	0.563680	0.836840	0.466200
F4891	F489	0.605680	0.817600	0.495200
F4901	F490	0.537350	0.769410	0.389500
F4911	F491	0.477690	0.191890	0.345100
F4921	F492	0.450710	0.227350	0.327200
F4931	F493	0.518800	0.264400	0.422400
F4941	F494	0.085190	0.839550	0.577400
F4951	F495	0.135190	0.909210	0.675300
F4961	F496	0.162800	0.868460	0.644400
Ga4971	Ga497	0.880650	0.830100	0.391310
Ga4981	Ga498	0.611850	0.056430	0.903680
N4991	N499	0.885540	0.877200	0.492900
N5001	N500	0.842760	0.836740	0.291900
N5011	N501	0.762180	0.943820	0.404800
N5021	N502	0.919340	0.821720	0.487800
N5031	N503	0.822210	0.774690	0.413000
N5041	N504	0.822740	0.613300	0.518800
N5051	N505	0.874510	0.781370	0.286700
N5061	N506	0.941380	0.881060	0.369100
N5071	N507	0.064510	0.830170	0.231100
N5081	N508	0.594710	0.037210	0.759900
N5091	N509	0.678760	0.079020	0.907400
N5101	N510	0.708430	0.997550	0.538100
N5111	N511	0.545680	0.032320	0.898900
N5121	N512	0.631360	0.121100	0.912900
N5131	N513	0.831980	0.507200	0.543200
N5141	N514	0.632790	0.073850	0.047300
N5151	N515	0.592760	0.990780	0.897400
N5161	N516	0.690740	0.972140	0.266200
N5171	N517	0.276190	0.695470	0.108000
N5181	N518	0.356960	0.733520	0.265100
N5191	N519	0.385680	0.654360	0.887000
N5201	N520	0.312480	0.777940	0.265860
N5211	N521	0.532800	0.423220	0.648100
N5221	N522	0.589650	0.523050	0.726200
N5231	N523	0.726010	0.505490	0.542500
N5241	N524	0.531600	0.511340	0.851500
O5251	O525	0.613690	0.808670	0.301300
O5261	O526	0.566380	0.832600	0.273100
O5271	O527	0.643500	0.885920	0.390600
O5281	O528	0.524950	0.293530	0.250000
O5291	O529	0.476980	0.210000	0.160200
O5301	O530	0.554790	0.251770	0.267400
O5311	O531	0.199480	0.939820	0.558700
O5321	O532	0.143760	0.859200	0.450500
O5331	O533	0.116380	0.906060	0.491400
S5341	S534	0.602950	0.837850	0.337660
S5351	S535	0.514450	0.249130	0.243410
S5361	S536	0.155130	0.895410	0.526050
Ag5371	Ag537	0.970910	0.722380	0.911490
Ag5381	Ag538	0.541630	0.799150	0.021090
C5391	C539	0.892450	0.907630	0.086800
H5401	H540	0.885200	0.926400	0.113900
C5411	C541	0.920270	0.899770	0.140500
H5421	H542	0.935600	0.912800	0.207100
C5431	C543	0.920680	0.869280	0.076400
H5441	H544	0.935700	0.856500	0.091200
C5451	C545	0.893930	0.860130	0.982000
C5461	C546	0.886130	0.833410	0.895600
C5471	C547	0.861260	0.826160	0.805700
C5481	C548	0.855840	0.801140	0.715000
H5491	H549	0.869000	0.786200	0.703900
C5501	C550	0.828630	0.802910	0.648400
H5511	H551	0.819300	0.789700	0.581500
C5521	C552	0.816600	0.828060	0.696400
H5531	H553	0.797100	0.833900	0.666100
C5541	C554	0.907640	0.809080	0.898700
C5551	C555	0.954910	0.833550	0.923900
H5561	H556	0.976100	0.866900	0.939700
C5571	C557	0.972320	0.808600	0.926200
H5581	H558	0.005400	0.825800	0.943700
C5591	C559	0.898420	0.739280	0.879900
H5601	H560	0.877600	0.706000	0.864900
C5611	C561	0.879230	0.761810	0.874700
H5621	H562	0.846000	0.743600	0.854000
C5631	C563	0.850180	0.965720	0.025500
H5641	H564	0.881800	0.986400	0.024500
C5651	C565	0.827720	0.981180	0.068200
H5661	H566	0.841200	0.012600	0.100400
C5671	C567	0.783460	0.941600	0.052600
H5681	H568	0.759400	0.940200	0.070400
C5691	C569	0.778660	0.902140	0.005400
C5701	C570	0.739640	0.854260	0.980800
C5711	C571	0.738620	0.817420	0.941500
C5721	C572	0.702420	0.768360	0.927000
H5731	H573	0.673400	0.754600	0.939700
C5741	C574	0.717020	0.744400	0.891000
H5751	H575	0.700400	0.711400	0.875000
C5761	C576	0.761260	0.778700	0.883200
H5771	H577	0.779600	0.772200	0.859700
C5781	C578	0.695710	0.842850	0.995700
C5791	C579	0.680800	0.827820	0.066300
H5801	H580	0.696700	0.821500	0.108300
C5811	C581	0.640390	0.821210	0.078500
H5821	H582	0.633000	0.815200	0.135200
C5831	C583	0.627650	0.835790	0.943000
H5841	H584	0.608800	0.838200	0.897900
C5851	C585	0.668400	0.845960	0.927400
H5861	H586	0.677100	0.854500	0.873200
C5871	C587	0.734510	0.835850	0.745700
H5881	H588	0.720100	0.805300	0.751000
C5891	C589	0.711030	0.848810	0.694500
H5901	H590	0.678400	0.828400	0.659600
C5911	C591	0.742920	0.895340	0.703600
H5921	H592	0.736900	0.913500	0.677000
C5931	C593	0.788690	0.912230	0.762700
C5941	C594	0.831980	0.956860	0.785800
C5951	C595	0.875560	0.970940	0.830700
C5961	C596	0.921160	0.014800	0.850400
H5971	H597	0.928000	0.041600	0.835100
C5981	C598	0.953850	0.011790	0.895600
H5991	H599	0.987200	0.035400	0.914400
C6001	C600	0.928790	0.967410	0.908300
H6011	H601	0.942900	0.956500	0.940000
C6021	C602	0.831190	0.994130	0.762000
C6031	C603	0.816130	0.011890	0.816600
H6041	H604	0.805300	0.000100	0.866700
C6051	C605	0.816780	0.047280	0.798400
H6061	H606	0.806700	0.059700	0.838100
C6071	C607	0.862200	0.056800	0.688800
H6081	H608	0.880800	0.075400	0.653000
C6091	C609	0.861150	0.021250	0.707700
H6101	H610	0.879800	0.014600	0.685600
C6111	C611	0.021800	0.553640	0.200000
H6121	H612	0.021900	0.530700	0.219700
C6131	C613	0.005640	0.549740	0.105100
H6141	H614	0.994100	0.524700	0.050600
C6151	C615	0.009530	0.588730	0.105600
H6161	H616	0.000600	0.595600	0.052100
C6171	C617	0.030010	0.617110	0.203700
C6181	C618	0.041330	0.660430	0.237600
C6191	C619	0.064070	0.689470	0.332600
C6201	C620	0.077050	0.735170	0.369900
H6211	H621	0.070800	0.751200	0.335300
C6221	C622	0.100040	0.750780	0.464500
H6231	H623	0.113300	0.780100	0.508600
C6241	C624	0.100480	0.715400	0.484700
H6251	H625	0.114400	0.717400	0.546000
C6261	C626	0.026440	0.678040	0.166600
C6271	C627	0.058480	0.714000	0.136800
H6281	H628	0.091100	0.729100	0.160000
C6291	C629	0.042800	0.728200	0.072200
H6301	H630	0.065300	0.753100	0.051100
C6311	C631	0.966980	0.673980	0.069400
H6321	H632	0.934600	0.659800	0.046500
C6331	C633	0.979980	0.657960	0.133300
H6341	H634	0.957100	0.633300	0.154200
C6351	C635	0.987210	0.507550	0.382600
H6361	H636	0.961700	0.507900	0.374000
C6371	C637	0.982550	0.467370	0.380000
H6381	H638	0.954000	0.436600	0.369300
C6391	C639	0.026520	0.480320	0.395700
H6401	H640	0.034400	0.460400	0.398200
C6411	C641	0.058540	0.529960	0.407700
C6421	C642	0.106240	0.558260	0.420800
C6431	C643	0.136590	0.604830	0.424100
C6441	C644	0.186760	0.636360	0.445800
H6451	H645	0.206600	0.628400	0.457600
C6461	C646	0.201140	0.679740	0.446500
H6471	H647	0.232600	0.707400	0.457900
C6481	C648	0.160500	0.675560	0.427000
H6491	H649	0.160800	0.701000	0.424000
C6501	C650	0.129230	0.535190	0.433100
C6511	C651	0.134770	0.524650	0.516700
H6521	H652	0.124800	0.531600	0.566300
C6531	C653	0.155040	0.503960	0.526100
H6541	H654	0.159900	0.497500	0.583700
C6551	C655	0.162140	0.502260	0.376600
H6561	H656	0.171000	0.493600	0.326800
C6571	C657	0.143410	0.524390	0.363600
H6581	H658	0.140500	0.531900	0.306500
C6591	C659	0.112690	0.645430	0.608400
H6601	H660	0.134400	0.642600	0.590200
C6611	C661	0.117060	0.663320	0.702400
H6621	H662	0.141600	0.674400	0.757700
C6631	C663	0.079330	0.661870	0.699200
H6641	H664	0.072700	0.671900	0.752000
C6651	C665	0.051630	0.642450	0.601200
C6661	C666	0.009800	0.634640	0.564200
C6671	C667	0.980600	0.610940	0.468400
C6681	C668	0.936890	0.600310	0.429300
H6691	H669	0.922200	0.609200	0.462100
C6701	C670	0.920100	0.575180	0.336200
H6711	H671	0.891100	0.562300	0.291700
C6721	C672	0.954360	0.572020	0.318700
H6731	H673	0.951900	0.556900	0.258100
C6741	C674	0.994950	0.652950	0.631300
C6751	C675	0.953230	0.624630	0.652800
H6761	H676	0.931600	0.591600	0.621700
C6771	C677	0.943280	0.644840	0.720200
H6781	H678	0.914500	0.624900	0.733900
C6791	C679	0.012000	0.718240	0.744200
H6801	H680	0.032800	0.751200	0.776100
C6811	C681	0.024520	0.701420	0.678200
H6821	H682	0.053000	0.722600	0.664500
C6831	C683	0.680360	0.237340	0.543900
H6841	H684	0.679900	0.213300	0.559000
C6851	C685	0.664940	0.236140	0.450500
H6861	H686	0.653100	0.212100	0.393300
C6871	C687	0.670370	0.276030	0.458500
H6881	H688	0.662500	0.285100	0.407700
C6891	C689	0.689950	0.301750	0.556900
C6901	C690	0.701060	0.344680	0.597700
C6911	C691	0.721680	0.371220	0.692300
C6921	C692	0.736150	0.416650	0.734000
H6931	H693	0.732300	0.434700	0.701400
C6941	C694	0.756580	0.429560	0.829700
H6951	H695	0.770000	0.458400	0.875900
C6961	C696	0.753940	0.392420	0.846100
H6971	H697	0.765100	0.392100	0.907200
C6981	C698	0.686660	0.362560	0.529000
C6991	C699	0.716020	0.391540	0.482800
H7001	H700	0.747900	0.404100	0.498400
C7011	C701	0.697890	0.402090	0.412400
H7021	H702	0.718400	0.422400	0.381200
C7031	C703	0.626540	0.359180	0.434100
H7041	H704	0.595100	0.348100	0.417400
C7051	C705	0.640820	0.346760	0.506900
H7061	H706	0.620000	0.328200	0.539900
C7071	C707	0.816580	0.357080	0.787300
H7081	H708	0.816500	0.382700	0.790100
C7091	C709	0.857580	0.361840	0.805400
H7101	H710	0.889100	0.390300	0.822600
C7111	C711	0.843050	0.317370	0.793500
H7121	H712	0.862700	0.309100	0.800400
C7131	C713	0.792660	0.285580	0.768600
C7141	C714	0.800100	0.208420	0.674400
H7151	H715	0.796800	0.218600	0.621600
C7161	C716	0.819850	0.186930	0.676800
H7171	H717	0.828900	0.181700	0.623600
C7181	C718	0.377000	0.501160	0.115700
H7191	H719	0.359500	0.471500	0.127000
C7201	C720	0.356380	0.515680	0.062700
H7211	H721	0.323800	0.498600	0.032300
C7221	C722	0.393550	0.559810	0.064400
H7231	H723	0.391400	0.579800	0.035800
C7241	C724	0.435590	0.570550	0.116300
C7251	C725	0.481890	0.611430	0.131700
C7261	C726	0.522990	0.620310	0.182200
C7271	C727	0.570360	0.660260	0.196400
H7281	H728	0.580100	0.686100	0.173100
C7291	C729	0.599110	0.655270	0.248600
H7301	H730	0.632600	0.676600	0.269500
C7311	C731	0.569230	0.612090	0.265400
H7321	H732	0.580400	0.599800	0.300900
C7331	C733	0.488840	0.649680	0.096700
C7341	C734	0.484150	0.649290	0.003900
H7351	H735	0.475000	0.622800	0.956400
C7361	C736	0.492820	0.687620	0.979300
H7371	H737	0.489600	0.686600	0.914600
C7381	C738	0.508610	0.725650	0.130900
H7391	H739	0.516500	0.752300	0.175600
C7401	C740	0.501410	0.690090	0.164800
H7411	H741	0.504600	0.692200	0.230000
C7421	C742	0.527620	0.554240	0.443300
H7431	H743	0.521200	0.573600	0.471100
C7441	C744	0.556130	0.546030	0.495900
H7451	H745	0.571300	0.557900	0.562600
C7461	C746	0.556470	0.517190	0.428500
H7471	H747	0.573100	0.505700	0.440300
C7481	C748	0.528400	0.507080	0.338600
C7491	C749	0.525930	0.420250	0.286700
H7501	H750	0.500800	0.408800	0.313100
C7511	C751	0.547800	0.399700	0.283400
H7521	H752	0.536200	0.373400	0.305900
C7531	C753	0.814110	0.576290	0.926100
C7541	C754	0.231710	0.488910	0.839100
C7551	C755	0.875980	0.133420	0.119700
F7561	F756	0.836840	0.563680	0.966200
F7571	F757	0.817600	0.605680	0.995200
F7581	F758	0.769410	0.537350	0.889500
F7591	F759	0.191890	0.477690	0.845100
F7601	F760	0.227350	0.450710	0.827200
F7611	F761	0.264400	0.518800	0.922400
F7621	F762	0.839550	0.085190	0.077400
F7631	F763	0.909210	0.135190	0.175300
F7641	F764	0.868460	0.162800	0.144400
Ga7651	Ga765	0.830100	0.880650	0.891310
Ga7661	Ga766	0.056430	0.611850	0.403680
N7671	N767	0.877200	0.885540	0.992900
N7681	N768	0.836740	0.842760	0.791900
N7691	N769	0.943820	0.762180	0.904800
N7701	N770	0.821720	0.919340	0.987800
N7711	N771	0.774690	0.822210	0.913000
N7721	N772	0.613300	0.822740	0.018800
N7731	N773	0.781370	0.874510	0.786700
N7741	N774	0.881060	0.941380	0.869100
N7751	N775	0.830170	0.064510	0.731100
N7761	N776	0.037210	0.594710	0.259900
N7771	N777	0.079020	0.678760	0.407400
N7781	N778	0.997550	0.708430	0.038100
N7791	N779	0.032320	0.545680	0.398900
N7801	N780	0.121100	0.631360	0.412900
N7811	N781	0.507200	0.831980	0.043200
N7821	N782	0.073850	0.632790	0.547300
N7831	N783	0.990780	0.592760	0.397400
N7841	N784	0.972140	0.690740	0.766200
N7851	N785	0.695470	0.276190	0.608000
N7861	N786	0.733520	0.356960	0.765100
N7871	N787	0.654360	0.385680	0.387000
N7881	N788	0.777940	0.312480	0.765860
N7891	N789	0.423220	0.532800	0.148100
N7901	N790	0.523050	0.589650	0.226200
N7911	N791	0.505490	0.726010	0.042500
N7921	N792	0.511340	0.531600	0.351500
O7931	O793	0.808670	0.613690	0.801300
O7941	O794	0.832600	0.566380	0.773100
O7951	O795	0.885920	0.643500	0.890600
O7961	O796	0.293530	0.524950	0.750000
O7971	O797	0.210000	0.476980	0.660200
O7981	O798	0.251770	0.554790	0.767400
O7991	O799	0.939820	0.199480	0.058700
O8001	O800	0.859200	0.143760	0.950500
O8011	O801	0.906060	0.116380	0.991400
S8021	S802	0.837850	0.602950	0.837660
S8031	S803	0.249130	0.514450	0.743410
S8041	S804	0.895410	0.155130	0.026050
Ag8051	Ag805	0.277620	0.029090	0.588510
Ag8061	Ag806	0.200850	0.458370	0.478910
C8071	C807	0.092370	0.107550	0.413200
H8081	H808	0.073600	0.114800	0.386100
C8091	C809	0.100230	0.079730	0.359500
H8101	H810	0.087200	0.064400	0.292900
C8111	C811	0.130720	0.079320	0.423600
H8121	H812	0.143500	0.064300	0.408800
C8131	C813	0.139870	0.106070	0.518000
C8141	C814	0.166590	0.113870	0.604400
C8151	C815	0.173840	0.138740	0.694300
C8161	C816	0.198860	0.144160	0.785000
H8171	H817	0.213800	0.131000	0.796100
C8181	C818	0.197090	0.171370	0.851600
H8191	H819	0.210300	0.180700	0.918500
C8201	C820	0.171940	0.183400	0.803600
H8211	H821	0.166100	0.202900	0.833900
C8221	C822	0.190920	0.092360	0.601300
C8231	C823	0.166450	0.045090	0.576100
H8241	H824	0.133100	0.023900	0.560300
C8251	C825	0.191400	0.027680	0.573800
H8261	H826	0.174200	0.994600	0.556300
C8271	C827	0.260720	0.101580	0.620100
H8281	H828	0.294000	0.122400	0.635100
C8291	C829	0.238190	0.120770	0.625300
H8301	H830	0.256400	0.154000	0.646000
C8311	C831	0.034280	0.149820	0.474500
H8321	H832	0.013600	0.118200	0.475500
C8331	C833	0.018820	0.172280	0.431800
H8341	H834	0.987400	0.158800	0.399600
C8351	C835	0.058400	0.216540	0.447400
H8361	H836	0.059800	0.240600	0.429600
C8371	C837	0.097860	0.221340	0.494600
C8381	C838	0.145740	0.260360	0.519200
C8391	C839	0.182580	0.261380	0.558500
C8401	C840	0.231640	0.297580	0.573000
H8411	H841	0.245400	0.326600	0.560300
C8421	C842	0.255600	0.282980	0.609000
H8431	H843	0.288600	0.299600	0.625000
C8441	C844	0.221300	0.238740	0.616800
H8451	H845	0.227800	0.220400	0.640300
C8461	C846	0.157150	0.304290	0.504300
C8471	C847	0.172180	0.319200	0.433700
H8481	H848	0.178500	0.303300	0.391700
C8491	C849	0.178790	0.359610	0.421500
H8501	H850	0.184800	0.367000	0.364800
C8511	C851	0.164210	0.372350	0.557000
H8521	H852	0.161800	0.391200	0.602100
C8531	C853	0.154040	0.331600	0.572600
H8541	H854	0.145500	0.322900	0.626800
C8551	C855	0.164150	0.265490	0.754300
H8561	H856	0.194700	0.279900	0.749000
C8571	C857	0.151190	0.288970	0.805500
H8581	H858	0.171600	0.321600	0.840400
C8591	C859	0.104660	0.257080	0.796400
H8601	H860	0.086500	0.263100	0.823000
C8611	C861	0.087770	0.211310	0.737300
C8621	C862	0.043140	0.168020	0.714200
C8631	C863	0.029060	0.124440	0.669300
C8641	C864	0.985200	0.078840	0.649600
H8651	H865	0.958400	0.072000	0.664900
C8661	C866	0.988210	0.046150	0.604400
H8671	H867	0.964600	0.012800	0.585600
C8681	C868	0.032590	0.071210	0.591700
H8691	H869	0.043500	0.057100	0.560000
C8701	C870	0.005870	0.168810	0.738000
C8711	C871	0.988110	0.183870	0.683400
H8721	H872	0.999900	0.194700	0.633300
C8731	C873	0.952720	0.183220	0.701600
H8741	H874	0.940300	0.193300	0.661900
C8751	C875	0.943200	0.137800	0.811200
H8761	H876	0.924600	0.119200	0.847000
C8771	C877	0.978750	0.138850	0.792300
H8781	H878	0.985400	0.120200	0.814400
C8791	C879	0.446360	0.978200	0.300000
H8801	H880	0.469300	0.978100	0.280300
C8811	C881	0.450260	0.994360	0.394900
H8821	H882	0.475300	0.005900	0.449400
C8831	C883	0.411270	0.990470	0.394400
H8841	H884	0.404400	0.999400	0.447900
C8851	C885	0.382890	0.969990	0.296300
C8861	C886	0.339570	0.958670	0.262400
C8871	C887	0.310530	0.935930	0.167400
C8881	C888	0.264830	0.922950	0.130100
H8891	H889	0.248800	0.929200	0.164700
C8901	C890	0.249220	0.899960	0.035500
H8911	H891	0.219900	0.886700	0.991400
C8921	C892	0.284600	0.899520	0.015300
H8931	H893	0.282600	0.885600	0.954000
C8941	C894	0.321960	0.973560	0.333400
C8951	C895	0.286000	0.941520	0.363200
H8961	H896	0.270900	0.908900	0.340000
C8971	C897	0.271800	0.957200	0.427800
H8981	H898	0.246900	0.934700	0.448900
C8991	C899	0.326020	0.033020	0.430600
H9001	H900	0.340200	0.065400	0.453500
C9011	C901	0.342040	0.020020	0.366700
H9021	H902	0.366700	0.042900	0.345800
C9031	C903	0.492450	0.012790	0.117400
H9041	H904	0.492100	0.038300	0.126000
C9051	C905	0.532630	0.017450	0.120000
H9061	H906	0.563400	0.046000	0.130700
C9071	C907	0.519680	0.973480	0.104300
H9081	H908	0.539600	0.965600	0.101800
C9091	C909	0.470040	0.941460	0.092300
C9101	C910	0.441740	0.893760	0.079200
C9111	C911	0.395170	0.863410	0.075900
C9121	C912	0.363640	0.813240	0.054200
H9131	H913	0.371600	0.793400	0.042400
C9141	C914	0.320260	0.798860	0.053500
H9151	H915	0.292600	0.767400	0.042100
C9161	C916	0.324440	0.839500	0.073000
H9171	H917	0.299000	0.839200	0.076000
C9181	C918	0.464810	0.870770	0.066900
C9191	C919	0.475350	0.865230	0.983300
H9201	H920	0.468400	0.875200	0.933700
C9211	C921	0.496040	0.844960	0.973900
H9221	H922	0.502500	0.840100	0.916300
C9231	C923	0.497740	0.837860	0.123400
H9241	H924	0.506400	0.829000	0.173200
C9251	C925	0.475610	0.856590	0.136400
H9261	H926	0.468100	0.859500	0.193500
C9271	C927	0.354570	0.887310	0.891600
H9281	H928	0.357400	0.865600	0.909800
C9291	C929	0.336680	0.882940	0.797600
H9301	H930	0.325600	0.858400	0.742300
C9311	C931	0.338130	0.920670	0.800800
H9321	H932	0.328100	0.927300	0.748000
C9331	C933	0.357550	0.948370	0.898800
C9341	C934	0.365360	0.990200	0.935800
C9351	C935	0.389060	0.019400	0.031600
C9361	C936	0.399690	0.063110	0.070700
H9371	H937	0.390800	0.077800	0.037900
C9381	C938	0.424820	0.079900	0.163800
H9391	H939	0.437700	0.108900	0.208300
C9401	C940	0.427980	0.045640	0.181300
H9411	H941	0.443100	0.048100	0.241900
C9421	C942	0.347050	0.005050	0.868700
C9431	C943	0.375370	0.046770	0.847200
H9441	H944	0.408400	0.068400	0.878300
C9451	C945	0.355160	0.056720	0.779800
H9461	H946	0.375100	0.085500	0.766100
C9471	C947	0.281760	0.988000	0.755800
H9481	H948	0.248800	0.967200	0.723900
C9491	C949	0.298580	0.975480	0.821800
H9501	H950	0.277400	0.947000	0.835500
C9511	C951	0.762660	0.319640	0.956100
H9521	H952	0.786700	0.320100	0.941000
C9531	C953	0.763860	0.335060	0.049500
H9541	H954	0.787900	0.346900	0.106700
C9551	C955	0.723970	0.329630	0.041500
H9561	H956	0.714900	0.337500	0.092300
C9571	C957	0.698250	0.310050	0.943100
C9581	C958	0.655320	0.298940	0.902300
C9591	C959	0.628780	0.278320	0.807700
C9601	C960	0.583350	0.263850	0.766000
H9611	H961	0.565300	0.267700	0.798600
C9621	C962	0.570440	0.243420	0.670300
H9631	H963	0.541600	0.230000	0.624100
C9641	C964	0.607580	0.246060	0.653900
H9651	H965	0.607900	0.234900	0.592800
C9661	C966	0.637440	0.313340	0.971000
C9671	C967	0.608460	0.283980	0.017200
H9681	H968	0.595900	0.252100	0.001600
C9691	C969	0.597910	0.302110	0.087600
H9701	H970	0.577600	0.281600	0.118800
C9711	C971	0.640820	0.373460	0.065900
H9721	H972	0.651900	0.404900	0.082600
C9731	C973	0.653240	0.359180	0.993100
H9741	H974	0.671800	0.380000	0.960100
C9751	C975	0.642920	0.183420	0.712700
H9761	H976	0.617300	0.183500	0.709900
C9771	C977	0.638160	0.142420	0.694600
H9781	H978	0.609700	0.110900	0.677400
C9791	C979	0.682630	0.156950	0.706500
H9801	H980	0.690900	0.137300	0.699600
C9811	C981	0.714420	0.207340	0.731400
C9821	C982	0.791580	0.199900	0.825600
H9831	H983	0.781400	0.203200	0.878400
C9841	C984	0.813070	0.180150	0.823200
H9851	H985	0.818300	0.171100	0.876400
C9861	C986	0.498840	0.623000	0.384300
H9871	H987	0.528500	0.640500	0.373000
C9881	C988	0.484320	0.643620	0.437300
H9891	H989	0.501400	0.676200	0.467700
C9901	C990	0.440190	0.606450	0.435600
H9911	H991	0.420200	0.608600	0.464200
C9921	C992	0.429450	0.564410	0.383700
C9931	C993	0.388570	0.518110	0.368300
C9941	C994	0.379690	0.477010	0.317800
C9951	C995	0.339740	0.429640	0.303600
H9961	H996	0.313900	0.419900	0.326900
C9971	C997	0.344730	0.400890	0.251400
H9981	H998	0.323400	0.367400	0.230500
C9991	C999	0.387910	0.430770	0.234600
H10001	H1000	0.400200	0.419600	0.199100
C10011	C1001	0.350320	0.511160	0.403300
C10021	C1002	0.350710	0.515850	0.496100
H10031	H1003	0.377200	0.525000	0.543600
C10041	C1004	0.312380	0.507180	0.520700
H10051	H1005	0.313400	0.510400	0.585400
C10061	C1006	0.274350	0.491390	0.369100
H10071	H1007	0.247700	0.483500	0.324400
C10081	C1008	0.309910	0.498590	0.335200
H10091	H1009	0.307800	0.495400	0.270000
C10101	C1010	0.445760	0.472380	0.056700
H10111	H1011	0.426400	0.478800	0.028900
C10121	C1012	0.453970	0.443870	0.004100
H10131	H1013	0.442100	0.428700	0.937400
C10141	C1014	0.482810	0.443530	0.071500
H10151	H1015	0.494300	0.426900	0.059700
C10161	C1016	0.492920	0.471600	0.161400
C10171	C1017	0.579750	0.474070	0.213300
H10181	H1018	0.591200	0.499200	0.186900
C10191	C1019	0.600300	0.452200	0.216600
H10201	H1020	0.626600	0.463800	0.194100
C10211	C1021	0.423710	0.185890	0.573900
C10221	C1022	0.511090	0.768290	0.660900
C10231	C1023	0.866580	0.124020	0.380300
F10241	F1024	0.436320	0.163160	0.533800
F10251	F1025	0.394320	0.182400	0.504800
F10261	F1026	0.462650	0.230590	0.610500
F10271	F1027	0.522310	0.808110	0.654900
F10281	F1028	0.549290	0.772650	0.672800
F10291	F1029	0.481200	0.735600	0.577600
F10301	F1030	0.914810	0.160450	0.422600
F10311	F1031	0.864810	0.090790	0.324700
F10321	F1032	0.837200	0.131540	0.355600
Ga10331	Ga1033	0.119350	0.169900	0.608690
Ga10341	Ga1034	0.388150	0.943570	0.096320
N10351	N1035	0.114460	0.122800	0.507100
N10361	N1036	0.157240	0.163260	0.708100
N10371	N1037	0.237820	0.056180	0.595200
N10381	N1038	0.080660	0.178280	0.512200
N10391	N1039	0.177790	0.225310	0.587000
N10401	N1040	0.177260	0.386700	0.481200
N10411	N1041	0.125490	0.218630	0.713300
N10421	N1042	0.058620	0.118940	0.630900
N10431	N1043	0.935490	0.169830	0.768900
N10441	N1044	0.405290	0.962790	0.240100
N10451	N1045	0.321240	0.920980	0.092600
N10461	N1046	0.291570	0.002450	0.461900
N10471	N1047	0.454320	0.967680	0.101100
N10481	N1048	0.368640	0.878900	0.087100
N10491	N1049	0.168020	0.492800	0.456800
N10501	N1050	0.367210	0.926150	0.952700
N10511	N1051	0.407240	0.009220	0.102600
N10521	N1052	0.309260	0.027860	0.733800
N10531	N1053	0.723810	0.304530	0.892000
N10541	N1054	0.643040	0.266480	0.734900
N10551	N1055	0.614320	0.345640	0.113000
N10561	N1056	0.687520	0.222060	0.734140
N10571	N1057	0.467200	0.576780	0.351900
N10581	N1058	0.410350	0.476950	0.273800
N10591	N1059	0.273990	0.494510	0.457500
N10601	N1060	0.468400	0.488660	0.148500
O10611	O1061	0.386310	0.191330	0.698700
O10621	O1062	0.433620	0.167400	0.726900
O10631	O1063	0.356500	0.114080	0.609400
O10641	O1064	0.475050	0.706470	0.750000
O10651	O1065	0.523020	0.790000	0.839800
O10661	O1066	0.445210	0.748230	0.732600
O10671	O1067	0.800520	0.060180	0.441300
O10681	O1068	0.856240	0.140800	0.549500
O10691	O1069	0.883620	0.093940	0.508600
S10701	S1070	0.397050	0.162150	0.662340
S10711	S1071	0.485550	0.750870	0.756590
S10721	S1072	0.844870	0.104590	0.473950
Ag10731	Ag1073	0.140490	0.859510	0.250000
C10741	C1074	0.237390	0.762610	0.250000
C10751	C1075	0.215010	0.784990	0.250000
Ga10761	Ga1076	0.289390	0.710610	0.250000
N10771	N1077	0.173110	0.826890	0.250000
Ag10781	Ag1078	0.859510	0.140490	0.750000
C10791	C1079	0.762610	0.237390	0.750000
C10801	C1080	0.784990	0.215010	0.750000
Ga10811	Ga1081	0.710610	0.289390	0.750000
N10821	N1082	0.826890	0.173110	0.750000
Ag10831	Ag1083	0.382600	0.617400	0.750000
N10841	N1084	0.416020	0.583980	0.750000
Ag10851	Ag1085	0.617400	0.382600	0.250000
N10861	N1086	0.583980	0.416020	0.250000
C10871	C1087	0.480170	0.519830	0.750000
C10881	C1088	0.457730	0.542270	0.750000
Ga10891	Ga1089	0.532190	0.467810	0.750000
C10901	C1090	0.519830	0.480170	0.250000
C10911	C1091	0.542270	0.457730	0.250000
Ga10921	Ga1092	0.467810	0.532190	0.250000
