data_GIYSUD_freeONLY_PM
_symmetry_space_group_name_H-M	'P1'
_cell_length_a	8.969000
_cell_length_b	9.419000
_cell_length_c	17.290000
_cell_angle_alpha	100.468000
_cell_angle_beta	92.754000
_cell_angle_gamma	117.702000
_symmetry_Int_Tables_number 1

loop_
_symmetry_equiv_pos_as_xyz
'x,y,z'

loop_
_atom_site_label
_atom_site_type_symbol
_atom_site_fract_x
_atom_site_fract_y
_atom_site_fract_z
Cd11	Cd1	0.457250	0.849640	0.799280
Cd21	Cd2	0.542750	0.150360	0.200720
Cd31	Cd3	0.500000	0.000000	0.000000
H11	H1	0.251000	0.449000	0.992000
H21	H2	0.447600	0.413100	0.912500
H31	H3	0.313500	0.351500	0.835700
H41	H4	0.297000	0.179000	0.965000
H51	H5	0.015000	0.970600	0.884000
H61	H6	0.039100	0.066800	0.816400
H71	H7	0.975000	0.166000	0.964000
H81	H8	0.990600	0.400400	0.934200
H91	H9	0.028100	0.345500	0.849400
H101	H10	0.233200	0.502800	0.692200
H111	H11	0.051400	0.354700	0.575700
H121	H12	0.113600	0.773900	0.529100
H131	H13	0.293200	0.911900	0.647100
H141	H14	0.648200	0.665800	0.838200
H151	H15	0.749000	0.551000	0.008000
H161	H16	0.552400	0.586900	0.087500
H171	H17	0.686500	0.648500	0.164300
H181	H18	0.703000	0.821000	0.035000
H191	H19	0.985000	0.029400	0.116000
H201	H20	0.960900	0.933200	0.183600
H211	H21	0.025000	0.834000	0.036000
H221	H22	0.009400	0.599600	0.065800
H231	H23	0.971900	0.654500	0.150600
H241	H24	0.766800	0.497200	0.307800
H251	H25	0.948600	0.645300	0.424300
H261	H26	0.886400	0.226100	0.470900
H271	H27	0.706800	0.088100	0.352900
H281	H28	0.351800	0.334200	0.161800
C11	C1	0.311200	0.616200	0.924900
C21	C2	0.236300	0.440200	0.935900
C31	C3	0.326800	0.352600	0.891800
C41	C4	0.253700	0.175600	0.901900
C51	C5	0.330200	0.082100	0.852000
C61	C6	0.060500	0.079700	0.873500
C71	C7	0.968500	0.167000	0.914800
C81	C8	0.781100	0.064600	0.880900
C91	C9	0.046700	0.345800	0.905200
C101	C10	0.208500	0.559200	0.659100
C111	C11	0.098600	0.468800	0.588700
C121	C12	0.058900	0.545800	0.538200
C131	C13	0.135300	0.714900	0.561600
C141	C14	0.243700	0.797600	0.632800
C151	C15	0.660800	0.650500	0.784700
C161	C16	0.685000	0.462000	0.679500
C171	C17	0.821000	0.512800	0.819300
C181	C18	0.688800	0.383800	0.075100
C191	C19	0.763700	0.559800	0.064100
C201	C20	0.673200	0.647400	0.108200
C211	C21	0.746300	0.824400	0.098100
C221	C22	0.669800	0.917900	0.148000
C231	C23	0.939500	0.920300	0.126500
C241	C24	0.031500	0.833000	0.085200
C251	C25	0.218900	0.935400	0.119100
C261	C26	0.953300	0.654200	0.094800
C271	C27	0.791500	0.440800	0.340900
C281	C28	0.901400	0.531200	0.411300
C291	C29	0.941100	0.454200	0.461800
C301	C30	0.864700	0.285100	0.438400
C311	C31	0.756300	0.202400	0.367200
C321	C32	0.339200	0.349500	0.215300
C331	C33	0.315000	0.538000	0.320500
C341	C34	0.179000	0.487200	0.180700
N11	N1	0.280600	0.721400	0.682100
N21	N2	0.746600	0.572400	0.764600
N31	N3	0.719400	0.278600	0.317900
N41	N4	0.253400	0.427600	0.235400
O11	O1	0.318800	0.633900	0.854800
O21	O2	0.359700	0.728000	0.986700
O31	O3	0.729200	0.072800	0.813800
O41	O4	0.684100	0.962600	0.917800
O51	O5	0.358700	0.097200	0.784300
O61	O6	0.351600	0.979200	0.883400
O71	O7	0.596600	0.704900	0.746000
O81	O8	0.681200	0.366100	0.145200
O91	O9	0.640300	0.272000	0.013300
O101	O10	0.270800	0.927200	0.186200
O111	O11	0.315900	0.037400	0.082200
O121	O12	0.641300	0.902800	0.215700
O131	O13	0.648400	0.020800	0.116600
O141	O14	0.403400	0.295100	0.254000
