data_GOGSIF_freeONLY_PM
_symmetry_space_group_name_H-M	'P1'
_cell_length_a	14.443000
_cell_length_b	14.537000
_cell_length_c	22.015000
_cell_angle_alpha	90.000000
_cell_angle_beta	99.973000
_cell_angle_gamma	90.000000
_symmetry_Int_Tables_number 1

loop_
_symmetry_equiv_pos_as_xyz
'x,y,z'

loop_
_atom_site_label
_atom_site_type_symbol
_atom_site_fract_x
_atom_site_fract_y
_atom_site_fract_z
Co11	Co1	0.189900	0.812200	0.060700
Co21	Co2	0.846700	0.164600	0.068000
Co31	Co3	0.569600	0.992100	0.275600
Co41	Co4	0.602600	0.118300	0.412200
Co51	Co5	0.621300	0.912700	0.405500
Co61	Co6	0.810100	0.312200	0.939300
Co71	Co7	0.153300	0.664600	0.932000
Co81	Co8	0.430400	0.492100	0.724400
Co91	Co9	0.397400	0.618300	0.587800
Co101	Co10	0.378700	0.412700	0.594500
H11	H1	0.058300	0.691000	0.022500
H21	H2	0.040100	0.776500	0.978500
H31	H3	0.716900	0.027000	0.353300
H41	H4	0.301000	0.444000	0.038400
H51	H5	0.396100	0.484200	0.024900
H61	H6	0.394600	0.426300	0.084800
H71	H7	0.477400	0.558300	0.146900
H81	H8	0.473500	0.620500	0.088300
H91	H9	0.428700	0.655000	0.144100
H101	H10	0.232700	0.507200	0.130300
H111	H11	0.329300	0.497100	0.175000
H121	H12	0.280200	0.593400	0.165500
H131	H13	0.333900	0.859100	0.834400
H141	H14	0.388500	0.949100	0.857900
H151	H15	0.238000	0.060000	0.927300
H161	H16	0.312300	0.007800	0.975400
H171	H17	0.342200	0.051500	0.916700
H181	H18	0.145000	0.892100	0.838900
H191	H19	0.149600	0.998500	0.850400
H201	H20	0.209300	0.953700	0.805100
H211	H21	0.413200	0.913100	0.913700
H221	H22	0.110300	0.717500	0.294200
H231	H23	0.188200	0.701000	0.253900
H241	H24	0.133600	0.794700	0.249500
H251	H25	0.023600	0.577300	0.252800
H261	H26	0.989300	0.565600	0.181700
H271	H27	0.096100	0.554400	0.209700
H281	H28	0.940100	0.733800	0.242500
H291	H29	0.967900	0.806200	0.196000
H301	H30	0.912500	0.717300	0.171300
H311	H31	0.061300	0.325500	0.283200
H321	H32	0.984400	0.365700	0.230900
H331	H33	0.978400	0.262900	0.251500
H341	H34	0.176900	0.205700	0.254400
H351	H35	0.092700	0.145900	0.221400
H361	H36	0.171300	0.177900	0.185100
H371	H37	0.183800	0.380100	0.219500
H381	H38	0.177100	0.345700	0.151400
H391	H39	0.102400	0.415100	0.168200
H401	H40	0.472900	0.226900	0.169700
H411	H41	0.374900	0.209600	0.189000
H421	H42	0.401300	0.308200	0.168800
H431	H43	0.368800	0.371600	0.271500
H441	H44	0.343600	0.272300	0.291000
H451	H45	0.422200	0.328800	0.333100
H461	H46	0.593200	0.319700	0.240400
H471	H47	0.521900	0.400300	0.243000
H481	H48	0.571300	0.353000	0.304100
H491	H49	0.299700	0.075000	0.295500
H501	H50	0.310700	0.976300	0.268900
H511	H51	0.219300	0.002300	0.294500
H521	H52	0.310600	0.089500	0.417000
H531	H53	0.227700	0.018600	0.411000
H541	H54	0.322500	0.998300	0.455600
H551	H55	0.332800	0.840600	0.333500
H561	H56	0.335400	0.845900	0.404900
H571	H57	0.241000	0.863800	0.359300
H581	H58	0.731700	0.756400	0.201900
H591	H59	0.697200	0.654100	0.194600
H601	H60	0.623900	0.734500	0.187100
H611	H61	0.763500	0.672000	0.357200
H621	H62	0.781000	0.613300	0.300500
H631	H63	0.820300	0.713800	0.309200
H641	H64	0.596000	0.635700	0.325100
H651	H65	0.546200	0.660100	0.258100
H661	H66	0.621500	0.581500	0.268700
H671	H67	0.831800	0.923200	0.642900
H681	H68	0.729600	0.895400	0.612100
H691	H69	0.815500	0.865400	0.581900
H701	H70	0.873600	0.090600	0.532200
H711	H71	0.920300	0.041400	0.593300
H721	H72	0.904100	0.987300	0.530700
H731	H73	0.736100	0.136500	0.578200
H741	H74	0.673100	0.062300	0.602900
H751	H75	0.772000	0.086900	0.641100
H761	H76	0.874800	0.387600	0.353100
H771	H77	0.850200	0.297000	0.315200
H781	H78	0.770400	0.353200	0.338300
H791	H79	0.870900	0.389500	0.468300
H801	H80	0.764800	0.360900	0.452100
H811	H81	0.834900	0.302300	0.499000
H821	H82	0.995200	0.292400	0.431500
H831	H83	0.958800	0.202900	0.459500
H841	H84	0.966300	0.206600	0.389300
H851	H85	0.313800	0.778400	0.181300
H861	H86	0.444800	0.828000	0.244200
H871	H87	0.440900	0.048500	0.147500
H881	H88	0.310700	0.998000	0.082400
H891	H89	0.980000	0.034600	0.154400
H901	H90	0.096000	0.929700	0.153400
H911	H91	0.048200	0.934300	0.975000
H921	H92	0.929700	0.039600	0.977100
H931	H93	0.804600	0.195700	0.197000
H941	H94	0.709000	0.144300	0.261900
H951	H95	0.641400	0.934200	0.156300
H961	H96	0.730400	0.989300	0.089200
H971	H97	0.427100	0.210800	0.581200
H981	H98	0.497800	0.116100	0.523700
H991	H99	0.569900	0.321600	0.433200
H1001	H100	0.488800	0.417100	0.486200
H1011	H101	0.941700	0.191000	0.977500
H1021	H102	0.959900	0.276500	0.021500
H1031	H103	0.283100	0.527000	0.646700
H1041	H104	0.699000	0.944000	0.961600
H1051	H105	0.603900	0.984200	0.975100
H1061	H106	0.605400	0.926300	0.915200
H1071	H107	0.522600	0.058300	0.853100
H1081	H108	0.526500	0.120500	0.911700
H1091	H109	0.571300	0.155000	0.855900
H1101	H110	0.767300	0.007200	0.869700
H1111	H111	0.670700	0.997100	0.825000
H1121	H112	0.719800	0.093400	0.834500
H1131	H113	0.666100	0.359100	0.165600
H1141	H114	0.611500	0.449100	0.142100
H1151	H115	0.762000	0.560000	0.072700
H1161	H116	0.687700	0.507800	0.024600
H1171	H117	0.657800	0.551500	0.083300
H1181	H118	0.855000	0.392100	0.161100
H1191	H119	0.850400	0.498500	0.149600
H1201	H120	0.790700	0.453700	0.194900
H1211	H121	0.586800	0.413100	0.086300
H1221	H122	0.889700	0.217500	0.705800
H1231	H123	0.811800	0.201000	0.746100
H1241	H124	0.866400	0.294700	0.750500
H1251	H125	0.976400	0.077300	0.747200
H1261	H126	0.010700	0.065600	0.818300
H1271	H127	0.903900	0.054400	0.790300
H1281	H128	0.059900	0.233800	0.757500
H1291	H129	0.032100	0.306200	0.804000
H1301	H130	0.087500	0.217300	0.828700
H1311	H131	0.938700	0.825500	0.716800
H1321	H132	0.015600	0.865700	0.769100
H1331	H133	0.021600	0.762900	0.748500
H1341	H134	0.823100	0.705700	0.745600
H1351	H135	0.907300	0.645900	0.778600
H1361	H136	0.828700	0.677900	0.814900
H1371	H137	0.816200	0.880100	0.780500
H1381	H138	0.822900	0.845700	0.848600
H1391	H139	0.897600	0.915100	0.831800
H1401	H140	0.527100	0.726900	0.830300
H1411	H141	0.625100	0.709600	0.811000
H1421	H142	0.598700	0.808200	0.831200
H1431	H143	0.631200	0.871600	0.728500
H1441	H144	0.656400	0.772300	0.709000
H1451	H145	0.577800	0.828800	0.666900
H1461	H146	0.406800	0.819700	0.759600
H1471	H147	0.478100	0.900300	0.757000
H1481	H148	0.428700	0.853000	0.695900
H1491	H149	0.700300	0.575000	0.704500
H1501	H150	0.689300	0.476300	0.731100
H1511	H151	0.780700	0.502300	0.705500
H1521	H152	0.689400	0.589500	0.583000
H1531	H153	0.772300	0.518600	0.589000
H1541	H154	0.677500	0.498300	0.544400
H1551	H155	0.667200	0.340600	0.666500
H1561	H156	0.664600	0.345900	0.595100
H1571	H157	0.759000	0.363800	0.640700
H1581	H158	0.268300	0.256400	0.798100
H1591	H159	0.302800	0.154100	0.805400
H1601	H160	0.376100	0.234500	0.812900
H1611	H161	0.236500	0.172000	0.642800
H1621	H162	0.219000	0.113300	0.699500
H1631	H163	0.179700	0.213800	0.690800
H1641	H164	0.404000	0.135700	0.674900
H1651	H165	0.453800	0.160100	0.741900
H1661	H166	0.378500	0.081500	0.731300
H1671	H167	0.168200	0.423200	0.357100
H1681	H168	0.270400	0.395400	0.387900
H1691	H169	0.184500	0.365400	0.418100
H1701	H170	0.126400	0.590600	0.467800
H1711	H171	0.079700	0.541400	0.406700
H1721	H172	0.095900	0.487300	0.469300
H1731	H173	0.263900	0.636500	0.421800
H1741	H174	0.326900	0.562300	0.397100
H1751	H175	0.228000	0.586900	0.358900
H1761	H176	0.125200	0.887600	0.646900
H1771	H177	0.149800	0.797000	0.684800
H1781	H178	0.229600	0.853200	0.661700
H1791	H179	0.129100	0.889500	0.531700
H1801	H180	0.235200	0.860900	0.547900
H1811	H181	0.165100	0.802300	0.501000
H1821	H182	0.004800	0.792400	0.568500
H1831	H183	0.041200	0.702900	0.540500
H1841	H184	0.033700	0.706600	0.610700
H1851	H185	0.686200	0.278400	0.818700
H1861	H186	0.555200	0.328000	0.755800
H1871	H187	0.559100	0.548500	0.852500
H1881	H188	0.689300	0.498000	0.917600
H1891	H189	0.020000	0.534600	0.845600
H1901	H190	0.904000	0.429700	0.846600
H1911	H191	0.951800	0.434300	0.025000
H1921	H192	0.070300	0.539600	0.022900
H1931	H193	0.195400	0.695700	0.803000
H1941	H194	0.291000	0.644300	0.738100
H1951	H195	0.358600	0.434200	0.843700
H1961	H196	0.269600	0.489300	0.910800
H1971	H197	0.572900	0.710800	0.418800
H1981	H198	0.502200	0.616100	0.476300
H1991	H199	0.430100	0.821600	0.566800
H2001	H200	0.511200	0.917100	0.513800
C11	C1	0.287000	0.628000	0.048000
C21	C2	0.344000	0.557000	0.091000
C31	C3	0.361000	0.470000	0.057000
C41	C4	0.440000	0.602000	0.120000
C51	C5	0.292000	0.537000	0.146000
C61	C6	0.241000	0.855000	0.939400
C71	C7	0.268000	0.931000	0.897000
C81	C8	0.355000	0.897000	0.870000
C91	C9	0.292000	0.021000	0.932000
C101	C10	0.185000	0.945000	0.843000
C111	C11	0.082000	0.707000	0.139700
C121	C12	0.055000	0.690000	0.204000
C131	C13	0.129000	0.729000	0.255000
C141	C14	0.040000	0.587000	0.213000
C151	C15	0.960000	0.742000	0.203000
C161	C16	0.012000	0.261000	0.134500
C171	C17	0.079000	0.282000	0.196000
C181	C18	0.020000	0.312000	0.245000
C191	C19	0.135000	0.195000	0.216000
C201	C20	0.142000	0.363000	0.183000
C211	C21	0.508000	0.189000	0.289000
C221	C22	0.467000	0.276000	0.257000
C231	C23	0.425000	0.253000	0.190000
C241	C24	0.394000	0.316000	0.291000
C251	C25	0.545000	0.343000	0.261000
C261	C26	0.439000	0.987000	0.373000
C271	C27	0.332000	0.977000	0.365000
C281	C28	0.286000	0.011000	0.300000
C291	C29	0.295000	0.025000	0.417000
C301	C30	0.308000	0.872000	0.366000
C311	C31	0.651000	0.799000	0.302000
C321	C32	0.681000	0.710000	0.278000
C331	C33	0.684000	0.714000	0.209000
C341	C34	0.769000	0.674000	0.314000
C351	C35	0.604000	0.640000	0.283000
C361	C36	0.716000	0.985000	0.504000
C371	C37	0.782000	0.004000	0.566000
C381	C38	0.791000	0.913000	0.604000
C391	C39	0.879000	0.034000	0.554000
C401	C40	0.736000	0.080000	0.600000
C411	C41	0.782000	0.194000	0.401000
C421	C42	0.850000	0.278000	0.408000
C431	C43	0.835000	0.334000	0.348000
C441	C44	0.828000	0.338000	0.462000
C451	C45	0.952000	0.242000	0.424000
C461	C46	0.340000	0.834000	0.172800
C471	C47	0.418000	0.865000	0.211100
C481	C48	0.416000	0.991000	0.155000
C491	C49	0.338000	0.961000	0.115000
C501	C50	0.993000	0.014000	0.116600
C511	C51	0.063000	0.952000	0.116200
C521	C52	0.035000	0.954000	0.012900
C531	C53	0.963000	0.018000	0.014100
C541	C54	0.770000	0.142000	0.187100
C551	C55	0.712000	0.111000	0.226300
C561	C56	0.673000	0.990000	0.164700
C571	C57	0.728000	0.022000	0.125000
C581	C58	0.455000	0.236000	0.550000
C591	C59	0.499000	0.179000	0.516000
C601	C60	0.539000	0.297000	0.463000
C611	C61	0.492000	0.355000	0.496000
C621	C62	0.713000	0.128000	0.952000
C631	C63	0.656000	0.057000	0.909000
C641	C64	0.639000	0.970000	0.943000
C651	C65	0.560000	0.102000	0.880000
C661	C66	0.708000	0.037000	0.854000
C671	C67	0.759000	0.355000	0.060600
C681	C68	0.732000	0.431000	0.103000
C691	C69	0.645000	0.397000	0.130000
C701	C70	0.708000	0.521000	0.068000
C711	C71	0.815000	0.445000	0.157000
C721	C72	0.918000	0.207000	0.860300
C731	C73	0.945000	0.190000	0.796000
C741	C74	0.871000	0.229000	0.745000
C751	C75	0.960000	0.087000	0.787000
C761	C76	0.040000	0.242000	0.797000
C771	C77	0.988000	0.761000	0.865500
C781	C78	0.921000	0.782000	0.804000
C791	C79	0.980000	0.812000	0.755000
C801	C80	0.865000	0.695000	0.784000
C811	C81	0.858000	0.863000	0.817000
C821	C82	0.492000	0.689000	0.711000
C831	C83	0.533000	0.776000	0.743000
C841	C84	0.575000	0.753000	0.810000
C851	C85	0.606000	0.816000	0.709000
C861	C86	0.455000	0.843000	0.739000
C871	C87	0.561000	0.487000	0.627000
C881	C88	0.668000	0.477000	0.635000
C891	C89	0.714000	0.511000	0.700000
C901	C90	0.705000	0.525000	0.583000
C911	C91	0.692000	0.372000	0.634000
C921	C92	0.349000	0.299000	0.698000
C931	C93	0.319000	0.210000	0.722000
C941	C94	0.316000	0.214000	0.791000
C951	C95	0.231000	0.174000	0.686000
C961	C96	0.396000	0.140000	0.717000
C971	C97	0.284000	0.485000	0.496000
C981	C98	0.218000	0.504000	0.434000
C991	C99	0.209000	0.413000	0.396000
C1001	C100	0.121000	0.534000	0.446000
C1011	C101	0.264000	0.580000	0.400000
C1021	C102	0.218000	0.694000	0.599000
C1031	C103	0.150000	0.778000	0.592000
C1041	C104	0.165000	0.834000	0.652000
C1051	C105	0.172000	0.838000	0.538000
C1061	C106	0.048000	0.742000	0.576000
C1071	C107	0.660000	0.334000	0.827200
C1081	C108	0.582000	0.365000	0.788900
C1091	C109	0.584000	0.491000	0.845000
C1101	C110	0.662000	0.461000	0.885000
C1111	C111	0.007000	0.514000	0.883400
C1121	C112	0.937000	0.452000	0.883800
C1131	C113	0.965000	0.454000	0.987100
C1141	C114	0.037000	0.518000	0.985900
C1151	C115	0.230000	0.642000	0.812900
C1161	C116	0.288000	0.611000	0.773700
C1171	C117	0.327000	0.490000	0.835300
C1181	C118	0.272000	0.522000	0.875000
C1191	C119	0.545000	0.736000	0.450000
C1201	C120	0.501000	0.679000	0.484000
C1211	C121	0.461000	0.797000	0.537000
C1221	C122	0.508000	0.855000	0.504000
N11	N1	0.301000	0.881000	0.124300
N21	N2	0.458000	0.944000	0.202700
N31	N3	0.943000	0.047000	0.066000
N41	N4	0.086000	0.922000	0.063500
N51	N5	0.778000	0.099000	0.136700
N61	N6	0.662000	0.037000	0.215500
N71	N7	0.451000	0.325000	0.540900
N81	N8	0.542000	0.208000	0.471300
N91	N9	0.699000	0.381000	0.875700
N101	N10	0.542000	0.444000	0.797300
N111	N11	0.057000	0.547000	0.934000
N121	N12	0.914000	0.422000	0.936500
N131	N13	0.222000	0.599000	0.863300
N141	N14	0.338000	0.537000	0.784500
N151	N15	0.549000	0.825000	0.459100
N161	N16	0.458000	0.708000	0.528700
O11	O1	0.285100	0.706800	0.067700
O21	O2	0.088200	0.735300	0.999300
O31	O3	0.242000	0.598500	0.998100
O41	O4	0.650100	0.021000	0.355800
O51	O5	0.229000	0.882300	0.991400
O61	O6	0.232900	0.777200	0.919300
O71	O7	0.143000	0.762600	0.136600
O81	O8	0.035000	0.667000	0.095200
O91	O9	0.945000	0.210700	0.137600
O101	O10	0.030000	0.298000	0.088700
O111	O11	0.507000	0.116000	0.261200
O121	O12	0.540000	0.197000	0.345200
O131	O13	0.481000	0.934000	0.341700
O141	O14	0.479000	0.037000	0.411100
O151	O15	0.622000	0.862000	0.266000
O161	O16	0.656000	0.804000	0.359300
O171	O17	0.734000	0.921000	0.476000
O181	O18	0.651000	0.032000	0.488600
O191	O19	0.713000	0.199000	0.424000
O201	O20	0.806000	0.127000	0.373000
O211	O21	0.714900	0.206800	0.932300
O221	O22	0.911800	0.235300	0.000700
O231	O23	0.758000	0.098500	0.001900
O241	O24	0.349900	0.521000	0.644200
O251	O25	0.771000	0.382300	0.008600
O261	O26	0.767100	0.277200	0.080700
O271	O27	0.857000	0.262600	0.863400
O281	O28	0.965000	0.167000	0.904800
O291	O29	0.055000	0.710700	0.862400
O301	O30	0.970000	0.798000	0.911300
O311	O31	0.493000	0.616000	0.738800
O321	O32	0.460000	0.697000	0.654800
O331	O33	0.519000	0.434000	0.658300
O341	O34	0.521000	0.537000	0.588900
O351	O35	0.378000	0.362000	0.734000
O361	O36	0.344000	0.304000	0.640700
O371	O37	0.266000	0.421000	0.524000
O381	O38	0.349000	0.532000	0.511400
O391	O39	0.287000	0.699000	0.576000
O401	O40	0.194000	0.627000	0.627000
