data_GOJDOZ_freeONLY_PM
_symmetry_space_group_name_H-M	'P1'
_cell_length_a	6.605900
_cell_length_b	9.863800
_cell_length_c	13.187000
_cell_angle_alpha	79.317000
_cell_angle_beta	86.349000
_cell_angle_gamma	83.794000
_symmetry_Int_Tables_number 1

loop_
_symmetry_equiv_pos_as_xyz
'x,y,z'

loop_
_atom_site_label
_atom_site_type_symbol
_atom_site_fract_x
_atom_site_fract_y
_atom_site_fract_z
U11	U1	0.616840	0.386400	0.193480
U21	U2	0.948760	0.831660	0.254780
U31	U3	0.383160	0.613600	0.806520
U41	U4	0.051240	0.168340	0.745220
H11	H1	0.966200	0.181000	0.199600
H21	H2	0.004800	0.234700	0.279600
H31	H3	0.232000	0.461100	0.069200
H41	H4	0.168900	0.359700	0.163700
H51	H5	0.339800	0.398000	0.448200
H61	H6	0.680600	0.359500	0.468900
H71	H7	0.773000	0.964500	0.976200
H81	H8	0.543600	0.818300	0.051600
H91	H9	0.033800	0.819000	0.800400
H101	H10	0.995200	0.765300	0.720400
H111	H11	0.768000	0.538900	0.930800
H121	H12	0.831100	0.640300	0.836300
H131	H13	0.660200	0.602000	0.551800
H141	H14	0.319400	0.640500	0.531100
H151	H15	0.227000	0.035500	0.023800
H161	H16	0.456400	0.181700	0.948400
C11	C1	0.328400	0.582800	0.344200
C21	C2	0.399200	0.486300	0.441300
C31	C3	0.633900	0.458700	0.457500
C41	C4	0.758700	0.541100	0.372100
C51	C5	0.740400	0.100100	0.079600
C61	C6	0.661200	0.013600	0.011600
C71	C7	0.502200	0.911800	0.065400
C81	C8	0.447800	0.905200	0.177700
C91	C9	0.671600	0.417200	0.655800
C101	C10	0.600800	0.513700	0.558700
C111	C11	0.366100	0.541300	0.542500
C121	C12	0.241300	0.458900	0.627900
C131	C13	0.259600	0.899900	0.920400
C141	C14	0.338800	0.986400	0.988400
C151	C15	0.497800	0.088200	0.934600
C161	C16	0.552200	0.094800	0.822300
O11	O1	0.532600	0.265500	0.298200
O21	O2	0.695700	0.504700	0.083900
O31	O3	0.924000	0.932400	0.353900
O41	O4	0.967700	0.739000	0.153100
O51	O5	0.406800	0.562700	0.257500
O61	O6	0.194200	0.679100	0.355000
O71	O7	0.817500	0.485700	0.295400
O81	O8	0.785200	0.661800	0.378900
O91	O9	0.655300	0.218100	0.084000
O101	O10	0.894100	0.046300	0.132100
O111	O11	0.587700	0.887500	0.241400
O121	O12	0.263600	0.922700	0.208500
O131	O13	0.964900	0.261000	0.218600
O141	O14	0.290600	0.387200	0.123100
O151	O15	0.467400	0.734500	0.701800
O161	O16	0.304300	0.495300	0.916100
O171	O17	0.076000	0.067600	0.646100
O181	O18	0.032300	0.261000	0.846900
O191	O19	0.593200	0.437300	0.742500
O201	O20	0.805800	0.320900	0.645000
O211	O21	0.182500	0.514300	0.704600
O221	O22	0.214800	0.338200	0.621100
O231	O23	0.344700	0.781900	0.916000
O241	O24	0.105900	0.953700	0.867900
O251	O25	0.412300	0.112500	0.758600
O261	O26	0.736400	0.077300	0.791500
O271	O27	0.035100	0.739000	0.781400
O281	O28	0.709400	0.612800	0.876900
