data_GOJFAN_charged_PM
_symmetry_space_group_name_H-M	'P1'
_cell_length_a	22.571000
_cell_length_b	22.571000
_cell_length_c	22.571000
_cell_angle_alpha	90.000000
_cell_angle_beta	90.000000
_cell_angle_gamma	90.000000
_symmetry_Int_Tables_number 1

loop_
_symmetry_equiv_pos_as_xyz
'x,y,z'

loop_
_atom_site_label
_atom_site_type_symbol
_atom_site_fract_x
_atom_site_fract_y
_atom_site_fract_z
U11	U1	0.796920	0.796920	0.796920
U21	U2	0.203080	0.203080	0.796920
U31	U3	0.203080	0.796920	0.203080
U41	U4	0.796920	0.203080	0.203080
U51	U5	0.796920	0.796920	0.203080
U61	U6	0.203080	0.203080	0.203080
U71	U7	0.796920	0.203080	0.796920
U81	U8	0.203080	0.796920	0.796920
U91	U9	0.500000	0.000000	0.770780
U101	U10	0.500000	0.000000	0.229220
U111	U11	0.770780	0.500000	0.000000
U121	U12	0.229220	0.500000	0.000000
U131	U13	0.000000	0.770780	0.500000
U141	U14	0.000000	0.229220	0.500000
U151	U15	0.000000	0.500000	0.229220
U161	U16	0.000000	0.500000	0.770780
U171	U17	0.500000	0.770780	0.000000
U181	U18	0.500000	0.229220	0.000000
U191	U19	0.770780	0.000000	0.500000
U201	U20	0.229220	0.000000	0.500000
H11	H1	0.688600	0.940000	0.688600
H21	H2	0.311400	0.060000	0.688600
H31	H3	0.311400	0.940000	0.311400
H41	H4	0.688600	0.060000	0.311400
H51	H5	0.688600	0.688600	0.940000
H61	H6	0.688600	0.311400	0.060000
H71	H7	0.311400	0.311400	0.940000
H81	H8	0.311400	0.688600	0.060000
H91	H9	0.940000	0.688600	0.688600
H101	H10	0.060000	0.688600	0.311400
H111	H11	0.940000	0.311400	0.311400
H121	H12	0.060000	0.311400	0.688600
H131	H13	0.940000	0.688600	0.311400
H141	H14	0.060000	0.311400	0.311400
H151	H15	0.940000	0.311400	0.688600
H161	H16	0.060000	0.688600	0.688600
H171	H17	0.688600	0.688600	0.060000
H181	H18	0.311400	0.688600	0.940000
H191	H19	0.311400	0.311400	0.060000
H201	H20	0.688600	0.311400	0.940000
H211	H21	0.688600	0.940000	0.311400
H221	H22	0.688600	0.060000	0.688600
H231	H23	0.311400	0.940000	0.688600
H241	H24	0.311400	0.060000	0.311400
H251	H25	0.711800	0.000000	0.798300
H261	H26	0.288200	0.000000	0.798300
H271	H27	0.288200	0.000000	0.201700
H281	H28	0.711800	0.000000	0.201700
H291	H29	0.798300	0.711800	0.000000
H301	H30	0.798300	0.288200	0.000000
H311	H31	0.201700	0.288200	0.000000
H321	H32	0.201700	0.711800	0.000000
H331	H33	0.000000	0.798300	0.711800
H341	H34	0.000000	0.798300	0.288200
H351	H35	0.000000	0.201700	0.288200
H361	H36	0.000000	0.201700	0.711800
H371	H37	0.000000	0.711800	0.201700
H381	H38	0.000000	0.288200	0.201700
H391	H39	0.000000	0.288200	0.798300
H401	H40	0.000000	0.711800	0.798300
H411	H41	0.711800	0.798300	0.000000
H421	H42	0.288200	0.798300	0.000000
H431	H43	0.288200	0.201700	0.000000
H441	H44	0.711800	0.201700	0.000000
H451	H45	0.798300	0.000000	0.288200
H461	H46	0.798300	0.000000	0.711800
H471	H47	0.201700	0.000000	0.711800
H481	H48	0.201700	0.000000	0.288200
C11	C1	0.745100	0.898500	0.745100
C21	C2	0.718100	0.951800	0.718100
C31	C3	0.254900	0.101500	0.745100
C41	C4	0.281900	0.048200	0.718100
C51	C5	0.254900	0.898500	0.254900
C61	C6	0.281900	0.951800	0.281900
C71	C7	0.745100	0.101500	0.254900
C81	C8	0.718100	0.048200	0.281900
C91	C9	0.745100	0.745100	0.898500
C101	C10	0.718100	0.718100	0.951800
C111	C11	0.745100	0.254900	0.101500
C121	C12	0.718100	0.281900	0.048200
C131	C13	0.254900	0.254900	0.898500
C141	C14	0.281900	0.281900	0.951800
C151	C15	0.254900	0.745100	0.101500
C161	C16	0.281900	0.718100	0.048200
C171	C17	0.898500	0.745100	0.745100
C181	C18	0.951800	0.718100	0.718100
C191	C19	0.101500	0.745100	0.254900
C201	C20	0.048200	0.718100	0.281900
C211	C21	0.898500	0.254900	0.254900
C221	C22	0.951800	0.281900	0.281900
C231	C23	0.101500	0.254900	0.745100
C241	C24	0.048200	0.281900	0.718100
C251	C25	0.898500	0.745100	0.254900
C261	C26	0.951800	0.718100	0.281900
C271	C27	0.101500	0.254900	0.254900
C281	C28	0.048200	0.281900	0.281900
C291	C29	0.898500	0.254900	0.745100
C301	C30	0.951800	0.281900	0.718100
C311	C31	0.101500	0.745100	0.745100
C321	C32	0.048200	0.718100	0.718100
C331	C33	0.745100	0.745100	0.101500
C341	C34	0.718100	0.718100	0.048200
C351	C35	0.254900	0.745100	0.898500
C361	C36	0.281900	0.718100	0.951800
C371	C37	0.254900	0.254900	0.101500
C381	C38	0.281900	0.281900	0.048200
C391	C39	0.745100	0.254900	0.898500
C401	C40	0.718100	0.281900	0.951800
C411	C41	0.745100	0.898500	0.254900
C421	C42	0.718100	0.951800	0.281900
C431	C43	0.745100	0.101500	0.745100
C441	C44	0.718100	0.048200	0.718100
C451	C45	0.254900	0.898500	0.745100
C461	C46	0.281900	0.951800	0.718100
C471	C47	0.254900	0.101500	0.254900
C481	C48	0.281900	0.048200	0.281900
C491	C49	0.691700	0.000000	0.759800
C501	C50	0.626300	0.000000	0.767400
C511	C51	0.308300	0.000000	0.759800
C521	C52	0.373700	0.000000	0.767400
C531	C53	0.308300	0.000000	0.240200
C541	C54	0.373700	0.000000	0.232600
C551	C55	0.691700	0.000000	0.240200
C561	C56	0.626300	0.000000	0.232600
C571	C57	0.759800	0.691700	0.000000
C581	C58	0.767400	0.626300	0.000000
C591	C59	0.759800	0.308300	0.000000
C601	C60	0.767400	0.373700	0.000000
C611	C61	0.240200	0.308300	0.000000
C621	C62	0.232600	0.373700	0.000000
C631	C63	0.240200	0.691700	0.000000
C641	C64	0.232600	0.626300	0.000000
C651	C65	0.000000	0.759800	0.691700
C661	C66	0.000000	0.767400	0.626300
C671	C67	0.000000	0.759800	0.308300
C681	C68	0.000000	0.767400	0.373700
C691	C69	0.000000	0.240200	0.308300
C701	C70	0.000000	0.232600	0.373700
C711	C71	0.000000	0.240200	0.691700
C721	C72	0.000000	0.232600	0.626300
C731	C73	0.000000	0.691700	0.240200
C741	C74	0.000000	0.626300	0.232600
C751	C75	0.000000	0.308300	0.240200
C761	C76	0.000000	0.373700	0.232600
C771	C77	0.000000	0.308300	0.759800
C781	C78	0.000000	0.373700	0.767400
C791	C79	0.000000	0.691700	0.759800
C801	C80	0.000000	0.626300	0.767400
C811	C81	0.691700	0.759800	0.000000
C821	C82	0.626300	0.767400	0.000000
C831	C83	0.308300	0.759800	0.000000
C841	C84	0.373700	0.767400	0.000000
C851	C85	0.308300	0.240200	0.000000
C861	C86	0.373700	0.232600	0.000000
C871	C87	0.691700	0.240200	0.000000
C881	C88	0.626300	0.232600	0.000000
C891	C89	0.759800	0.000000	0.308300
C901	C90	0.767400	0.000000	0.373700
C911	C91	0.759800	0.000000	0.691700
C921	C92	0.767400	0.000000	0.626300
C931	C93	0.240200	0.000000	0.691700
C941	C94	0.232600	0.000000	0.626300
C951	C95	0.240200	0.000000	0.308300
C961	C96	0.232600	0.000000	0.373700
O11	O1	0.790300	0.876100	0.722300
O21	O2	0.598700	0.048000	0.758400
O31	O3	0.209700	0.123900	0.722300
O41	O4	0.401300	0.952000	0.758400
O51	O5	0.209700	0.876100	0.277700
O61	O6	0.401300	0.048000	0.241600
O71	O7	0.790300	0.123900	0.277700
O81	O8	0.598700	0.952000	0.241600
O91	O9	0.722300	0.790300	0.876100
O101	O10	0.758400	0.598700	0.048000
O111	O11	0.722300	0.209700	0.123900
O121	O12	0.758400	0.401300	0.952000
O131	O13	0.277700	0.209700	0.876100
O141	O14	0.241600	0.401300	0.048000
O151	O15	0.277700	0.790300	0.123900
O161	O16	0.241600	0.598700	0.952000
O171	O17	0.876100	0.722300	0.790300
O181	O18	0.048000	0.758400	0.598700
O191	O19	0.123900	0.722300	0.209700
O201	O20	0.952000	0.758400	0.401300
O211	O21	0.876100	0.277700	0.209700
O221	O22	0.048000	0.241600	0.401300
O231	O23	0.123900	0.277700	0.790300
O241	O24	0.952000	0.241600	0.598700
O251	O25	0.876100	0.790300	0.277700
O261	O26	0.048000	0.598700	0.241600
O271	O27	0.123900	0.209700	0.277700
O281	O28	0.952000	0.401300	0.241600
O291	O29	0.876100	0.209700	0.722300
O301	O30	0.048000	0.401300	0.758400
O311	O31	0.123900	0.790300	0.722300
O321	O32	0.952000	0.598700	0.758400
O331	O33	0.790300	0.722300	0.123900
O341	O34	0.598700	0.758400	0.952000
O351	O35	0.209700	0.722300	0.876100
O361	O36	0.401300	0.758400	0.048000
O371	O37	0.209700	0.277700	0.123900
O381	O38	0.401300	0.241600	0.952000
O391	O39	0.790300	0.277700	0.876100
O401	O40	0.598700	0.241600	0.048000
O411	O41	0.722300	0.876100	0.209700
O421	O42	0.758400	0.048000	0.401300
O431	O43	0.722300	0.123900	0.790300
O441	O44	0.758400	0.952000	0.598700
O451	O45	0.277700	0.876100	0.790300
O461	O46	0.241600	0.048000	0.598700
O471	O47	0.277700	0.123900	0.209700
O481	O48	0.241600	0.952000	0.401300
O491	O49	0.209700	0.123900	0.277700
O501	O50	0.401300	0.952000	0.241600
O511	O51	0.790300	0.876100	0.277700
O521	O52	0.598700	0.048000	0.241600
O531	O53	0.790300	0.123900	0.722300
O541	O54	0.598700	0.952000	0.758400
O551	O55	0.209700	0.876100	0.722300
O561	O56	0.401300	0.048000	0.758400
O571	O57	0.277700	0.209700	0.123900
O581	O58	0.241600	0.401300	0.952000
O591	O59	0.277700	0.790300	0.876100
O601	O60	0.241600	0.598700	0.048000
O611	O61	0.722300	0.790300	0.123900
O621	O62	0.758400	0.598700	0.952000
O631	O63	0.722300	0.209700	0.876100
O641	O64	0.758400	0.401300	0.048000
O651	O65	0.123900	0.277700	0.209700
O661	O66	0.952000	0.241600	0.401300
O671	O67	0.876100	0.277700	0.790300
O681	O68	0.048000	0.241600	0.598700
O691	O69	0.123900	0.722300	0.790300
O701	O70	0.952000	0.758400	0.598700
O711	O71	0.876100	0.722300	0.209700
O721	O72	0.048000	0.758400	0.401300
O731	O73	0.123900	0.209700	0.722300
O741	O74	0.952000	0.401300	0.758400
O751	O75	0.876100	0.790300	0.722300
O761	O76	0.048000	0.598700	0.758400
O771	O77	0.123900	0.790300	0.277700
O781	O78	0.952000	0.598700	0.241600
O791	O79	0.876100	0.209700	0.277700
O801	O80	0.048000	0.401300	0.241600
O811	O81	0.209700	0.277700	0.876100
O821	O82	0.401300	0.241600	0.048000
O831	O83	0.790300	0.277700	0.123900
O841	O84	0.598700	0.241600	0.952000
O851	O85	0.790300	0.722300	0.876100
O861	O86	0.598700	0.758400	0.048000
O871	O87	0.209700	0.722300	0.123900
O881	O88	0.401300	0.758400	0.952000
O891	O89	0.277700	0.123900	0.790300
O901	O90	0.241600	0.952000	0.598700
O911	O91	0.277700	0.876100	0.209700
O921	O92	0.241600	0.048000	0.401300
O931	O93	0.722300	0.123900	0.209700
O941	O94	0.758400	0.952000	0.401300
O951	O95	0.722300	0.876100	0.790300
O961	O96	0.758400	0.048000	0.598700
O971	O97	0.751500	0.751500	0.751500
O981	O98	0.842300	0.842300	0.842300
O991	O99	0.248500	0.248500	0.751500
O1001	O100	0.157700	0.157700	0.842300
O1011	O101	0.248500	0.751500	0.248500
O1021	O102	0.157700	0.842300	0.157700
O1031	O103	0.751500	0.248500	0.248500
O1041	O104	0.842300	0.157700	0.157700
O1051	O105	0.751500	0.751500	0.248500
O1061	O106	0.842300	0.842300	0.157700
O1071	O107	0.248500	0.248500	0.248500
O1081	O108	0.157700	0.157700	0.157700
O1091	O109	0.751500	0.248500	0.751500
O1101	O110	0.842300	0.157700	0.842300
O1111	O111	0.248500	0.751500	0.751500
O1121	O112	0.157700	0.842300	0.842300
O1131	O113	0.500000	0.034500	0.842900
O1141	O114	0.500000	0.974200	0.698900
O1151	O115	0.500000	0.102400	0.723700
O1161	O116	0.500000	0.965500	0.842900
O1171	O117	0.500000	0.025800	0.698900
O1181	O118	0.500000	0.897600	0.723700
O1191	O119	0.500000	0.034500	0.157100
O1201	O120	0.500000	0.974200	0.301100
O1211	O121	0.500000	0.102400	0.276300
O1221	O122	0.500000	0.965500	0.157100
O1231	O123	0.500000	0.025800	0.301100
O1241	O124	0.500000	0.897600	0.276300
O1251	O125	0.842900	0.500000	0.034500
O1261	O126	0.698900	0.500000	0.974200
O1271	O127	0.723700	0.500000	0.102400
O1281	O128	0.842900	0.500000	0.965500
O1291	O129	0.698900	0.500000	0.025800
O1301	O130	0.723700	0.500000	0.897600
O1311	O131	0.157100	0.500000	0.034500
O1321	O132	0.301100	0.500000	0.974200
O1331	O133	0.276300	0.500000	0.102400
O1341	O134	0.157100	0.500000	0.965500
O1351	O135	0.301100	0.500000	0.025800
O1361	O136	0.276300	0.500000	0.897600
O1371	O137	0.034500	0.842900	0.500000
O1381	O138	0.974200	0.698900	0.500000
O1391	O139	0.102400	0.723700	0.500000
O1401	O140	0.965500	0.842900	0.500000
O1411	O141	0.025800	0.698900	0.500000
O1421	O142	0.897600	0.723700	0.500000
O1431	O143	0.034500	0.157100	0.500000
O1441	O144	0.974200	0.301100	0.500000
O1451	O145	0.102400	0.276300	0.500000
O1461	O146	0.965500	0.157100	0.500000
O1471	O147	0.025800	0.301100	0.500000
O1481	O148	0.897600	0.276300	0.500000
O1491	O149	0.034500	0.500000	0.157100
O1501	O150	0.974200	0.500000	0.301100
O1511	O151	0.102400	0.500000	0.276300
O1521	O152	0.965500	0.500000	0.157100
O1531	O153	0.025800	0.500000	0.301100
O1541	O154	0.897600	0.500000	0.276300
O1551	O155	0.034500	0.500000	0.842900
O1561	O156	0.974200	0.500000	0.698900
O1571	O157	0.102400	0.500000	0.723700
O1581	O158	0.965500	0.500000	0.842900
O1591	O159	0.025800	0.500000	0.698900
O1601	O160	0.897600	0.500000	0.723700
O1611	O161	0.500000	0.842900	0.965500
O1621	O162	0.500000	0.698900	0.025800
O1631	O163	0.500000	0.723700	0.897600
O1641	O164	0.500000	0.842900	0.034500
O1651	O165	0.500000	0.698900	0.974200
O1661	O166	0.500000	0.723700	0.102400
O1671	O167	0.500000	0.157100	0.965500
O1681	O168	0.500000	0.301100	0.025800
O1691	O169	0.500000	0.276300	0.897600
O1701	O170	0.500000	0.157100	0.034500
O1711	O171	0.500000	0.301100	0.974200
O1721	O172	0.500000	0.276300	0.102400
O1731	O173	0.842900	0.034500	0.500000
O1741	O174	0.698900	0.974200	0.500000
O1751	O175	0.723700	0.102400	0.500000
O1761	O176	0.842900	0.965500	0.500000
O1771	O177	0.698900	0.025800	0.500000
O1781	O178	0.723700	0.897600	0.500000
O1791	O179	0.157100	0.034500	0.500000
O1801	O180	0.301100	0.974200	0.500000
O1811	O181	0.276300	0.102400	0.500000
O1821	O182	0.157100	0.965500	0.500000
O1831	O183	0.301100	0.025800	0.500000
O1841	O184	0.276300	0.897600	0.500000
