data_GOKBUE_freeONLY_PM
_symmetry_space_group_name_H-M	'P1'
_cell_length_a	9.732000
_cell_length_b	10.596000
_cell_length_c	12.592000
_cell_angle_alpha	111.370000
_cell_angle_beta	106.050000
_cell_angle_gamma	96.360000
_symmetry_Int_Tables_number 1

loop_
_symmetry_equiv_pos_as_xyz
'x,y,z'

loop_
_atom_site_label
_atom_site_type_symbol
_atom_site_fract_x
_atom_site_fract_y
_atom_site_fract_z
Cu11	Cu1	0.643870	0.992880	0.595660
Cu21	Cu2	0.933020	0.109310	0.587790
Cu31	Cu3	0.757850	0.793970	0.414540
Cu41	Cu4	0.340290	0.893400	0.605890
Cu51	Cu5	0.356130	0.007120	0.404340
Cu61	Cu6	0.066980	0.890690	0.412210
Cu71	Cu7	0.242150	0.206030	0.585460
Cu81	Cu8	0.659710	0.106600	0.394110
H11	H1	0.640000	0.487000	0.043300
H21	H2	0.597400	0.600600	0.997300
H31	H3	0.124100	0.441900	0.498300
H41	H4	0.994600	0.417900	0.380800
H51	H5	0.365800	0.009600	0.017100
H61	H6	0.480100	0.134900	0.029800
H71	H7	0.379400	0.560100	0.497200
H81	H8	0.508600	0.589400	0.615900
H91	H9	0.848900	0.891000	0.629300
H101	H10	0.165500	0.047700	0.675300
H111	H11	0.701200	0.197300	0.598200
H121	H12	0.484600	0.127100	0.668800
H131	H13	0.360000	0.513000	0.956700
H141	H14	0.402600	0.399400	0.002700
H151	H15	0.875900	0.558100	0.501700
H161	H16	0.005400	0.582100	0.619200
H171	H17	0.634200	0.990400	0.982900
H181	H18	0.519900	0.865100	0.970200
H191	H19	0.620600	0.439900	0.502800
H201	H20	0.491400	0.410600	0.384100
H211	H21	0.151100	0.109000	0.370700
H221	H22	0.834500	0.952300	0.324700
H231	H23	0.298800	0.802700	0.401800
H241	H24	0.515400	0.872900	0.331200
C11	C1	0.584100	0.641900	0.165100
C21	C2	0.569600	0.544400	0.037300
C31	C3	0.935400	0.309900	0.474300
C41	C4	0.019200	0.433300	0.465300
C51	C5	0.365600	0.003200	0.853300
C61	C6	0.440300	0.034900	0.986000
C71	C7	0.565500	0.688300	0.517700
C81	C8	0.484200	0.568100	0.530200
C91	C9	0.415900	0.358100	0.834900
C101	C10	0.430400	0.455600	0.962700
C111	C11	0.064600	0.690100	0.525700
C121	C12	0.980800	0.566700	0.534700
C131	C13	0.634400	0.996800	0.146700
C141	C14	0.559700	0.965100	0.014000
C151	C15	0.434500	0.311700	0.482300
C161	C16	0.515800	0.431900	0.469800
O11	O1	0.703500	0.658100	0.246900
O21	O2	0.482200	0.699500	0.181500
O31	O3	0.005200	0.262800	0.545300
O41	O4	0.800700	0.266100	0.411100
O51	O5	0.247400	0.037000	0.824800
O61	O6	0.427200	0.942600	0.779500
O71	O7	0.643400	0.663800	0.451600
O81	O8	0.546400	0.806600	0.575300
O91	O9	0.825200	0.935800	0.584000
O101	O10	0.125400	0.068800	0.613300
O111	O11	0.740200	0.150800	0.569500
O121	O12	0.468400	0.054500	0.615300
O131	O13	0.296500	0.341900	0.753100
O141	O14	0.517800	0.300500	0.818500
O151	O15	0.994800	0.737200	0.454700
O161	O16	0.199300	0.733900	0.588900
O171	O17	0.752600	0.963000	0.175200
O181	O18	0.572800	0.057400	0.220500
O191	O19	0.356600	0.336200	0.548400
O201	O20	0.453600	0.193400	0.424700
O211	O21	0.174800	0.064200	0.416000
O221	O22	0.874600	0.931200	0.386700
O231	O23	0.259800	0.849200	0.430500
O241	O24	0.531600	0.945500	0.384700
