data_GOLQII_freeONLY_PM
_symmetry_space_group_name_H-M	'P1'
_cell_length_a	9.205000
_cell_length_b	9.744100
_cell_length_c	22.401500
_cell_angle_alpha	90.000000
_cell_angle_beta	90.000000
_cell_angle_gamma	116.992000
_symmetry_Int_Tables_number 1

loop_
_symmetry_equiv_pos_as_xyz
'x,y,z'

loop_
_atom_site_label
_atom_site_type_symbol
_atom_site_fract_x
_atom_site_fract_y
_atom_site_fract_z
Nd11	Nd1	0.382890	0.141730	0.008870
Nd21	Nd2	0.117110	0.858270	0.508870
Nd31	Nd3	0.617110	0.858270	0.991130
Nd41	Nd4	0.882890	0.141730	0.491130
Ag11	Ag1	0.981220	0.821120	0.852630
Ag21	Ag2	0.518780	0.178880	0.352630
Ag31	Ag3	0.018780	0.178880	0.147370
Ag41	Ag4	0.481220	0.821120	0.647370
H11	H1	0.817200	0.528600	0.932900
H21	H2	0.219400	0.680400	0.840300
H31	H3	0.259700	0.474500	0.869000
H41	H4	0.063300	0.283800	0.926400
H51	H5	0.008700	0.858600	0.719600
H61	H6	0.886900	0.093500	0.831300
H71	H7	0.854500	0.234200	0.755900
H81	H8	0.898300	0.184400	0.658100
H91	H9	0.682800	0.471400	0.432900
H101	H10	0.280600	0.319600	0.340300
H111	H11	0.240300	0.525500	0.369000
H121	H12	0.436700	0.716200	0.426400
H131	H13	0.491300	0.141400	0.219600
H141	H14	0.613100	0.906500	0.331300
H151	H15	0.645500	0.765800	0.255900
H161	H16	0.601700	0.815600	0.158100
H171	H17	0.182800	0.471400	0.067100
H181	H18	0.780600	0.319600	0.159700
H191	H19	0.740300	0.525500	0.131000
H201	H20	0.936700	0.716200	0.073600
H211	H21	0.991300	0.141400	0.280400
H221	H22	0.113100	0.906500	0.168700
H231	H23	0.145500	0.765800	0.244100
H241	H24	0.101700	0.815600	0.341900
H251	H25	0.317200	0.528600	0.567100
H261	H26	0.719400	0.680400	0.659700
H271	H27	0.759700	0.474500	0.631000
H281	H28	0.563300	0.283800	0.573600
H291	H29	0.508700	0.858600	0.780400
H301	H30	0.386900	0.093500	0.668700
H311	H31	0.354500	0.234200	0.744100
H321	H32	0.398300	0.184400	0.841900
C11	C1	0.917100	0.385800	0.935400
C21	C2	0.905500	0.515900	0.919100
C31	C3	0.143400	0.606500	0.865300
C41	C4	0.167300	0.482400	0.881300
C51	C5	0.051500	0.370600	0.915900
C61	C6	0.783200	0.260000	0.971200
C71	C7	0.959900	0.014600	0.678400
C81	C8	0.977600	0.935500	0.726700
C91	C9	0.906200	0.073500	0.792300
C101	C10	0.885800	0.158000	0.747400
C111	C11	0.912200	0.128800	0.689500
C121	C12	0.994200	0.974300	0.617100
C131	C13	0.002900	0.979300	0.967100
C141	C14	0.509000	0.507600	0.034900
C151	C15	0.582900	0.614200	0.435400
C161	C16	0.594500	0.484100	0.419100
C171	C17	0.356600	0.393500	0.365300
C181	C18	0.332700	0.517600	0.381300
C191	C19	0.448500	0.629400	0.415900
C201	C20	0.716800	0.740000	0.471200
C211	C21	0.540100	0.985400	0.178400
C221	C22	0.522400	0.064500	0.226700
C231	C23	0.593800	0.926500	0.292300
C241	C24	0.614200	0.842000	0.247400
C251	C25	0.587800	0.871200	0.189500
C261	C26	0.505800	0.025700	0.117100
C271	C27	0.497100	0.020700	0.467100
C281	C28	0.991000	0.492400	0.534900
C291	C29	0.082900	0.614200	0.064600
C301	C30	0.094500	0.484100	0.080900
C311	C31	0.856600	0.393500	0.134700
C321	C32	0.832700	0.517600	0.118700
C331	C33	0.948500	0.629400	0.084100
C341	C34	0.216800	0.740000	0.028800
C351	C35	0.040100	0.985400	0.321600
C361	C36	0.022400	0.064500	0.273300
C371	C37	0.093800	0.926500	0.207700
C381	C38	0.114200	0.842000	0.252600
C391	C39	0.087800	0.871200	0.310500
C401	C40	0.005800	0.025700	0.382900
C411	C41	0.997100	0.020700	0.032900
C421	C42	0.491000	0.492400	0.965100
C431	C43	0.417100	0.385800	0.564600
C441	C44	0.405500	0.515900	0.580900
C451	C45	0.643400	0.606500	0.634700
C461	C46	0.667300	0.482400	0.618700
C471	C47	0.551500	0.370600	0.584100
C481	C48	0.283200	0.260000	0.528800
C491	C49	0.459900	0.014600	0.821600
C501	C50	0.477600	0.935500	0.773300
C511	C51	0.406200	0.073500	0.707700
C521	C52	0.385800	0.158000	0.752600
C531	C53	0.412200	0.128800	0.810500
C541	C54	0.494200	0.974300	0.882900
C551	C55	0.502900	0.979300	0.532900
C561	C56	0.009000	0.507600	0.465100
N11	N1	0.015600	0.626400	0.883900
N21	N2	0.952600	0.963600	0.783200
N31	N3	0.484400	0.373600	0.383900
N41	N4	0.547400	0.036400	0.283200
N51	N5	0.984400	0.373600	0.116100
N61	N6	0.047400	0.036400	0.216800
N71	N7	0.515600	0.626400	0.616100
N81	N8	0.452600	0.963600	0.716800
O11	O1	0.677900	0.291400	0.995270
O21	O2	0.787100	0.133700	0.972720
O31	O3	0.059100	0.886600	0.613620
O41	O4	0.957100	0.028200	0.572480
O51	O5	0.870400	0.883100	0.944540
O61	O6	0.137000	0.040100	0.941040
O71	O7	0.449700	0.385300	0.063860
O81	O8	0.578800	0.641600	0.055260
O91	O9	0.822100	0.708600	0.495270
O101	O10	0.712900	0.866300	0.472720
O111	O11	0.440900	0.113400	0.113620
O121	O12	0.542900	0.971800	0.072480
O131	O13	0.629600	0.116900	0.444540
O141	O14	0.363000	0.959900	0.441040
O151	O15	0.050300	0.614700	0.563860
O161	O16	0.921200	0.358400	0.555260
O171	O17	0.322100	0.708600	0.004730
O181	O18	0.212900	0.866300	0.027280
O191	O19	0.940900	0.113400	0.386380
O201	O20	0.042900	0.971800	0.427520
O211	O21	0.129600	0.116900	0.055460
O221	O22	0.863000	0.959900	0.058960
O231	O23	0.550300	0.614700	0.936140
O241	O24	0.421200	0.358400	0.944740
O251	O25	0.177900	0.291400	0.504730
O261	O26	0.287100	0.133700	0.527280
O271	O27	0.559100	0.886600	0.886380
O281	O28	0.457100	0.028200	0.927520
O291	O29	0.370400	0.883100	0.555460
O301	O30	0.637000	0.040100	0.558960
O311	O31	0.949700	0.385300	0.436140
O321	O32	0.078800	0.641600	0.444740
