data_GOQTIR_freeONLY_PM
_symmetry_space_group_name_H-M	'P1'
_cell_length_a	8.717300
_cell_length_b	19.428800
_cell_length_c	9.655800
_cell_angle_alpha	90.000000
_cell_angle_beta	97.170000
_cell_angle_gamma	90.000000
_symmetry_Int_Tables_number 1

loop_
_symmetry_equiv_pos_as_xyz
'x,y,z'

loop_
_atom_site_label
_atom_site_type_symbol
_atom_site_fract_x
_atom_site_fract_y
_atom_site_fract_z
C11	C1	0.041300	0.930300	0.522800
C21	C2	0.906200	0.955600	0.571400
C31	C3	0.868900	0.025100	0.547300
H11	H1	0.778500	0.042700	0.580200
C41	C4	0.102900	0.858000	0.549700
C51	C5	0.570200	0.843800	0.770300
C61	C6	0.612700	0.820900	0.643000
H21	H2	0.563900	0.781600	0.598800
C71	C7	0.724600	0.855200	0.581300
H31	H3	0.753400	0.838600	0.495600
C81	C8	0.797100	0.914300	0.643000
C91	C9	0.754000	0.936600	0.769100
H41	H4	0.800500	0.976700	0.812400
C101	C10	0.642700	0.900800	0.833300
H51	H5	0.616900	0.915900	0.921100
C111	C11	0.451400	0.804500	0.840500
Cd11	Cd1	0.248100	0.730260	0.558940
O11	O1	0.199000	0.836600	0.471000
O21	O2	0.061900	0.821700	0.644900
O31	O3	0.435500	0.822100	0.963900
O41	O4	0.375700	0.757700	0.775300
O51	O5	0.214100	0.637300	0.693000
H61	H6	0.127000	0.622000	0.668000
H71	H7	0.217000	0.650000	0.774000
O61	O6	0.030700	0.687600	0.422000
H81	H8	0.989000	0.657000	0.459000
H91	H9	0.049000	0.675000	0.346000
C121	C12	0.958700	0.430300	0.977200
C131	C13	0.093800	0.455600	0.928600
C141	C14	0.131100	0.525100	0.952700
H101	H10	0.221500	0.542700	0.919800
C151	C15	0.897100	0.358000	0.950300
C161	C16	0.429800	0.343800	0.729700
C171	C17	0.387300	0.320900	0.857000
H111	H11	0.436100	0.281600	0.901200
C181	C18	0.275400	0.355200	0.918700
H121	H12	0.246600	0.338600	0.004400
C191	C19	0.202900	0.414300	0.857000
C201	C20	0.246000	0.436600	0.730900
H131	H13	0.199500	0.476700	0.687600
C211	C21	0.357300	0.400800	0.666700
H141	H14	0.383100	0.415900	0.578900
C221	C22	0.548600	0.304500	0.659500
Cd21	Cd2	0.751900	0.230260	0.941060
O71	O7	0.801000	0.336600	0.029000
O81	O8	0.938100	0.321700	0.855100
O91	O9	0.564500	0.322100	0.536100
O101	O10	0.624300	0.257700	0.724700
O111	O11	0.785900	0.137300	0.807000
H151	H15	0.873000	0.122000	0.832000
H161	H16	0.783000	0.150000	0.726000
O121	O12	0.969300	0.187600	0.078000
H171	H17	0.011000	0.157000	0.041000
H181	H18	0.951000	0.175000	0.154000
C231	C23	0.958700	0.069700	0.477200
C241	C24	0.093800	0.044400	0.428600
C251	C25	0.131100	0.974900	0.452700
H191	H19	0.221500	0.957300	0.419800
C261	C26	0.897100	0.142000	0.450300
C271	C27	0.429800	0.156200	0.229700
C281	C28	0.387300	0.179100	0.357000
H201	H20	0.436100	0.218400	0.401200
C291	C29	0.275400	0.144800	0.418700
H211	H21	0.246600	0.161400	0.504400
C301	C30	0.202900	0.085700	0.357000
C311	C31	0.246000	0.063400	0.230900
H221	H22	0.199500	0.023300	0.187600
C321	C32	0.357300	0.099200	0.166700
H231	H23	0.383100	0.084100	0.078900
C331	C33	0.548600	0.195500	0.159500
Cd31	Cd3	0.751900	0.269740	0.441060
O131	O13	0.801000	0.163400	0.529000
O141	O14	0.938100	0.178300	0.355100
O151	O15	0.564500	0.177900	0.036100
O161	O16	0.624300	0.242300	0.224700
O171	O17	0.785900	0.362700	0.307000
H241	H24	0.873000	0.378000	0.332000
H251	H25	0.783000	0.350000	0.226000
O181	O18	0.969300	0.312400	0.578000
H261	H26	0.011000	0.343000	0.541000
H271	H27	0.951000	0.325000	0.654000
C341	C34	0.041300	0.569700	0.022800
C351	C35	0.906200	0.544400	0.071400
C361	C36	0.868900	0.474900	0.047300
H281	H28	0.778500	0.457300	0.080200
C371	C37	0.102900	0.642000	0.049700
C381	C38	0.570200	0.656200	0.270300
C391	C39	0.612700	0.679100	0.143000
H291	H29	0.563900	0.718400	0.098800
C401	C40	0.724600	0.644800	0.081300
H301	H30	0.753400	0.661400	0.995600
C411	C41	0.797100	0.585700	0.143000
C421	C42	0.754000	0.563400	0.269100
H311	H31	0.800500	0.523300	0.312400
C431	C43	0.642700	0.599200	0.333300
H321	H32	0.616900	0.584100	0.421100
C441	C44	0.451400	0.695500	0.340500
Cd41	Cd4	0.248100	0.769740	0.058940
O191	O19	0.199000	0.663400	0.971000
O201	O20	0.061900	0.678300	0.144900
O211	O21	0.435500	0.677900	0.463900
O221	O22	0.375700	0.742300	0.275300
O231	O23	0.214100	0.862700	0.193000
H331	H33	0.127000	0.878000	0.168000
H341	H34	0.217000	0.850000	0.274000
O241	O24	0.030700	0.812400	0.922000
H351	H35	0.989000	0.843000	0.959000
H361	H36	0.049000	0.825000	0.846000
