data_GOQXAN_freeONLY_PM
_symmetry_space_group_name_H-M	'P1'
_cell_length_a	6.198300
_cell_length_b	15.007000
_cell_length_c	16.531700
_cell_angle_alpha	90.000000
_cell_angle_beta	90.000000
_cell_angle_gamma	90.000000
_symmetry_Int_Tables_number 1

loop_
_symmetry_equiv_pos_as_xyz
'x,y,z'

loop_
_atom_site_label
_atom_site_type_symbol
_atom_site_fract_x
_atom_site_fract_y
_atom_site_fract_z
Cd11	Cd1	0.592730	0.291660	0.355350
Cd21	Cd2	0.407270	0.791660	0.144650
Cd31	Cd3	0.907270	0.708340	0.855350
Cd41	Cd4	0.092730	0.208340	0.644650
H11	H1	0.673500	0.229300	0.882400
H21	H2	0.636800	0.108100	0.252300
H31	H3	0.464600	0.298700	0.680500
H41	H4	0.826500	0.770700	0.382400
H51	H5	0.092700	0.026100	0.745400
H61	H6	0.592700	0.473900	0.254600
H71	H7	0.619400	0.132900	0.851900
H81	H8	0.413000	0.156000	0.453100
H91	H9	0.097900	0.473300	0.626500
H101	H10	0.044500	0.387100	0.397000
H111	H11	0.118600	0.452200	0.533800
H121	H12	0.803200	0.591400	0.212000
H131	H13	0.999800	0.284700	0.185300
H141	H14	0.326500	0.729300	0.617600
H151	H15	0.381400	0.547800	0.033800
H161	H16	0.173500	0.270700	0.117600
H171	H17	0.881400	0.952200	0.966200
H181	H18	0.535400	0.798700	0.819500
H191	H19	0.548200	0.924800	0.890600
H201	H20	0.696800	0.408600	0.712000
H211	H21	0.500200	0.715300	0.685300
H221	H22	0.597900	0.026700	0.373500
H231	H23	0.000200	0.784700	0.314700
H241	H24	0.880600	0.867100	0.351900
H251	H25	0.218900	0.676800	0.293700
H261	H26	0.964600	0.201300	0.319500
H271	H27	0.774000	0.002100	0.645200
H281	H28	0.402100	0.526700	0.126500
H291	H29	0.136800	0.391900	0.747700
H301	H30	0.281100	0.323200	0.793700
H311	H31	0.718900	0.823200	0.706300
H321	H32	0.407300	0.973900	0.245400
H331	H33	0.274000	0.497900	0.354800
H341	H34	0.196800	0.091400	0.288000
H351	H35	0.303200	0.908600	0.788000
H361	H36	0.087000	0.844000	0.953100
H371	H37	0.035400	0.701300	0.180500
H381	H38	0.951800	0.075200	0.390600
H391	H39	0.913000	0.344000	0.546900
H401	H40	0.587000	0.656000	0.046900
H411	H41	0.726000	0.997900	0.145200
H421	H42	0.902100	0.973300	0.873500
H431	H43	0.048200	0.575200	0.109400
H441	H44	0.380600	0.632900	0.648100
H451	H45	0.781100	0.176800	0.206300
H461	H46	0.455500	0.612900	0.897000
H471	H47	0.955500	0.887100	0.103000
H481	H48	0.119400	0.367100	0.148100
H491	H49	0.226000	0.502100	0.854800
H501	H50	0.451800	0.424800	0.609400
H511	H51	0.499800	0.215300	0.814700
H521	H52	0.544500	0.112900	0.603000
H531	H53	0.363200	0.608100	0.247700
H541	H54	0.618600	0.047800	0.466200
H551	H55	0.863200	0.891900	0.752300
H561	H56	0.907300	0.526100	0.754600
C11	C1	0.731600	0.479200	0.275300
C21	C2	0.118400	0.425800	0.587400
C31	C3	0.003400	0.927500	0.141700
C41	C4	0.890100	0.178700	0.472200
C51	C5	0.718100	0.867900	0.748700
C61	C6	0.193800	0.702000	0.727200
C71	C7	0.865700	0.805800	0.336200
C81	C8	0.881600	0.925800	0.912600
C91	C9	0.660700	0.879500	0.897000
C101	C10	0.635300	0.005300	0.666500
C111	C11	0.496600	0.072500	0.641700
C121	C12	0.642100	0.450100	0.748400
C131	C13	0.381600	0.574200	0.087400
C141	C14	0.432000	0.442900	0.777300
C151	C15	0.142100	0.049900	0.251600
C161	C16	0.357900	0.950100	0.751600
C171	C17	0.932000	0.057100	0.222700
C181	C18	0.068000	0.557100	0.277300
C191	C19	0.568000	0.942900	0.722700
C201	C20	0.864700	0.994700	0.166500
C211	C21	0.339300	0.379500	0.603000
C221	C22	0.364700	0.505300	0.833500
C231	C23	0.306200	0.298000	0.227200
C241	C24	0.857900	0.549900	0.248400
C251	C25	0.134300	0.305800	0.163800
C261	C26	0.135300	0.494700	0.333500
C271	C27	0.268400	0.979200	0.224700
C281	C28	0.218100	0.632100	0.251300
C291	C29	0.109900	0.678700	0.027800
C301	C30	0.618400	0.074200	0.412600
C311	C31	0.231600	0.020800	0.724700
C321	C32	0.281900	0.367900	0.751300
C331	C33	0.365700	0.694200	0.663800
C341	C34	0.390100	0.321300	0.527800
C351	C35	0.996600	0.427500	0.358300
C361	C36	0.160700	0.620500	0.103000
C371	C37	0.609900	0.821300	0.972200
C381	C38	0.634300	0.194200	0.836200
C391	C39	0.839300	0.120500	0.397000
C401	C40	0.806200	0.202000	0.772800
C411	C41	0.503400	0.572500	0.858300
C421	C42	0.768400	0.520800	0.775300
C431	C43	0.693800	0.798000	0.272800
C441	C44	0.781900	0.132100	0.248700
N11	N1	0.798000	0.418400	0.329000
N21	N2	0.702000	0.581600	0.829000
N31	N3	0.668300	0.823700	0.825100
N41	N4	0.298000	0.081600	0.671000
N51	N5	0.331700	0.323700	0.674900
N61	N6	0.168300	0.676300	0.174900
N71	N7	0.831700	0.176300	0.325100
N81	N8	0.202000	0.918400	0.171000
O11	O1	0.139800	0.760500	0.034700
O21	O2	0.053800	0.864200	0.906500
O31	O3	0.256600	0.270600	0.296300
O41	O4	0.243400	0.729400	0.796300
O51	O5	0.449800	0.361100	0.465300
O61	O6	0.756600	0.229400	0.703700
O71	O7	0.446200	0.135800	0.406500
O81	O8	0.994800	0.179100	0.787700
O91	O9	0.639800	0.739500	0.965300
O101	O10	0.550200	0.861100	0.034700
O111	O11	0.553800	0.635800	0.093500
O121	O12	0.360200	0.239500	0.534700
O131	O13	0.949800	0.138900	0.534700
O141	O14	0.050200	0.638900	0.965300
O151	O15	0.005200	0.679100	0.712300
O161	O16	0.494800	0.320900	0.212300
O171	O17	0.505200	0.820900	0.287700
O181	O18	0.946200	0.364200	0.593500
O191	O19	0.743400	0.770600	0.203700
O201	O20	0.860200	0.260500	0.465300
