data_GOSBIB_freeONLY_PM
_symmetry_space_group_name_H-M	'P1'
_cell_length_a	14.787100
_cell_length_b	25.536000
_cell_length_c	29.643200
_cell_angle_alpha	90.000000
_cell_angle_beta	115.616000
_cell_angle_gamma	90.000000
_symmetry_Int_Tables_number 1

loop_
_symmetry_equiv_pos_as_xyz
'x,y,z'

loop_
_atom_site_label
_atom_site_type_symbol
_atom_site_fract_x
_atom_site_fract_y
_atom_site_fract_z
W11	W1	0.259000	0.662340	0.423910
W21	W2	0.294850	0.767030	0.499670
W31	W3	0.219290	0.783870	0.375410
W41	W4	0.432260	0.635600	0.366320
W51	W5	0.518360	0.618840	0.502150
W61	W6	0.555730	0.722930	0.577710
W71	W7	0.510960	0.854690	0.523750
W81	W8	0.434290	0.871890	0.400220
W91	W9	0.393550	0.757080	0.318350
W101	W10	0.701470	0.643410	0.386790
W111	W11	0.786900	0.626940	0.522200
W121	W12	0.821990	0.731640	0.595790
W131	W13	0.776810	0.863950	0.541190
W141	W14	0.700350	0.878760	0.417360
W151	W15	0.662080	0.764000	0.336630
W161	W16	0.960970	0.682150	0.474350
W171	W17	0.996480	0.787370	0.549240
W181	W18	0.920020	0.803060	0.424890
P11	P1	0.466800	0.743270	0.447140
P21	P2	0.748400	0.750970	0.467400
Cu11	Cu1	0.004440	0.718100	0.744190
Cu21	Cu2	0.186960	0.522870	0.438570
C11	C1	0.938800	0.778800	0.814600
H11	H1	0.989300	0.765700	0.843900
C21	C2	0.839500	0.788700	0.738600
H21	H2	0.807400	0.785400	0.704000
C31	C3	0.733200	0.861500	0.747300
H31	H3	0.724100	0.876200	0.775200
H41	H4	0.670400	0.845600	0.724500
C41	C4	0.761700	0.905600	0.720000
C51	C5	0.859400	0.925100	0.739400
H51	H5	0.908600	0.911600	0.768900
C61	C6	0.882400	0.965000	0.713900
C71	C7	0.810100	0.984000	0.670200
H61	H6	0.825300	0.011000	0.653500
C81	C8	0.714600	0.963400	0.650700
H71	H7	0.666300	0.976300	0.620600
C91	C9	0.688800	0.923500	0.675200
H81	H8	0.624400	0.909400	0.661700
C101	C10	0.987700	0.984800	0.732800
H91	H9	0.988500	0.015700	0.713900
H101	H10	0.029000	0.958300	0.727400
C111	C11	0.042100	0.036800	0.851200
H111	H11	0.032000	0.060400	0.872500
C121	C12	0.100000	0.973900	0.826400
H121	H12	0.136100	0.944600	0.825000
C131	C13	0.154900	0.637000	0.751500
H131	H13	0.172100	0.631700	0.785200
C141	C14	0.091600	0.665000	0.677600
H141	H14	0.053400	0.685200	0.649800
C151	C15	0.254900	0.562700	0.737900
H151	H15	0.215600	0.533000	0.719300
H161	H16	0.276800	0.555500	0.773200
C161	C16	0.344400	0.568400	0.727700
C171	C17	0.350000	0.541800	0.689100
H171	H17	0.297700	0.520000	0.668900
C181	C18	0.436200	0.547600	0.679900
C191	C19	0.514600	0.577700	0.711700
H181	H18	0.571500	0.581200	0.706100
C201	C20	0.510300	0.602500	0.751600
H191	H19	0.564900	0.622200	0.772900
C211	C21	0.427200	0.599000	0.760900
H201	H20	0.425000	0.616100	0.788000
C221	C22	0.442500	0.518300	0.637300
H211	H21	0.508700	0.522900	0.638600
H221	H22	0.432400	0.481200	0.640600
C231	C23	0.326700	0.510600	0.545900
H231	H23	0.341100	0.475900	0.542100
C241	C24	0.267500	0.588000	0.533400
H241	H24	0.231000	0.617500	0.517300
C251	C25	0.095400	0.139600	0.717400
H251	H25	0.060900	0.152200	0.685000
C261	C26	0.146400	0.126200	0.793600
H261	H26	0.154200	0.128800	0.826400
C271	C27	0.209000	0.077500	0.700000
H271	H27	0.280400	0.072300	0.719800
H281	H28	0.200300	0.100100	0.672100
C281	C28	0.159600	0.024400	0.679700
C291	C29	0.068500	0.023500	0.639500
H291	H29	0.037500	0.054700	0.624700
C301	C30	0.022300	0.976600	0.620900
H301	H30	0.959500	0.976400	0.593600
C311	C31	0.066700	0.929800	0.641600
H311	H31	0.033900	0.898400	0.628800
C321	C32	0.160600	0.929800	0.681700
C331	C33	0.206100	0.977300	0.702000
H321	H32	0.267200	0.977800	0.730300
C341	C34	0.213300	0.879800	0.704200
H331	H33	0.223700	0.859800	0.679000
H341	H34	0.278500	0.887700	0.731000
C351	C35	0.124200	0.799000	0.714200
H351	H35	0.131900	0.777700	0.690600
C361	C36	0.086200	0.829500	0.769500
H361	H36	0.059500	0.832000	0.792600
N11	N1	0.920300	0.761000	0.769100
N21	N2	0.812300	0.821500	0.765600
N31	N3	0.877400	0.817300	0.813700
N41	N4	0.110400	0.997600	0.868000
N51	N5	0.030400	0.998000	0.786500
N61	N6	0.991500	0.038700	0.802700
N71	N7	0.091500	0.672400	0.723100
N81	N8	0.190800	0.609800	0.724300
N91	N9	0.149300	0.627400	0.676400
N101	N10	0.263500	0.541500	0.509600
N111	N11	0.365400	0.537400	0.588300
N121	N12	0.327600	0.586500	0.580800
N131	N13	0.079900	0.154900	0.756200
N141	N14	0.166500	0.103900	0.731400
N151	N15	0.199400	0.094000	0.780200
N161	N16	0.079400	0.784500	0.743200
N171	N17	0.132200	0.868600	0.760300
N181	N18	0.155400	0.847800	0.724100
O11	O1	0.353700	0.740000	0.438900
O21	O2	0.527800	0.710000	0.493100
O31	O3	0.497400	0.801300	0.456400
O41	O4	0.468700	0.721800	0.399800
O51	O5	0.861900	0.754300	0.475800
O61	O6	0.748600	0.716700	0.508500
O71	O7	0.715200	0.806700	0.471300
O81	O8	0.688100	0.727500	0.415600
O91	O9	0.238300	0.700600	0.475200
O101	O10	0.175200	0.713100	0.378200
O111	O11	0.317200	0.646400	0.379900
O121	O12	0.378600	0.635400	0.475500
O131	O13	0.177800	0.610900	0.413600
O141	O14	0.205000	0.795800	0.436300
O151	O15	0.381800	0.825800	0.508100
O161	O16	0.413600	0.733600	0.547000
O171	O17	0.238000	0.783600	0.535800
O181	O18	0.305600	0.841900	0.390500
O191	O19	0.280000	0.759900	0.335000
O201	O20	0.108300	0.809500	0.330800
O211	O21	0.498900	0.615100	0.435100
O221	O22	0.559300	0.641300	0.365900
O231	O23	0.377500	0.683200	0.311000
O241	O24	0.395600	0.577800	0.335600
O251	O25	0.539500	0.649800	0.565300
O261	O26	0.658400	0.621900	0.522600
O271	O27	0.506700	0.554100	0.515200
O281	O28	0.565300	0.794200	0.562700
O291	O29	0.693800	0.715900	0.588900
O301	O30	0.577200	0.725400	0.638900
O311	O31	0.453300	0.897500	0.464000
O321	O32	0.640500	0.869300	0.526100
O331	O33	0.515100	0.899000	0.567300
O341	O34	0.429000	0.822600	0.352000
O351	O35	0.571500	0.883000	0.417100
O361	O36	0.386800	0.926600	0.365000
O371	O37	0.522900	0.751300	0.321500
O381	O38	0.331000	0.775600	0.257300
O391	O39	0.720700	0.621800	0.451900
O401	O40	0.839200	0.661700	0.417800
O411	O41	0.681400	0.690700	0.332900
O421	O42	0.711600	0.586300	0.360300
O431	O43	0.841400	0.658100	0.586400
O441	O44	0.901500	0.647800	0.512600
O451	O45	0.824500	0.563400	0.538600
O461	O46	0.783900	0.800600	0.578400
O471	O47	0.936000	0.746500	0.582700
O481	O48	0.883900	0.733400	0.659800
O491	O49	0.756200	0.905700	0.484300
O501	O50	0.904800	0.841500	0.544900
O511	O51	0.822500	0.910200	0.586700
O521	O52	0.650100	0.828100	0.365900
O531	O53	0.831900	0.855400	0.427900
O541	O54	0.696300	0.934500	0.384900
O551	O55	0.802900	0.774600	0.371400
O561	O56	0.645800	0.782100	0.278200
O571	O57	0.042500	0.723400	0.532400
O581	O58	0.980500	0.735000	0.433200
O591	O59	0.043600	0.636100	0.476000
O601	O60	0.009300	0.817900	0.492800
O611	O61	0.102500	0.808800	0.598400
O621	O62	0.976800	0.836100	0.393700
O631	O63	0.315000	0.513100	0.432800
O641	O64	0.056900	0.533800	0.443400
W191	W19	0.741000	0.162340	0.076090
W201	W20	0.705150	0.267030	0.000330
W211	W21	0.780710	0.283870	0.124590
W221	W22	0.567740	0.135600	0.133680
W231	W23	0.481640	0.118840	0.997850
W241	W24	0.444270	0.222930	0.922290
W251	W25	0.489040	0.354690	0.976250
W261	W26	0.565710	0.371890	0.099780
W271	W27	0.606450	0.257080	0.181650
W281	W28	0.298530	0.143410	0.113210
W291	W29	0.213100	0.126940	0.977800
W301	W30	0.178010	0.231640	0.904210
W311	W31	0.223190	0.363950	0.958810
W321	W32	0.299650	0.378760	0.082640
W331	W33	0.337920	0.264000	0.163370
W341	W34	0.039030	0.182150	0.025650
W351	W35	0.003520	0.287370	0.950760
W361	W36	0.079980	0.303060	0.075110
P31	P3	0.533200	0.243270	0.052860
P41	P4	0.251600	0.250970	0.032600
Cu31	Cu3	0.995560	0.218100	0.755810
Cu41	Cu4	0.813040	0.022870	0.061430
C371	C37	0.061200	0.278800	0.685400
H371	H37	0.010700	0.265700	0.656100
C381	C38	0.160500	0.288700	0.761400
H381	H38	0.192600	0.285400	0.796000
C391	C39	0.266800	0.361500	0.752700
H391	H39	0.275900	0.376200	0.724800
H401	H40	0.329600	0.345600	0.775500
C401	C40	0.238300	0.405600	0.780000
C411	C41	0.140600	0.425100	0.760600
H411	H41	0.091400	0.411600	0.731100
C421	C42	0.117600	0.465000	0.786100
C431	C43	0.189900	0.484000	0.829800
H421	H42	0.174700	0.511000	0.846500
C441	C44	0.285400	0.463400	0.849300
H431	H43	0.333700	0.476300	0.879400
C451	C45	0.311200	0.423500	0.824800
H441	H44	0.375600	0.409400	0.838300
C461	C46	0.012300	0.484800	0.767200
H451	H45	0.011500	0.515700	0.786100
H461	H46	0.971000	0.458300	0.772600
C471	C47	0.957900	0.536800	0.648800
H471	H47	0.968000	0.560400	0.627500
C481	C48	0.900000	0.473900	0.673600
H481	H48	0.863900	0.444600	0.675000
C491	C49	0.845100	0.137000	0.748500
H491	H49	0.827900	0.131700	0.714800
C501	C50	0.908400	0.165000	0.822400
H501	H50	0.946600	0.185200	0.850200
C511	C51	0.745100	0.062700	0.762100
H511	H51	0.784400	0.033000	0.780700
H521	H52	0.723200	0.055500	0.726800
C521	C52	0.655600	0.068400	0.772300
C531	C53	0.650000	0.041800	0.810900
H531	H53	0.702300	0.020000	0.831100
C541	C54	0.563800	0.047600	0.820100
C551	C55	0.485400	0.077700	0.788300
H541	H54	0.428500	0.081200	0.793900
C561	C56	0.489700	0.102500	0.748400
H551	H55	0.435100	0.122200	0.727100
C571	C57	0.572800	0.099000	0.739100
H561	H56	0.575000	0.116100	0.712000
C581	C58	0.557500	0.018300	0.862700
H571	H57	0.491300	0.022900	0.861400
H581	H58	0.567600	0.981200	0.859400
C591	C59	0.673300	0.010600	0.954100
H591	H59	0.658900	0.975900	0.957900
C601	C60	0.732500	0.088000	0.966600
H601	H60	0.769000	0.117500	0.982700
C611	C61	0.904600	0.639600	0.782600
H611	H61	0.939100	0.652200	0.815000
C621	C62	0.853600	0.626200	0.706400
H621	H62	0.845800	0.628800	0.673600
C631	C63	0.791000	0.577500	0.800000
H631	H63	0.719600	0.572300	0.780200
H641	H64	0.799700	0.600100	0.827900
C641	C64	0.840400	0.524400	0.820300
C651	C65	0.931500	0.523500	0.860500
H651	H65	0.962500	0.554700	0.875300
C661	C66	0.977700	0.476600	0.879100
H661	H66	0.040500	0.476400	0.906400
C671	C67	0.933300	0.429800	0.858400
H671	H67	0.966100	0.398400	0.871200
C681	C68	0.839400	0.429800	0.818300
C691	C69	0.793900	0.477300	0.798000
H681	H68	0.732800	0.477800	0.769700
C701	C70	0.786700	0.379800	0.795800
H691	H69	0.776300	0.359800	0.821000
H701	H70	0.721500	0.387700	0.769000
C711	C71	0.875800	0.299000	0.785800
H711	H71	0.868100	0.277700	0.809400
C721	C72	0.913800	0.329500	0.730500
H721	H72	0.940500	0.332000	0.707400
N191	N19	0.079700	0.261000	0.730900
N201	N20	0.187700	0.321500	0.734400
N211	N21	0.122600	0.317300	0.686300
N221	N22	0.889600	0.497600	0.632000
N231	N23	0.969600	0.498000	0.713500
N241	N24	0.008500	0.538700	0.697300
N251	N25	0.908500	0.172400	0.776900
N261	N26	0.809200	0.109800	0.775700
N271	N27	0.850700	0.127400	0.823600
N281	N28	0.736500	0.041500	0.990400
N291	N29	0.634600	0.037400	0.911700
N301	N30	0.672400	0.086500	0.919200
N311	N31	0.920100	0.654900	0.743800
N321	N32	0.833500	0.603900	0.768600
N331	N33	0.800600	0.594000	0.719800
N341	N34	0.920600	0.284500	0.756800
N351	N35	0.867800	0.368600	0.739700
N361	N36	0.844600	0.347800	0.775900
O651	O65	0.646300	0.240000	0.061100
O661	O66	0.472200	0.210000	0.006900
O671	O67	0.502600	0.301300	0.043600
O681	O68	0.531300	0.221800	0.100200
O691	O69	0.138100	0.254300	0.024200
O701	O70	0.251400	0.216700	0.991500
O711	O71	0.284800	0.306700	0.028700
O721	O72	0.311900	0.227500	0.084400
O731	O73	0.761700	0.200600	0.024800
O741	O74	0.824800	0.213100	0.121800
O751	O75	0.682800	0.146400	0.120100
O761	O76	0.621400	0.135400	0.024500
O771	O77	0.822200	0.110900	0.086400
O781	O78	0.795000	0.295800	0.063700
O791	O79	0.618200	0.325800	0.991900
O801	O80	0.586400	0.233600	0.953000
O811	O81	0.762000	0.283600	0.964200
O821	O82	0.694400	0.341900	0.109500
O831	O83	0.720000	0.259900	0.165000
O841	O84	0.891700	0.309500	0.169200
O851	O85	0.501100	0.115100	0.064900
O861	O86	0.440700	0.141300	0.134100
O871	O87	0.622500	0.183200	0.189000
O881	O88	0.604400	0.077800	0.164400
O891	O89	0.460500	0.149800	0.934700
O901	O90	0.341600	0.121900	0.977400
O911	O91	0.493300	0.054100	0.984800
O921	O92	0.434700	0.294200	0.937300
O931	O93	0.306200	0.215900	0.911100
O941	O94	0.422800	0.225400	0.861100
O951	O95	0.546700	0.397500	0.036000
O961	O96	0.359500	0.369300	0.973900
O971	O97	0.484900	0.399000	0.932700
O981	O98	0.571000	0.322600	0.148000
O991	O99	0.428500	0.383000	0.082900
O1001	O100	0.613200	0.426600	0.135000
O1011	O101	0.477100	0.251300	0.178500
O1021	O102	0.669000	0.275600	0.242700
O1031	O103	0.279300	0.121800	0.048100
O1041	O104	0.160800	0.161700	0.082200
O1051	O105	0.318600	0.190700	0.167100
O1061	O106	0.288400	0.086300	0.139700
O1071	O107	0.158600	0.158100	0.913600
O1081	O108	0.098500	0.147800	0.987400
O1091	O109	0.175500	0.063400	0.961400
O1101	O110	0.216100	0.300600	0.921600
O1111	O111	0.064000	0.246500	0.917300
O1121	O112	0.116100	0.233400	0.840200
O1131	O113	0.243800	0.405700	0.015700
O1141	O114	0.095200	0.341500	0.955100
O1151	O115	0.177500	0.410200	0.913300
O1161	O116	0.349900	0.328100	0.134100
O1171	O117	0.168100	0.355400	0.072100
O1181	O118	0.303700	0.434500	0.115100
O1191	O119	0.197100	0.274600	0.128600
O1201	O120	0.354200	0.282100	0.221800
O1211	O121	0.957500	0.223400	0.967600
O1221	O122	0.019500	0.235000	0.066800
O1231	O123	0.956400	0.136100	0.024000
O1241	O124	0.990700	0.317900	0.007200
O1251	O125	0.897500	0.308800	0.901600
O1261	O126	0.023200	0.336100	0.106300
O1271	O127	0.685000	0.013100	0.067200
O1281	O128	0.943100	0.033800	0.056600
W371	W37	0.741000	0.337660	0.576090
W381	W38	0.705150	0.232970	0.500330
W391	W39	0.780710	0.216130	0.624590
W401	W40	0.567740	0.364400	0.633680
W411	W41	0.481640	0.381160	0.497850
W421	W42	0.444270	0.277070	0.422290
W431	W43	0.489040	0.145310	0.476250
W441	W44	0.565710	0.128110	0.599780
W451	W45	0.606450	0.242920	0.681650
W461	W46	0.298530	0.356590	0.613210
W471	W47	0.213100	0.373060	0.477800
W481	W48	0.178010	0.268360	0.404210
W491	W49	0.223190	0.136050	0.458810
W501	W50	0.299650	0.121240	0.582640
W511	W51	0.337920	0.236000	0.663370
W521	W52	0.039030	0.317850	0.525650
W531	W53	0.003520	0.212630	0.450760
W541	W54	0.079980	0.196940	0.575110
P51	P5	0.533200	0.256730	0.552860
P61	P6	0.251600	0.249030	0.532600
Cu51	Cu5	0.995560	0.281900	0.255810
Cu61	Cu6	0.813040	0.477130	0.561430
C731	C73	0.061200	0.221200	0.185400
H731	H73	0.010700	0.234300	0.156100
C741	C74	0.160500	0.211300	0.261400
H741	H74	0.192600	0.214600	0.296000
C751	C75	0.266800	0.138500	0.252700
H751	H75	0.275900	0.123800	0.224800
H761	H76	0.329600	0.154400	0.275500
C761	C76	0.238300	0.094400	0.280000
C771	C77	0.140600	0.074900	0.260600
H771	H77	0.091400	0.088400	0.231100
C781	C78	0.117600	0.035000	0.286100
C791	C79	0.189900	0.016000	0.329800
H781	H78	0.174700	0.989000	0.346500
C801	C80	0.285400	0.036600	0.349300
H791	H79	0.333700	0.023700	0.379400
C811	C81	0.311200	0.076500	0.324800
H801	H80	0.375600	0.090600	0.338300
C821	C82	0.012300	0.015200	0.267200
H811	H81	0.011500	0.984300	0.286100
H821	H82	0.971000	0.041700	0.272600
C831	C83	0.957900	0.963200	0.148800
H831	H83	0.968000	0.939600	0.127500
C841	C84	0.900000	0.026100	0.173600
H841	H84	0.863900	0.055400	0.175000
C851	C85	0.845100	0.363000	0.248500
H851	H85	0.827900	0.368300	0.214800
C861	C86	0.908400	0.335000	0.322400
H861	H86	0.946600	0.314800	0.350200
C871	C87	0.745100	0.437300	0.262100
H871	H87	0.784400	0.467000	0.280700
H881	H88	0.723200	0.444500	0.226800
C881	C88	0.655600	0.431600	0.272300
C891	C89	0.650000	0.458200	0.310900
H891	H89	0.702300	0.480000	0.331100
C901	C90	0.563800	0.452400	0.320100
C911	C91	0.485400	0.422300	0.288300
H901	H90	0.428500	0.418800	0.293900
C921	C92	0.489700	0.397500	0.248400
H911	H91	0.435100	0.377800	0.227100
C931	C93	0.572800	0.401000	0.239100
H921	H92	0.575000	0.383900	0.212000
C941	C94	0.557500	0.481700	0.362700
H931	H93	0.491300	0.477100	0.361400
H941	H94	0.567600	0.518800	0.359400
C951	C95	0.673300	0.489400	0.454100
H951	H95	0.658900	0.524100	0.457900
C961	C96	0.732500	0.412000	0.466600
H961	H96	0.769000	0.382500	0.482700
C971	C97	0.904600	0.860400	0.282600
H971	H97	0.939100	0.847800	0.315000
C981	C98	0.853600	0.873800	0.206400
H981	H98	0.845800	0.871200	0.173600
C991	C99	0.791000	0.922500	0.300000
H991	H99	0.719600	0.927700	0.280200
H1001	H100	0.799700	0.899900	0.327900
C1001	C100	0.840400	0.975600	0.320300
C1011	C101	0.931500	0.976500	0.360500
H1011	H101	0.962500	0.945300	0.375300
C1021	C102	0.977700	0.023400	0.379100
H1021	H102	0.040500	0.023600	0.406400
C1031	C103	0.933300	0.070200	0.358400
H1031	H103	0.966100	0.101600	0.371200
C1041	C104	0.839400	0.070200	0.318300
C1051	C105	0.793900	0.022700	0.298000
H1041	H104	0.732800	0.022200	0.269700
C1061	C106	0.786700	0.120200	0.295800
H1051	H105	0.776300	0.140200	0.321000
H1061	H106	0.721500	0.112300	0.269000
C1071	C107	0.875800	0.201000	0.285800
H1071	H107	0.868100	0.222300	0.309400
C1081	C108	0.913800	0.170500	0.230500
H1081	H108	0.940500	0.168000	0.207400
N371	N37	0.079700	0.239000	0.230900
N381	N38	0.187700	0.178500	0.234400
N391	N39	0.122600	0.182700	0.186300
N401	N40	0.889600	0.002400	0.132000
N411	N41	0.969600	0.002000	0.213500
N421	N42	0.008500	0.961300	0.197300
N431	N43	0.908500	0.327600	0.276900
N441	N44	0.809200	0.390200	0.275700
N451	N45	0.850700	0.372600	0.323600
N461	N46	0.736500	0.458500	0.490400
N471	N47	0.634600	0.462600	0.411700
N481	N48	0.672400	0.413500	0.419200
N491	N49	0.920100	0.845100	0.243800
N501	N50	0.833500	0.896100	0.268600
N511	N51	0.800600	0.906000	0.219800
N521	N52	0.920600	0.215500	0.256800
N531	N53	0.867800	0.131400	0.239700
N541	N54	0.844600	0.152200	0.275900
O1291	O129	0.646300	0.260000	0.561100
O1301	O130	0.472200	0.290000	0.506900
O1311	O131	0.502600	0.198700	0.543600
O1321	O132	0.531300	0.278200	0.600200
O1331	O133	0.138100	0.245700	0.524200
O1341	O134	0.251400	0.283300	0.491500
O1351	O135	0.284800	0.193300	0.528700
O1361	O136	0.311900	0.272500	0.584400
O1371	O137	0.761700	0.299400	0.524800
O1381	O138	0.824800	0.286900	0.621800
O1391	O139	0.682800	0.353600	0.620100
O1401	O140	0.621400	0.364600	0.524500
O1411	O141	0.822200	0.389100	0.586400
O1421	O142	0.795000	0.204200	0.563700
O1431	O143	0.618200	0.174200	0.491900
O1441	O144	0.586400	0.266400	0.453000
O1451	O145	0.762000	0.216400	0.464200
O1461	O146	0.694400	0.158100	0.609500
O1471	O147	0.720000	0.240100	0.665000
O1481	O148	0.891700	0.190500	0.669200
O1491	O149	0.501100	0.384900	0.564900
O1501	O150	0.440700	0.358700	0.634100
O1511	O151	0.622500	0.316800	0.689000
O1521	O152	0.604400	0.422200	0.664400
O1531	O153	0.460500	0.350200	0.434700
O1541	O154	0.341600	0.378100	0.477400
O1551	O155	0.493300	0.445900	0.484800
O1561	O156	0.434700	0.205800	0.437300
O1571	O157	0.306200	0.284100	0.411100
O1581	O158	0.422800	0.274600	0.361100
O1591	O159	0.546700	0.102500	0.536000
O1601	O160	0.359500	0.130700	0.473900
O1611	O161	0.484900	0.101000	0.432700
O1621	O162	0.571000	0.177400	0.648000
O1631	O163	0.428500	0.117000	0.582900
O1641	O164	0.613200	0.073400	0.635000
O1651	O165	0.477100	0.248700	0.678500
O1661	O166	0.669000	0.224400	0.742700
O1671	O167	0.279300	0.378200	0.548100
O1681	O168	0.160800	0.338300	0.582200
O1691	O169	0.318600	0.309300	0.667100
O1701	O170	0.288400	0.413700	0.639700
O1711	O171	0.158600	0.341900	0.413600
O1721	O172	0.098500	0.352200	0.487400
O1731	O173	0.175500	0.436600	0.461400
O1741	O174	0.216100	0.199400	0.421600
O1751	O175	0.064000	0.253500	0.417300
O1761	O176	0.116100	0.266600	0.340200
O1771	O177	0.243800	0.094300	0.515700
O1781	O178	0.095200	0.158500	0.455100
O1791	O179	0.177500	0.089800	0.413300
O1801	O180	0.349900	0.171900	0.634100
O1811	O181	0.168100	0.144600	0.572100
O1821	O182	0.303700	0.065500	0.615100
O1831	O183	0.197100	0.225400	0.628600
O1841	O184	0.354200	0.217900	0.721800
O1851	O185	0.957500	0.276600	0.467600
O1861	O186	0.019500	0.265000	0.566800
O1871	O187	0.956400	0.363900	0.524000
O1881	O188	0.990700	0.182100	0.507200
O1891	O189	0.897500	0.191200	0.401600
O1901	O190	0.023200	0.163900	0.606300
O1911	O191	0.685000	0.486900	0.567200
O1921	O192	0.943100	0.466200	0.556600
W551	W55	0.259000	0.837660	0.923910
W561	W56	0.294850	0.732970	0.999670
W571	W57	0.219290	0.716130	0.875410
W581	W58	0.432260	0.864400	0.866320
W591	W59	0.518360	0.881160	0.002150
W601	W60	0.555730	0.777070	0.077710
W611	W61	0.510960	0.645310	0.023750
W621	W62	0.434290	0.628110	0.900220
W631	W63	0.393550	0.742920	0.818350
W641	W64	0.701470	0.856590	0.886790
W651	W65	0.786900	0.873060	0.022200
W661	W66	0.821990	0.768360	0.095790
W671	W67	0.776810	0.636050	0.041190
W681	W68	0.700350	0.621240	0.917360
W691	W69	0.662080	0.736000	0.836630
W701	W70	0.960970	0.817850	0.974350
W711	W71	0.996480	0.712630	0.049240
W721	W72	0.920020	0.696940	0.924890
P71	P7	0.466800	0.756730	0.947140
P81	P8	0.748400	0.749030	0.967400
Cu71	Cu7	0.004440	0.781900	0.244190
Cu81	Cu8	0.186960	0.977130	0.938570
C1091	C109	0.938800	0.721200	0.314600
H1091	H109	0.989300	0.734300	0.343900
C1101	C110	0.839500	0.711300	0.238600
H1101	H110	0.807400	0.714600	0.204000
C1111	C111	0.733200	0.638500	0.247300
H1111	H111	0.724100	0.623800	0.275200
H1121	H112	0.670400	0.654400	0.224500
C1121	C112	0.761700	0.594400	0.220000
C1131	C113	0.859400	0.574900	0.239400
H1131	H113	0.908600	0.588400	0.268900
C1141	C114	0.882400	0.535000	0.213900
C1151	C115	0.810100	0.516000	0.170200
H1141	H114	0.825300	0.489000	0.153500
C1161	C116	0.714600	0.536600	0.150700
H1151	H115	0.666300	0.523700	0.120600
C1171	C117	0.688800	0.576500	0.175200
H1161	H116	0.624400	0.590600	0.161700
C1181	C118	0.987700	0.515200	0.232800
H1171	H117	0.988500	0.484300	0.213900
H1181	H118	0.029000	0.541700	0.227400
C1191	C119	0.042100	0.463200	0.351200
H1191	H119	0.032000	0.439600	0.372500
C1201	C120	0.100000	0.526100	0.326400
H1201	H120	0.136100	0.555400	0.325000
C1211	C121	0.154900	0.863000	0.251500
H1211	H121	0.172100	0.868300	0.285200
C1221	C122	0.091600	0.835000	0.177600
H1221	H122	0.053400	0.814800	0.149800
C1231	C123	0.254900	0.937300	0.237900
H1231	H123	0.215600	0.967000	0.219300
H1241	H124	0.276800	0.944500	0.273200
C1241	C124	0.344400	0.931600	0.227700
C1251	C125	0.350000	0.958200	0.189100
H1251	H125	0.297700	0.980000	0.168900
C1261	C126	0.436200	0.952400	0.179900
C1271	C127	0.514600	0.922300	0.211700
H1261	H126	0.571500	0.918800	0.206100
C1281	C128	0.510300	0.897500	0.251600
H1271	H127	0.564900	0.877800	0.272900
C1291	C129	0.427200	0.901000	0.260900
H1281	H128	0.425000	0.883900	0.288000
C1301	C130	0.442500	0.981700	0.137300
H1291	H129	0.508700	0.977100	0.138600
H1301	H130	0.432400	0.018800	0.140600
C1311	C131	0.326700	0.989400	0.045900
H1311	H131	0.341100	0.024100	0.042100
C1321	C132	0.267500	0.912000	0.033400
H1321	H132	0.231000	0.882500	0.017300
C1331	C133	0.095400	0.360400	0.217400
H1331	H133	0.060900	0.347800	0.185000
C1341	C134	0.146400	0.373800	0.293600
H1341	H134	0.154200	0.371200	0.326400
C1351	C135	0.209000	0.422500	0.200000
H1351	H135	0.280400	0.427700	0.219800
H1361	H136	0.200300	0.399900	0.172100
C1361	C136	0.159600	0.475600	0.179700
C1371	C137	0.068500	0.476500	0.139500
H1371	H137	0.037500	0.445300	0.124700
C1381	C138	0.022300	0.523400	0.120900
H1381	H138	0.959500	0.523600	0.093600
C1391	C139	0.066700	0.570200	0.141600
H1391	H139	0.033900	0.601600	0.128800
C1401	C140	0.160600	0.570200	0.181700
C1411	C141	0.206100	0.522700	0.202000
H1401	H140	0.267200	0.522200	0.230300
C1421	C142	0.213300	0.620200	0.204200
H1411	H141	0.223700	0.640200	0.179000
H1421	H142	0.278500	0.612300	0.231000
C1431	C143	0.124200	0.701000	0.214200
H1431	H143	0.131900	0.722300	0.190600
C1441	C144	0.086200	0.670500	0.269500
H1441	H144	0.059500	0.668000	0.292600
N551	N55	0.920300	0.739000	0.269100
N561	N56	0.812300	0.678500	0.265600
N571	N57	0.877400	0.682700	0.313700
N581	N58	0.110400	0.502400	0.368000
N591	N59	0.030400	0.502000	0.286500
N601	N60	0.991500	0.461300	0.302700
N611	N61	0.091500	0.827600	0.223100
N621	N62	0.190800	0.890200	0.224300
N631	N63	0.149300	0.872600	0.176400
N641	N64	0.263500	0.958500	0.009600
N651	N65	0.365400	0.962600	0.088300
N661	N66	0.327600	0.913500	0.080800
N671	N67	0.079900	0.345100	0.256200
N681	N68	0.166500	0.396100	0.231400
N691	N69	0.199400	0.406000	0.280200
N701	N70	0.079400	0.715500	0.243200
N711	N71	0.132200	0.631400	0.260300
N721	N72	0.155400	0.652200	0.224100
O1931	O193	0.353700	0.760000	0.938900
O1941	O194	0.527800	0.790000	0.993100
O1951	O195	0.497400	0.698700	0.956400
O1961	O196	0.468700	0.778200	0.899800
O1971	O197	0.861900	0.745700	0.975800
O1981	O198	0.748600	0.783300	0.008500
O1991	O199	0.715200	0.693300	0.971300
O2001	O200	0.688100	0.772500	0.915600
O2011	O201	0.238300	0.799400	0.975200
O2021	O202	0.175200	0.786900	0.878200
O2031	O203	0.317200	0.853600	0.879900
O2041	O204	0.378600	0.864600	0.975500
O2051	O205	0.177800	0.889100	0.913600
O2061	O206	0.205000	0.704200	0.936300
O2071	O207	0.381800	0.674200	0.008100
O2081	O208	0.413600	0.766400	0.047000
O2091	O209	0.238000	0.716400	0.035800
O2101	O210	0.305600	0.658100	0.890500
O2111	O211	0.280000	0.740100	0.835000
O2121	O212	0.108300	0.690500	0.830800
O2131	O213	0.498900	0.884900	0.935100
O2141	O214	0.559300	0.858700	0.865900
O2151	O215	0.377500	0.816800	0.811000
O2161	O216	0.395600	0.922200	0.835600
O2171	O217	0.539500	0.850200	0.065300
O2181	O218	0.658400	0.878100	0.022600
O2191	O219	0.506700	0.945900	0.015200
O2201	O220	0.565300	0.705800	0.062700
O2211	O221	0.693800	0.784100	0.088900
O2221	O222	0.577200	0.774600	0.138900
O2231	O223	0.453300	0.602500	0.964000
O2241	O224	0.640500	0.630700	0.026100
O2251	O225	0.515100	0.601000	0.067300
O2261	O226	0.429000	0.677400	0.852000
O2271	O227	0.571500	0.617000	0.917100
O2281	O228	0.386800	0.573400	0.865000
O2291	O229	0.522900	0.748700	0.821500
O2301	O230	0.331000	0.724400	0.757300
O2311	O231	0.720700	0.878200	0.951900
O2321	O232	0.839200	0.838300	0.917800
O2331	O233	0.681400	0.809300	0.832900
O2341	O234	0.711600	0.913700	0.860300
O2351	O235	0.841400	0.841900	0.086400
O2361	O236	0.901500	0.852200	0.012600
O2371	O237	0.824500	0.936600	0.038600
O2381	O238	0.783900	0.699400	0.078400
O2391	O239	0.936000	0.753500	0.082700
O2401	O240	0.883900	0.766600	0.159800
O2411	O241	0.756200	0.594300	0.984300
O2421	O242	0.904800	0.658500	0.044900
O2431	O243	0.822500	0.589800	0.086700
O2441	O244	0.650100	0.671900	0.865900
O2451	O245	0.831900	0.644600	0.927900
O2461	O246	0.696300	0.565500	0.884900
O2471	O247	0.802900	0.725400	0.871400
O2481	O248	0.645800	0.717900	0.778200
O2491	O249	0.042500	0.776600	0.032400
O2501	O250	0.980500	0.765000	0.933200
O2511	O251	0.043600	0.863900	0.976000
O2521	O252	0.009300	0.682100	0.992800
O2531	O253	0.102500	0.691200	0.098400
O2541	O254	0.976800	0.663900	0.893700
O2551	O255	0.315000	0.986900	0.932800
O2561	O256	0.056900	0.966200	0.943400
