data_GOTDIE_freeONLY_PM
_symmetry_space_group_name_H-M	'P1'
_cell_length_a	9.156100
_cell_length_b	28.107800
_cell_length_c	28.107800
_cell_angle_alpha	88.479800
_cell_angle_beta	80.626200
_cell_angle_gamma	80.626000
_symmetry_Int_Tables_number 1

loop_
_symmetry_equiv_pos_as_xyz
'x,y,z'

loop_
_atom_site_label
_atom_site_type_symbol
_atom_site_fract_x
_atom_site_fract_y
_atom_site_fract_z
Cd11	Cd1	0.000000	0.000000	0.500000
Cd21	Cd2	0.000000	0.000000	0.000000
Cd31	Cd3	0.000000	0.500000	0.000000
Cd41	Cd4	0.500000	0.500000	0.500000
Co11	Co1	0.920020	0.731590	0.513610
Co21	Co2	0.651610	0.013610	0.268410
Co31	Co3	0.665220	0.768410	0.986390
Co41	Co4	0.079980	0.268410	0.486390
Co51	Co5	0.334780	0.231590	0.013610
Co61	Co6	0.433630	0.486390	0.231590
Co71	Co7	0.348390	0.986390	0.731590
Co81	Co8	0.566370	0.513610	0.768410
H11	H1	0.570400	0.296800	0.310800
H21	H2	0.005500	0.532100	0.884700
H31	H3	0.742900	0.057500	0.073700
H41	H4	0.750000	0.447400	0.545600
H51	H5	0.381300	0.326300	0.656300
H61	H6	0.474700	0.350800	0.860400
H71	H7	0.757000	0.947400	0.045600
H81	H8	0.325200	0.689800	0.520200
H91	H9	0.665800	0.876100	0.061900
H101	H10	0.332300	0.474600	0.604200
H111	H11	0.535900	0.393300	0.086100
H121	H12	0.063500	0.604200	0.025400
H131	H13	0.338900	0.197000	0.239800
H141	H14	0.525300	0.649200	0.139600
H151	H15	0.070800	0.413900	0.393300
H161	H16	0.599900	0.355800	0.702800
H171	H17	0.284600	0.791400	0.949800
H181	H18	0.717400	0.334000	0.112200
H191	H19	0.185900	0.149200	0.639600
H201	H20	0.077700	0.032100	0.384700
H211	H21	0.495400	0.068400	0.858000
H221	H22	0.514400	0.284500	0.593700
H231	H23	0.515300	0.106700	0.413900
H241	H24	0.051400	0.612200	0.666000
H251	H25	0.077300	0.117300	0.312900
H261	H26	0.985000	0.979800	0.689800
H271	H27	0.992500	0.617300	0.812900
H281	H28	0.076000	0.449800	0.208600
H291	H29	0.436200	0.642000	0.068400
H301	H30	0.194600	0.812900	0.882700
H311	H31	0.891900	0.593700	0.215500
H321	H32	0.103800	0.623900	0.438100
H331	H33	0.474200	0.291400	0.449800
H341	H34	0.789100	0.162000	0.311800
H351	H35	0.421300	0.239800	0.303000
H361	H36	0.563800	0.358000	0.931600
H371	H37	0.870500	0.643800	0.348800
H381	H38	0.199600	0.426300	0.057500
H391	H39	0.899100	0.311800	0.338000
H401	H40	0.048900	0.188200	0.162000
H411	H41	0.037600	0.343700	0.826300
H421	H42	0.535900	0.739800	0.803000
H431	H43	0.287700	0.977400	0.288000
H441	H44	0.234400	0.050200	0.291400
H451	H45	0.514300	0.848800	0.356200
H461	H46	0.088900	0.974600	0.104200
H471	H47	0.210900	0.838000	0.688200
H481	H48	0.955700	0.202800	0.644200
H491	H49	0.158500	0.144200	0.797200
H501	H50	0.019700	0.993300	0.183500
H511	H51	0.924000	0.550200	0.791400
H521	H52	0.374100	0.442500	0.426300
H531	H53	0.272300	0.061900	0.623900
H541	H54	0.845400	0.479800	0.189800
H551	H55	0.015000	0.020200	0.310200
H561	H56	0.174500	0.639600	0.350800
H571	H57	0.390200	0.687100	0.617300
H581	H58	0.881200	0.689200	0.796800
H591	H59	0.250000	0.552600	0.454400
H601	H60	0.330700	0.918800	0.846600
H611	H61	0.462400	0.615300	0.532100
H621	H62	0.890200	0.115300	0.032100
H631	H63	0.802600	0.954400	0.447400
H641	H64	0.353400	0.142000	0.568400
H651	H65	0.197400	0.045600	0.552600
H661	H66	0.053100	0.522600	0.212000
H671	H67	0.661100	0.803000	0.760200
H681	H68	0.335100	0.139600	0.850800
H691	H69	0.922300	0.967900	0.615300
H701	H70	0.646600	0.858000	0.431600
H711	H71	0.035200	0.810200	0.979800
H721	H72	0.704400	0.545600	0.052600
H731	H73	0.109800	0.884700	0.967900
H741	H74	0.625900	0.557500	0.573700
H751	H75	0.424300	0.288000	0.522600
H761	H76	0.378000	0.086100	0.106700
H771	H77	0.177300	0.153400	0.418800
H781	H78	0.765600	0.949800	0.708600
H791	H79	0.201100	0.906300	0.284500
H801	H80	0.922700	0.882700	0.687100
H811	H81	0.987000	0.316500	0.993300
H821	H82	0.464100	0.606700	0.913900
H831	H83	0.750500	0.653400	0.918800
H841	H84	0.734900	0.212000	0.977400
H851	H85	0.100900	0.688200	0.662000
H861	H86	0.118800	0.310800	0.203200
H871	H87	0.575700	0.712000	0.477400
H881	H88	0.609800	0.312900	0.382700
H891	H89	0.596100	0.581200	0.653400
H901	H90	0.962400	0.656300	0.173700
H911	H91	0.525800	0.708600	0.550200
H921	H92	0.796800	0.183500	0.506700
H931	H93	0.948600	0.387800	0.334000
H941	H94	0.669300	0.081200	0.153400
H951	H95	0.822700	0.846600	0.581200
H961	H96	0.170400	0.112200	0.166000
H971	H97	0.715400	0.208600	0.050200
H981	H98	0.464100	0.260200	0.197000
H991	H99	0.203200	0.816500	0.493300
H1001	H100	0.578700	0.760200	0.697000
H1011	H101	0.504600	0.931600	0.142000
H1021	H102	0.541900	0.561900	0.123900
H1031	H103	0.537600	0.384700	0.467900
H1041	H104	0.257100	0.942500	0.926300
H1051	H105	0.936500	0.395800	0.974600
H1061	H106	0.275700	0.303000	0.260200
H1071	H107	0.485600	0.715500	0.406300
H1081	H108	0.707600	0.156300	0.673700
H1091	H109	0.132800	0.189200	0.296800
H1101	H110	0.265100	0.788000	0.022600
H1111	H111	0.805400	0.187100	0.117300
H1121	H112	0.816600	0.926300	0.557500
H1131	H113	0.219300	0.651200	0.143800
H1141	H114	0.841500	0.855800	0.202800
H1151	H115	0.911100	0.025400	0.895800
H1161	H116	0.237100	0.662000	0.811800
H1171	H117	0.863900	0.173700	0.843700
H1181	H118	0.363100	0.856200	0.151200
H1191	H119	0.336400	0.834000	0.612200
H1201	H120	0.896200	0.376100	0.561900
H1211	H121	0.674800	0.310200	0.479800
H1221	H122	0.108100	0.406300	0.784500
H1231	H123	0.618700	0.673700	0.343700
H1241	H124	0.964800	0.189800	0.020200
H1251	H125	0.929200	0.586100	0.606700
H1261	H126	0.282600	0.666000	0.887800
H1271	H127	0.798900	0.093700	0.715500
H1281	H128	0.292400	0.843700	0.326300
H1291	H129	0.829600	0.887800	0.834000
H1301	H130	0.667700	0.525400	0.395800
H1311	H131	0.806900	0.104200	0.525400
H1321	H132	0.136100	0.826300	0.156300
H1331	H133	0.334200	0.123900	0.938100
H1341	H134	0.780700	0.348800	0.856200
H1351	H135	0.697300	0.702800	0.144200
H1361	H136	0.429600	0.703200	0.689200
H1371	H137	0.243000	0.052600	0.954400
H1381	H138	0.322000	0.796800	0.810800
H1391	H139	0.400100	0.644200	0.297200
H1401	H140	0.867200	0.810800	0.703200
H1411	H141	0.129500	0.356200	0.651200
H1421	H142	0.295600	0.454400	0.947400
H1431	H143	0.951100	0.811800	0.838000
H1441	H144	0.946900	0.477400	0.788000
H1451	H145	0.403900	0.418800	0.346600
H1461	H146	0.921800	0.431600	0.642000
H1471	H147	0.485700	0.151200	0.643800
H1481	H148	0.814100	0.850800	0.360400
H1491	H149	0.980300	0.006700	0.816500
H1501	H150	0.044300	0.797200	0.355800
H1511	H151	0.994500	0.467900	0.115300
H1521	H152	0.193100	0.895800	0.474600
H1531	H153	0.249500	0.346600	0.081200
H1541	H154	0.800400	0.573700	0.942500
H1551	H155	0.696500	0.506700	0.316500
H1561	H156	0.762900	0.338000	0.188200
H1571	H157	0.183400	0.073700	0.442500
H1581	H158	0.724300	0.697000	0.739800
H1591	H159	0.303500	0.493300	0.683500
H1601	H160	0.302700	0.297200	0.855800
H1611	H161	0.013000	0.683500	0.006700
H1621	H162	0.825500	0.360400	0.649200
H1631	H163	0.078200	0.568400	0.358000
H1641	H164	0.154600	0.520200	0.810200
H1651	H165	0.678000	0.203200	0.189200
H1661	H166	0.484700	0.893300	0.586100
H1671	H167	0.727700	0.938100	0.376100
H1681	H168	0.636900	0.143800	0.848800
H1691	H169	0.107400	0.784500	0.093700
H1701	H170	0.458100	0.438100	0.876100
H1711	H171	0.712300	0.022600	0.712000
H1721	H172	0.892600	0.215500	0.906300
H1731	H173	0.664900	0.860400	0.149200
H1741	H174	0.007500	0.382700	0.187100
H1751	H175	0.663600	0.166000	0.387800
H1761	H176	0.622000	0.913900	0.893300
C11	C1	0.609500	0.382800	0.488000
C21	C2	0.151200	0.033000	0.581000
C31	C3	0.342200	0.859000	0.632600
C41	C4	0.186100	0.355200	0.058600
C51	C5	0.165200	0.168300	0.613300
C61	C6	0.913400	0.450300	0.802900
C71	C7	0.306600	0.637900	0.822900
C81	C8	0.775600	0.769500	0.074100
C91	C9	0.186600	0.505400	0.837400
C101	C10	0.153800	0.403600	0.044600
C111	C11	0.512200	0.248600	0.167000
C121	C12	0.450200	0.954400	0.324800
C131	C13	0.997100	0.614000	0.003800
C141	C14	0.625200	0.398800	0.207400
C151	C15	0.734800	0.533000	0.081000
C161	C16	0.813400	0.494600	0.162600
C171	C17	0.803800	0.094200	0.243000
C181	C18	0.102000	0.096400	0.455400
C191	C19	0.848800	0.967000	0.419000
C201	C20	0.440600	0.605800	0.883000
C211	C21	0.081900	0.380100	0.206100
C221	C22	0.572200	0.748600	0.667000
C231	C23	0.339600	0.842600	0.124200
C241	C24	0.234900	0.195000	0.534400
C251	C25	0.032300	0.338300	0.007700
C261	C26	0.716300	0.197100	0.950300
C271	C27	0.168100	0.119900	0.293900
C281	C28	0.988800	0.591900	0.198500
C291	C29	0.099900	0.144800	0.441400
C301	C30	0.196300	0.162300	0.283100
C311	C31	0.541300	0.558600	0.644800
C321	C32	0.661100	0.220000	0.079800
C331	C33	0.013300	0.821700	0.539500
C341	C34	0.345600	0.299000	0.883400
C351	C35	0.497900	0.664500	0.071500
C361	C36	0.796600	0.334800	0.523000
C371	C37	0.339900	0.200000	0.487800
C381	C38	0.460100	0.012200	0.200000
C391	C39	0.885100	0.114000	0.503800
C401	C40	0.583700	0.422900	0.730300
C411	C41	0.536200	0.124200	0.657400
C421	C42	0.342300	0.323200	0.628200
C431	C43	0.481900	0.139300	0.028900
C441	C44	0.665500	0.128200	0.676800
C451	C45	0.999100	0.003800	0.886000
C461	C46	0.006600	0.230300	0.577100
C471	C47	0.976000	0.292600	0.398800
C481	C48	0.758700	0.876600	0.042800
C491	C49	0.815800	0.919000	0.033000
C501	C50	0.502100	0.335500	0.928500
C511	C51	0.363700	0.302900	0.549700
C521	C52	0.007700	0.012000	0.382800
C531	C53	0.621200	0.528900	0.860700
C541	C54	0.666200	0.359000	0.132600
C551	C55	0.812700	0.198500	0.908100
C561	C56	0.740900	0.920200	0.720000
C571	C57	0.712000	0.206100	0.119900
C581	C58	0.801600	0.044600	0.096400
C591	C59	0.267400	0.862100	0.677100
C601	C60	0.028000	0.201000	0.616600
C611	C61	0.644600	0.383400	0.701000
C621	C62	0.141700	0.337700	0.216900
C631	C63	0.666600	0.049700	0.697100
C641	C64	0.370600	0.507700	0.661700
C651	C65	0.230700	0.534400	0.305000
C661	C66	0.011200	0.408100	0.801500
C671	C67	0.898000	0.903600	0.544600
C681	C68	0.187300	0.801500	0.091900
C691	C69	0.259100	0.079800	0.280000
C701	C70	0.236900	0.077100	0.769700
C711	C71	0.472300	0.700000	0.987800
C721	C72	0.172300	0.487800	0.300000
C731	C73	0.874500	0.678300	0.960500
C741	C74	0.390500	0.617200	0.512000
C751	C75	0.102000	0.257000	0.094200
C761	C76	0.429400	0.894200	0.617000
C771	C77	0.870500	0.822900	0.862100
C781	C78	0.900100	0.855200	0.558600
C791	C79	0.902500	0.488000	0.117200
C801	C80	0.538000	0.293900	0.380100
C811	C81	0.203400	0.665200	0.477000
C821	C82	0.635300	0.542800	0.123400
C831	C83	0.918100	0.619900	0.793900
C841	C84	0.568000	0.069500	0.351100
C851	C85	0.125500	0.321700	0.039500
C861	C86	0.229400	0.545600	0.175200
C871	C87	0.024000	0.162600	0.005400
C881	C88	0.765100	0.805000	0.465600
C891	C89	0.198500	0.042800	0.623400
C901	C90	0.378800	0.471100	0.139300
C911	C91	0.595400	0.175200	0.954400
C921	C92	0.510800	0.971100	0.639300
C931	C93	0.283700	0.802900	0.049700
C941	C94	0.442600	0.455400	0.403600
C951	C95	0.268600	0.898800	0.707400
C961	C96	0.362500	0.148900	0.069500
C971	C97	0.024000	0.707400	0.601200
C981	C98	0.720800	0.091900	0.698500
C991	C99	0.229000	0.116600	0.799000
C1001	C100	0.279200	0.908100	0.301500
C1011	C101	0.657700	0.676800	0.371800
C1021	C102	0.733900	0.835500	0.428500
C1031	C103	0.080900	0.351100	0.430500
C1041	C104	0.308000	0.662600	0.505400
C1051	C105	0.383400	0.081700	0.249900
C1061	C106	0.462000	0.706100	0.619900
C1071	C107	0.162400	0.571500	0.335500
C1081	C108	0.967700	0.661700	0.992300
C1091	C109	0.184200	0.081000	0.967000
C1101	C110	0.479400	0.716900	0.662300
C1111	C111	0.545100	0.574100	0.230500
C1121	C112	0.463800	0.875800	0.342600
C1131	C113	0.858300	0.662300	0.783100
C1141	C114	0.364700	0.457200	0.876600
C1151	C115	0.846200	0.596400	0.955400
C1161	C116	0.637500	0.851100	0.930500
C1171	C117	0.570600	0.105800	0.383000
C1181	C118	0.553200	0.668300	0.113300
C1191	C119	0.040000	0.992300	0.838300
C1201	C120	0.831900	0.880100	0.706100
C1211	C121	0.118900	0.420200	0.220000
C1221	C122	0.755300	0.058600	0.144800
C1231	C123	0.775000	0.675200	0.454400
C1241	C124	0.201200	0.132600	0.141000
C1251	C125	0.359000	0.594200	0.743000
C1261	C126	0.769300	0.465600	0.695000
C1271	C127	0.793700	0.176800	0.871800
C1281	C128	0.086600	0.549700	0.197100
C1291	C129	0.986700	0.178300	0.460500
C1301	C130	0.636300	0.697100	0.450300
C1311	C131	0.732200	0.419000	0.533000
C1321	C132	0.029400	0.994600	0.662600
C1331	C133	0.288000	0.793900	0.880100
C1341	C134	0.196200	0.905800	0.757000
C1351	C135	0.454900	0.425900	0.769500
C1361	C136	0.182200	0.624200	0.157400
C1371	C137	0.693400	0.362100	0.177100
C1381	C138	0.002900	0.386000	0.996200
C1391	C139	0.970500	0.371800	0.823200
C1401	C140	0.334500	0.871800	0.323200
C1411	C141	0.993400	0.769700	0.422900
C1421	C142	0.416300	0.577100	0.269700
C1431	C143	0.518100	0.860700	0.971100
C1441	C144	0.225000	0.324800	0.545600
C1451	C145	0.129500	0.177100	0.137900
C1461	C146	0.974800	0.367400	0.359000
C1471	C147	0.446800	0.331700	0.886700
C1481	C148	0.267800	0.581000	0.467000
C1491	C149	0.813900	0.644800	0.941400
C1501	C150	0.358600	0.783100	0.837700
C1511	C151	0.000900	0.996200	0.114000
C1521	C152	0.660100	0.800000	0.512200
C1531	C153	0.465100	0.749900	0.918300
C1541	C154	0.206300	0.823200	0.128200
C1551	C155	0.193600	0.342600	0.624200
C1561	C156	0.198400	0.955400	0.903600
C1571	C157	0.666500	0.886700	0.168300
C1581	C158	0.458700	0.441400	0.355200
C1591	C159	0.953600	0.617000	0.605800
C1601	C160	0.366700	0.249900	0.418300
C1611	C161	0.025200	0.632600	0.641000
C1621	C162	0.953200	0.243000	0.405800
C1631	C163	0.919100	0.648900	0.569500
C1641	C164	0.845600	0.834800	0.023000
C1651	C165	0.224400	0.230500	0.925900
C1661	C166	0.633300	0.750100	0.581700
C1671	C167	0.611100	0.503800	0.386000
C1681	C168	0.178100	0.623400	0.457200
C1691	C169	0.549800	0.045600	0.675200
C1701	C170	0.770600	0.454400	0.824800
C1711	C171	0.511400	0.569500	0.851100
C1721	C172	0.432000	0.930500	0.648900
C1731	C173	0.535700	0.695000	0.034400
C1741	C174	0.487800	0.751400	0.833000
C1751	C175	0.569400	0.928500	0.164500
C1761	C176	0.534900	0.250100	0.081700
C1771	C177	0.419300	0.301500	0.591900
C1781	C178	0.976000	0.837400	0.994600
C1791	C179	0.679200	0.833000	0.748600
C1801	C180	0.559400	0.394200	0.117000
C1811	C181	0.154400	0.165200	0.977000
C1821	C182	0.731400	0.101200	0.292600
C1831	C183	0.333500	0.113300	0.831700
C1841	C184	0.019700	0.882800	0.988000
C1851	C185	0.641000	0.405800	0.257000
C1861	C186	0.849900	0.639300	0.528900
C1871	C187	0.333800	0.641000	0.867400
C1881	C188	0.121700	0.838300	0.507700
C1891	C189	0.388900	0.496200	0.614000
C1901	C190	0.241300	0.123400	0.957200
C1911	C191	0.641400	0.216900	0.162300
C1921	C192	0.785000	0.581700	0.749900
C1931	C193	0.837600	0.428500	0.664500
C1941	C194	0.046400	0.383000	0.394200
C1951	C195	0.960000	0.007700	0.161700
C1961	C196	0.676400	0.883000	0.894200
C1971	C197	0.944500	0.322900	0.362100
C1981	C198	0.817800	0.375800	0.842600
C1991	C199	0.972000	0.799000	0.383400
C2001	C200	0.527700	0.300000	0.012200
C2011	C201	0.803700	0.837700	0.716900
C2021	C202	0.488600	0.430500	0.148900
C2031	C203	0.055500	0.677100	0.637900
C2041	C204	0.881100	0.579800	0.780000
C2051	C205	0.686000	0.730300	0.077100
C2061	C206	0.834800	0.831700	0.386700
C2071	C207	0.429900	0.034400	0.805000
C2081	C208	0.557400	0.544600	0.596400
C2091	C209	0.447200	0.539500	0.678300
C2101	C210	0.404600	0.824800	0.045600
C2111	C211	0.150300	0.074100	0.730500
C2121	C212	0.430600	0.071500	0.835500
C2131	C213	0.654400	0.701000	0.116600
C2141	C214	0.239200	0.333000	0.248600
C2151	C215	0.732600	0.137900	0.322900
C2161	C216	0.319600	0.477000	0.834800
C2171	C217	0.763100	0.922900	0.230300
C2181	C218	0.097500	0.512000	0.882800
C2191	C219	0.244700	0.941400	0.855200
C2201	C220	0.221500	0.613300	0.331700
C2211	C221	0.266100	0.164500	0.571500
C2221	C222	0.114900	0.886000	0.496200
C2231	C223	0.552800	0.460500	0.321700
C2241	C224	0.570100	0.965600	0.195000
C2251	C225	0.801500	0.957200	0.376600
C2261	C226	0.878300	0.161700	0.492300
C2271	C227	0.680400	0.523000	0.165200
C2281	C228	0.265200	0.467000	0.919000
C2291	C229	0.427800	0.251400	0.333000
C2301	C230	0.798800	0.867400	0.859000
C2311	C231	0.692000	0.337400	0.494600
C2321	C232	0.333400	0.950300	0.302900
C2331	C233	0.320800	0.167000	0.251400
C2341	C234	0.832600	0.792600	0.898800
C2351	C235	0.046800	0.757000	0.594200
C2361	C236	0.657800	0.141000	0.367400
C2371	C237	0.215000	0.418300	0.250100
C2381	C238	0.898000	0.743000	0.905800
C2391	C239	0.314000	0.269700	0.922900
C2401	C240	0.778500	0.386700	0.668300
C2411	C241	0.821900	0.376600	0.542800
C2421	C242	0.980300	0.117200	0.012000
C2431	C243	0.806400	0.657400	0.375800
C2441	C244	0.460900	0.280000	0.420200
C2451	C245	0.629400	0.492300	0.338300
C2461	C246	0.992300	0.988000	0.617200
C2471	C247	0.880800	0.269500	0.574100
C2481	C248	0.131400	0.023000	0.665200
C2491	C249	0.029500	0.628200	0.176800
C2501	C250	0.338900	0.780000	0.920200
C2511	C251	0.165000	0.960500	0.821700
C2521	C252	0.119200	0.730500	0.425900
C2531	C253	0.849700	0.925900	0.269500
C2541	C254	0.580700	0.698500	0.408100
C2551	C255	0.827700	0.512200	0.700000
C2561	C256	0.539900	0.987800	0.800000
C2571	C257	0.835000	0.039500	0.178300
C2581	C258	0.489200	0.028900	0.360700
C2591	C259	0.150100	0.360700	0.471100
C2601	C260	0.167400	0.207400	0.101200
C2611	C261	0.374800	0.601200	0.792600
C2621	C262	0.539100	0.720000	0.579800
C2631	C263	0.760800	0.667000	0.751400
C2641	C264	0.771000	0.883400	0.201000
C2651	C265	0.323600	0.117000	0.105800
C2661	C266	0.616600	0.918300	0.750100
C2671	C267	0.868600	0.977000	0.334800
C2681	C268	0.464300	0.305000	0.965600
C2691	C269	0.355400	0.616600	0.299000
C2701	C270	0.970600	0.005400	0.337400
C2711	C271	0.660400	0.157400	0.875800
C2721	C272	0.520600	0.283100	0.337700
N11	N1	0.351400	0.538400	0.273400
N21	N2	0.515400	0.960200	0.765000
N31	N3	0.484600	0.039800	0.235000
N41	N4	0.577900	0.530000	0.210000
N51	N5	0.163700	0.323400	0.504800
N61	N6	0.889800	0.773400	0.461600
N71	N7	0.259400	0.460200	0.265000
N81	N8	0.340200	0.236400	0.375200
N91	N9	0.110200	0.226600	0.538400
N101	N10	0.648600	0.461600	0.726600
N111	N11	0.513800	0.916200	0.342200
N121	N12	0.996200	0.082100	0.485500
N131	N13	0.564600	0.450600	0.272800
N141	N14	0.107900	0.710000	0.470000
N151	N15	0.836300	0.676600	0.495200
N161	N16	0.727800	0.416200	0.842200
N171	N17	0.144000	0.342200	0.583800
N181	N18	0.984800	0.227200	0.450600
N191	N19	0.481700	0.514500	0.582100
N201	N20	0.423400	0.124800	0.236400
N211	N21	0.373800	0.577900	0.492100
N221	N22	0.015200	0.772800	0.549400
N231	N23	0.865900	0.507900	0.077900
N241	N24	0.056200	0.077900	0.992100
N251	N25	0.491900	0.176600	0.995200
N261	N26	0.663200	0.961600	0.226600
N271	N27	0.212100	0.210000	0.970000
N281	N28	0.715400	0.808900	0.932900
N291	N29	0.817900	0.970000	0.290000
N301	N30	0.524400	0.735000	0.960200
N311	N31	0.957200	0.691100	0.567100
N321	N32	0.048300	0.007900	0.577900
N331	N33	0.892100	0.290000	0.530000
N341	N34	0.487100	0.004800	0.676600
N351	N35	0.508100	0.823400	0.004800
N361	N36	0.003800	0.917900	0.514500
N371	N37	0.435400	0.549400	0.727200
N381	N38	0.182100	0.030000	0.710000
N391	N39	0.284600	0.191100	0.067100
N401	N40	0.422100	0.470000	0.790000
N411	N41	0.331500	0.504800	0.176600
N421	N42	0.518300	0.485500	0.417900
N431	N43	0.475600	0.265000	0.039800
N441	N44	0.351700	0.932900	0.691100
N451	N45	0.134100	0.492100	0.922100
N461	N46	0.668500	0.495200	0.823400
N471	N47	0.943800	0.922100	0.007900
N481	N48	0.451800	0.263600	0.124800
N491	N49	0.787900	0.790000	0.030000
N501	N50	0.659800	0.763600	0.624800
N511	N51	0.570000	0.157800	0.916200
N521	N52	0.512900	0.995200	0.323400
N531	N53	0.524300	0.432900	0.191100
N541	N54	0.624800	0.726600	0.038400
N551	N55	0.475700	0.567100	0.808900
N561	N56	0.951700	0.992100	0.422100
N571	N57	0.272200	0.583800	0.157800
N581	N58	0.162600	0.272800	0.049400
N591	N59	0.548200	0.736400	0.875200
N601	N60	0.788000	0.049400	0.227200
N611	N61	0.280400	0.235000	0.460200
N621	N62	0.284600	0.375200	0.263600
N631	N63	0.719600	0.765000	0.539800
N641	N64	0.921700	0.014500	0.082100
N651	N65	0.626200	0.422100	0.507900
N661	N66	0.936200	0.582100	0.985500
N671	N67	0.430000	0.842200	0.083800
N681	N68	0.078300	0.985500	0.917900
N691	N69	0.740600	0.539800	0.735000
N701	N70	0.837400	0.727200	0.950600
N711	N71	0.375200	0.273400	0.961600
N721	N72	0.648300	0.067100	0.308900
N731	N73	0.042800	0.308900	0.432900
N741	N74	0.856000	0.657800	0.416200
N751	N75	0.576600	0.875200	0.763600
N761	N76	0.715400	0.624800	0.736400
N771	N77	0.063800	0.417900	0.014500
N781	N78	0.486200	0.083800	0.657800
N791	N79	0.336800	0.038400	0.773400
N801	N80	0.212000	0.950600	0.772800
Cl11	Cl1	0.215200	0.518500	0.027700
Cl21	Cl2	0.242900	0.972300	0.018500
Cl31	Cl3	0.733700	0.527700	0.481500
Cl41	Cl4	0.266300	0.472300	0.518500
Cl51	Cl5	0.738600	0.018500	0.527700
Cl61	Cl6	0.757100	0.027700	0.981500
Cl71	Cl7	0.261400	0.981500	0.472300
Cl81	Cl8	0.784800	0.481500	0.972300
O11	O1	0.201900	0.399700	0.475100
O21	O2	0.827600	0.781500	0.109300
O31	O3	0.936900	0.890700	0.281500
O41	O4	0.576700	0.100300	0.024900
O51	O5	0.781600	0.281500	0.609300
O61	O6	0.279800	0.623000	0.721000
O71	O7	0.063400	0.478100	0.327300
O81	O8	0.398400	0.024900	0.399700
O91	O9	0.601600	0.975100	0.600300
O101	O10	0.368800	0.021900	0.172700
O111	O11	0.677000	0.524900	0.899700
O121	O12	0.097200	0.779000	0.623000
O131	O13	0.631200	0.978100	0.827300
O141	O14	0.936600	0.521900	0.672700
O151	O15	0.423300	0.899700	0.975100
O161	O16	0.063100	0.109300	0.718500
O171	O17	0.123800	0.877000	0.779000
O181	O18	0.458500	0.172700	0.478100
O191	O19	0.609300	0.327300	0.021900
O201	O20	0.323000	0.475100	0.100300
O211	O21	0.798100	0.600300	0.524900
O221	O22	0.390900	0.390700	0.781500
O231	O23	0.541500	0.827300	0.521900
O241	O24	0.720200	0.377000	0.279000
O251	O25	0.876200	0.123000	0.221000
O261	O26	0.609100	0.609300	0.218500
O271	O27	0.218400	0.718500	0.390700
O281	O28	0.902800	0.221000	0.377000
O291	O29	0.390700	0.672700	0.978100
O301	O30	0.172400	0.218500	0.890700
O311	O31	0.999200	0.721000	0.877000
O321	O32	0.000800	0.279000	0.123000
