data_GOVHOQ_freeONLY_PM
_symmetry_space_group_name_H-M	'P1'
_cell_length_a	5.124200
_cell_length_b	25.064100
_cell_length_c	27.187700
_cell_angle_alpha	90.000000
_cell_angle_beta	90.940000
_cell_angle_gamma	90.000000
_symmetry_Int_Tables_number 1

loop_
_symmetry_equiv_pos_as_xyz
'x,y,z'

loop_
_atom_site_label
_atom_site_type_symbol
_atom_site_fract_x
_atom_site_fract_y
_atom_site_fract_z
Zn11	Zn1	0.403630	0.287250	0.361190
Zn21	Zn2	0.897100	0.108670	0.374890
Zn31	Zn3	0.265540	0.060070	0.283230
Zn41	Zn4	0.827790	0.960380	0.211560
Zn51	Zn5	0.733190	0.000860	0.434410
P11	P1	0.391600	0.165110	0.341260
P21	P2	0.303200	0.019810	0.175760
P31	P3	0.581800	0.857010	0.161080
P41	P4	0.789200	0.000710	0.320350
P51	P5	0.786800	0.936580	0.532350
O11	O1	0.501100	0.220430	0.331390
O21	O2	0.411600	0.132060	0.293570
O31	O3	0.550800	0.136410	0.382560
O41	O4	0.109000	0.168120	0.357830
O51	O5	0.193100	0.057200	0.214010
O61	O6	0.263900	0.046700	0.123750
H11	H1	0.202100	0.070700	0.109600
O71	O7	0.155400	0.966520	0.174790
O81	O8	0.595700	0.012090	0.181170
O91	O9	0.432800	0.896800	0.125500
H21	H2	0.480800	0.916900	0.098300
O101	O10	0.795800	0.833250	0.130000
O111	O11	0.388000	0.814990	0.178410
O121	O12	0.686900	0.887680	0.205390
O131	O13	0.915700	0.966770	0.280880
O141	O14	0.835200	0.973310	0.370560
O151	O15	0.934800	0.056420	0.321120
O161	O16	0.500500	0.008900	0.312010
O171	O17	0.855200	0.946580	0.479320
O181	O18	0.647700	0.880500	0.534270
O191	O19	0.047300	0.931660	0.562980
O201	O20	0.622000	0.979580	0.555520
N11	N1	0.292700	0.275600	0.432100
N21	N2	0.893300	0.279800	0.597900
N31	N3	0.009000	0.224240	0.658360
H31	H3	0.008300	0.205100	0.682300
N41	N4	0.271100	0.331800	0.732700
H41	H4	0.153900	0.345600	0.754100
N51	N5	0.746000	0.093800	0.625700
H51	H5	0.861800	0.071300	0.622000
C11	C1	0.085200	0.246800	0.443900
H61	H6	0.978900	0.233900	0.418500
C21	C2	0.019500	0.235100	0.491100
H71	H7	0.876100	0.213500	0.497200
C31	C3	0.165200	0.255300	0.529500
C41	C4	0.377100	0.285700	0.518700
H81	H8	0.481900	0.299800	0.543700
C51	C5	0.435300	0.295400	0.469300
H91	H9	0.579000	0.316600	0.462200
C61	C6	0.084700	0.246700	0.581000
C71	C7	0.852400	0.265100	0.644300
C81	C8	0.163600	0.211800	0.619000
C91	C9	0.653800	0.288900	0.675600
C101	C10	0.496900	0.331100	0.657600
H101	H10	0.520900	0.344600	0.626100
C111	C11	0.309500	0.351900	0.687200
H111	H11	0.207200	0.380200	0.675900
C121	C12	0.419100	0.292200	0.750600
H121	H12	0.389700	0.279600	0.782300
C131	C13	0.614000	0.269400	0.723400
H131	H13	0.716500	0.242000	0.736200
C141	C14	0.362000	0.170600	0.620900
C151	C15	0.436700	0.147100	0.665500
H141	H14	0.354400	0.157100	0.694300
C161	C16	0.631400	0.109100	0.667200
H151	H15	0.682900	0.094200	0.697200
C171	C17	0.675100	0.113900	0.582100
H161	H16	0.756300	0.102000	0.553800
C181	C18	0.482900	0.152300	0.578500
H171	H17	0.434000	0.165900	0.547800
Zn61	Zn6	0.096370	0.787250	0.138810
Zn71	Zn7	0.602900	0.608670	0.125110
Zn81	Zn8	0.234460	0.560070	0.216770
Zn91	Zn9	0.672210	0.460380	0.288440
Zn101	Zn10	0.766810	0.500860	0.065590
P61	P6	0.108400	0.665110	0.158740
P71	P7	0.196800	0.519810	0.324240
P81	P8	0.918200	0.357010	0.338920
P91	P9	0.710800	0.500710	0.179650
P101	P10	0.713200	0.436580	0.967650
O211	O21	0.998900	0.720430	0.168610
O221	O22	0.088400	0.632060	0.206430
O231	O23	0.949200	0.636410	0.117440
O241	O24	0.391000	0.668120	0.142170
O251	O25	0.306900	0.557200	0.285990
O261	O26	0.236100	0.546700	0.376250
H181	H18	0.297900	0.570700	0.390400
O271	O27	0.344600	0.466520	0.325210
O281	O28	0.904300	0.512090	0.318830
O291	O29	0.067200	0.396800	0.374500
H191	H19	0.019200	0.416900	0.401700
O301	O30	0.704200	0.333250	0.370000
O311	O31	0.112000	0.314990	0.321590
O321	O32	0.813100	0.387680	0.294610
O331	O33	0.584300	0.466770	0.219120
O341	O34	0.664800	0.473310	0.129440
O351	O35	0.565200	0.556420	0.178880
O361	O36	0.999500	0.508900	0.187990
O371	O37	0.644800	0.446580	0.020680
O381	O38	0.852300	0.380500	0.965730
O391	O39	0.452700	0.431660	0.937020
O401	O40	0.878000	0.479580	0.944480
N61	N6	0.207300	0.775600	0.067900
N71	N7	0.606700	0.779800	0.902100
N81	N8	0.491000	0.724240	0.841640
H201	H20	0.491700	0.705100	0.817700
N91	N9	0.228900	0.831800	0.767300
H211	H21	0.346100	0.845600	0.745900
N101	N10	0.754000	0.593800	0.874300
H221	H22	0.638200	0.571300	0.878000
C191	C19	0.414800	0.746800	0.056100
H231	H23	0.521100	0.733900	0.081500
C201	C20	0.480500	0.735100	0.008900
H241	H24	0.623900	0.713500	0.002800
C211	C21	0.334800	0.755300	0.970500
C221	C22	0.122900	0.785700	0.981300
H251	H25	0.018100	0.799800	0.956300
C231	C23	0.064700	0.795400	0.030700
H261	H26	0.921000	0.816600	0.037800
C241	C24	0.415300	0.746700	0.919000
C251	C25	0.647600	0.765100	0.855700
C261	C26	0.336400	0.711800	0.881000
C271	C27	0.846200	0.788900	0.824400
C281	C28	0.003100	0.831100	0.842400
H271	H27	0.979100	0.844600	0.873900
C291	C29	0.190500	0.851900	0.812800
H281	H28	0.292800	0.880200	0.824100
C301	C30	0.080900	0.792200	0.749400
H291	H29	0.110300	0.779600	0.717700
C311	C31	0.886000	0.769400	0.776600
H301	H30	0.783500	0.742000	0.763800
C321	C32	0.138000	0.670600	0.879100
C331	C33	0.063300	0.647100	0.834500
H311	H31	0.145600	0.657100	0.805700
C341	C34	0.868600	0.609100	0.832800
H321	H32	0.817100	0.594200	0.802800
C351	C35	0.824900	0.613900	0.917900
H331	H33	0.743700	0.602000	0.946200
C361	C36	0.017100	0.652300	0.921500
H341	H34	0.066000	0.665900	0.952200
Zn111	Zn11	0.596370	0.712750	0.638810
Zn121	Zn12	0.102900	0.891330	0.625110
Zn131	Zn13	0.734460	0.939930	0.716770
Zn141	Zn14	0.172210	0.039620	0.788440
Zn151	Zn15	0.266810	0.999140	0.565590
P111	P11	0.608400	0.834890	0.658740
P121	P12	0.696800	0.980190	0.824240
P131	P13	0.418200	0.142990	0.838920
P141	P14	0.210800	0.999290	0.679650
P151	P15	0.213200	0.063420	0.467650
O411	O41	0.498900	0.779570	0.668610
O421	O42	0.588400	0.867940	0.706430
O431	O43	0.449200	0.863590	0.617440
O441	O44	0.891000	0.831880	0.642170
O451	O45	0.806900	0.942800	0.785990
O461	O46	0.736100	0.953300	0.876250
H351	H35	0.797900	0.929300	0.890400
O471	O47	0.844600	0.033480	0.825210
O481	O48	0.404300	0.987910	0.818830
O491	O49	0.567200	0.103200	0.874500
H361	H36	0.519200	0.083100	0.901700
O501	O50	0.204200	0.166750	0.870000
O511	O51	0.612000	0.185010	0.821590
O521	O52	0.313100	0.112320	0.794610
O531	O53	0.084300	0.033230	0.719120
O541	O54	0.164800	0.026690	0.629440
O551	O55	0.065200	0.943580	0.678880
O561	O56	0.499500	0.991100	0.687990
O571	O57	0.144800	0.053420	0.520680
O581	O58	0.352300	0.119500	0.465730
O591	O59	0.952700	0.068340	0.437020
O601	O60	0.378000	0.020420	0.444480
N111	N11	0.707300	0.724400	0.567900
N121	N12	0.106700	0.720200	0.402100
N131	N13	0.991000	0.775760	0.341640
H371	H37	0.991700	0.794900	0.317700
N141	N14	0.728900	0.668200	0.267300
H381	H38	0.846100	0.654400	0.245900
N151	N15	0.254000	0.906200	0.374300
H391	H39	0.138200	0.928700	0.378000
C371	C37	0.914800	0.753200	0.556100
H401	H40	0.021100	0.766100	0.581500
C381	C38	0.980500	0.764900	0.508900
H411	H41	0.123900	0.786500	0.502800
C391	C39	0.834800	0.744700	0.470500
C401	C40	0.622900	0.714300	0.481300
H421	H42	0.518100	0.700200	0.456300
C411	C41	0.564700	0.704600	0.530700
H431	H43	0.421000	0.683400	0.537800
C421	C42	0.915300	0.753300	0.419000
C431	C43	0.147600	0.734900	0.355700
C441	C44	0.836400	0.788200	0.381000
C451	C45	0.346200	0.711100	0.324400
C461	C46	0.503100	0.668900	0.342400
H441	H44	0.479100	0.655400	0.373900
C471	C47	0.690500	0.648100	0.312800
H451	H45	0.792800	0.619800	0.324100
C481	C48	0.580900	0.707800	0.249400
H461	H46	0.610300	0.720400	0.217700
C491	C49	0.386000	0.730600	0.276600
H471	H47	0.283500	0.758000	0.263800
C501	C50	0.638000	0.829400	0.379100
C511	C51	0.563300	0.852900	0.334500
H481	H48	0.645600	0.842900	0.305700
C521	C52	0.368600	0.890900	0.332800
H491	H49	0.317100	0.905800	0.302800
C531	C53	0.324900	0.886100	0.417900
H501	H50	0.243700	0.898000	0.446200
C541	C54	0.517100	0.847700	0.421500
H511	H51	0.566000	0.834100	0.452200
Zn161	Zn16	0.903630	0.212750	0.861190
Zn171	Zn17	0.397100	0.391330	0.874890
Zn181	Zn18	0.765540	0.439930	0.783230
Zn191	Zn19	0.327790	0.539620	0.711560
Zn201	Zn20	0.233190	0.499140	0.934410
P161	P16	0.891600	0.334890	0.841260
P171	P17	0.803200	0.480190	0.675760
P181	P18	0.081800	0.642990	0.661080
P191	P19	0.289200	0.499290	0.820350
P201	P20	0.286800	0.563420	0.032350
O611	O61	0.001100	0.279570	0.831390
O621	O62	0.911600	0.367940	0.793570
O631	O63	0.050800	0.363590	0.882560
O641	O64	0.609000	0.331880	0.857830
O651	O65	0.693100	0.442800	0.714010
O661	O66	0.763900	0.453300	0.623750
H521	H52	0.702100	0.429300	0.609600
O671	O67	0.655400	0.533480	0.674790
O681	O68	0.095700	0.487910	0.681170
O691	O69	0.932800	0.603200	0.625500
H531	H53	0.980800	0.583100	0.598300
O701	O70	0.295800	0.666750	0.630000
O711	O71	0.888000	0.685010	0.678410
O721	O72	0.186900	0.612320	0.705390
O731	O73	0.415700	0.533230	0.780880
O741	O74	0.335200	0.526690	0.870560
O751	O75	0.434800	0.443580	0.821120
O761	O76	0.000500	0.491100	0.812010
O771	O77	0.355200	0.553420	0.979320
O781	O78	0.147700	0.619500	0.034270
O791	O79	0.547300	0.568340	0.062980
O801	O80	0.122000	0.520420	0.055520
N161	N16	0.792700	0.224400	0.932100
N171	N17	0.393300	0.220200	0.097900
N181	N18	0.509000	0.275760	0.158360
H541	H54	0.508300	0.294900	0.182300
N191	N19	0.771100	0.168200	0.232700
H551	H55	0.653900	0.154400	0.254100
N201	N20	0.246000	0.406200	0.125700
H561	H56	0.361800	0.428700	0.122000
C551	C55	0.585200	0.253200	0.943900
H571	H57	0.478900	0.266100	0.918500
C561	C56	0.519500	0.264900	0.991100
H581	H58	0.376100	0.286500	0.997200
C571	C57	0.665200	0.244700	0.029500
C581	C58	0.877100	0.214300	0.018700
H591	H59	0.981900	0.200200	0.043700
C591	C59	0.935300	0.204600	0.969300
H601	H60	0.079000	0.183400	0.962200
C601	C60	0.584700	0.253300	0.081000
C611	C61	0.352400	0.234900	0.144300
C621	C62	0.663600	0.288200	0.119000
C631	C63	0.153800	0.211100	0.175600
C641	C64	0.996900	0.168900	0.157600
H611	H61	0.020900	0.155400	0.126100
C651	C65	0.809500	0.148100	0.187200
H621	H62	0.707200	0.119800	0.175900
C661	C66	0.919100	0.207800	0.250600
H631	H63	0.889700	0.220400	0.282300
C671	C67	0.114000	0.230600	0.223400
H641	H64	0.216500	0.258000	0.236200
C681	C68	0.862000	0.329400	0.120900
C691	C69	0.936700	0.352900	0.165500
H651	H65	0.854400	0.342900	0.194300
C701	C70	0.131400	0.390900	0.167200
H661	H66	0.182900	0.405800	0.197200
C711	C71	0.175100	0.386100	0.082100
H671	H67	0.256300	0.398000	0.053800
C721	C72	0.982900	0.347700	0.078500
H681	H68	0.934000	0.334100	0.047800
