data_GOYXAV_freeONLY_PM
_symmetry_space_group_name_H-M	'P1'
_cell_length_a	9.528000
_cell_length_b	12.011200
_cell_length_c	16.899000
_cell_angle_alpha	96.328900
_cell_angle_beta	90.000000
_cell_angle_gamma	113.368000
_symmetry_Int_Tables_number 1

loop_
_symmetry_equiv_pos_as_xyz
'x,y,z'

loop_
_atom_site_label
_atom_site_type_symbol
_atom_site_fract_x
_atom_site_fract_y
_atom_site_fract_z
Sm11	Sm1	0.796400	0.990860	0.065790
Sm21	Sm2	0.194460	0.990860	0.565790
Sm31	Sm3	0.203600	0.009140	0.934210
Sm41	Sm4	0.805540	0.009140	0.434210
Ag11	Ag1	0.222940	0.683940	0.416380
Ag21	Ag2	0.539000	0.316060	0.083620
Ag31	Ag3	0.777060	0.316060	0.583620
Ag41	Ag4	0.461000	0.683940	0.916380
H11	H1	0.466200	0.099400	0.332100
H21	H2	0.447500	0.698400	0.550000
H31	H3	0.491100	0.420400	0.371200
H41	H4	0.089200	0.419000	0.458600
H51	H5	0.929300	0.420400	0.871200
H61	H6	0.329800	0.419000	0.958600
H71	H7	0.508900	0.579600	0.628800
H81	H8	0.910800	0.581000	0.541400
H91	H9	0.881500	0.809600	0.720600
H101	H10	0.071900	0.190400	0.779400
H111	H11	0.030300	0.288200	0.677900
H121	H12	0.010500	0.373200	0.119200
H131	H13	0.118500	0.190400	0.279400
H141	H14	0.670200	0.581000	0.041400
H151	H15	0.969700	0.711800	0.322100
H161	H16	0.606500	0.197600	0.729400
H171	H17	0.393500	0.802400	0.270600
H181	H18	0.070700	0.579600	0.128800
H191	H19	0.928100	0.809600	0.220600
H201	H20	0.591100	0.197600	0.229400
H211	H21	0.637300	0.626800	0.380800
H221	H22	0.366800	0.900600	0.167900
H231	H23	0.533800	0.900600	0.667900
H241	H24	0.989500	0.626800	0.880800
H251	H25	0.408900	0.802400	0.770600
H261	H26	0.362700	0.373200	0.619200
H271	H27	0.742100	0.711800	0.822100
H281	H28	0.552500	0.301600	0.450000
H291	H29	0.257900	0.288200	0.177900
H301	H30	0.633200	0.099400	0.832100
H311	H31	0.749100	0.301600	0.950000
H321	H32	0.250900	0.698400	0.050000
C11	C1	0.024800	0.810800	0.230300
C21	C2	0.854600	0.128200	0.815700
C31	C3	0.580500	0.864800	0.699200
C41	C4	0.793100	0.070400	0.254900
C51	C5	0.770300	0.384600	0.953500
C61	C6	0.214000	0.189200	0.269700
C71	C7	0.463600	0.930200	0.487700
C81	C8	0.466600	0.930200	0.987700
C91	C9	0.050900	0.751600	0.291000
C101	C10	0.823300	0.549400	0.507700
C111	C11	0.726400	0.871800	0.684300
C121	C12	0.715700	0.135200	0.800800
C131	C13	0.614300	0.384600	0.453500
C141	C14	0.176700	0.450600	0.492300
C151	C15	0.879500	0.455600	0.906600
C161	C16	0.505800	0.804400	0.760700
C171	C17	0.871600	0.760200	0.974700
C181	C18	0.273600	0.128200	0.315700
C191	C19	0.700700	0.751600	0.791000
C201	C20	0.949100	0.248400	0.709000
C211	C21	0.423900	0.544400	0.593400
C221	C22	0.533400	0.069800	0.012300
C231	C23	0.819200	0.942000	0.621700
C241	C24	0.120500	0.544400	0.093400
C251	C25	0.277300	0.070400	0.754900
C261	C26	0.273900	0.450600	0.992300
C271	C27	0.722700	0.929600	0.245100
C281	C28	0.180800	0.058000	0.378300
C291	C29	0.790200	0.628000	0.464500
C301	C30	0.888600	0.760200	0.474700
C311	C31	0.145400	0.871800	0.184300
C321	C32	0.975200	0.189200	0.769700
C331	C33	0.536400	0.069800	0.512300
C341	C34	0.726100	0.549400	0.007700
C351	C35	0.419500	0.135200	0.300800
C361	C36	0.299300	0.248400	0.209000
C371	C37	0.122800	0.942000	0.121700
C381	C38	0.494200	0.195600	0.239300
C391	C39	0.576100	0.455600	0.406600
C401	C40	0.385700	0.615400	0.546500
C411	C41	0.337100	0.422200	0.588100
C421	C42	0.298600	0.804400	0.260700
C431	C43	0.229700	0.615400	0.046500
C441	C44	0.111400	0.239800	0.525300
C451	C45	0.085100	0.422200	0.088100
C461	C46	0.206900	0.929600	0.745100
C471	C47	0.701400	0.195600	0.739300
C481	C48	0.209800	0.372000	0.535500
C491	C49	0.786000	0.810800	0.730300
C501	C50	0.877200	0.058000	0.878300
C511	C51	0.837800	0.628000	0.964500
C521	C52	0.284300	0.864800	0.199200
C531	C53	0.128400	0.239800	0.025300
C541	C54	0.662900	0.577800	0.411900
C551	C55	0.162200	0.372000	0.035500
C561	C56	0.914900	0.577800	0.911900
N11	N1	0.186100	0.748200	0.307100
N21	N2	0.305300	0.570400	0.996700
N31	N3	0.694700	0.429600	0.003300
N41	N4	0.437900	0.251800	0.192900
N51	N5	0.265100	0.570400	0.496700
N61	N6	0.734900	0.429600	0.503300
N71	N7	0.562100	0.748200	0.807100
N81	N8	0.813900	0.251800	0.692900
O11	O1	0.168900	0.880600	0.807000
O21	O2	0.195300	0.877400	0.675700
O31	O3	0.532800	0.886200	0.440300
O41	O4	0.774300	0.021800	0.926400
O51	O5	0.225700	0.978200	0.073600
O61	O6	0.999700	0.043200	0.878700
O71	O7	0.833700	0.828600	0.452500
O81	O8	0.000300	0.956800	0.121300
O91	O9	0.532700	0.872600	0.018400
O101	O10	0.228000	0.208400	0.994400
O111	O11	0.467200	0.113800	0.559700
O121	O12	0.660100	0.127400	0.481600
O131	O13	0.682100	0.877400	0.175700
O141	O14	0.646600	0.113800	0.059700
O151	O15	0.467300	0.127400	0.981600
O161	O16	0.019600	0.791600	0.505600
O171	O17	0.804700	0.122600	0.324300
O181	O18	0.956500	0.956800	0.621300
O191	O19	0.772000	0.791600	0.005600
O201	O20	0.980400	0.208400	0.494400
O211	O21	0.994900	0.828600	0.952500
O221	O22	0.339900	0.872600	0.518400
O231	O23	0.711700	0.880600	0.307000
O241	O24	0.288300	0.119400	0.693000
O251	O25	0.166300	0.171400	0.547500
O261	O26	0.043500	0.043200	0.378700
O271	O27	0.247500	0.021800	0.426400
O281	O28	0.831100	0.119400	0.193000
O291	O29	0.317900	0.122600	0.824300
O301	O30	0.752500	0.978200	0.573600
O311	O31	0.005100	0.171400	0.047500
O321	O32	0.353400	0.886200	0.940300
