data_GOYXUP_freeONLY_PM
_symmetry_space_group_name_H-M	'P1'
_cell_length_a	9.490000
_cell_length_b	12.071700
_cell_length_c	16.783000
_cell_angle_alpha	96.008800
_cell_angle_beta	90.000000
_cell_angle_gamma	113.146000
_symmetry_Int_Tables_number 1

loop_
_symmetry_equiv_pos_as_xyz
'x,y,z'

loop_
_atom_site_label
_atom_site_type_symbol
_atom_site_fract_x
_atom_site_fract_y
_atom_site_fract_z
Dy11	Dy1	0.303850	0.009350	0.434070
Dy21	Dy2	0.294500	0.990650	0.065930
Dy31	Dy3	0.705510	0.009360	0.934070
Dy41	Dy4	0.696160	0.990660	0.565930
Ag11	Ag1	0.716970	0.684620	0.420470
Ag21	Ag2	0.283030	0.315380	0.579530
Ag31	Ag3	0.032350	0.315380	0.079530
Ag41	Ag4	0.967650	0.684620	0.920470
H11	H1	0.426300	0.812000	0.221500
H21	H2	0.614300	0.188000	0.278500
H31	H3	0.497300	0.366600	0.115000
H41	H4	0.434500	0.426600	0.868800
H51	H5	0.169100	0.582800	0.039700
H61	H6	0.385700	0.812000	0.721500
H71	H7	0.092500	0.199600	0.227800
H81	H8	0.830900	0.417200	0.960300
H91	H9	0.961700	0.096000	0.331100
H101	H10	0.058700	0.305200	0.443900
H111	H11	0.865700	0.904000	0.168900
H121	H12	0.413700	0.582800	0.539700
H131	H13	0.502700	0.633400	0.885000
H141	H14	0.130700	0.633400	0.385000
H151	H15	0.753500	0.694800	0.056100
H161	H16	0.941300	0.694800	0.556100
H171	H17	0.757100	0.294800	0.181300
H181	H18	0.537700	0.294800	0.681300
H191	H19	0.892900	0.800400	0.272200
H201	H20	0.992100	0.426600	0.368800
H211	H21	0.869300	0.366600	0.615000
H221	H22	0.242900	0.705200	0.818700
H231	H23	0.134300	0.096000	0.831100
H241	H24	0.007900	0.573400	0.631200
H251	H25	0.586300	0.417200	0.460300
H261	H26	0.907500	0.800400	0.772200
H271	H27	0.107100	0.199600	0.727800
H281	H28	0.573700	0.188000	0.778500
H291	H29	0.038300	0.904000	0.668900
H301	H30	0.462300	0.705200	0.318700
H311	H31	0.565500	0.573400	0.131200
H321	H32	0.246500	0.305200	0.943900
C11	C1	0.730600	0.612000	0.050900
C21	C2	0.643000	0.871200	0.184800
C31	C3	0.035700	0.069800	0.510500
C41	C4	0.291200	0.631600	0.463700
C51	C5	0.454100	0.251200	0.710100
C61	C6	0.610900	0.236000	0.523400
C71	C7	0.379800	0.054800	0.878300
C81	C8	0.545900	0.748800	0.289900
C91	C9	0.005300	0.803600	0.762200
C101	C10	0.994700	0.196400	0.237800
C111	C11	0.798300	0.803600	0.262200
C121	C12	0.083400	0.866200	0.699900
C131	C13	0.522400	0.810800	0.230500
C141	C14	0.964300	0.930200	0.489500
C151	C15	0.774900	0.448400	0.994400
C161	C16	0.771800	0.128800	0.315200
C171	C17	0.222100	0.929600	0.245700
C181	C18	0.326500	0.551600	0.505600
C191	C19	0.383700	0.460600	0.904500
C201	C20	0.288400	0.810800	0.730500
C211	C21	0.228200	0.871200	0.684800
C221	C22	0.160800	0.583200	0.412900
C231	C23	0.625100	0.236000	0.023400
C241	C24	0.340400	0.631600	0.963700
C251	C25	0.357000	0.128800	0.815200
C261	C26	0.707500	0.929600	0.745700
C271	C27	0.711600	0.189200	0.269500
C281	C28	0.839200	0.416800	0.587100
C291	C29	0.620200	0.945200	0.121700
C301	C30	0.389100	0.764000	0.476600
C311	C31	0.325000	0.945200	0.621700
C321	C32	0.616300	0.539400	0.095500
C331	C33	0.881400	0.612000	0.550900
C341	C34	0.225100	0.551600	0.005600
C351	C35	0.217200	0.133800	0.800100
C361	C36	0.292500	0.070400	0.254300
C371	C37	0.577600	0.416800	0.087100
C381	C38	0.675000	0.054800	0.378300
C391	C39	0.797100	0.251200	0.210100
C401	C40	0.659600	0.368400	0.036300
C411	C41	0.422400	0.583200	0.912900
C421	C42	0.673500	0.448400	0.494400
C431	C43	0.374900	0.764000	0.976600
C441	C44	0.269400	0.388000	0.949100
C451	C45	0.916600	0.133800	0.300100
C461	C46	0.076900	0.460600	0.404500
C471	C47	0.202900	0.748800	0.789900
C481	C48	0.782800	0.866200	0.199900
C491	C49	0.477600	0.189200	0.769500
C501	C50	0.923100	0.539400	0.595500
C511	C51	0.118600	0.388000	0.449100
C521	C52	0.201700	0.196400	0.737800
C531	C53	0.777900	0.070400	0.754300
C541	C54	0.034100	0.069800	0.010500
C551	C55	0.965900	0.930200	0.989500
C561	C56	0.708800	0.368400	0.536300
N11	N1	0.318700	0.252400	0.691800
N21	N2	0.066300	0.747600	0.808200
N31	N3	0.809700	0.567800	0.000600
N41	N4	0.933700	0.252400	0.191800
N51	N5	0.190300	0.432200	0.999400
N61	N6	0.681300	0.747600	0.308200
N71	N7	0.758100	0.567800	0.500600
N81	N8	0.241900	0.432200	0.499400
O11	O1	0.033900	0.874200	0.020700
O21	O2	0.209900	0.881000	0.308600
O31	O3	0.463100	0.962400	0.622600
O41	O4	0.965100	0.115000	0.557500
O51	O5	0.275300	0.797400	0.008300
O61	O6	0.741300	0.014000	0.427400
O71	O7	0.671100	0.881000	0.808600
O81	O8	0.034900	0.885000	0.442500
O91	O9	0.304800	0.123000	0.324400
O101	O10	0.477900	0.202600	0.491700
O111	O11	0.669700	0.166800	0.544900
O121	O12	0.727300	0.986000	0.072600
O131	O13	0.502900	0.833200	0.955100
O141	O14	0.724700	0.202600	0.991700
O151	O15	0.272700	0.014000	0.927400
O161	O16	0.522100	0.797400	0.508300
O171	O17	0.695200	0.877000	0.675600
O181	O18	0.149900	0.115000	0.057500
O191	O19	0.159700	0.125800	0.479300
O201	O20	0.181800	0.877000	0.175600
O211	O21	0.500700	0.037600	0.877400
O221	O22	0.536900	0.037600	0.377400
O231	O23	0.966100	0.125800	0.979300
O241	O24	0.850100	0.885000	0.942500
O251	O25	0.818200	0.123000	0.824400
O261	O26	0.258700	0.986000	0.572600
O271	O27	0.330300	0.833200	0.455100
O281	O28	0.790100	0.119000	0.691400
O291	O29	0.497100	0.166800	0.044900
O301	O30	0.840300	0.874200	0.520700
O311	O31	0.328900	0.119000	0.191400
O321	O32	0.499300	0.962400	0.122600
