data_GOYYEA_freeONLY_PM
_symmetry_space_group_name_H-M	'P1'
_cell_length_a	9.446000
_cell_length_b	12.005500
_cell_length_c	16.685000
_cell_angle_alpha	96.275100
_cell_angle_beta	90.000000
_cell_angle_gamma	113.166000
_symmetry_Int_Tables_number 1

loop_
_symmetry_equiv_pos_as_xyz
'x,y,z'

loop_
_atom_site_label
_atom_site_type_symbol
_atom_site_fract_x
_atom_site_fract_y
_atom_site_fract_z
Y11	Y1	0.303060	0.009000	0.434040
Y21	Y2	0.705940	0.009000	0.934040
Y31	Y3	0.696940	0.991000	0.565960
Y41	Y4	0.294060	0.991000	0.065960
Ag11	Ag1	0.717130	0.682140	0.418820
Ag21	Ag2	0.034990	0.317860	0.081180
Ag31	Ag3	0.282870	0.317860	0.581180
Ag41	Ag4	0.965010	0.682140	0.918820
H11	H1	0.108100	0.198000	0.726800
H21	H2	0.866600	0.904000	0.169300
H31	H3	0.750800	0.693400	0.053000
H41	H4	0.133400	0.096000	0.830700
H51	H5	0.578300	0.192400	0.780500
H61	H6	0.614100	0.192400	0.280500
H71	H7	0.130500	0.632400	0.383400
H81	H8	0.249200	0.306600	0.947000
H91	H9	0.243200	0.702800	0.817700
H101	H10	0.962600	0.096000	0.330700
H111	H11	0.421700	0.807600	0.219500
H121	H12	0.989000	0.423400	0.367800
H131	H13	0.089900	0.198000	0.226800
H141	H14	0.498100	0.367600	0.116600
H151	H15	0.831000	0.415200	0.958600
H161	H16	0.584200	0.415200	0.458600
H171	H17	0.011000	0.576600	0.632200
H181	H18	0.756800	0.297200	0.182300
H191	H19	0.565600	0.576600	0.132200
H201	H20	0.869500	0.367600	0.616600
H211	H21	0.540400	0.297200	0.682300
H221	H22	0.501900	0.632400	0.883400
H231	H23	0.459600	0.702800	0.317700
H241	H24	0.910100	0.802000	0.773200
H251	H25	0.057400	0.306600	0.447000
H261	H26	0.434400	0.423400	0.867800
H271	H27	0.037400	0.904000	0.669300
H281	H28	0.385900	0.807600	0.719500
H291	H29	0.942600	0.693400	0.553000
H301	H30	0.169000	0.584800	0.041400
H311	H31	0.891900	0.802000	0.273200
H321	H32	0.415800	0.584800	0.541400
C11	C1	0.775300	0.447000	0.993200
C21	C2	0.610600	0.234600	0.524000
C31	C3	0.519000	0.808400	0.229400
C41	C4	0.624000	0.234600	0.024000
C51	C5	0.083300	0.866200	0.700100
C61	C6	0.074300	0.459000	0.403800
C71	C7	0.033500	0.068800	0.510700
C81	C8	0.203200	0.746600	0.788800
C91	C9	0.782900	0.866200	0.200100
C101	C10	0.796800	0.253400	0.211200
C111	C11	0.615300	0.541000	0.096200
C121	C12	0.966500	0.931200	0.489300
C131	C13	0.620800	0.947800	0.121100
C141	C14	0.359000	0.128400	0.815500
C151	C15	0.964700	0.931200	0.989300
C161	C16	0.543400	0.746600	0.288800
C171	C17	0.577900	0.417800	0.087900
C181	C18	0.379200	0.052200	0.878900
C191	C19	0.160100	0.582200	0.412100
C201	C20	0.118400	0.389800	0.450600
C211	C21	0.340700	0.632400	0.963300
C221	C22	0.289400	0.808400	0.729400
C231	C23	0.839900	0.417800	0.587900
C241	C24	0.327000	0.947800	0.621100
C251	C25	0.384700	0.459000	0.903800
C261	C26	0.203600	0.196200	0.737900
C271	C27	0.708300	0.367600	0.536700
C281	C28	0.710600	0.191600	0.270600
C291	C29	0.925700	0.541000	0.596200
C301	C30	0.671700	0.447000	0.493200
C311	C31	0.659300	0.367600	0.036700
C321	C32	0.291700	0.632400	0.463300
C331	C33	0.328300	0.553000	0.506800
C341	C34	0.881600	0.610200	0.549400
C351	C35	0.217100	0.133800	0.799900
C361	C36	0.291700	0.069600	0.254800
C371	C37	0.777900	0.069600	0.754800
C381	C38	0.728600	0.610200	0.049400
C391	C39	0.376000	0.765400	0.976000
C401	C40	0.222100	0.930400	0.245200
C411	C41	0.224700	0.553000	0.006800
C421	C42	0.708300	0.930400	0.745200
C431	C43	0.992600	0.196200	0.237900
C441	C44	0.230600	0.871600	0.684500
C451	C45	0.389400	0.765400	0.476000
C461	C46	0.422100	0.582200	0.912100
C471	C47	0.916700	0.133800	0.299900
C481	C48	0.673000	0.052200	0.378900
C491	C49	0.007400	0.803800	0.762100
C501	C50	0.456600	0.253400	0.711200
C511	C51	0.271400	0.389800	0.950600
C521	C52	0.796400	0.803800	0.262100
C531	C53	0.641000	0.871600	0.184500
C541	C54	0.035300	0.068800	0.010700
C551	C55	0.769400	0.128400	0.315500
C561	C56	0.481000	0.191600	0.770600
N11	N1	0.808700	0.566400	0.999500
N21	N2	0.321600	0.254400	0.692800
N31	N3	0.932800	0.254400	0.192800
N41	N4	0.678400	0.745600	0.307200
N51	N5	0.757700	0.566400	0.499500
N61	N6	0.067200	0.745600	0.807200
N71	N7	0.191300	0.433600	0.000500
N81	N8	0.242300	0.433600	0.500500
O11	O1	0.034700	0.872600	0.019400
O21	O2	0.277300	0.799000	0.007000
O31	O3	0.304700	0.123200	0.325800
O41	O4	0.964400	0.115200	0.557800
O51	O5	0.261400	0.985800	0.573400
O61	O6	0.671200	0.880800	0.808400
O71	O7	0.671000	0.166800	0.545800
O81	O8	0.465900	0.963200	0.622400
O91	O9	0.849200	0.884800	0.942200
O101	O10	0.521700	0.799000	0.507000
O111	O11	0.724400	0.985800	0.073400
O121	O12	0.162100	0.127400	0.480600
O131	O13	0.722700	0.201000	0.993000
O141	O14	0.695300	0.876800	0.674200
O151	O15	0.209600	0.880800	0.308400
O161	O16	0.275600	0.014200	0.926600
O171	O17	0.738600	0.014200	0.426600
O181	O18	0.497300	0.963200	0.122400
O191	O19	0.534100	0.036800	0.377600
O201	O20	0.181500	0.876800	0.174200
O211	O21	0.328800	0.119200	0.191600
O221	O22	0.035600	0.884800	0.442200
O231	O23	0.329000	0.833200	0.454200
O241	O24	0.818500	0.123200	0.825800
O251	O25	0.150800	0.115200	0.057800
O261	O26	0.965300	0.127400	0.980600
O271	O27	0.790400	0.119200	0.691600
O281	O28	0.504200	0.833200	0.954200
O291	O29	0.502700	0.036800	0.877600
O301	O30	0.837900	0.872600	0.519400
O311	O31	0.495800	0.166800	0.045800
O321	O32	0.478300	0.201000	0.493000
