data_GUBVUU_freeONLY_PM
_symmetry_space_group_name_H-M	'P1'
_cell_length_a	10.798000
_cell_length_b	15.837500
_cell_length_c	15.837500
_cell_angle_alpha	94.808900
_cell_angle_beta	103.458000
_cell_angle_gamma	103.458000
_symmetry_Int_Tables_number 1

loop_
_symmetry_equiv_pos_as_xyz
'x,y,z'

loop_
_atom_site_label
_atom_site_type_symbol
_atom_site_fract_x
_atom_site_fract_y
_atom_site_fract_z
Co11	Co1	0.041500	0.933700	0.772100
Co21	Co2	0.279700	0.422000	0.260600
Co31	Co3	0.541500	0.772100	0.933700
Co41	Co4	0.779700	0.260600	0.422000
H11	H1	0.828400	0.763800	0.946000
H21	H2	0.747500	0.864100	0.702500
H31	H3	0.168300	0.302800	0.084200
H41	H4	0.252300	0.552300	0.139700
H51	H5	0.118400	0.630000	0.066600
H61	H6	0.015100	0.442000	0.256800
H71	H7	0.452800	0.726100	0.449700
H81	H8	0.592500	0.765500	0.601100
H91	H9	0.735900	0.608800	0.425200
H101	H10	0.308800	0.609500	0.349700
H111	H11	0.023700	0.840500	0.588500
H121	H12	0.872400	0.741100	0.482300
H131	H13	0.579100	0.492800	0.330400
H141	H14	0.963500	0.683600	0.998000
H151	H15	0.858000	0.064600	0.953600
H161	H16	0.559000	0.622200	0.051200
H171	H17	0.839300	0.492700	0.177300
H181	H18	0.667400	0.881900	0.112100
H191	H19	0.006600	0.184200	0.012800
H201	H20	0.101100	0.256700	0.303300
H211	H21	0.803100	0.015700	0.180100
H221	H22	0.907000	0.147400	0.236400
H231	H23	0.760700	0.920800	0.894000
H241	H24	0.715500	0.548600	0.095400
H251	H25	0.328400	0.946000	0.763800
H261	H26	0.247500	0.702500	0.864100
H271	H27	0.668300	0.084200	0.302800
H281	H28	0.752300	0.139700	0.552300
H291	H29	0.618400	0.066600	0.630000
H301	H30	0.515100	0.256800	0.442000
H311	H31	0.952800	0.449700	0.726100
H321	H32	0.092500	0.601100	0.765500
H331	H33	0.235900	0.425200	0.608800
H341	H34	0.808800	0.349700	0.609500
H351	H35	0.523700	0.588500	0.840500
H361	H36	0.372400	0.482300	0.741100
H371	H37	0.079100	0.330400	0.492800
H381	H38	0.463500	0.998000	0.683600
H391	H39	0.358000	0.953600	0.064600
H401	H40	0.059000	0.051200	0.622200
H411	H41	0.339300	0.177300	0.492700
H421	H42	0.167400	0.112100	0.881900
H431	H43	0.506600	0.012800	0.184200
H441	H44	0.601100	0.303300	0.256700
H451	H45	0.303100	0.180100	0.015700
H461	H46	0.407000	0.236400	0.147400
H471	H47	0.260700	0.894000	0.920800
H481	H48	0.215500	0.095400	0.548600
C11	C1	0.801100	0.720300	0.978700
C21	C2	0.772400	0.837600	0.656800
C31	C3	0.117200	0.270300	0.116100
C41	C4	0.168500	0.544000	0.148800
C51	C5	0.090500	0.591700	0.103900
C61	C6	0.960200	0.137800	0.115600
C71	C7	0.865800	0.052000	0.073400
C81	C8	0.706600	0.737300	0.517700
C91	C9	0.608700	0.671800	0.448600
C101	C10	0.030600	0.477400	0.214400
C111	C11	0.870800	0.622300	0.074900
C121	C12	0.968100	0.577800	0.119200
C131	C13	0.479800	0.679500	0.426900
C141	C14	0.678300	0.779600	0.595000
C151	C15	0.647100	0.608100	0.412300
C161	C16	0.396800	0.608300	0.367100
C171	C17	0.936200	0.825000	0.591000
C181	C18	0.842100	0.765700	0.526300
C191	C19	0.552700	0.539300	0.353900
C201	C20	0.885800	0.676000	0.015600
C211	C21	0.831400	0.024700	0.989900
C221	C22	0.640900	0.638400	0.039400
C231	C23	0.925200	0.510900	0.172100
C241	C24	0.709700	0.918600	0.078800
C251	C25	0.025200	0.195600	0.073600
C261	C26	0.073500	0.245200	0.242400
C271	C27	0.794000	0.998100	0.120900
C281	C28	0.967300	0.172000	0.206200
C291	C29	0.759000	0.941800	0.950200
C301	C30	0.742100	0.599500	0.071700
C311	C31	0.301100	0.978700	0.720300
C321	C32	0.272400	0.656800	0.837600
C331	C33	0.617200	0.116100	0.270300
C341	C34	0.668500	0.148800	0.544000
C351	C35	0.590500	0.103900	0.591700
C361	C36	0.460200	0.115600	0.137800
C371	C37	0.365800	0.073400	0.052000
C381	C38	0.206600	0.517700	0.737300
C391	C39	0.108700	0.448600	0.671800
C401	C40	0.530600	0.214400	0.477400
C411	C41	0.370800	0.074900	0.622300
C421	C42	0.468100	0.119200	0.577800
C431	C43	0.979800	0.426900	0.679500
C441	C44	0.178300	0.595000	0.779600
C451	C45	0.147100	0.412300	0.608100
C461	C46	0.896800	0.367100	0.608300
C471	C47	0.436200	0.591000	0.825000
C481	C48	0.342100	0.526300	0.765700
C491	C49	0.052700	0.353900	0.539300
C501	C50	0.385800	0.015600	0.676000
C511	C51	0.331400	0.989900	0.024700
C521	C52	0.140900	0.039400	0.638400
C531	C53	0.425200	0.172100	0.510900
C541	C54	0.209700	0.078800	0.918600
C551	C55	0.525200	0.073600	0.195600
C561	C56	0.573500	0.242400	0.245200
C571	C57	0.294000	0.120900	0.998100
C581	C58	0.467300	0.206200	0.172000
C591	C59	0.259000	0.950200	0.941800
C601	C60	0.242100	0.071700	0.599500
N11	N1	0.671000	0.702700	0.988300
N21	N2	0.899100	0.860000	0.657600
N31	N3	0.141500	0.490600	0.200400
N41	N4	0.425400	0.538900	0.331300
N51	N5	0.138000	0.298900	0.200100
N61	N6	0.685700	0.891700	0.994300
N71	N7	0.023300	0.781700	0.828100
N81	N8	0.306800	0.369300	0.410500
N91	N9	0.472600	0.448200	0.154400
N101	N10	0.845300	0.041400	0.751600
N111	N11	0.171000	0.988300	0.702700
N121	N12	0.399100	0.657600	0.860000
N131	N13	0.641500	0.200400	0.490600
N141	N14	0.925400	0.331300	0.538900
N151	N15	0.638000	0.200100	0.298900
N161	N16	0.185700	0.994300	0.891700
N171	N17	0.523300	0.828100	0.781700
N181	N18	0.806800	0.410500	0.369300
N191	N19	0.972600	0.154400	0.448200
N201	N20	0.345300	0.751600	0.041400
O11	O1	0.100800	0.812100	0.783300
O21	O2	0.221400	0.412800	0.384400
O31	O3	0.950200	0.835700	0.843300
O41	O4	0.367000	0.347800	0.359200
O51	O5	0.929500	0.013300	0.800700
O61	O6	0.385800	0.389500	0.180100
O71	O7	0.003800	0.711900	0.854100
O81	O8	0.315600	0.346400	0.484600
O91	O9	0.578600	0.425300	0.152300
O101	O10	0.757700	0.056600	0.771800
O111	O11	0.458700	0.520400	0.140600
O121	O12	0.865000	0.059000	0.682600
O131	O13	0.600800	0.783300	0.812100
O141	O14	0.721400	0.384400	0.412800
O151	O15	0.450200	0.843300	0.835700
O161	O16	0.867000	0.359200	0.347800
O171	O17	0.429500	0.800700	0.013300
O181	O18	0.885800	0.180100	0.389500
O191	O19	0.503800	0.854100	0.711900
O201	O20	0.815600	0.484600	0.346400
O211	O21	0.078600	0.152300	0.425300
O221	O22	0.257700	0.771800	0.056600
O231	O23	0.958700	0.140600	0.520400
O241	O24	0.365000	0.682600	0.059000
