data_GUHMIH_freeONLY_PM
_symmetry_space_group_name_H-M	'P1'
_cell_length_a	28.905800
_cell_length_b	28.905800
_cell_length_c	28.905800
_cell_angle_alpha	90.000000
_cell_angle_beta	90.000000
_cell_angle_gamma	90.000000
_symmetry_Int_Tables_number 1

loop_
_symmetry_equiv_pos_as_xyz
'x,y,z'

loop_
_atom_site_label
_atom_site_type_symbol
_atom_site_fract_x
_atom_site_fract_y
_atom_site_fract_z
O11	O1	0.358500	0.920100	0.547200
N11	N1	0.429400	0.807000	0.496000
N21	N2	0.293900	0.876600	0.558400
H11	H1	0.278100	0.852700	0.550400
C11	C1	0.405600	0.775400	0.472300
H21	H2	0.421500	0.752500	0.456200
C21	C2	0.357600	0.775900	0.471000
H31	H3	0.341800	0.752900	0.455000
C31	C3	0.334000	0.809200	0.492700
H41	H4	0.301900	0.809800	0.491700
C41	C4	0.358500	0.842900	0.516800
C51	C5	0.405500	0.840500	0.517800
H51	H5	0.421700	0.863000	0.534200
C61	C6	0.336900	0.883100	0.541100
C71	C7	0.274600	0.910600	0.590200
H61	H6	0.285300	0.904000	0.621300
H71	H7	0.285400	0.941200	0.581800
O21	O2	0.858500	0.420100	0.047200
N31	N3	0.929400	0.307000	0.996000
N41	N4	0.793900	0.376600	0.058400
H81	H8	0.778100	0.352700	0.050400
C81	C8	0.905600	0.275400	0.972300
H91	H9	0.921500	0.252500	0.956200
C91	C9	0.857600	0.275900	0.971000
H101	H10	0.841800	0.252900	0.955000
C101	C10	0.834000	0.309200	0.992700
H111	H11	0.801900	0.309800	0.991700
C111	C11	0.858500	0.342900	0.016800
C121	C12	0.905500	0.340500	0.017800
H121	H12	0.921700	0.363000	0.034200
C131	C13	0.836900	0.383100	0.041100
C141	C14	0.774600	0.410600	0.090200
H131	H13	0.785300	0.404000	0.121300
H141	H14	0.785400	0.441200	0.081800
O31	O3	0.641500	0.079900	0.547200
N51	N5	0.570600	0.193000	0.496000
N61	N6	0.706100	0.123400	0.558400
H151	H15	0.721900	0.147300	0.550400
C151	C15	0.594400	0.224600	0.472300
H161	H16	0.578500	0.247500	0.456200
C161	C16	0.642400	0.224100	0.471000
H171	H17	0.658200	0.247100	0.455000
C171	C17	0.666000	0.190800	0.492700
H181	H18	0.698100	0.190200	0.491700
C181	C18	0.641500	0.157100	0.516800
C191	C19	0.594500	0.159500	0.517800
H191	H19	0.578300	0.137000	0.534200
C201	C20	0.663100	0.116900	0.541100
C211	C21	0.725400	0.089400	0.590200
H201	H20	0.714700	0.096000	0.621300
H211	H21	0.714600	0.058800	0.581800
O41	O4	0.141500	0.579900	0.047200
N71	N7	0.070600	0.693000	0.996000
N81	N8	0.206100	0.623400	0.058400
H221	H22	0.221900	0.647300	0.050400
C221	C22	0.094400	0.724600	0.972300
H231	H23	0.078500	0.747500	0.956200
C231	C23	0.142400	0.724100	0.971000
H241	H24	0.158200	0.747100	0.955000
C241	C24	0.166000	0.690800	0.992700
H251	H25	0.198100	0.690200	0.991700
C251	C25	0.141500	0.657100	0.016800
C261	C26	0.094500	0.659500	0.017800
H261	H26	0.078300	0.637000	0.034200
C271	C27	0.163100	0.616900	0.041100
C281	C28	0.225400	0.589400	0.090200
H271	H27	0.214700	0.596000	0.121300
H281	H28	0.214600	0.558800	0.081800
O51	O5	0.641500	0.920100	0.452800
N91	N9	0.570600	0.807000	0.504000
N101	N10	0.706100	0.876600	0.441600
H291	H29	0.721900	0.852700	0.449600
C291	C29	0.594400	0.775400	0.527700
H301	H30	0.578500	0.752500	0.543800
C301	C30	0.642400	0.775900	0.529000
H311	H31	0.658200	0.752900	0.545000
C311	C31	0.666000	0.809200	0.507300
H321	H32	0.698100	0.809800	0.508300
C321	C32	0.641500	0.842900	0.483200
C331	C33	0.594500	0.840500	0.482200
H331	H33	0.578300	0.863000	0.465800
C341	C34	0.663100	0.883100	0.458900
C351	C35	0.725400	0.910600	0.409800
H341	H34	0.714700	0.904000	0.378700
H351	H35	0.714600	0.941200	0.418200
O61	O6	0.141500	0.420100	0.952800
N111	N11	0.070600	0.307000	0.004000
N121	N12	0.206100	0.376600	0.941600
H361	H36	0.221900	0.352700	0.949600
C361	C36	0.094400	0.275400	0.027700
H371	H37	0.078500	0.252500	0.043800
C371	C37	0.142400	0.275900	0.029000
H381	H38	0.158200	0.252900	0.045000
C381	C38	0.166000	0.309200	0.007300
H391	H39	0.198100	0.309800	0.008300
C391	C39	0.141500	0.342900	0.983200
C401	C40	0.094500	0.340500	0.982200
H401	H40	0.078300	0.363000	0.965800
C411	C41	0.163100	0.383100	0.958900
C421	C42	0.225400	0.410600	0.909800
H411	H41	0.214700	0.404000	0.878700
H421	H42	0.214600	0.441200	0.918200
O71	O7	0.358500	0.079900	0.452800
N131	N13	0.429400	0.193000	0.504000
N141	N14	0.293900	0.123400	0.441600
H431	H43	0.278100	0.147300	0.449600
C431	C43	0.405600	0.224600	0.527700
H441	H44	0.421500	0.247500	0.543800
C441	C44	0.357600	0.224100	0.529000
H451	H45	0.341800	0.247100	0.545000
C451	C45	0.334000	0.190800	0.507300
H461	H46	0.301900	0.190200	0.508300
C461	C46	0.358500	0.157100	0.483200
C471	C47	0.405500	0.159500	0.482200
H471	H47	0.421700	0.137000	0.465800
C481	C48	0.336900	0.116900	0.458900
C491	C49	0.274600	0.089400	0.409800
H481	H48	0.285300	0.096000	0.378700
H491	H49	0.285400	0.058800	0.418200
O81	O8	0.858500	0.579900	0.952800
N151	N15	0.929400	0.693000	0.004000
N161	N16	0.793900	0.623400	0.941600
H501	H50	0.778100	0.647300	0.949600
C501	C50	0.905600	0.724600	0.027700
H511	H51	0.921500	0.747500	0.043800
C511	C51	0.857600	0.724100	0.029000
H521	H52	0.841800	0.747100	0.045000
C521	C52	0.834000	0.690800	0.007300
H531	H53	0.801900	0.690200	0.008300
C531	C53	0.858500	0.657100	0.983200
C541	C54	0.905500	0.659500	0.982200
H541	H54	0.921700	0.637000	0.965800
C551	C55	0.836900	0.616900	0.958900
C561	C56	0.774600	0.589400	0.909800
H551	H55	0.785300	0.596000	0.878700
H561	H56	0.785400	0.558800	0.918200
O91	O9	0.547200	0.358500	0.920100
N171	N17	0.496000	0.429400	0.807000
N181	N18	0.558400	0.293900	0.876600
H571	H57	0.550400	0.278100	0.852700
C571	C57	0.472300	0.405600	0.775400
H581	H58	0.456200	0.421500	0.752500
C581	C58	0.471000	0.357600	0.775900
H591	H59	0.455000	0.341800	0.752900
C591	C59	0.492700	0.334000	0.809200
H601	H60	0.491700	0.301900	0.809800
C601	C60	0.516800	0.358500	0.842900
C611	C61	0.517800	0.405500	0.840500
H611	H61	0.534200	0.421700	0.863000
C621	C62	0.541100	0.336900	0.883100
C631	C63	0.590200	0.274600	0.910600
H621	H62	0.621300	0.285300	0.904000
H631	H63	0.581800	0.285400	0.941200
O101	O10	0.047200	0.858500	0.420100
N191	N19	0.996000	0.929400	0.307000
N201	N20	0.058400	0.793900	0.376600
H641	H64	0.050400	0.778100	0.352700
C641	C64	0.972300	0.905600	0.275400
H651	H65	0.956200	0.921500	0.252500
C651	C65	0.971000	0.857600	0.275900
H661	H66	0.955000	0.841800	0.252900
C661	C66	0.992700	0.834000	0.309200
H671	H67	0.991700	0.801900	0.309800
C671	C67	0.016800	0.858500	0.342900
C681	C68	0.017800	0.905500	0.340500
H681	H68	0.034200	0.921700	0.363000
C691	C69	0.041100	0.836900	0.383100
C701	C70	0.090200	0.774600	0.410600
H691	H69	0.121300	0.785300	0.404000
H701	H70	0.081800	0.785400	0.441200
O111	O11	0.547200	0.641500	0.079900
N211	N21	0.496000	0.570600	0.193000
N221	N22	0.558400	0.706100	0.123400
H711	H71	0.550400	0.721900	0.147300
C711	C71	0.472300	0.594400	0.224600
H721	H72	0.456200	0.578500	0.247500
C721	C72	0.471000	0.642400	0.224100
H731	H73	0.455000	0.658200	0.247100
C731	C73	0.492700	0.666000	0.190800
H741	H74	0.491700	0.698100	0.190200
C741	C74	0.516800	0.641500	0.157100
C751	C75	0.517800	0.594500	0.159500
H751	H75	0.534200	0.578300	0.137000
C761	C76	0.541100	0.663100	0.116900
C771	C77	0.590200	0.725400	0.089400
H761	H76	0.621300	0.714700	0.096000
H771	H77	0.581800	0.714600	0.058800
O121	O12	0.047200	0.141500	0.579900
N231	N23	0.996000	0.070600	0.693000
N241	N24	0.058400	0.206100	0.623400
H781	H78	0.050400	0.221900	0.647300
C781	C78	0.972300	0.094400	0.724600
H791	H79	0.956200	0.078500	0.747500
C791	C79	0.971000	0.142400	0.724100
H801	H80	0.955000	0.158200	0.747100
C801	C80	0.992700	0.166000	0.690800
H811	H81	0.991700	0.198100	0.690200
C811	C81	0.016800	0.141500	0.657100
C821	C82	0.017800	0.094500	0.659500
H821	H82	0.034200	0.078300	0.637000
C831	C83	0.041100	0.163100	0.616900
C841	C84	0.090200	0.225400	0.589400
H831	H83	0.121300	0.214700	0.596000
H841	H84	0.081800	0.214600	0.558800
O131	O13	0.452800	0.641500	0.920100
N251	N25	0.504000	0.570600	0.807000
N261	N26	0.441600	0.706100	0.876600
H851	H85	0.449600	0.721900	0.852700
C851	C85	0.527700	0.594400	0.775400
H861	H86	0.543800	0.578500	0.752500
C861	C86	0.529000	0.642400	0.775900
H871	H87	0.545000	0.658200	0.752900
C871	C87	0.507300	0.666000	0.809200
H881	H88	0.508300	0.698100	0.809800
C881	C88	0.483200	0.641500	0.842900
C891	C89	0.482200	0.594500	0.840500
H891	H89	0.465800	0.578300	0.863000
C901	C90	0.458900	0.663100	0.883100
C911	C91	0.409800	0.725400	0.910600
H901	H90	0.378700	0.714700	0.904000
H911	H91	0.418200	0.714600	0.941200
O141	O14	0.952800	0.141500	0.420100
N271	N27	0.004000	0.070600	0.307000
N281	N28	0.941600	0.206100	0.376600
H921	H92	0.949600	0.221900	0.352700
C921	C92	0.027700	0.094400	0.275400
H931	H93	0.043800	0.078500	0.252500
C931	C93	0.029000	0.142400	0.275900
H941	H94	0.045000	0.158200	0.252900
C941	C94	0.007300	0.166000	0.309200
H951	H95	0.008300	0.198100	0.309800
C951	C95	0.983200	0.141500	0.342900
C961	C96	0.982200	0.094500	0.340500
H961	H96	0.965800	0.078300	0.363000
C971	C97	0.958900	0.163100	0.383100
C981	C98	0.909800	0.225400	0.410600
H971	H97	0.878700	0.214700	0.404000
H981	H98	0.918200	0.214600	0.441200
O151	O15	0.452800	0.358500	0.079900
N291	N29	0.504000	0.429400	0.193000
N301	N30	0.441600	0.293900	0.123400
H991	H99	0.449600	0.278100	0.147300
C991	C99	0.527700	0.405600	0.224600
H1001	H100	0.543800	0.421500	0.247500
C1001	C100	0.529000	0.357600	0.224100
H1011	H101	0.545000	0.341800	0.247100
C1011	C101	0.507300	0.334000	0.190800
H1021	H102	0.508300	0.301900	0.190200
C1021	C102	0.483200	0.358500	0.157100
C1031	C103	0.482200	0.405500	0.159500
H1031	H103	0.465800	0.421700	0.137000
C1041	C104	0.458900	0.336900	0.116900
C1051	C105	0.409800	0.274600	0.089400
H1041	H104	0.378700	0.285300	0.096000
H1051	H105	0.418200	0.285400	0.058800
O161	O16	0.952800	0.858500	0.579900
N311	N31	0.004000	0.929400	0.693000
N321	N32	0.941600	0.793900	0.623400
H1061	H106	0.949600	0.778100	0.647300
C1061	C106	0.027700	0.905600	0.724600
H1071	H107	0.043800	0.921500	0.747500
C1071	C107	0.029000	0.857600	0.724100
H1081	H108	0.045000	0.841800	0.747100
C1081	C108	0.007300	0.834000	0.690800
H1091	H109	0.008300	0.801900	0.690200
C1091	C109	0.983200	0.858500	0.657100
C1101	C110	0.982200	0.905500	0.659500
H1101	H110	0.965800	0.921700	0.637000
C1111	C111	0.958900	0.836900	0.616900
C1121	C112	0.909800	0.774600	0.589400
H1111	H111	0.878700	0.785300	0.596000
H1121	H112	0.918200	0.785400	0.558800
O171	O17	0.920100	0.547200	0.358500
N331	N33	0.807000	0.496000	0.429400
N341	N34	0.876600	0.558400	0.293900
H1131	H113	0.852700	0.550400	0.278100
C1131	C113	0.775400	0.472300	0.405600
H1141	H114	0.752500	0.456200	0.421500
C1141	C114	0.775900	0.471000	0.357600
H1151	H115	0.752900	0.455000	0.341800
C1151	C115	0.809200	0.492700	0.334000
H1161	H116	0.809800	0.491700	0.301900
C1161	C116	0.842900	0.516800	0.358500
C1171	C117	0.840500	0.517800	0.405500
H1171	H117	0.863000	0.534200	0.421700
C1181	C118	0.883100	0.541100	0.336900
C1191	C119	0.910600	0.590200	0.274600
H1181	H118	0.904000	0.621300	0.285300
H1191	H119	0.941200	0.581800	0.285400
O181	O18	0.420100	0.047200	0.858500
N351	N35	0.307000	0.996000	0.929400
N361	N36	0.376600	0.058400	0.793900
H1201	H120	0.352700	0.050400	0.778100
C1201	C120	0.275400	0.972300	0.905600
H1211	H121	0.252500	0.956200	0.921500
C1211	C121	0.275900	0.971000	0.857600
H1221	H122	0.252900	0.955000	0.841800
C1221	C122	0.309200	0.992700	0.834000
H1231	H123	0.309800	0.991700	0.801900
C1231	C123	0.342900	0.016800	0.858500
C1241	C124	0.340500	0.017800	0.905500
H1241	H124	0.363000	0.034200	0.921700
C1251	C125	0.383100	0.041100	0.836900
C1261	C126	0.410600	0.090200	0.774600
H1251	H125	0.404000	0.121300	0.785300
H1261	H126	0.441200	0.081800	0.785400
O191	O19	0.079900	0.547200	0.641500
N371	N37	0.193000	0.496000	0.570600
N381	N38	0.123400	0.558400	0.706100
H1271	H127	0.147300	0.550400	0.721900
C1271	C127	0.224600	0.472300	0.594400
H1281	H128	0.247500	0.456200	0.578500
C1281	C128	0.224100	0.471000	0.642400
H1291	H129	0.247100	0.455000	0.658200
C1291	C129	0.190800	0.492700	0.666000
H1301	H130	0.190200	0.491700	0.698100
C1301	C130	0.157100	0.516800	0.641500
C1311	C131	0.159500	0.517800	0.594500
H1311	H131	0.137000	0.534200	0.578300
C1321	C132	0.116900	0.541100	0.663100
C1331	C133	0.089400	0.590200	0.725400
H1321	H132	0.096000	0.621300	0.714700
H1331	H133	0.058800	0.581800	0.714600
O201	O20	0.579900	0.047200	0.141500
N391	N39	0.693000	0.996000	0.070600
N401	N40	0.623400	0.058400	0.206100
H1341	H134	0.647300	0.050400	0.221900
C1341	C134	0.724600	0.972300	0.094400
H1351	H135	0.747500	0.956200	0.078500
C1351	C135	0.724100	0.971000	0.142400
H1361	H136	0.747100	0.955000	0.158200
C1361	C136	0.690800	0.992700	0.166000
H1371	H137	0.690200	0.991700	0.198100
C1371	C137	0.657100	0.016800	0.141500
C1381	C138	0.659500	0.017800	0.094500
H1381	H138	0.637000	0.034200	0.078300
C1391	C139	0.616900	0.041100	0.163100
C1401	C140	0.589400	0.090200	0.225400
H1391	H139	0.596000	0.121300	0.214700
H1401	H140	0.558800	0.081800	0.214600
O211	O21	0.920100	0.452800	0.641500
N411	N41	0.807000	0.504000	0.570600
N421	N42	0.876600	0.441600	0.706100
H1411	H141	0.852700	0.449600	0.721900
C1411	C141	0.775400	0.527700	0.594400
H1421	H142	0.752500	0.543800	0.578500
C1421	C142	0.775900	0.529000	0.642400
H1431	H143	0.752900	0.545000	0.658200
C1431	C143	0.809200	0.507300	0.666000
H1441	H144	0.809800	0.508300	0.698100
C1441	C144	0.842900	0.483200	0.641500
C1451	C145	0.840500	0.482200	0.594500
H1451	H145	0.863000	0.465800	0.578300
C1461	C146	0.883100	0.458900	0.663100
C1471	C147	0.910600	0.409800	0.725400
H1461	H146	0.904000	0.378700	0.714700
H1471	H147	0.941200	0.418200	0.714600
O221	O22	0.420100	0.952800	0.141500
N431	N43	0.307000	0.004000	0.070600
N441	N44	0.376600	0.941600	0.206100
H1481	H148	0.352700	0.949600	0.221900
C1481	C148	0.275400	0.027700	0.094400
H1491	H149	0.252500	0.043800	0.078500
C1491	C149	0.275900	0.029000	0.142400
H1501	H150	0.252900	0.045000	0.158200
C1501	C150	0.309200	0.007300	0.166000
H1511	H151	0.309800	0.008300	0.198100
C1511	C151	0.342900	0.983200	0.141500
C1521	C152	0.340500	0.982200	0.094500
H1521	H152	0.363000	0.965800	0.078300
C1531	C153	0.383100	0.958900	0.163100
C1541	C154	0.410600	0.909800	0.225400
H1531	H153	0.404000	0.878700	0.214700
H1541	H154	0.441200	0.918200	0.214600
O231	O23	0.079900	0.452800	0.358500
N451	N45	0.193000	0.504000	0.429400
N461	N46	0.123400	0.441600	0.293900
H1551	H155	0.147300	0.449600	0.278100
C1551	C155	0.224600	0.527700	0.405600
H1561	H156	0.247500	0.543800	0.421500
C1561	C156	0.224100	0.529000	0.357600
H1571	H157	0.247100	0.545000	0.341800
C1571	C157	0.190800	0.507300	0.334000
H1581	H158	0.190200	0.508300	0.301900
C1581	C158	0.157100	0.483200	0.358500
C1591	C159	0.159500	0.482200	0.405500
H1591	H159	0.137000	0.465800	0.421700
C1601	C160	0.116900	0.458900	0.336900
C1611	C161	0.089400	0.409800	0.274600
H1601	H160	0.096000	0.378700	0.285300
H1611	H161	0.058800	0.418200	0.285400
O241	O24	0.579900	0.952800	0.858500
N471	N47	0.693000	0.004000	0.929400
N481	N48	0.623400	0.941600	0.793900
H1621	H162	0.647300	0.949600	0.778100
C1621	C162	0.724600	0.027700	0.905600
H1631	H163	0.747500	0.043800	0.921500
C1631	C163	0.724100	0.029000	0.857600
H1641	H164	0.747100	0.045000	0.841800
C1641	C164	0.690800	0.007300	0.834000
H1651	H165	0.690200	0.008300	0.801900
C1651	C165	0.657100	0.983200	0.858500
C1661	C166	0.659500	0.982200	0.905500
H1661	H166	0.637000	0.965800	0.921700
C1671	C167	0.616900	0.958900	0.836900
C1681	C168	0.589400	0.909800	0.774600
H1671	H167	0.596000	0.878700	0.785300
H1681	H168	0.558800	0.918200	0.785400
O251	O25	0.920100	0.358500	0.452800
N491	N49	0.807000	0.429400	0.504000
N501	N50	0.876600	0.293900	0.441600
H1691	H169	0.852700	0.278100	0.449600
C1691	C169	0.775400	0.405600	0.527700
H1701	H170	0.752500	0.421500	0.543800
C1701	C170	0.775900	0.357600	0.529000
H1711	H171	0.752900	0.341800	0.545000
C1711	C171	0.809200	0.334000	0.507300
H1721	H172	0.809800	0.301900	0.508300
C1721	C172	0.842900	0.358500	0.483200
C1731	C173	0.840500	0.405500	0.482200
H1731	H173	0.863000	0.421700	0.465800
C1741	C174	0.883100	0.336900	0.458900
C1751	C175	0.910600	0.274600	0.409800
H1741	H174	0.904000	0.285300	0.378700
H1751	H175	0.941200	0.285400	0.418200
O261	O26	0.420100	0.858500	0.952800
N511	N51	0.307000	0.929400	0.004000
N521	N52	0.376600	0.793900	0.941600
H1761	H176	0.352700	0.778100	0.949600
C1761	C176	0.275400	0.905600	0.027700
H1771	H177	0.252500	0.921500	0.043800
C1771	C177	0.275900	0.857600	0.029000
H1781	H178	0.252900	0.841800	0.045000
C1781	C178	0.309200	0.834000	0.007300
H1791	H179	0.309800	0.801900	0.008300
C1791	C179	0.342900	0.858500	0.983200
C1801	C180	0.340500	0.905500	0.982200
H1801	H180	0.363000	0.921700	0.965800
C1811	C181	0.383100	0.836900	0.958900
C1821	C182	0.410600	0.774600	0.909800
H1811	H181	0.404000	0.785300	0.878700
H1821	H182	0.441200	0.785400	0.918200
O271	O27	0.079900	0.641500	0.452800
N531	N53	0.193000	0.570600	0.504000
N541	N54	0.123400	0.706100	0.441600
H1831	H183	0.147300	0.721900	0.449600
C1831	C183	0.224600	0.594400	0.527700
H1841	H184	0.247500	0.578500	0.543800
C1841	C184	0.224100	0.642400	0.529000
H1851	H185	0.247100	0.658200	0.545000
C1851	C185	0.190800	0.666000	0.507300
H1861	H186	0.190200	0.698100	0.508300
C1861	C186	0.157100	0.641500	0.483200
C1871	C187	0.159500	0.594500	0.482200
H1871	H187	0.137000	0.578300	0.465800
C1881	C188	0.116900	0.663100	0.458900
C1891	C189	0.089400	0.725400	0.409800
H1881	H188	0.096000	0.714700	0.378700
H1891	H189	0.058800	0.714600	0.418200
O281	O28	0.579900	0.141500	0.952800
N551	N55	0.693000	0.070600	0.004000
N561	N56	0.623400	0.206100	0.941600
H1901	H190	0.647300	0.221900	0.949600
C1901	C190	0.724600	0.094400	0.027700
H1911	H191	0.747500	0.078500	0.043800
C1911	C191	0.724100	0.142400	0.029000
H1921	H192	0.747100	0.158200	0.045000
C1921	C192	0.690800	0.166000	0.007300
H1931	H193	0.690200	0.198100	0.008300
C1931	C193	0.657100	0.141500	0.983200
C1941	C194	0.659500	0.094500	0.982200
H1941	H194	0.637000	0.078300	0.965800
C1951	C195	0.616900	0.163100	0.958900
C1961	C196	0.589400	0.225400	0.909800
H1951	H195	0.596000	0.214700	0.878700
H1961	H196	0.558800	0.214600	0.918200
O291	O29	0.920100	0.641500	0.547200
N571	N57	0.807000	0.570600	0.496000
N581	N58	0.876600	0.706100	0.558400
H1971	H197	0.852700	0.721900	0.550400
C1971	C197	0.775400	0.594400	0.472300
H1981	H198	0.752500	0.578500	0.456200
C1981	C198	0.775900	0.642400	0.471000
H1991	H199	0.752900	0.658200	0.455000
C1991	C199	0.809200	0.666000	0.492700
H2001	H200	0.809800	0.698100	0.491700
C2001	C200	0.842900	0.641500	0.516800
C2011	C201	0.840500	0.594500	0.517800
H2011	H201	0.863000	0.578300	0.534200
C2021	C202	0.883100	0.663100	0.541100
C2031	C203	0.910600	0.725400	0.590200
H2021	H202	0.904000	0.714700	0.621300
H2031	H203	0.941200	0.714600	0.581800
O301	O30	0.420100	0.141500	0.047200
N591	N59	0.307000	0.070600	0.996000
N601	N60	0.376600	0.206100	0.058400
H2041	H204	0.352700	0.221900	0.050400
C2041	C204	0.275400	0.094400	0.972300
H2051	H205	0.252500	0.078500	0.956200
C2051	C205	0.275900	0.142400	0.971000
H2061	H206	0.252900	0.158200	0.955000
C2061	C206	0.309200	0.166000	0.992700
H2071	H207	0.309800	0.198100	0.991700
C2071	C207	0.342900	0.141500	0.016800
C2081	C208	0.340500	0.094500	0.017800
H2081	H208	0.363000	0.078300	0.034200
C2091	C209	0.383100	0.163100	0.041100
C2101	C210	0.410600	0.225400	0.090200
H2091	H209	0.404000	0.214700	0.121300
H2101	H210	0.441200	0.214600	0.081800
O311	O31	0.079900	0.358500	0.547200
N611	N61	0.193000	0.429400	0.496000
N621	N62	0.123400	0.293900	0.558400
H2111	H211	0.147300	0.278100	0.550400
C2111	C211	0.224600	0.405600	0.472300
H2121	H212	0.247500	0.421500	0.456200
C2121	C212	0.224100	0.357600	0.471000
H2131	H213	0.247100	0.341800	0.455000
C2131	C213	0.190800	0.334000	0.492700
H2141	H214	0.190200	0.301900	0.491700
C2141	C214	0.157100	0.358500	0.516800
C2151	C215	0.159500	0.405500	0.517800
H2151	H215	0.137000	0.421700	0.534200
C2161	C216	0.116900	0.336900	0.541100
C2171	C217	0.089400	0.274600	0.590200
H2161	H216	0.096000	0.285300	0.621300
H2171	H217	0.058800	0.285400	0.581800
O321	O32	0.579900	0.858500	0.047200
N631	N63	0.693000	0.929400	0.996000
N641	N64	0.623400	0.793900	0.058400
H2181	H218	0.647300	0.778100	0.050400
C2181	C218	0.724600	0.905600	0.972300
H2191	H219	0.747500	0.921500	0.956200
C2191	C219	0.724100	0.857600	0.971000
H2201	H220	0.747100	0.841800	0.955000
C2201	C220	0.690800	0.834000	0.992700
H2211	H221	0.690200	0.801900	0.991700
C2211	C221	0.657100	0.858500	0.016800
C2221	C222	0.659500	0.905500	0.017800
H2221	H222	0.637000	0.921700	0.034200
C2231	C223	0.616900	0.836900	0.041100
C2241	C224	0.589400	0.774600	0.090200
H2231	H223	0.596000	0.785300	0.121300
H2241	H224	0.558800	0.785400	0.081800
O331	O33	0.358500	0.547200	0.079900
N651	N65	0.429400	0.496000	0.193000
N661	N66	0.293900	0.558400	0.123400
H2251	H225	0.278100	0.550400	0.147300
C2251	C225	0.405600	0.472300	0.224600
H2261	H226	0.421500	0.456200	0.247500
C2261	C226	0.357600	0.471000	0.224100
H2271	H227	0.341800	0.455000	0.247100
C2271	C227	0.334000	0.492700	0.190800
H2281	H228	0.301900	0.491700	0.190200
C2281	C228	0.358500	0.516800	0.157100
C2291	C229	0.405500	0.517800	0.159500
H2291	H229	0.421700	0.534200	0.137000
C2301	C230	0.336900	0.541100	0.116900
C2311	C231	0.274600	0.590200	0.089400
H2301	H230	0.285300	0.621300	0.096000
H2311	H231	0.285400	0.581800	0.058800
O341	O34	0.858500	0.047200	0.579900
N671	N67	0.929400	0.996000	0.693000
N681	N68	0.793900	0.058400	0.623400
H2321	H232	0.778100	0.050400	0.647300
C2321	C232	0.905600	0.972300	0.724600
H2331	H233	0.921500	0.956200	0.747500
C2331	C233	0.857600	0.971000	0.724100
H2341	H234	0.841800	0.955000	0.747100
C2341	C234	0.834000	0.992700	0.690800
H2351	H235	0.801900	0.991700	0.690200
C2351	C235	0.858500	0.016800	0.657100
C2361	C236	0.905500	0.017800	0.659500
H2361	H236	0.921700	0.034200	0.637000
C2371	C237	0.836900	0.041100	0.616900
C2381	C238	0.774600	0.090200	0.589400
H2371	H237	0.785300	0.121300	0.596000
H2381	H238	0.785400	0.081800	0.558800
O351	O35	0.641500	0.547200	0.920100
N691	N69	0.570600	0.496000	0.807000
N701	N70	0.706100	0.558400	0.876600
H2391	H239	0.721900	0.550400	0.852700
C2391	C239	0.594400	0.472300	0.775400
H2401	H240	0.578500	0.456200	0.752500
C2401	C240	0.642400	0.471000	0.775900
H2411	H241	0.658200	0.455000	0.752900
C2411	C241	0.666000	0.492700	0.809200
H2421	H242	0.698100	0.491700	0.809800
C2421	C242	0.641500	0.516800	0.842900
C2431	C243	0.594500	0.517800	0.840500
H2431	H243	0.578300	0.534200	0.863000
C2441	C244	0.663100	0.541100	0.883100
C2451	C245	0.725400	0.590200	0.910600
H2441	H244	0.714700	0.621300	0.904000
H2451	H245	0.714600	0.581800	0.941200
O361	O36	0.141500	0.047200	0.420100
N711	N71	0.070600	0.996000	0.307000
N721	N72	0.206100	0.058400	0.376600
H2461	H246	0.221900	0.050400	0.352700
C2461	C246	0.094400	0.972300	0.275400
H2471	H247	0.078500	0.956200	0.252500
C2471	C247	0.142400	0.971000	0.275900
H2481	H248	0.158200	0.955000	0.252900
C2481	C248	0.166000	0.992700	0.309200
H2491	H249	0.198100	0.991700	0.309800
C2491	C249	0.141500	0.016800	0.342900
C2501	C250	0.094500	0.017800	0.340500
H2501	H250	0.078300	0.034200	0.363000
C2511	C251	0.163100	0.041100	0.383100
C2521	C252	0.225400	0.090200	0.410600
H2511	H251	0.214700	0.121300	0.404000
H2521	H252	0.214600	0.081800	0.441200
O371	O37	0.641500	0.452800	0.079900
N731	N73	0.570600	0.504000	0.193000
N741	N74	0.706100	0.441600	0.123400
H2531	H253	0.721900	0.449600	0.147300
C2531	C253	0.594400	0.527700	0.224600
H2541	H254	0.578500	0.543800	0.247500
C2541	C254	0.642400	0.529000	0.224100
H2551	H255	0.658200	0.545000	0.247100
C2551	C255	0.666000	0.507300	0.190800
H2561	H256	0.698100	0.508300	0.190200
C2561	C256	0.641500	0.483200	0.157100
C2571	C257	0.594500	0.482200	0.159500
H2571	H257	0.578300	0.465800	0.137000
C2581	C258	0.663100	0.458900	0.116900
C2591	C259	0.725400	0.409800	0.089400
H2581	H258	0.714700	0.378700	0.096000
H2591	H259	0.714600	0.418200	0.058800
O381	O38	0.141500	0.952800	0.579900
N751	N75	0.070600	0.004000	0.693000
N761	N76	0.206100	0.941600	0.623400
H2601	H260	0.221900	0.949600	0.647300
C2601	C260	0.094400	0.027700	0.724600
H2611	H261	0.078500	0.043800	0.747500
C2611	C261	0.142400	0.029000	0.724100
H2621	H262	0.158200	0.045000	0.747100
C2621	C262	0.166000	0.007300	0.690800
H2631	H263	0.198100	0.008300	0.690200
C2631	C263	0.141500	0.983200	0.657100
C2641	C264	0.094500	0.982200	0.659500
H2641	H264	0.078300	0.965800	0.637000
C2651	C265	0.163100	0.958900	0.616900
C2661	C266	0.225400	0.909800	0.589400
H2651	H265	0.214700	0.878700	0.596000
H2661	H266	0.214600	0.918200	0.558800
O391	O39	0.358500	0.452800	0.920100
N771	N77	0.429400	0.504000	0.807000
N781	N78	0.293900	0.441600	0.876600
H2671	H267	0.278100	0.449600	0.852700
C2671	C267	0.405600	0.527700	0.775400
H2681	H268	0.421500	0.543800	0.752500
C2681	C268	0.357600	0.529000	0.775900
H2691	H269	0.341800	0.545000	0.752900
C2691	C269	0.334000	0.507300	0.809200
H2701	H270	0.301900	0.508300	0.809800
C2701	C270	0.358500	0.483200	0.842900
C2711	C271	0.405500	0.482200	0.840500
H2711	H271	0.421700	0.465800	0.863000
C2721	C272	0.336900	0.458900	0.883100
C2731	C273	0.274600	0.409800	0.910600
H2721	H272	0.285300	0.378700	0.904000
H2731	H273	0.285400	0.418200	0.941200
O401	O40	0.858500	0.952800	0.420100
N791	N79	0.929400	0.004000	0.307000
N801	N80	0.793900	0.941600	0.376600
H2741	H274	0.778100	0.949600	0.352700
C2741	C274	0.905600	0.027700	0.275400
H2751	H275	0.921500	0.043800	0.252500
C2751	C275	0.857600	0.029000	0.275900
H2761	H276	0.841800	0.045000	0.252900
C2761	C276	0.834000	0.007300	0.309200
H2771	H277	0.801900	0.008300	0.309800
C2771	C277	0.858500	0.983200	0.342900
C2781	C278	0.905500	0.982200	0.340500
H2781	H278	0.921700	0.965800	0.363000
C2791	C279	0.836900	0.958900	0.383100
C2801	C280	0.774600	0.909800	0.410600
H2791	H279	0.785300	0.878700	0.404000
H2801	H280	0.785400	0.918200	0.441200
O411	O41	0.547200	0.920100	0.641500
N811	N81	0.496000	0.807000	0.570600
N821	N82	0.558400	0.876600	0.706100
H2811	H281	0.550400	0.852700	0.721900
C2811	C281	0.472300	0.775400	0.594400
H2821	H282	0.456200	0.752500	0.578500
C2821	C282	0.471000	0.775900	0.642400
H2831	H283	0.455000	0.752900	0.658200
C2831	C283	0.492700	0.809200	0.666000
H2841	H284	0.491700	0.809800	0.698100
C2841	C284	0.516800	0.842900	0.641500
C2851	C285	0.517800	0.840500	0.594500
H2851	H285	0.534200	0.863000	0.578300
C2861	C286	0.541100	0.883100	0.663100
C2871	C287	0.590200	0.910600	0.725400
H2861	H286	0.621300	0.904000	0.714700
H2871	H287	0.581800	0.941200	0.714600
O421	O42	0.047200	0.420100	0.141500
N831	N83	0.996000	0.307000	0.070600
N841	N84	0.058400	0.376600	0.206100
H2881	H288	0.050400	0.352700	0.221900
C2881	C288	0.972300	0.275400	0.094400
H2891	H289	0.956200	0.252500	0.078500
C2891	C289	0.971000	0.275900	0.142400
H2901	H290	0.955000	0.252900	0.158200
C2901	C290	0.992700	0.309200	0.166000
H2911	H291	0.991700	0.309800	0.198100
C2911	C291	0.016800	0.342900	0.141500
C2921	C292	0.017800	0.340500	0.094500
H2921	H292	0.034200	0.363000	0.078300
C2931	C293	0.041100	0.383100	0.163100
C2941	C294	0.090200	0.410600	0.225400
H2931	H293	0.121300	0.404000	0.214700
H2941	H294	0.081800	0.441200	0.214600
O431	O43	0.547200	0.079900	0.358500
N851	N85	0.496000	0.193000	0.429400
N861	N86	0.558400	0.123400	0.293900
H2951	H295	0.550400	0.147300	0.278100
C2951	C295	0.472300	0.224600	0.405600
H2961	H296	0.456200	0.247500	0.421500
C2961	C296	0.471000	0.224100	0.357600
H2971	H297	0.455000	0.247100	0.341800
C2971	C297	0.492700	0.190800	0.334000
H2981	H298	0.491700	0.190200	0.301900
C2981	C298	0.516800	0.157100	0.358500
C2991	C299	0.517800	0.159500	0.405500
H2991	H299	0.534200	0.137000	0.421700
C3001	C300	0.541100	0.116900	0.336900
C3011	C301	0.590200	0.089400	0.274600
H3001	H300	0.621300	0.096000	0.285300
H3011	H301	0.581800	0.058800	0.285400
O441	O44	0.047200	0.579900	0.858500
N871	N87	0.996000	0.693000	0.929400
N881	N88	0.058400	0.623400	0.793900
H3021	H302	0.050400	0.647300	0.778100
C3021	C302	0.972300	0.724600	0.905600
H3031	H303	0.956200	0.747500	0.921500
C3031	C303	0.971000	0.724100	0.857600
H3041	H304	0.955000	0.747100	0.841800
C3041	C304	0.992700	0.690800	0.834000
H3051	H305	0.991700	0.690200	0.801900
C3051	C305	0.016800	0.657100	0.858500
C3061	C306	0.017800	0.659500	0.905500
H3061	H306	0.034200	0.637000	0.921700
C3071	C307	0.041100	0.616900	0.836900
C3081	C308	0.090200	0.589400	0.774600
H3071	H307	0.121300	0.596000	0.785300
H3081	H308	0.081800	0.558800	0.785400
O451	O45	0.452800	0.920100	0.358500
N891	N89	0.504000	0.807000	0.429400
N901	N90	0.441600	0.876600	0.293900
H3091	H309	0.449600	0.852700	0.278100
C3091	C309	0.527700	0.775400	0.405600
H3101	H310	0.543800	0.752500	0.421500
C3101	C310	0.529000	0.775900	0.357600
H3111	H311	0.545000	0.752900	0.341800
C3111	C311	0.507300	0.809200	0.334000
H3121	H312	0.508300	0.809800	0.301900
C3121	C312	0.483200	0.842900	0.358500
C3131	C313	0.482200	0.840500	0.405500
H3131	H313	0.465800	0.863000	0.421700
C3141	C314	0.458900	0.883100	0.336900
C3151	C315	0.409800	0.910600	0.274600
H3141	H314	0.378700	0.904000	0.285300
H3151	H315	0.418200	0.941200	0.285400
O461	O46	0.952800	0.420100	0.858500
N911	N91	0.004000	0.307000	0.929400
N921	N92	0.941600	0.376600	0.793900
H3161	H316	0.949600	0.352700	0.778100
C3161	C316	0.027700	0.275400	0.905600
H3171	H317	0.043800	0.252500	0.921500
C3171	C317	0.029000	0.275900	0.857600
H3181	H318	0.045000	0.252900	0.841800
C3181	C318	0.007300	0.309200	0.834000
H3191	H319	0.008300	0.309800	0.801900
C3191	C319	0.983200	0.342900	0.858500
C3201	C320	0.982200	0.340500	0.905500
H3201	H320	0.965800	0.363000	0.921700
C3211	C321	0.958900	0.383100	0.836900
C3221	C322	0.909800	0.410600	0.774600
H3211	H321	0.878700	0.404000	0.785300
H3221	H322	0.918200	0.441200	0.785400
O471	O47	0.452800	0.079900	0.641500
N931	N93	0.504000	0.193000	0.570600
N941	N94	0.441600	0.123400	0.706100
H3231	H323	0.449600	0.147300	0.721900
C3231	C323	0.527700	0.224600	0.594400
H3241	H324	0.543800	0.247500	0.578500
C3241	C324	0.529000	0.224100	0.642400
H3251	H325	0.545000	0.247100	0.658200
C3251	C325	0.507300	0.190800	0.666000
H3261	H326	0.508300	0.190200	0.698100
C3261	C326	0.483200	0.157100	0.641500
C3271	C327	0.482200	0.159500	0.594500
H3271	H327	0.465800	0.137000	0.578300
C3281	C328	0.458900	0.116900	0.663100
C3291	C329	0.409800	0.089400	0.725400
H3281	H328	0.378700	0.096000	0.714700
H3291	H329	0.418200	0.058800	0.714600
O481	O48	0.952800	0.579900	0.141500
N951	N95	0.004000	0.693000	0.070600
N961	N96	0.941600	0.623400	0.206100
H3301	H330	0.949600	0.647300	0.221900
C3301	C330	0.027700	0.724600	0.094400
H3311	H331	0.043800	0.747500	0.078500
C3311	C331	0.029000	0.724100	0.142400
H3321	H332	0.045000	0.747100	0.158200
C3321	C332	0.007300	0.690800	0.166000
H3331	H333	0.008300	0.690200	0.198100
C3331	C333	0.983200	0.657100	0.141500
C3341	C334	0.982200	0.659500	0.094500
H3341	H334	0.965800	0.637000	0.078300
C3351	C335	0.958900	0.616900	0.163100
C3361	C336	0.909800	0.589400	0.225400
H3351	H335	0.878700	0.596000	0.214700
H3361	H336	0.918200	0.558800	0.214600
Cu11	Cu1	0.500000	0.805440	0.500000
Cu21	Cu2	0.000000	0.305440	0.000000
Cu31	Cu3	0.500000	0.194560	0.500000
Cu41	Cu4	0.000000	0.694560	0.000000
Cu51	Cu5	0.500000	0.500000	0.805440
Cu61	Cu6	0.000000	0.000000	0.305440
Cu71	Cu7	0.500000	0.500000	0.194560
Cu81	Cu8	0.000000	0.000000	0.694560
Cu91	Cu9	0.805440	0.500000	0.500000
Cu101	Cu10	0.305440	0.000000	0.000000
Cu111	Cu11	0.194560	0.500000	0.500000
Cu121	Cu12	0.694560	0.000000	0.000000
