data_GUJGEY_freeONLY_PM
_symmetry_space_group_name_H-M	'P1'
_cell_length_a	13.171000
_cell_length_b	13.566100
_cell_length_c	15.147200
_cell_angle_alpha	108.550000
_cell_angle_beta	101.691000
_cell_angle_gamma	111.933000
_symmetry_Int_Tables_number 1

loop_
_symmetry_equiv_pos_as_xyz
'x,y,z'

loop_
_atom_site_label
_atom_site_type_symbol
_atom_site_fract_x
_atom_site_fract_y
_atom_site_fract_z
Nd11	Nd1	0.186650	0.650340	0.928830
Nd21	Nd2	0.400560	0.895340	0.847690
Nd31	Nd3	0.813350	0.349660	0.071170
Nd41	Nd4	0.599440	0.104660	0.152310
P11	P1	0.111500	0.588720	0.129380
P21	P2	0.680990	0.175030	0.426940
P31	P3	0.284240	0.921080	0.060590
P41	P4	0.513820	0.825600	0.057090
P51	P5	0.082440	0.773490	0.767500
P61	P6	0.888500	0.411280	0.870620
P71	P7	0.319010	0.824970	0.573060
P81	P8	0.715760	0.078920	0.939410
P91	P9	0.486180	0.174400	0.942910
P101	P10	0.917560	0.226510	0.232500
H11	H1	0.338700	0.758600	0.374800
H21	H2	0.533900	0.916400	0.271800
H31	H3	0.091400	0.942300	0.942700
H41	H4	0.432700	0.584000	0.964600
H51	H5	0.452700	0.567100	0.636900
H61	H6	0.083800	0.663300	0.567400
H71	H7	0.398600	0.374200	0.531100
H81	H8	0.101600	0.728400	0.116700
H91	H9	0.262600	0.220900	0.544000
H101	H10	0.175900	0.254400	0.661400
H111	H11	0.204900	0.563100	0.260700
H121	H12	0.150300	0.644900	0.298700
H131	H13	0.307100	0.820600	0.219500
H141	H14	0.259900	0.855600	0.305500
H151	H15	0.450600	0.969600	0.423400
H161	H16	0.441400	0.012200	0.338600
H171	H17	0.587300	0.797200	0.320900
H181	H18	0.543900	0.826300	0.410300
H191	H19	0.404400	0.640000	0.283100
H201	H20	0.392600	0.694500	0.206500
H211	H21	0.675500	0.022300	0.469400
H221	H22	0.717300	0.013600	0.378900
H231	H23	0.284400	0.085800	0.045800
H241	H24	0.248500	0.075700	0.135800
H251	H25	0.029900	0.861200	0.045200
H261	H26	0.049400	0.983900	0.118800
H271	H27	0.122600	0.154200	0.076800
H281	H28	0.150300	0.136700	0.978700
H291	H29	0.581900	0.731200	0.941800
H301	H30	0.660100	0.766000	0.050900
H311	H31	0.515600	0.654600	0.134800
H321	H32	0.616900	0.624700	0.119900
H331	H33	0.622100	0.546800	0.951500
H341	H34	0.523300	0.526100	0.859200
H351	H35	0.965700	0.740000	0.612300
H361	H36	0.903000	0.635100	0.637600
H371	H37	0.851200	0.492700	0.468900
H381	H38	0.910600	0.597200	0.441800
H391	H39	0.101600	0.574400	0.670500
H401	H40	0.969300	0.479000	0.610600
H411	H41	0.661300	0.241400	0.625200
H421	H42	0.466100	0.083600	0.728200
H431	H43	0.908600	0.057700	0.057300
H441	H44	0.567300	0.416000	0.035400
H451	H45	0.547300	0.432900	0.363100
H461	H46	0.916200	0.336700	0.432600
H471	H47	0.601400	0.625800	0.468900
H481	H48	0.898400	0.271600	0.883300
H491	H49	0.737400	0.779100	0.456000
H501	H50	0.824100	0.745600	0.338600
H511	H51	0.795100	0.436900	0.739300
H521	H52	0.849700	0.355100	0.701300
H531	H53	0.692900	0.179400	0.780500
H541	H54	0.740100	0.144400	0.694500
H551	H55	0.549400	0.030400	0.576600
H561	H56	0.558600	0.987800	0.661400
H571	H57	0.412700	0.202800	0.679100
H581	H58	0.456100	0.173700	0.589700
H591	H59	0.595600	0.360000	0.716900
H601	H60	0.607400	0.305500	0.793500
H611	H61	0.324500	0.977700	0.530600
H621	H62	0.282700	0.986400	0.621100
H631	H63	0.715600	0.914200	0.954200
H641	H64	0.751500	0.924300	0.864200
H651	H65	0.970100	0.138800	0.954800
H661	H66	0.950600	0.016100	0.881200
H671	H67	0.877400	0.845800	0.923200
H681	H68	0.849700	0.863300	0.021300
H691	H69	0.418100	0.268800	0.058200
H701	H70	0.339900	0.234000	0.949100
H711	H71	0.484400	0.345400	0.865200
H721	H72	0.383100	0.375300	0.880100
H731	H73	0.377900	0.453200	0.048500
H741	H74	0.476700	0.473900	0.140800
H751	H75	0.034300	0.260000	0.387700
H761	H76	0.097000	0.364900	0.362400
H771	H77	0.148800	0.507300	0.531100
H781	H78	0.089400	0.402800	0.558200
H791	H79	0.898400	0.425600	0.329500
H801	H80	0.030700	0.521000	0.389400
C11	C1	0.206600	0.457500	0.795100
C21	C2	0.375200	0.653300	0.774700
C31	C3	0.262000	0.432600	0.720100
C41	C4	0.344300	0.527000	0.712000
C51	C5	0.396400	0.504600	0.641700
C61	C6	0.364400	0.388900	0.578500
C71	C7	0.283500	0.297900	0.586400
C81	C8	0.231200	0.317700	0.656800
C91	C9	0.196300	0.630400	0.258500
C101	C10	0.321300	0.839100	0.289600
C111	C11	0.439900	0.947200	0.353400
C121	C12	0.528300	0.814500	0.341300
C131	C13	0.407600	0.709700	0.276200
C141	C14	0.659600	0.025800	0.405400
C151	C15	0.234300	0.031300	0.066200
C161	C16	0.026500	0.932500	0.048900
C171	C17	0.098200	0.098500	0.008000
C181	C18	0.579800	0.732300	0.005800
C191	C19	0.534100	0.600800	0.089900
C201	C20	0.539300	0.523600	0.923600
C211	C21	0.977900	0.686800	0.638200
C221	C22	0.924300	0.543700	0.466400
C231	C23	0.039700	0.530200	0.604800
C241	C24	0.793400	0.542500	0.204900
C251	C25	0.624800	0.346700	0.225300
C261	C26	0.738000	0.567400	0.279900
C271	C27	0.655700	0.473000	0.288000
C281	C28	0.603600	0.495400	0.358300
C291	C29	0.635600	0.611100	0.421500
C301	C30	0.716500	0.702100	0.413600
C311	C31	0.768800	0.682300	0.343200
C321	C32	0.803700	0.369600	0.741500
C331	C33	0.678700	0.160900	0.710400
C341	C34	0.560100	0.052800	0.646600
C351	C35	0.471700	0.185500	0.658700
C361	C36	0.592400	0.290300	0.723800
C371	C37	0.340400	0.974200	0.594600
C381	C38	0.765700	0.968700	0.933800
C391	C39	0.973500	0.067500	0.951100
C401	C40	0.901800	0.901500	0.992000
C411	C41	0.420200	0.267700	0.994200
C421	C42	0.465900	0.399200	0.910100
C431	C43	0.460700	0.476400	0.076400
C441	C44	0.022100	0.313200	0.361800
C451	C45	0.075700	0.456300	0.533600
C461	C46	0.960300	0.469800	0.395200
N11	N1	0.316900	0.735900	0.307600
N21	N2	0.539300	0.926000	0.335200
N31	N3	0.110100	0.992600	0.007000
N41	N4	0.510700	0.607200	0.991900
N51	N5	0.016400	0.613900	0.570300
N61	N6	0.683100	0.264100	0.692400
N71	N7	0.460700	0.074000	0.664800
N81	N8	0.889900	0.007400	0.993000
N91	N9	0.489300	0.392800	0.008100
N101	N10	0.983600	0.386100	0.429700
O11	O1	0.104000	0.442900	0.767200
O21	O2	0.268400	0.503000	0.887500
O31	O3	0.301200	0.674000	0.809300
O41	O4	0.470600	0.734800	0.788400
O51	O5	0.191000	0.597100	0.070100
O61	O6	0.011800	0.468800	0.097300
O71	O7	0.065400	0.682500	0.137200
O81	O8	0.620100	0.206600	0.499900
O91	O9	0.622400	0.165100	0.325900
O101	O10	0.813400	0.251900	0.474200
O111	O11	0.289200	0.867900	0.957200
O121	O12	0.192500	0.817900	0.069100
O131	O13	0.401700	0.992600	0.145200
O141	O14	0.068400	0.687000	0.813300
O151	O15	0.042500	0.862900	0.813900
O161	O16	0.199700	0.828900	0.758200
O171	O17	0.524300	0.903600	0.002100
O181	O18	0.588500	0.907400	0.167900
O191	O19	0.391100	0.737700	0.037700
O201	O20	0.896000	0.557100	0.232800
O211	O21	0.731600	0.497000	0.112500
O221	O22	0.698800	0.326000	0.190700
O231	O23	0.529400	0.265200	0.211600
O241	O24	0.809000	0.402900	0.929900
O251	O25	0.988200	0.531200	0.902700
O261	O26	0.934600	0.317500	0.862800
O271	O27	0.379900	0.793400	0.500100
O281	O28	0.377600	0.834900	0.674100
O291	O29	0.186600	0.748100	0.525800
O301	O30	0.710800	0.132100	0.042800
O311	O31	0.807500	0.182100	0.930900
O321	O32	0.598300	0.007400	0.854800
O331	O33	0.931600	0.313000	0.186700
O341	O34	0.957500	0.137100	0.186100
O351	O35	0.800300	0.171100	0.241800
O361	O36	0.475700	0.096400	0.997900
O371	O37	0.411500	0.092600	0.832100
O381	O38	0.608900	0.262300	0.962300
