data_GUJREK_freeONLY_PM
_symmetry_space_group_name_H-M	'P1'
_cell_length_a	12.358800
_cell_length_b	15.501100
_cell_length_c	34.305000
_cell_angle_alpha	90.000000
_cell_angle_beta	90.000000
_cell_angle_gamma	90.000000
_symmetry_Int_Tables_number 1

loop_
_symmetry_equiv_pos_as_xyz
'x,y,z'

loop_
_atom_site_label
_atom_site_type_symbol
_atom_site_fract_x
_atom_site_fract_y
_atom_site_fract_z
Cu11	Cu1	0.650090	0.642290	0.513700
S11	S1	0.880490	0.628630	0.309330
C11	C1	0.815400	0.231700	0.333300
H11	H1	0.877100	0.193800	0.328100
H21	H2	0.750300	0.207900	0.321100
H31	H3	0.804100	0.236000	0.361600
C21	C2	0.837400	0.318400	0.317200
C31	C3	0.825600	0.457200	0.306600
C41	C4	0.789300	0.546400	0.306100
C51	C5	0.688100	0.575200	0.298800
H41	H4	0.626900	0.538700	0.295800
C61	C6	0.684300	0.666600	0.296000
H51	H5	0.619600	0.698200	0.291600
C71	C7	0.782700	0.703800	0.300400
C81	C8	0.814000	0.794300	0.295600
C91	C9	0.817500	0.933900	0.302300
C101	C10	0.795500	0.021900	0.316400
H61	H6	0.839600	0.063100	0.301700
H71	H7	0.813600	0.025700	0.344200
H81	H8	0.718700	0.035300	0.312700
C111	C11	0.702300	0.401900	0.358300
C121	C12	0.600700	0.362800	0.356300
H91	H9	0.580600	0.329000	0.334400
C131	C13	0.529600	0.374800	0.387500
H101	H10	0.461700	0.346100	0.387600
C141	C14	0.557900	0.429000	0.418500
H111	H11	0.507300	0.439700	0.438700
C151	C15	0.661200	0.468000	0.419800
C161	C16	0.730600	0.453500	0.389200
H121	H12	0.800000	0.479900	0.389400
C171	C17	0.692200	0.527800	0.450800
C181	C18	0.697500	0.853700	0.348800
C191	C19	0.593800	0.887800	0.346800
H131	H13	0.568300	0.914400	0.323600
C201	C20	0.528900	0.881800	0.379300
H141	H14	0.458800	0.906900	0.378800
C211	C21	0.563400	0.840100	0.413000
H151	H15	0.516700	0.835200	0.434800
C221	C22	0.667600	0.805600	0.414100
C231	C23	0.734900	0.812300	0.381600
H161	H16	0.805800	0.788600	0.382000
C241	C24	0.702000	0.753600	0.448300
N11	N1	0.779600	0.391200	0.327000
N21	N2	0.913400	0.338200	0.292300
N31	N3	0.908100	0.427200	0.285900
N41	N4	0.768400	0.861600	0.315560
N51	N5	0.889900	0.823000	0.271800
N61	N6	0.891300	0.912800	0.275600
O11	O1	0.618800	0.555400	0.474130
O21	O2	0.790300	0.553000	0.452100
O31	O3	0.633300	0.732800	0.473640
O41	O4	0.801200	0.730200	0.449000
O51	O5	0.486500	0.641000	0.535900
Cu21	Cu2	0.150090	0.142290	0.013700
S21	S2	0.380490	0.128630	0.809330
C251	C25	0.315400	0.731700	0.833300
H171	H17	0.377100	0.693800	0.828100
H181	H18	0.250300	0.707900	0.821100
H191	H19	0.304100	0.736000	0.861600
C261	C26	0.337400	0.818400	0.817200
C271	C27	0.325600	0.957200	0.806600
C281	C28	0.289300	0.046400	0.806100
C291	C29	0.188100	0.075200	0.798800
H201	H20	0.126900	0.038700	0.795800
C301	C30	0.184300	0.166600	0.796000
H211	H21	0.119600	0.198200	0.791600
C311	C31	0.282700	0.203800	0.800400
C321	C32	0.314000	0.294300	0.795600
C331	C33	0.317500	0.433900	0.802300
C341	C34	0.295500	0.521900	0.816400
H221	H22	0.339600	0.563100	0.801700
H231	H23	0.313600	0.525700	0.844200
H241	H24	0.218700	0.535300	0.812700
C351	C35	0.202300	0.901900	0.858300
C361	C36	0.100700	0.862800	0.856300
H251	H25	0.080600	0.829000	0.834400
C371	C37	0.029600	0.874800	0.887500
H261	H26	0.961700	0.846100	0.887600
C381	C38	0.057900	0.929000	0.918500
H271	H27	0.007300	0.939700	0.938700
C391	C39	0.161200	0.968000	0.919800
C401	C40	0.230600	0.953500	0.889200
H281	H28	0.300000	0.979900	0.889400
C411	C41	0.192200	0.027800	0.950800
C421	C42	0.197500	0.353700	0.848800
C431	C43	0.093800	0.387800	0.846800
H291	H29	0.068300	0.414400	0.823600
C441	C44	0.028900	0.381800	0.879300
H301	H30	0.958800	0.406900	0.878800
C451	C45	0.063400	0.340100	0.913000
H311	H31	0.016700	0.335200	0.934800
C461	C46	0.167600	0.305600	0.914100
C471	C47	0.234900	0.312300	0.881600
H321	H32	0.305800	0.288600	0.882000
C481	C48	0.202000	0.253600	0.948300
N71	N7	0.279600	0.891200	0.827000
N81	N8	0.413400	0.838200	0.792300
N91	N9	0.408100	0.927200	0.785900
N101	N10	0.268400	0.361600	0.815560
N111	N11	0.389900	0.323000	0.771800
N121	N12	0.391300	0.412800	0.775600
O61	O6	0.118800	0.055400	0.974130
O71	O7	0.290300	0.053000	0.952100
O81	O8	0.133300	0.232800	0.973640
O91	O9	0.301200	0.230200	0.949000
O101	O10	0.986500	0.141000	0.035900
Cu31	Cu3	0.849910	0.357710	0.013700
S31	S3	0.619510	0.371370	0.809330
C491	C49	0.684600	0.768300	0.833300
H331	H33	0.622900	0.806200	0.828100
H341	H34	0.749700	0.792100	0.821100
H351	H35	0.695900	0.764000	0.861600
C501	C50	0.662600	0.681600	0.817200
C511	C51	0.674400	0.542800	0.806600
C521	C52	0.710700	0.453600	0.806100
C531	C53	0.811900	0.424800	0.798800
H361	H36	0.873100	0.461300	0.795800
C541	C54	0.815700	0.333400	0.796000
H371	H37	0.880400	0.301800	0.791600
C551	C55	0.717300	0.296200	0.800400
C561	C56	0.686000	0.205700	0.795600
C571	C57	0.682500	0.066100	0.802300
C581	C58	0.704500	0.978100	0.816400
H381	H38	0.660400	0.936900	0.801700
H391	H39	0.686400	0.974300	0.844200
H401	H40	0.781300	0.964700	0.812700
C591	C59	0.797700	0.598100	0.858300
C601	C60	0.899300	0.637200	0.856300
H411	H41	0.919400	0.671000	0.834400
C611	C61	0.970400	0.625200	0.887500
H421	H42	0.038300	0.653900	0.887600
C621	C62	0.942100	0.571000	0.918500
H431	H43	0.992700	0.560300	0.938700
C631	C63	0.838800	0.532000	0.919800
C641	C64	0.769400	0.546500	0.889200
H441	H44	0.700000	0.520100	0.889400
C651	C65	0.807800	0.472200	0.950800
C661	C66	0.802500	0.146300	0.848800
C671	C67	0.906200	0.112200	0.846800
H451	H45	0.931700	0.085600	0.823600
C681	C68	0.971100	0.118200	0.879300
H461	H46	0.041200	0.093100	0.878800
C691	C69	0.936600	0.159900	0.913000
H471	H47	0.983300	0.164800	0.934800
C701	C70	0.832400	0.194400	0.914100
C711	C71	0.765100	0.187700	0.881600
H481	H48	0.694200	0.211400	0.882000
C721	C72	0.798000	0.246400	0.948300
N131	N13	0.720400	0.608800	0.827000
N141	N14	0.586600	0.661800	0.792300
N151	N15	0.591900	0.572800	0.785900
N161	N16	0.731600	0.138400	0.815560
N171	N17	0.610100	0.177000	0.771800
N181	N18	0.608700	0.087200	0.775600
O111	O11	0.881200	0.444600	0.974130
O121	O12	0.709700	0.447000	0.952100
O131	O13	0.866700	0.267200	0.973640
O141	O14	0.698800	0.269800	0.949000
O151	O15	0.013500	0.359000	0.035900
Cu41	Cu4	0.349910	0.857710	0.513700
S41	S4	0.119510	0.871370	0.309330
C731	C73	0.184600	0.268300	0.333300
H491	H49	0.122900	0.306200	0.328100
H501	H50	0.249700	0.292100	0.321100
H511	H51	0.195900	0.264000	0.361600
C741	C74	0.162600	0.181600	0.317200
C751	C75	0.174400	0.042800	0.306600
C761	C76	0.210700	0.953600	0.306100
C771	C77	0.311900	0.924800	0.298800
H521	H52	0.373100	0.961300	0.295800
C781	C78	0.315700	0.833400	0.296000
H531	H53	0.380400	0.801800	0.291600
C791	C79	0.217300	0.796200	0.300400
C801	C80	0.186000	0.705700	0.295600
C811	C81	0.182500	0.566100	0.302300
C821	C82	0.204500	0.478100	0.316400
H541	H54	0.160400	0.436900	0.301700
H551	H55	0.186400	0.474300	0.344200
H561	H56	0.281300	0.464700	0.312700
C831	C83	0.297700	0.098100	0.358300
C841	C84	0.399300	0.137200	0.356300
H571	H57	0.419400	0.171000	0.334400
C851	C85	0.470400	0.125200	0.387500
H581	H58	0.538300	0.153900	0.387600
C861	C86	0.442100	0.071000	0.418500
H591	H59	0.492700	0.060300	0.438700
C871	C87	0.338800	0.032000	0.419800
C881	C88	0.269400	0.046500	0.389200
H601	H60	0.200000	0.020100	0.389400
C891	C89	0.307800	0.972200	0.450800
C901	C90	0.302500	0.646300	0.348800
C911	C91	0.406200	0.612200	0.346800
H611	H61	0.431700	0.585600	0.323600
C921	C92	0.471100	0.618200	0.379300
H621	H62	0.541200	0.593100	0.378800
C931	C93	0.436600	0.659900	0.413000
H631	H63	0.483300	0.664800	0.434800
C941	C94	0.332400	0.694400	0.414100
C951	C95	0.265100	0.687700	0.381600
H641	H64	0.194200	0.711400	0.382000
C961	C96	0.298000	0.746400	0.448300
N191	N19	0.220400	0.108800	0.327000
N201	N20	0.086600	0.161800	0.292300
N211	N21	0.091900	0.072800	0.285900
N221	N22	0.231600	0.638400	0.315560
N231	N23	0.110100	0.677000	0.271800
N241	N24	0.108700	0.587200	0.275600
O161	O16	0.381200	0.944600	0.474130
O171	O17	0.209700	0.947000	0.452100
O181	O18	0.366700	0.767200	0.473640
O191	O19	0.198800	0.769800	0.449000
O201	O20	0.513500	0.859000	0.535900
Cu51	Cu5	0.349910	0.142290	0.986300
S51	S5	0.119510	0.128630	0.190670
C971	C97	0.184600	0.731700	0.166700
H651	H65	0.122900	0.693800	0.171900
H661	H66	0.249700	0.707900	0.178900
H671	H67	0.195900	0.736000	0.138400
C981	C98	0.162600	0.818400	0.182800
C991	C99	0.174400	0.957200	0.193400
C1001	C100	0.210700	0.046400	0.193900
C1011	C101	0.311900	0.075200	0.201200
H681	H68	0.373100	0.038700	0.204200
C1021	C102	0.315700	0.166600	0.204000
H691	H69	0.380400	0.198200	0.208400
C1031	C103	0.217300	0.203800	0.199600
C1041	C104	0.186000	0.294300	0.204400
C1051	C105	0.182500	0.433900	0.197700
C1061	C106	0.204500	0.521900	0.183600
H701	H70	0.160400	0.563100	0.198300
H711	H71	0.186400	0.525700	0.155800
H721	H72	0.281300	0.535300	0.187300
C1071	C107	0.297700	0.901900	0.141700
C1081	C108	0.399300	0.862800	0.143700
H731	H73	0.419400	0.829000	0.165600
C1091	C109	0.470400	0.874800	0.112500
H741	H74	0.538300	0.846100	0.112400
C1101	C110	0.442100	0.929000	0.081500
H751	H75	0.492700	0.939700	0.061300
C1111	C111	0.338800	0.968000	0.080200
C1121	C112	0.269400	0.953500	0.110800
H761	H76	0.200000	0.979900	0.110600
C1131	C113	0.307800	0.027800	0.049200
C1141	C114	0.302500	0.353700	0.151200
C1151	C115	0.406200	0.387800	0.153200
H771	H77	0.431700	0.414400	0.176400
C1161	C116	0.471100	0.381800	0.120700
H781	H78	0.541200	0.406900	0.121200
C1171	C117	0.436600	0.340100	0.087000
H791	H79	0.483300	0.335200	0.065200
C1181	C118	0.332400	0.305600	0.085900
C1191	C119	0.265100	0.312300	0.118400
H801	H80	0.194200	0.288600	0.118000
C1201	C120	0.298000	0.253600	0.051700
N251	N25	0.220400	0.891200	0.173000
N261	N26	0.086600	0.838200	0.207700
N271	N27	0.091900	0.927200	0.214100
N281	N28	0.231600	0.361600	0.184440
N291	N29	0.110100	0.323000	0.228200
N301	N30	0.108700	0.412800	0.224400
O211	O21	0.381200	0.055400	0.025870
O221	O22	0.209700	0.053000	0.047900
O231	O23	0.366700	0.232800	0.026360
O241	O24	0.198800	0.230200	0.051000
O251	O25	0.513500	0.141000	0.964100
Cu61	Cu6	0.849910	0.642290	0.486300
S61	S6	0.619510	0.628630	0.690670
C1211	C121	0.684600	0.231700	0.666700
H811	H81	0.622900	0.193800	0.671900
H821	H82	0.749700	0.207900	0.678900
H831	H83	0.695900	0.236000	0.638400
C1221	C122	0.662600	0.318400	0.682800
C1231	C123	0.674400	0.457200	0.693400
C1241	C124	0.710700	0.546400	0.693900
C1251	C125	0.811900	0.575200	0.701200
H841	H84	0.873100	0.538700	0.704200
C1261	C126	0.815700	0.666600	0.704000
H851	H85	0.880400	0.698200	0.708400
C1271	C127	0.717300	0.703800	0.699600
C1281	C128	0.686000	0.794300	0.704400
C1291	C129	0.682500	0.933900	0.697700
C1301	C130	0.704500	0.021900	0.683600
H861	H86	0.660400	0.063100	0.698300
H871	H87	0.686400	0.025700	0.655800
H881	H88	0.781300	0.035300	0.687300
C1311	C131	0.797700	0.401900	0.641700
C1321	C132	0.899300	0.362800	0.643700
H891	H89	0.919400	0.329000	0.665600
C1331	C133	0.970400	0.374800	0.612500
H901	H90	0.038300	0.346100	0.612400
C1341	C134	0.942100	0.429000	0.581500
H911	H91	0.992700	0.439700	0.561300
C1351	C135	0.838800	0.468000	0.580200
C1361	C136	0.769400	0.453500	0.610800
H921	H92	0.700000	0.479900	0.610600
C1371	C137	0.807800	0.527800	0.549200
C1381	C138	0.802500	0.853700	0.651200
C1391	C139	0.906200	0.887800	0.653200
H931	H93	0.931700	0.914400	0.676400
C1401	C140	0.971100	0.881800	0.620700
H941	H94	0.041200	0.906900	0.621200
C1411	C141	0.936600	0.840100	0.587000
H951	H95	0.983300	0.835200	0.565200
C1421	C142	0.832400	0.805600	0.585900
C1431	C143	0.765100	0.812300	0.618400
H961	H96	0.694200	0.788600	0.618000
C1441	C144	0.798000	0.753600	0.551700
N311	N31	0.720400	0.391200	0.673000
N321	N32	0.586600	0.338200	0.707700
N331	N33	0.591900	0.427200	0.714100
N341	N34	0.731600	0.861600	0.684440
N351	N35	0.610100	0.823000	0.728200
N361	N36	0.608700	0.912800	0.724400
O261	O26	0.881200	0.555400	0.525870
O271	O27	0.709700	0.553000	0.547900
O281	O28	0.866700	0.732800	0.526360
O291	O29	0.698800	0.730200	0.551000
O301	O30	0.013500	0.641000	0.464100
Cu71	Cu7	0.150090	0.857710	0.486300
S71	S7	0.380490	0.871370	0.690670
C1451	C145	0.315400	0.268300	0.666700
H971	H97	0.377100	0.306200	0.671900
H981	H98	0.250300	0.292100	0.678900
H991	H99	0.304100	0.264000	0.638400
C1461	C146	0.337400	0.181600	0.682800
C1471	C147	0.325600	0.042800	0.693400
C1481	C148	0.289300	0.953600	0.693900
C1491	C149	0.188100	0.924800	0.701200
H1001	H100	0.126900	0.961300	0.704200
C1501	C150	0.184300	0.833400	0.704000
H1011	H101	0.119600	0.801800	0.708400
C1511	C151	0.282700	0.796200	0.699600
C1521	C152	0.314000	0.705700	0.704400
C1531	C153	0.317500	0.566100	0.697700
C1541	C154	0.295500	0.478100	0.683600
H1021	H102	0.339600	0.436900	0.698300
H1031	H103	0.313600	0.474300	0.655800
H1041	H104	0.218700	0.464700	0.687300
C1551	C155	0.202300	0.098100	0.641700
C1561	C156	0.100700	0.137200	0.643700
H1051	H105	0.080600	0.171000	0.665600
C1571	C157	0.029600	0.125200	0.612500
H1061	H106	0.961700	0.153900	0.612400
C1581	C158	0.057900	0.071000	0.581500
H1071	H107	0.007300	0.060300	0.561300
C1591	C159	0.161200	0.032000	0.580200
C1601	C160	0.230600	0.046500	0.610800
H1081	H108	0.300000	0.020100	0.610600
C1611	C161	0.192200	0.972200	0.549200
C1621	C162	0.197500	0.646300	0.651200
C1631	C163	0.093800	0.612200	0.653200
H1091	H109	0.068300	0.585600	0.676400
C1641	C164	0.028900	0.618200	0.620700
H1101	H110	0.958800	0.593100	0.621200
C1651	C165	0.063400	0.659900	0.587000
H1111	H111	0.016700	0.664800	0.565200
C1661	C166	0.167600	0.694400	0.585900
C1671	C167	0.234900	0.687700	0.618400
H1121	H112	0.305800	0.711400	0.618000
C1681	C168	0.202000	0.746400	0.551700
N371	N37	0.279600	0.108800	0.673000
N381	N38	0.413400	0.161800	0.707700
N391	N39	0.408100	0.072800	0.714100
N401	N40	0.268400	0.638400	0.684440
N411	N41	0.389900	0.677000	0.728200
N421	N42	0.391300	0.587200	0.724400
O311	O31	0.118800	0.944600	0.525870
O321	O32	0.290300	0.947000	0.547900
O331	O33	0.133300	0.767200	0.526360
O341	O34	0.301200	0.769800	0.551000
O351	O35	0.986500	0.859000	0.464100
Cu81	Cu8	0.650090	0.357710	0.986300
S81	S8	0.880490	0.371370	0.190670
C1691	C169	0.815400	0.768300	0.166700
H1131	H113	0.877100	0.806200	0.171900
H1141	H114	0.750300	0.792100	0.178900
H1151	H115	0.804100	0.764000	0.138400
C1701	C170	0.837400	0.681600	0.182800
C1711	C171	0.825600	0.542800	0.193400
C1721	C172	0.789300	0.453600	0.193900
C1731	C173	0.688100	0.424800	0.201200
H1161	H116	0.626900	0.461300	0.204200
C1741	C174	0.684300	0.333400	0.204000
H1171	H117	0.619600	0.301800	0.208400
C1751	C175	0.782700	0.296200	0.199600
C1761	C176	0.814000	0.205700	0.204400
C1771	C177	0.817500	0.066100	0.197700
C1781	C178	0.795500	0.978100	0.183600
H1181	H118	0.839600	0.936900	0.198300
H1191	H119	0.813600	0.974300	0.155800
H1201	H120	0.718700	0.964700	0.187300
C1791	C179	0.702300	0.598100	0.141700
C1801	C180	0.600700	0.637200	0.143700
H1211	H121	0.580600	0.671000	0.165600
C1811	C181	0.529600	0.625200	0.112500
H1221	H122	0.461700	0.653900	0.112400
C1821	C182	0.557900	0.571000	0.081500
H1231	H123	0.507300	0.560300	0.061300
C1831	C183	0.661200	0.532000	0.080200
C1841	C184	0.730600	0.546500	0.110800
H1241	H124	0.800000	0.520100	0.110600
C1851	C185	0.692200	0.472200	0.049200
C1861	C186	0.697500	0.146300	0.151200
C1871	C187	0.593800	0.112200	0.153200
H1251	H125	0.568300	0.085600	0.176400
C1881	C188	0.528900	0.118200	0.120700
H1261	H126	0.458800	0.093100	0.121200
C1891	C189	0.563400	0.159900	0.087000
H1271	H127	0.516700	0.164800	0.065200
C1901	C190	0.667600	0.194400	0.085900
C1911	C191	0.734900	0.187700	0.118400
H1281	H128	0.805800	0.211400	0.118000
C1921	C192	0.702000	0.246400	0.051700
N431	N43	0.779600	0.608800	0.173000
N441	N44	0.913400	0.661800	0.207700
N451	N45	0.908100	0.572800	0.214100
N461	N46	0.768400	0.138400	0.184440
N471	N47	0.889900	0.177000	0.228200
N481	N48	0.891300	0.087200	0.224400
O361	O36	0.618800	0.444600	0.025870
O371	O37	0.790300	0.447000	0.047900
O381	O38	0.633300	0.267200	0.026360
O391	O39	0.801200	0.269800	0.051000
O401	O40	0.486500	0.359000	0.964100
Cu91	Cu9	0.000000	0.250000	0.260010
Cu101	Cu10	0.500000	0.750000	0.760010
Cu111	Cu11	0.000000	0.750000	0.239990
Cu121	Cu12	0.500000	0.250000	0.739990
Cu131	Cu13	0.005370	0.500000	0.250000
Cu141	Cu14	0.494630	0.500000	0.750000
Cu151	Cu15	0.994630	0.000000	0.250000
Cu161	Cu16	0.505370	0.000000	0.750000
