data_GUKFEY_freeONLY_PM
_symmetry_space_group_name_H-M	'P1'
_cell_length_a	16.868700
_cell_length_b	16.868700
_cell_length_c	28.561300
_cell_angle_alpha	90.000000
_cell_angle_beta	90.000000
_cell_angle_gamma	90.000000
_symmetry_Int_Tables_number 1

loop_
_symmetry_equiv_pos_as_xyz
'x,y,z'

loop_
_atom_site_label
_atom_site_type_symbol
_atom_site_fract_x
_atom_site_fract_y
_atom_site_fract_z
Cd11	Cd1	0.693510	0.218040	0.006580
S11	S1	0.600800	0.234650	0.772120
S21	S2	0.823400	0.314680	0.226800
O11	O1	0.553580	0.210680	0.022150
N11	N1	0.668510	0.354000	0.999770
N21	N2	0.664030	0.213160	0.926050
N31	N3	0.333610	0.263960	0.756570
N41	N4	0.714960	0.237380	0.088010
N51	N5	0.804320	0.582870	0.237190
C11	C1	0.603600	0.380800	0.979000
H11	H1	0.569700	0.343500	0.964200
C21	C2	0.582200	0.460600	0.977670
H21	H2	0.535400	0.477600	0.962100
C31	C3	0.631900	0.514100	0.999910
C41	C4	0.701200	0.487500	0.020940
H31	H3	0.736500	0.523500	0.035700
C51	C5	0.717200	0.407500	0.019730
H41	H4	0.765000	0.389100	0.033600
C61	C6	0.699800	0.265000	0.897670
H51	H5	0.740900	0.296900	0.910400
C71	C7	0.680900	0.274900	0.851360
H61	H6	0.707500	0.313200	0.832700
C81	C8	0.621700	0.227400	0.832560
C91	C9	0.584400	0.172000	0.860980
H71	H7	0.544200	0.138300	0.848900
C101	C10	0.607700	0.167400	0.907510
H81	H8	0.582200	0.129700	0.927100
C111	C11	0.370800	0.291200	0.794900
H91	H9	0.340000	0.317700	0.817900
C121	C12	0.450800	0.283100	0.802860
H101	H10	0.474200	0.304500	0.830300
C131	C13	0.496800	0.243400	0.770430
C141	C14	0.459000	0.213100	0.730720
H111	H11	0.488300	0.184500	0.707800
C151	C15	0.379300	0.225100	0.725300
H121	H12	0.354600	0.204800	0.697900
C161	C16	0.684400	0.299100	0.111500
H131	H13	0.640300	0.325900	0.098200
C171	C17	0.713300	0.325900	0.153720
H141	H14	0.689200	0.369400	0.169300
C181	C18	0.778500	0.287600	0.173050
C191	C19	0.809100	0.221800	0.150160
H151	H15	0.852300	0.193100	0.163000
C201	C20	0.775400	0.199200	0.108450
H161	H16	0.796300	0.153800	0.093200
C211	C21	0.826400	0.547600	0.196960
H171	H17	0.840400	0.580200	0.171200
C221	C22	0.829900	0.467000	0.191300
H181	H18	0.845300	0.444700	0.162100
C231	C23	0.810400	0.418200	0.228880
C241	C24	0.786500	0.453300	0.270220
H191	H19	0.771600	0.421700	0.296300
C251	C25	0.784500	0.535600	0.273140
H201	H20	0.768500	0.559300	0.301800
C261	C26	0.500300	0.149300	0.029500
H211	H21	0.447300	0.171200	0.035100
H221	H22	0.516900	0.118200	0.056800
H231	H23	0.498900	0.115000	0.001800
Cd21	Cd2	0.306490	0.781960	0.506580
S31	S3	0.399200	0.765350	0.272120
S41	S4	0.176600	0.685320	0.726800
O21	O2	0.446420	0.789320	0.522150
N61	N6	0.331490	0.646000	0.499770
N71	N7	0.335970	0.786840	0.426050
N81	N8	0.666390	0.736040	0.256570
N91	N9	0.285040	0.762620	0.588010
N101	N10	0.195680	0.417130	0.737190
C271	C27	0.396400	0.619200	0.479000
H241	H24	0.430300	0.656500	0.464200
C281	C28	0.417800	0.539400	0.477670
H251	H25	0.464600	0.522400	0.462100
C291	C29	0.368100	0.485900	0.499910
C301	C30	0.298800	0.512500	0.520940
H261	H26	0.263500	0.476500	0.535700
C311	C31	0.282800	0.592500	0.519730
H271	H27	0.235000	0.610900	0.533600
C321	C32	0.300200	0.735000	0.397670
H281	H28	0.259100	0.703100	0.410400
C331	C33	0.319100	0.725100	0.351360
H291	H29	0.292500	0.686800	0.332700
C341	C34	0.378300	0.772600	0.332560
C351	C35	0.415600	0.828000	0.360980
H301	H30	0.455800	0.861700	0.348900
C361	C36	0.392300	0.832600	0.407510
H311	H31	0.417800	0.870300	0.427100
C371	C37	0.629200	0.708800	0.294900
H321	H32	0.660000	0.682300	0.317900
C381	C38	0.549200	0.716900	0.302860
H331	H33	0.525800	0.695500	0.330300
C391	C39	0.503200	0.756600	0.270430
C401	C40	0.541000	0.786900	0.230720
H341	H34	0.511700	0.815500	0.207800
C411	C41	0.620700	0.774900	0.225300
H351	H35	0.645400	0.795200	0.197900
C421	C42	0.315600	0.700900	0.611500
H361	H36	0.359700	0.674100	0.598200
C431	C43	0.286700	0.674100	0.653720
H371	H37	0.310800	0.630600	0.669300
C441	C44	0.221500	0.712400	0.673050
C451	C45	0.190900	0.778200	0.650160
H381	H38	0.147700	0.806900	0.663000
C461	C46	0.224600	0.800800	0.608450
H391	H39	0.203700	0.846200	0.593200
C471	C47	0.173600	0.452400	0.696960
H401	H40	0.159600	0.419800	0.671200
C481	C48	0.170100	0.533000	0.691300
H411	H41	0.154700	0.555300	0.662100
C491	C49	0.189600	0.581800	0.728880
C501	C50	0.213500	0.546700	0.770220
H421	H42	0.228400	0.578300	0.796300
C511	C51	0.215500	0.464400	0.773140
H431	H43	0.231500	0.440700	0.801800
C521	C52	0.499700	0.850700	0.529500
H441	H44	0.552700	0.828800	0.535100
H451	H45	0.483100	0.881800	0.556800
H461	H46	0.501100	0.885000	0.501800
Cd31	Cd3	0.281960	0.193510	0.256580
S51	S5	0.265350	0.100800	0.022120
S61	S6	0.185320	0.323400	0.476800
O31	O3	0.289320	0.053580	0.272150
N111	N11	0.146000	0.168510	0.249770
N121	N12	0.286840	0.164030	0.176050
N131	N13	0.236040	0.833610	0.006570
N141	N14	0.262620	0.214960	0.338010
N151	N15	0.917130	0.304320	0.487190
C531	C53	0.119200	0.103600	0.229000
H471	H47	0.156500	0.069700	0.214200
C541	C54	0.039400	0.082200	0.227670
H481	H48	0.022400	0.035400	0.212100
C551	C55	0.985900	0.131900	0.249910
C561	C56	0.012500	0.201200	0.270940
H491	H49	0.976500	0.236500	0.285700
C571	C57	0.092500	0.217200	0.269730
H501	H50	0.110900	0.265000	0.283600
C581	C58	0.235000	0.199800	0.147670
H511	H51	0.203100	0.240900	0.160400
C591	C59	0.225100	0.180900	0.101360
H521	H52	0.186800	0.207500	0.082700
C601	C60	0.272600	0.121700	0.082560
C611	C61	0.328000	0.084400	0.110980
H531	H53	0.361700	0.044200	0.098900
C621	C62	0.332600	0.107700	0.157510
H541	H54	0.370300	0.082200	0.177100
C631	C63	0.208800	0.870800	0.044900
H551	H55	0.182300	0.840000	0.067900
C641	C64	0.216900	0.950800	0.052860
H561	H56	0.195500	0.974200	0.080300
C651	C65	0.256600	0.996800	0.020430
C661	C66	0.286900	0.959000	0.980720
H571	H57	0.315500	0.988300	0.957800
C671	C67	0.274900	0.879300	0.975300
H581	H58	0.295200	0.854600	0.947900
C681	C68	0.200900	0.184400	0.361500
H591	H59	0.174100	0.140300	0.348200
C691	C69	0.174100	0.213300	0.403720
H601	H60	0.130600	0.189200	0.419300
C701	C70	0.212400	0.278500	0.423050
C711	C71	0.278200	0.309100	0.400160
H611	H61	0.306900	0.352300	0.413000
C721	C72	0.300800	0.275400	0.358450
H621	H62	0.346200	0.296300	0.343200
C731	C73	0.952400	0.326400	0.446960
H631	H63	0.919800	0.340400	0.421200
C741	C74	0.033000	0.329900	0.441300
H641	H64	0.055300	0.345300	0.412100
C751	C75	0.081800	0.310400	0.478880
C761	C76	0.046700	0.286500	0.520220
H651	H65	0.078300	0.271600	0.546300
C771	C77	0.964400	0.284500	0.523140
H661	H66	0.940700	0.268500	0.551800
C781	C78	0.350700	0.000300	0.279500
H671	H67	0.328800	0.947300	0.285100
H681	H68	0.381800	0.016900	0.306800
H691	H69	0.385000	0.998900	0.251800
Cd41	Cd4	0.718040	0.806490	0.756580
S71	S7	0.734650	0.899200	0.522120
S81	S8	0.814680	0.676600	0.976800
O41	O4	0.710680	0.946420	0.772150
N161	N16	0.854000	0.831490	0.749770
N171	N17	0.713160	0.835970	0.676050
N181	N18	0.763960	0.166390	0.506570
N191	N19	0.737380	0.785040	0.838010
N201	N20	0.082870	0.695680	0.987190
C791	C79	0.880800	0.896400	0.729000
H701	H70	0.843500	0.930300	0.714200
C801	C80	0.960600	0.917800	0.727670
H711	H71	0.977600	0.964600	0.712100
C811	C81	0.014100	0.868100	0.749910
C821	C82	0.987500	0.798800	0.770940
H721	H72	0.023500	0.763500	0.785700
C831	C83	0.907500	0.782800	0.769730
H731	H73	0.889100	0.735000	0.783600
C841	C84	0.765000	0.800200	0.647670
H741	H74	0.796900	0.759100	0.660400
C851	C85	0.774900	0.819100	0.601360
H751	H75	0.813200	0.792500	0.582700
C861	C86	0.727400	0.878300	0.582560
C871	C87	0.672000	0.915600	0.610980
H761	H76	0.638300	0.955800	0.598900
C881	C88	0.667400	0.892300	0.657510
H771	H77	0.629700	0.917800	0.677100
C891	C89	0.791200	0.129200	0.544900
H781	H78	0.817700	0.160000	0.567900
C901	C90	0.783100	0.049200	0.552860
H791	H79	0.804500	0.025800	0.580300
C911	C91	0.743400	0.003200	0.520430
C921	C92	0.713100	0.041000	0.480720
H801	H80	0.684500	0.011700	0.457800
C931	C93	0.725100	0.120700	0.475300
H811	H81	0.704800	0.145400	0.447900
C941	C94	0.799100	0.815600	0.861500
H821	H82	0.825900	0.859700	0.848200
C951	C95	0.825900	0.786700	0.903720
H831	H83	0.869400	0.810800	0.919300
C961	C96	0.787600	0.721500	0.923050
C971	C97	0.721800	0.690900	0.900160
H841	H84	0.693100	0.647700	0.913000
C981	C98	0.699200	0.724600	0.858450
H851	H85	0.653800	0.703700	0.843200
C991	C99	0.047600	0.673600	0.946960
H861	H86	0.080200	0.659600	0.921200
C1001	C100	0.967000	0.670100	0.941300
H871	H87	0.944700	0.654700	0.912100
C1011	C101	0.918200	0.689600	0.978880
C1021	C102	0.953300	0.713500	0.020220
H881	H88	0.921700	0.728400	0.046300
C1031	C103	0.035600	0.715500	0.023140
H891	H89	0.059300	0.731500	0.051800
C1041	C104	0.649300	0.999700	0.779500
H901	H90	0.671200	0.052700	0.785100
H911	H91	0.618200	0.983100	0.806800
H921	H92	0.615000	0.001100	0.751800
Cd51	Cd5	0.806490	0.718040	0.243420
S91	S9	0.899200	0.734650	0.477880
S101	S10	0.676600	0.814680	0.023200
O51	O5	0.946420	0.710680	0.227850
N211	N21	0.831490	0.854000	0.250230
N221	N22	0.835970	0.713160	0.323950
N231	N23	0.166390	0.763960	0.493430
N241	N24	0.785040	0.737380	0.161990
N251	N25	0.695680	0.082870	0.012810
C1051	C105	0.896400	0.880800	0.271000
H931	H93	0.930300	0.843500	0.285800
C1061	C106	0.917800	0.960600	0.272330
H941	H94	0.964600	0.977600	0.287900
C1071	C107	0.868100	0.014100	0.250090
C1081	C108	0.798800	0.987500	0.229060
H951	H95	0.763500	0.023500	0.214300
C1091	C109	0.782800	0.907500	0.230270
H961	H96	0.735000	0.889100	0.216400
C1101	C110	0.800200	0.765000	0.352330
H971	H97	0.759100	0.796900	0.339600
C1111	C111	0.819100	0.774900	0.398640
H981	H98	0.792500	0.813200	0.417300
C1121	C112	0.878300	0.727400	0.417440
C1131	C113	0.915600	0.672000	0.389020
H991	H99	0.955800	0.638300	0.401100
C1141	C114	0.892300	0.667400	0.342490
H1001	H100	0.917800	0.629700	0.322900
C1151	C115	0.129200	0.791200	0.455100
H1011	H101	0.160000	0.817700	0.432100
C1161	C116	0.049200	0.783100	0.447140
H1021	H102	0.025800	0.804500	0.419700
C1171	C117	0.003200	0.743400	0.479570
C1181	C118	0.041000	0.713100	0.519280
H1031	H103	0.011700	0.684500	0.542200
C1191	C119	0.120700	0.725100	0.524700
H1041	H104	0.145400	0.704800	0.552100
C1201	C120	0.815600	0.799100	0.138500
H1051	H105	0.859700	0.825900	0.151800
C1211	C121	0.786700	0.825900	0.096280
H1061	H106	0.810800	0.869400	0.080700
C1221	C122	0.721500	0.787600	0.076950
C1231	C123	0.690900	0.721800	0.099840
H1071	H107	0.647700	0.693100	0.087000
C1241	C124	0.724600	0.699200	0.141550
H1081	H108	0.703700	0.653800	0.156800
C1251	C125	0.673600	0.047600	0.053040
H1091	H109	0.659600	0.080200	0.078800
C1261	C126	0.670100	0.967000	0.058700
H1101	H110	0.654700	0.944700	0.087900
C1271	C127	0.689600	0.918200	0.021120
C1281	C128	0.713500	0.953300	0.979780
H1111	H111	0.728400	0.921700	0.953700
C1291	C129	0.715500	0.035600	0.976860
H1121	H112	0.731500	0.059300	0.948200
C1301	C130	0.999700	0.649300	0.220500
H1131	H113	0.052700	0.671200	0.214900
H1141	H114	0.983100	0.618200	0.193200
H1151	H115	0.001100	0.615000	0.248200
Cd61	Cd6	0.193510	0.281960	0.743420
S111	S11	0.100800	0.265350	0.977880
S121	S12	0.323400	0.185320	0.523200
O61	O6	0.053580	0.289320	0.727850
N261	N26	0.168510	0.146000	0.750230
N271	N27	0.164030	0.286840	0.823950
N281	N28	0.833610	0.236040	0.993430
N291	N29	0.214960	0.262620	0.661990
N301	N30	0.304320	0.917130	0.512810
C1311	C131	0.103600	0.119200	0.771000
H1161	H116	0.069700	0.156500	0.785800
C1321	C132	0.082200	0.039400	0.772330
H1171	H117	0.035400	0.022400	0.787900
C1331	C133	0.131900	0.985900	0.750090
C1341	C134	0.201200	0.012500	0.729060
H1181	H118	0.236500	0.976500	0.714300
C1351	C135	0.217200	0.092500	0.730270
H1191	H119	0.265000	0.110900	0.716400
C1361	C136	0.199800	0.235000	0.852330
H1201	H120	0.240900	0.203100	0.839600
C1371	C137	0.180900	0.225100	0.898640
H1211	H121	0.207500	0.186800	0.917300
C1381	C138	0.121700	0.272600	0.917440
C1391	C139	0.084400	0.328000	0.889020
H1221	H122	0.044200	0.361700	0.901100
C1401	C140	0.107700	0.332600	0.842490
H1231	H123	0.082200	0.370300	0.822900
C1411	C141	0.870800	0.208800	0.955100
H1241	H124	0.840000	0.182300	0.932100
C1421	C142	0.950800	0.216900	0.947140
H1251	H125	0.974200	0.195500	0.919700
C1431	C143	0.996800	0.256600	0.979570
C1441	C144	0.959000	0.286900	0.019280
H1261	H126	0.988300	0.315500	0.042200
C1451	C145	0.879300	0.274900	0.024700
H1271	H127	0.854600	0.295200	0.052100
C1461	C146	0.184400	0.200900	0.638500
H1281	H128	0.140300	0.174100	0.651800
C1471	C147	0.213300	0.174100	0.596280
H1291	H129	0.189200	0.130600	0.580700
C1481	C148	0.278500	0.212400	0.576950
C1491	C149	0.309100	0.278200	0.599840
H1301	H130	0.352300	0.306900	0.587000
C1501	C150	0.275400	0.300800	0.641550
H1311	H131	0.296300	0.346200	0.656800
C1511	C151	0.326400	0.952400	0.553040
H1321	H132	0.340400	0.919800	0.578800
C1521	C152	0.329900	0.033000	0.558700
H1331	H133	0.345300	0.055300	0.587900
C1531	C153	0.310400	0.081800	0.521120
C1541	C154	0.286500	0.046700	0.479780
H1341	H134	0.271600	0.078300	0.453700
C1551	C155	0.284500	0.964400	0.476860
H1351	H135	0.268500	0.940700	0.448200
C1561	C156	0.000300	0.350700	0.720500
H1361	H136	0.947300	0.328800	0.714900
H1371	H137	0.016900	0.381800	0.693200
H1381	H138	0.998900	0.385000	0.748200
Cd71	Cd7	0.218040	0.693510	0.993420
S131	S13	0.234650	0.600800	0.227880
S141	S14	0.314680	0.823400	0.773200
O71	O7	0.210680	0.553580	0.977850
N311	N31	0.354000	0.668510	0.000230
N321	N32	0.213160	0.664030	0.073950
N331	N33	0.263960	0.333610	0.243430
N341	N34	0.237380	0.714960	0.911990
N351	N35	0.582870	0.804320	0.762810
C1571	C157	0.380800	0.603600	0.021000
H1391	H139	0.343500	0.569700	0.035800
C1581	C158	0.460600	0.582200	0.022330
H1401	H140	0.477600	0.535400	0.037900
C1591	C159	0.514100	0.631900	0.000090
C1601	C160	0.487500	0.701200	0.979060
H1411	H141	0.523500	0.736500	0.964300
C1611	C161	0.407500	0.717200	0.980270
H1421	H142	0.389100	0.765000	0.966400
C1621	C162	0.265000	0.699800	0.102330
H1431	H143	0.296900	0.740900	0.089600
C1631	C163	0.274900	0.680900	0.148640
H1441	H144	0.313200	0.707500	0.167300
C1641	C164	0.227400	0.621700	0.167440
C1651	C165	0.172000	0.584400	0.139020
H1451	H145	0.138300	0.544200	0.151100
C1661	C166	0.167400	0.607700	0.092490
H1461	H146	0.129700	0.582200	0.072900
C1671	C167	0.291200	0.370800	0.205100
H1471	H147	0.317700	0.340000	0.182100
C1681	C168	0.283100	0.450800	0.197140
H1481	H148	0.304500	0.474200	0.169700
C1691	C169	0.243400	0.496800	0.229570
C1701	C170	0.213100	0.459000	0.269280
H1491	H149	0.184500	0.488300	0.292200
C1711	C171	0.225100	0.379300	0.274700
H1501	H150	0.204800	0.354600	0.302100
C1721	C172	0.299100	0.684400	0.888500
H1511	H151	0.325900	0.640300	0.901800
C1731	C173	0.325900	0.713300	0.846280
H1521	H152	0.369400	0.689200	0.830700
C1741	C174	0.287600	0.778500	0.826950
C1751	C175	0.221800	0.809100	0.849840
H1531	H153	0.193100	0.852300	0.837000
C1761	C176	0.199200	0.775400	0.891550
H1541	H154	0.153800	0.796300	0.906800
C1771	C177	0.547600	0.826400	0.803040
H1551	H155	0.580200	0.840400	0.828800
C1781	C178	0.467000	0.829900	0.808700
H1561	H156	0.444700	0.845300	0.837900
C1791	C179	0.418200	0.810400	0.771120
C1801	C180	0.453300	0.786500	0.729780
H1571	H157	0.421700	0.771600	0.703700
C1811	C181	0.535600	0.784500	0.726860
H1581	H158	0.559300	0.768500	0.698200
C1821	C182	0.149300	0.500300	0.970500
H1591	H159	0.171200	0.447300	0.964900
H1601	H160	0.118200	0.516900	0.943200
H1611	H161	0.115000	0.498900	0.998200
Cd81	Cd8	0.781960	0.306490	0.493420
S151	S15	0.765350	0.399200	0.727880
S161	S16	0.685320	0.176600	0.273200
O81	O8	0.789320	0.446420	0.477850
N361	N36	0.646000	0.331490	0.500230
N371	N37	0.786840	0.335970	0.573950
N381	N38	0.736040	0.666390	0.743430
N391	N39	0.762620	0.285040	0.411990
N401	N40	0.417130	0.195680	0.262810
C1831	C183	0.619200	0.396400	0.521000
H1621	H162	0.656500	0.430300	0.535800
C1841	C184	0.539400	0.417800	0.522330
H1631	H163	0.522400	0.464600	0.537900
C1851	C185	0.485900	0.368100	0.500090
C1861	C186	0.512500	0.298800	0.479060
H1641	H164	0.476500	0.263500	0.464300
C1871	C187	0.592500	0.282800	0.480270
H1651	H165	0.610900	0.235000	0.466400
C1881	C188	0.735000	0.300200	0.602330
H1661	H166	0.703100	0.259100	0.589600
C1891	C189	0.725100	0.319100	0.648640
H1671	H167	0.686800	0.292500	0.667300
C1901	C190	0.772600	0.378300	0.667440
C1911	C191	0.828000	0.415600	0.639020
H1681	H168	0.861700	0.455800	0.651100
C1921	C192	0.832600	0.392300	0.592490
H1691	H169	0.870300	0.417800	0.572900
C1931	C193	0.708800	0.629200	0.705100
H1701	H170	0.682300	0.660000	0.682100
C1941	C194	0.716900	0.549200	0.697140
H1711	H171	0.695500	0.525800	0.669700
C1951	C195	0.756600	0.503200	0.729570
C1961	C196	0.786900	0.541000	0.769280
H1721	H172	0.815500	0.511700	0.792200
C1971	C197	0.774900	0.620700	0.774700
H1731	H173	0.795200	0.645400	0.802100
C1981	C198	0.700900	0.315600	0.388500
H1741	H174	0.674100	0.359700	0.401800
C1991	C199	0.674100	0.286700	0.346280
H1751	H175	0.630600	0.310800	0.330700
C2001	C200	0.712400	0.221500	0.326950
C2011	C201	0.778200	0.190900	0.349840
H1761	H176	0.806900	0.147700	0.337000
C2021	C202	0.800800	0.224600	0.391550
H1771	H177	0.846200	0.203700	0.406800
C2031	C203	0.452400	0.173600	0.303040
H1781	H178	0.419800	0.159600	0.328800
C2041	C204	0.533000	0.170100	0.308700
H1791	H179	0.555300	0.154700	0.337900
C2051	C205	0.581800	0.189600	0.271120
C2061	C206	0.546700	0.213500	0.229780
H1801	H180	0.578300	0.228400	0.203700
C2071	C207	0.464400	0.215500	0.226860
H1811	H181	0.440700	0.231500	0.198200
C2081	C208	0.850700	0.499700	0.470500
H1821	H182	0.828800	0.552700	0.464900
H1831	H183	0.881800	0.483100	0.443200
H1841	H184	0.885000	0.501100	0.498200
S171	S17	0.617520	0.617520	0.000000
S181	S18	0.382480	0.382480	0.500000
S191	S19	0.882480	0.117520	0.250000
S201	S20	0.117520	0.882480	0.750000
