data_GUKNIK_freeONLY_PM
_symmetry_space_group_name_H-M	'P1'
_cell_length_a	7.308700
_cell_length_b	14.564000
_cell_length_c	6.807900
_cell_angle_alpha	91.601000
_cell_angle_beta	93.717000
_cell_angle_gamma	78.154000
_symmetry_Int_Tables_number 1

loop_
_symmetry_equiv_pos_as_xyz
'x,y,z'

loop_
_atom_site_label
_atom_site_type_symbol
_atom_site_fract_x
_atom_site_fract_y
_atom_site_fract_z
Ce11	Ce1	0.757800	0.499600	0.175300
P11	P1	0.793600	0.429000	0.704100
O11	O1	0.935300	0.461100	0.853700
O21	O2	0.602800	0.445300	0.790000
O31	O3	0.786000	0.478400	0.508800
C11	C1	0.869000	0.306100	0.665000
N11	N1	0.849000	0.226300	0.788000
C21	C2	0.846000	0.143000	0.657000
C31	C3	0.020000	0.070400	0.725000
C41	C4	0.978000	0.041100	0.927100
C51	C5	0.983000	0.127300	0.058300
C61	C6	0.021000	0.202200	0.924000
S11	S1	0.517000	0.703200	0.856000
O41	O4	0.476000	0.788900	0.966000
O51	O5	0.565000	0.727800	0.666000
O61	O6	0.661000	0.646600	0.990000
O71	O7	0.345000	0.668000	0.834000
O81	O8	0.002000	0.351800	0.248000
Ce21	Ce2	0.242200	0.500400	0.824700
P21	P2	0.206400	0.571000	0.295900
O91	O9	0.064700	0.538900	0.146300
O101	O10	0.397200	0.554700	0.210000
O111	O11	0.214000	0.521600	0.491200
C71	C7	0.131000	0.693900	0.335000
N21	N2	0.151000	0.773700	0.212000
C81	C8	0.154000	0.857000	0.343000
C91	C9	0.980000	0.929600	0.275000
C101	C10	0.022000	0.958900	0.072900
C111	C11	0.017000	0.872700	0.941700
C121	C12	0.979000	0.797800	0.076000
S21	S2	0.483000	0.296800	0.144000
O121	O12	0.524000	0.211100	0.034000
O131	O13	0.435000	0.272200	0.334000
O141	O14	0.339000	0.353400	0.010000
O151	O15	0.655000	0.332000	0.166000
O161	O16	0.998000	0.648200	0.752000
