data_GUKXIU_freeONLY_PM
_symmetry_space_group_name_H-M	'P1'
_cell_length_a	12.889000
_cell_length_b	15.266000
_cell_length_c	10.389000
_cell_angle_alpha	90.000000
_cell_angle_beta	118.060000
_cell_angle_gamma	90.000000
_symmetry_Int_Tables_number 1

loop_
_symmetry_equiv_pos_as_xyz
'x,y,z'

loop_
_atom_site_label
_atom_site_type_symbol
_atom_site_fract_x
_atom_site_fract_y
_atom_site_fract_z
O11	O1	0.666900	0.631700	0.319200
Ag11	Ag1	0.573130	0.680620	0.426410
Ag21	Ag2	0.860910	0.350590	0.141040
N11	N1	0.834500	0.499500	0.128400
C11	C1	0.783400	0.542700	0.195100
H11	H1	0.746300	0.511100	0.238400
C21	C2	0.784000	0.633300	0.201600
C31	C3	0.725500	0.679300	0.280100
C41	C4	0.839800	0.680200	0.140100
H21	H2	0.843000	0.741000	0.146300
C51	C5	0.891600	0.636000	0.068100
C61	C6	0.884700	0.545500	0.064200
H31	H3	0.916900	0.515200	0.013900
C71	C7	0.958400	0.681500	0.000700
O21	O2	0.741700	0.759100	0.297300
O31	O3	0.970300	0.762000	0.020300
O41	O4	0.997000	0.635100	0.934100
O51	O5	0.166900	0.131700	0.319200
Ag31	Ag3	0.073130	0.180620	0.426410
Ag41	Ag4	0.360910	0.850590	0.141040
N21	N2	0.334500	0.999500	0.128400
C81	C8	0.283400	0.042700	0.195100
H41	H4	0.246300	0.011100	0.238400
C91	C9	0.284000	0.133300	0.201600
C101	C10	0.225500	0.179300	0.280100
C111	C11	0.339800	0.180200	0.140100
H51	H5	0.343000	0.241000	0.146300
C121	C12	0.391600	0.136000	0.068100
C131	C13	0.384700	0.045500	0.064200
H61	H6	0.416900	0.015200	0.013900
C141	C14	0.458400	0.181500	0.000700
O61	O6	0.241700	0.259100	0.297300
O71	O7	0.470300	0.262000	0.020300
O81	O8	0.497000	0.135100	0.934100
O91	O9	0.333100	0.631700	0.180800
Ag51	Ag5	0.426870	0.680620	0.073590
Ag61	Ag6	0.139090	0.350590	0.358960
N31	N3	0.165500	0.499500	0.371600
C151	C15	0.216600	0.542700	0.304900
H71	H7	0.253700	0.511100	0.261600
C161	C16	0.216000	0.633300	0.298400
C171	C17	0.274500	0.679300	0.219900
C181	C18	0.160200	0.680200	0.359900
H81	H8	0.157000	0.741000	0.353700
C191	C19	0.108400	0.636000	0.431900
C201	C20	0.115300	0.545500	0.435800
H91	H9	0.083100	0.515200	0.486100
C211	C21	0.041600	0.681500	0.499300
O101	O10	0.258300	0.759100	0.202700
O111	O11	0.029700	0.762000	0.479700
O121	O12	0.003000	0.635100	0.565900
O131	O13	0.833100	0.131700	0.180800
Ag71	Ag7	0.926870	0.180620	0.073590
Ag81	Ag8	0.639090	0.850590	0.358960
N41	N4	0.665500	0.999500	0.371600
C221	C22	0.716600	0.042700	0.304900
H101	H10	0.753700	0.011100	0.261600
C231	C23	0.716000	0.133300	0.298400
C241	C24	0.774500	0.179300	0.219900
C251	C25	0.660200	0.180200	0.359900
H111	H11	0.657000	0.241000	0.353700
C261	C26	0.608400	0.136000	0.431900
C271	C27	0.615300	0.045500	0.435800
H121	H12	0.583100	0.015200	0.486100
C281	C28	0.541600	0.181500	0.499300
O141	O14	0.758300	0.259100	0.202700
O151	O15	0.529700	0.262000	0.479700
O161	O16	0.503000	0.135100	0.565900
O171	O17	0.333100	0.368300	0.680800
Ag91	Ag9	0.426870	0.319380	0.573590
Ag101	Ag10	0.139090	0.649410	0.858960
N51	N5	0.165500	0.500500	0.871600
C291	C29	0.216600	0.457300	0.804900
H131	H13	0.253700	0.488900	0.761600
C301	C30	0.216000	0.366700	0.798400
C311	C31	0.274500	0.320700	0.719900
C321	C32	0.160200	0.319800	0.859900
H141	H14	0.157000	0.259000	0.853700
C331	C33	0.108400	0.364000	0.931900
C341	C34	0.115300	0.454500	0.935800
H151	H15	0.083100	0.484800	0.986100
C351	C35	0.041600	0.318500	0.999300
O181	O18	0.258300	0.240900	0.702700
O191	O19	0.029700	0.238000	0.979700
O201	O20	0.003000	0.364900	0.065900
O211	O21	0.833100	0.868300	0.680800
Ag111	Ag11	0.926870	0.819380	0.573590
Ag121	Ag12	0.639090	0.149410	0.858960
N61	N6	0.665500	0.000500	0.871600
C361	C36	0.716600	0.957300	0.804900
H161	H16	0.753700	0.988900	0.761600
C371	C37	0.716000	0.866700	0.798400
C381	C38	0.774500	0.820700	0.719900
C391	C39	0.660200	0.819800	0.859900
H171	H17	0.657000	0.759000	0.853700
C401	C40	0.608400	0.864000	0.931900
C411	C41	0.615300	0.954500	0.935800
H181	H18	0.583100	0.984800	0.986100
C421	C42	0.541600	0.818500	0.999300
O221	O22	0.758300	0.740900	0.702700
O231	O23	0.529700	0.738000	0.979700
O241	O24	0.503000	0.864900	0.065900
O251	O25	0.666900	0.368300	0.819200
Ag131	Ag13	0.573130	0.319380	0.926410
Ag141	Ag14	0.860910	0.649410	0.641040
N71	N7	0.834500	0.500500	0.628400
C431	C43	0.783400	0.457300	0.695100
H191	H19	0.746300	0.488900	0.738400
C441	C44	0.784000	0.366700	0.701600
C451	C45	0.725500	0.320700	0.780100
C461	C46	0.839800	0.319800	0.640100
H201	H20	0.843000	0.259000	0.646300
C471	C47	0.891600	0.364000	0.568100
C481	C48	0.884700	0.454500	0.564200
H211	H21	0.916900	0.484800	0.513900
C491	C49	0.958400	0.318500	0.500700
O261	O26	0.741700	0.240900	0.797300
O271	O27	0.970300	0.238000	0.520300
O281	O28	0.997000	0.364900	0.434100
O291	O29	0.166900	0.868300	0.819200
Ag151	Ag15	0.073130	0.819380	0.926410
Ag161	Ag16	0.360910	0.149410	0.641040
N81	N8	0.334500	0.000500	0.628400
C501	C50	0.283400	0.957300	0.695100
H221	H22	0.246300	0.988900	0.738400
C511	C51	0.284000	0.866700	0.701600
C521	C52	0.225500	0.820700	0.780100
C531	C53	0.339800	0.819800	0.640100
H231	H23	0.343000	0.759000	0.646300
C541	C54	0.391600	0.864000	0.568100
C551	C55	0.384700	0.954500	0.564200
H241	H24	0.416900	0.984800	0.513900
C561	C56	0.458400	0.818500	0.500700
O301	O30	0.241700	0.740900	0.797300
O311	O31	0.470300	0.738000	0.520300
O321	O32	0.497000	0.864900	0.434100
