data_GUPJEG_freeONLY_PM
_symmetry_space_group_name_H-M	'P1'
_cell_length_a	9.247000
_cell_length_b	9.446400
_cell_length_c	9.446400
_cell_angle_alpha	101.457000
_cell_angle_beta	112.610000
_cell_angle_gamma	112.610000
_symmetry_Int_Tables_number 1

loop_
_symmetry_equiv_pos_as_xyz
'x,y,z'

loop_
_atom_site_label
_atom_site_type_symbol
_atom_site_fract_x
_atom_site_fract_y
_atom_site_fract_z
Mn11	Mn1	0.750000	0.034610	0.965390
Mn21	Mn2	0.250000	0.965390	0.034610
H11	H1	0.676900	0.263500	0.509100
H21	H2	0.786300	0.857900	0.645700
H31	H3	0.747300	0.867800	0.391000
H41	H4	0.823100	0.490900	0.736500
H51	H5	0.713700	0.354300	0.142100
H61	H6	0.752700	0.609000	0.132200
H71	H7	0.323100	0.736500	0.490900
H81	H8	0.213700	0.142100	0.354300
H91	H9	0.252700	0.132200	0.609000
H101	H10	0.176900	0.509100	0.263500
H111	H11	0.286300	0.645700	0.857900
H121	H12	0.247300	0.391000	0.867800
C11	C1	0.668500	0.078010	0.254990
C21	C2	0.705400	0.066000	0.421400
C31	C3	0.704200	0.181840	0.536560
C41	C4	0.767600	0.943500	0.618900
C51	C5	0.743200	0.177110	0.692490
C61	C6	0.741100	0.946400	0.465200
C71	C7	0.831500	0.745010	0.921990
C81	C8	0.794600	0.578600	0.934000
C91	C9	0.795800	0.463440	0.818160
C101	C10	0.732400	0.381100	0.056500
C111	C11	0.756800	0.307510	0.822890
C121	C12	0.758900	0.534800	0.053600
C131	C13	0.331500	0.921990	0.745010
C141	C14	0.294600	0.934000	0.578600
C151	C15	0.295800	0.818160	0.463440
C161	C16	0.232400	0.056500	0.381100
C171	C17	0.256800	0.822890	0.307510
C181	C18	0.258900	0.053600	0.534800
C191	C19	0.168500	0.254990	0.078010
C201	C20	0.205400	0.421400	0.066000
C211	C21	0.204200	0.536560	0.181840
C221	C22	0.267600	0.618900	0.943500
C231	C23	0.243200	0.692490	0.177110
C241	C24	0.241100	0.465200	0.946400
N11	N1	0.768200	0.055690	0.732310
N21	N2	0.731800	0.267690	0.944310
N31	N3	0.231800	0.944310	0.267690
N41	N4	0.268200	0.732310	0.055690
O11	O1	0.773200	0.065110	0.205490
O21	O2	0.546000	0.107830	0.183370
O31	O3	0.726800	0.794510	0.934890
O41	O4	0.954000	0.816630	0.892170
O51	O5	0.226800	0.934890	0.794510
O61	O6	0.454000	0.892170	0.816630
O71	O7	0.273200	0.205490	0.065110
O81	O8	0.046000	0.183370	0.107830
