data_GUPNUC01_freeONLY_PM
_symmetry_space_group_name_H-M	'P1'
_cell_length_a	8.627600
_cell_length_b	9.406600
_cell_length_c	13.056900
_cell_angle_alpha	90.000000
_cell_angle_beta	105.504000
_cell_angle_gamma	90.000000
_symmetry_Int_Tables_number 1

loop_
_symmetry_equiv_pos_as_xyz
'x,y,z'

loop_
_atom_site_label
_atom_site_type_symbol
_atom_site_fract_x
_atom_site_fract_y
_atom_site_fract_z
N11	N1	0.062600	0.944500	0.181700
N21	N2	0.227600	0.871700	0.993100
N31	N3	0.838800	0.798500	0.957300
N41	N4	0.562600	0.444500	0.181700
N51	N5	0.727600	0.371700	0.993100
N61	N6	0.338800	0.298500	0.957300
N71	N7	0.937400	0.944500	0.318300
N81	N8	0.772400	0.871700	0.506900
N91	N9	0.161200	0.798500	0.542700
N101	N10	0.437400	0.444500	0.318300
N111	N11	0.272400	0.371700	0.506900
N121	N12	0.661200	0.298500	0.542700
N131	N13	0.937400	0.055500	0.818300
N141	N14	0.772400	0.128300	0.006900
N151	N15	0.161200	0.201500	0.042700
N161	N16	0.437400	0.555500	0.818300
N171	N17	0.272400	0.628300	0.006900
N181	N18	0.661200	0.701500	0.042700
N191	N19	0.062600	0.055500	0.681700
N201	N20	0.227600	0.128300	0.493100
N211	N21	0.838800	0.201500	0.457300
N221	N22	0.562600	0.555500	0.681700
N231	N23	0.727600	0.628300	0.493100
N241	N24	0.338800	0.701500	0.457300
Cd11	Cd1	0.000000	0.000000	0.000000
Cd21	Cd2	0.500000	0.500000	0.000000
Cd31	Cd3	0.000000	0.000000	0.500000
Cd41	Cd4	0.500000	0.500000	0.500000
N251	N25	0.000000	0.947200	0.250000
N261	N26	0.500000	0.447200	0.250000
N271	N27	0.000000	0.052800	0.750000
N281	N28	0.500000	0.552800	0.750000
N291	N29	0.250000	0.750000	0.000000
N301	N30	0.750000	0.750000	0.500000
N311	N31	0.750000	0.250000	0.000000
N321	N32	0.250000	0.250000	0.500000
N331	N33	0.750000	0.750000	0.000000
N341	N34	0.250000	0.750000	0.500000
N351	N35	0.250000	0.250000	0.000000
N361	N36	0.750000	0.250000	0.500000
