data_GURTIX_charged_PM
_symmetry_space_group_name_H-M	'P1'
_cell_length_a	13.502000
_cell_length_b	15.465000
_cell_length_c	32.416000
_cell_angle_alpha	90.000000
_cell_angle_beta	90.000000
_cell_angle_gamma	90.000000
_symmetry_Int_Tables_number 1

loop_
_symmetry_equiv_pos_as_xyz
'x,y,z'

loop_
_atom_site_label
_atom_site_type_symbol
_atom_site_fract_x
_atom_site_fract_y
_atom_site_fract_z
In11	In1	0.722370	0.923760	0.658820
In21	In2	0.277210	0.818180	0.381540
In31	In3	0.777630	0.076240	0.158820
In41	In4	0.222790	0.181820	0.881540
In51	In5	0.277630	0.423760	0.841180
In61	In6	0.722790	0.318180	0.118460
In71	In7	0.222370	0.576240	0.341180
In81	In8	0.777210	0.681820	0.618460
In91	In9	0.277630	0.076240	0.341180
In101	In10	0.722790	0.181820	0.618460
In111	In11	0.222370	0.923760	0.841180
In121	In12	0.777210	0.818180	0.118460
In131	In13	0.722370	0.576240	0.158820
In141	In14	0.277210	0.681820	0.881540
In151	In15	0.777630	0.423760	0.658820
In161	In16	0.222790	0.318180	0.381540
H11	H1	0.998400	0.992100	0.759600
H21	H2	0.027100	0.251100	0.803300
H31	H3	0.918100	0.306900	0.755300
H41	H4	0.436400	0.719400	0.485200
H51	H5	0.534600	0.685500	0.539400
H61	H6	0.513200	0.944200	0.577800
H71	H7	0.405900	0.973300	0.525400
H81	H8	0.874800	0.845700	0.623100
H91	H9	0.776200	0.013200	0.588500
H101	H10	0.501600	0.007900	0.259600
H111	H11	0.472900	0.748900	0.303300
H121	H12	0.581900	0.693100	0.255300
H131	H13	0.063600	0.280600	0.985200
H141	H14	0.965400	0.314500	0.039400
H151	H15	0.986800	0.055800	0.077800
H161	H16	0.094100	0.026700	0.025400
H171	H17	0.625200	0.154300	0.123100
H181	H18	0.723800	0.986800	0.088500
H191	H19	0.001600	0.492100	0.740400
H201	H20	0.972900	0.751100	0.696700
H211	H21	0.081900	0.806900	0.744700
H221	H22	0.563600	0.219400	0.014800
H231	H23	0.465400	0.185500	0.960600
H241	H24	0.486800	0.444200	0.922200
H251	H25	0.594100	0.473300	0.974600
H261	H26	0.125200	0.345700	0.876900
H271	H27	0.223800	0.513200	0.911500
H281	H28	0.498400	0.507900	0.240400
H291	H29	0.527100	0.248900	0.196700
H301	H30	0.418100	0.193100	0.244700
H311	H31	0.936400	0.780600	0.514800
H321	H32	0.034600	0.814500	0.460600
H331	H33	0.013200	0.555800	0.422200
H341	H34	0.905900	0.526700	0.474600
H351	H35	0.374800	0.654300	0.376900
H361	H36	0.276200	0.486800	0.411500
H371	H37	0.001600	0.007900	0.240400
H381	H38	0.972900	0.748900	0.196700
H391	H39	0.081900	0.693100	0.244700
H401	H40	0.563600	0.280600	0.514800
H411	H41	0.465400	0.314500	0.460600
H421	H42	0.486800	0.055800	0.422200
H431	H43	0.594100	0.026700	0.474600
H441	H44	0.125200	0.154300	0.376900
H451	H45	0.223800	0.986800	0.411500
H461	H46	0.498400	0.992100	0.740400
H471	H47	0.527100	0.251100	0.696700
H481	H48	0.418100	0.306900	0.744700
H491	H49	0.936400	0.719400	0.014800
H501	H50	0.034600	0.685500	0.960600
H511	H51	0.013200	0.944200	0.922200
H521	H52	0.905900	0.973300	0.974600
H531	H53	0.374800	0.845700	0.876900
H541	H54	0.276200	0.013200	0.911500
H551	H55	0.998400	0.507900	0.259600
H561	H56	0.027100	0.248900	0.303300
H571	H57	0.918100	0.193100	0.255300
H581	H58	0.436400	0.780600	0.985200
H591	H59	0.534600	0.814500	0.039400
H601	H60	0.513200	0.555800	0.077800
H611	H61	0.405900	0.526700	0.025400
H621	H62	0.874800	0.654300	0.123100
H631	H63	0.776200	0.486800	0.088500
H641	H64	0.501600	0.492100	0.759600
H651	H65	0.472900	0.751100	0.803300
H661	H66	0.581900	0.806900	0.755300
H671	H67	0.063600	0.219400	0.485200
H681	H68	0.965400	0.185500	0.539400
H691	H69	0.986800	0.444200	0.577800
H701	H70	0.094100	0.473300	0.525400
H711	H71	0.625200	0.345700	0.623100
H721	H72	0.723800	0.513200	0.588500
C11	C1	0.918900	0.082700	0.730600
C21	C2	0.981800	0.050400	0.757900
C31	C3	0.022100	0.117500	0.785100
C41	C4	0.997300	0.214700	0.784100
C51	C5	0.934800	0.248600	0.756700
C61	C6	0.896800	0.183100	0.729800
C71	C7	0.878300	0.004300	0.703000
C81	C8	0.836300	0.225800	0.697800
C91	C9	0.091100	0.084200	0.813800
C101	C10	0.361700	0.878700	0.462900
C111	C11	0.424600	0.857300	0.496700
C121	C12	0.458400	0.762100	0.503200
C131	C13	0.516000	0.741700	0.532900
C141	C14	0.550000	0.821800	0.556100
C151	C15	0.501300	0.904300	0.556900
C161	C16	0.439200	0.920800	0.526700
C171	C17	0.621800	0.806200	0.586700
C181	C18	0.581100	0.917300	0.230600
C191	C19	0.518200	0.949600	0.257900
C201	C20	0.477900	0.882500	0.285100
C211	C21	0.502700	0.785300	0.284100
C221	C22	0.565200	0.751400	0.256700
C231	C23	0.603200	0.816900	0.229800
C241	C24	0.621700	0.995700	0.203000
C251	C25	0.663700	0.774200	0.197800
C261	C26	0.408900	0.915800	0.313800
C271	C27	0.138300	0.121300	0.962900
C281	C28	0.075400	0.142700	0.996700
C291	C29	0.041600	0.237900	0.003200
C301	C30	0.984000	0.258300	0.032900
C311	C31	0.950000	0.178200	0.056100
C321	C32	0.998700	0.095700	0.056900
C331	C33	0.060800	0.079200	0.026700
C341	C34	0.878200	0.193800	0.086700
C351	C35	0.081100	0.582700	0.769400
C361	C36	0.018200	0.550400	0.742100
C371	C37	0.977900	0.617500	0.714900
C381	C38	0.002700	0.714700	0.715900
C391	C39	0.065200	0.748600	0.743300
C401	C40	0.103200	0.683100	0.770200
C411	C41	0.121700	0.504300	0.797000
C421	C42	0.163700	0.725800	0.802200
C431	C43	0.908900	0.584200	0.686200
C441	C44	0.638300	0.378700	0.037100
C451	C45	0.575400	0.357300	0.003300
C461	C46	0.541600	0.262100	0.996800
C471	C47	0.484000	0.241700	0.967100
C481	C48	0.450000	0.321800	0.943900
C491	C49	0.498700	0.404300	0.943100
C501	C50	0.560800	0.420800	0.973300
C511	C51	0.378200	0.306200	0.913300
C521	C52	0.418900	0.417300	0.269400
C531	C53	0.481800	0.449600	0.242100
C541	C54	0.522100	0.382500	0.214900
C551	C55	0.497300	0.285300	0.215900
C561	C56	0.434800	0.251400	0.243300
C571	C57	0.396800	0.316900	0.270200
C581	C58	0.378300	0.495700	0.297000
C591	C59	0.336300	0.274200	0.302200
C601	C60	0.591100	0.415800	0.186200
C611	C61	0.861700	0.621300	0.537100
C621	C62	0.924600	0.642700	0.503300
C631	C63	0.958400	0.737900	0.496800
C641	C64	0.016000	0.758300	0.467100
C651	C65	0.050000	0.678200	0.443900
C661	C66	0.001300	0.595700	0.443100
C671	C67	0.939200	0.579200	0.473300
C681	C68	0.121800	0.693800	0.413300
C691	C69	0.081100	0.917300	0.269400
C701	C70	0.018200	0.949600	0.242100
C711	C71	0.977900	0.882500	0.214900
C721	C72	0.002700	0.785300	0.215900
C731	C73	0.065200	0.751400	0.243300
C741	C74	0.103200	0.816900	0.270200
C751	C75	0.121700	0.995700	0.297000
C761	C76	0.163700	0.774200	0.302200
C771	C77	0.908900	0.915800	0.186200
C781	C78	0.638300	0.121300	0.537100
C791	C79	0.575400	0.142700	0.503300
C801	C80	0.541600	0.237900	0.496800
C811	C81	0.484000	0.258300	0.467100
C821	C82	0.450000	0.178200	0.443900
C831	C83	0.498700	0.095700	0.443100
C841	C84	0.560800	0.079200	0.473300
C851	C85	0.378200	0.193800	0.413300
C861	C86	0.418900	0.082700	0.769400
C871	C87	0.481800	0.050400	0.742100
C881	C88	0.522100	0.117500	0.714900
C891	C89	0.497300	0.214700	0.715900
C901	C90	0.434800	0.248600	0.743300
C911	C91	0.396800	0.183100	0.770200
C921	C92	0.378300	0.004300	0.797000
C931	C93	0.336300	0.225800	0.802200
C941	C94	0.591100	0.084200	0.686200
C951	C95	0.861700	0.878700	0.037100
C961	C96	0.924600	0.857300	0.003300
C971	C97	0.958400	0.762100	0.996800
C981	C98	0.016000	0.741700	0.967100
C991	C99	0.050000	0.821800	0.943900
C1001	C100	0.001300	0.904300	0.943100
C1011	C101	0.939200	0.920800	0.973300
C1021	C102	0.121800	0.806200	0.913300
C1031	C103	0.918900	0.417300	0.230600
C1041	C104	0.981800	0.449600	0.257900
C1051	C105	0.022100	0.382500	0.285100
C1061	C106	0.997300	0.285300	0.284100
C1071	C107	0.934800	0.251400	0.256700
C1081	C108	0.896800	0.316900	0.229800
C1091	C109	0.878300	0.495700	0.203000
C1101	C110	0.836300	0.274200	0.197800
C1111	C111	0.091100	0.415800	0.313800
C1121	C112	0.361700	0.621300	0.962900
C1131	C113	0.424600	0.642700	0.996700
C1141	C114	0.458400	0.737900	0.003200
C1151	C115	0.516000	0.758300	0.032900
C1161	C116	0.550000	0.678200	0.056100
C1171	C117	0.501300	0.595700	0.056900
C1181	C118	0.439200	0.579200	0.026700
C1191	C119	0.621800	0.693800	0.086700
C1201	C120	0.581100	0.582700	0.730600
C1211	C121	0.518200	0.550400	0.757900
C1221	C122	0.477900	0.617500	0.785100
C1231	C123	0.502700	0.714700	0.784100
C1241	C124	0.565200	0.748600	0.756700
C1251	C125	0.603200	0.683100	0.729800
C1261	C126	0.621700	0.504300	0.703000
C1271	C127	0.663700	0.725800	0.697800
C1281	C128	0.408900	0.584200	0.813800
C1291	C129	0.138300	0.378700	0.462900
C1301	C130	0.075400	0.357300	0.496700
C1311	C131	0.041600	0.262100	0.503200
C1321	C132	0.984000	0.241700	0.532900
C1331	C133	0.950000	0.321800	0.556100
C1341	C134	0.998700	0.404300	0.556900
C1351	C135	0.060800	0.420800	0.526700
C1361	C136	0.878200	0.306200	0.586700
O11	O1	0.796600	0.993400	0.706830
O21	O2	0.923600	0.953200	0.681100
O31	O3	0.807800	0.310400	0.704410
O41	O4	0.822900	0.174500	0.666130
O51	O5	0.122700	0.149000	0.836200
O61	O6	0.112800	0.996200	0.812990
O71	O7	0.363900	0.820600	0.432500
O81	O8	0.314400	0.952400	0.465000
O91	O9	0.673700	0.736200	0.579410
O101	O10	0.622900	0.863000	0.617440
O111	O11	0.812200	0.827400	0.631300
O121	O12	0.749700	0.031100	0.613530
O131	O13	0.703400	0.006600	0.206830
O141	O14	0.576400	0.046800	0.181100
O151	O15	0.692200	0.689600	0.204410
O161	O16	0.677100	0.825500	0.166130
O171	O17	0.377300	0.851000	0.336200
O181	O18	0.387200	0.003800	0.312990
O191	O19	0.136100	0.179400	0.932500
O201	O20	0.185600	0.047600	0.965000
O211	O21	0.826300	0.263800	0.079410
O221	O22	0.877100	0.137000	0.117440
O231	O23	0.687800	0.172600	0.131300
O241	O24	0.750300	0.968900	0.113530
O251	O25	0.203400	0.493400	0.793170
O261	O26	0.076400	0.453200	0.818900
O271	O27	0.192200	0.810400	0.795590
O281	O28	0.177100	0.674500	0.833870
O291	O29	0.877300	0.649000	0.663800
O301	O30	0.887200	0.496200	0.687010
O311	O31	0.636100	0.320600	0.067500
O321	O32	0.685600	0.452400	0.035000
O331	O33	0.326300	0.236200	0.920590
O341	O34	0.377100	0.363000	0.882560
O351	O35	0.187800	0.327400	0.868700
O361	O36	0.250300	0.531100	0.886470
O371	O37	0.296600	0.506600	0.293170
O381	O38	0.423600	0.546800	0.318900
O391	O39	0.307800	0.189600	0.295590
O401	O40	0.322900	0.325500	0.333870
O411	O41	0.622700	0.351000	0.163800
O421	O42	0.612800	0.503800	0.187010
O431	O43	0.863900	0.679400	0.567500
O441	O44	0.814400	0.547600	0.535000
O451	O45	0.173700	0.763800	0.420590
O461	O46	0.122900	0.637000	0.382560
O471	O47	0.312200	0.672600	0.368700
O481	O48	0.249700	0.468900	0.386470
O491	O49	0.203400	0.006600	0.293170
O501	O50	0.076400	0.046800	0.318900
O511	O51	0.192200	0.689600	0.295590
O521	O52	0.177100	0.825500	0.333870
O531	O53	0.877300	0.851000	0.163800
O541	O54	0.887200	0.003800	0.187010
O551	O55	0.636100	0.179400	0.567500
O561	O56	0.685600	0.047600	0.535000
O571	O57	0.326300	0.263800	0.420590
O581	O58	0.377100	0.137000	0.382560
O591	O59	0.187800	0.172600	0.368700
O601	O60	0.250300	0.968900	0.386470
O611	O61	0.296600	0.993400	0.793170
O621	O62	0.423600	0.953200	0.818900
O631	O63	0.307800	0.310400	0.795590
O641	O64	0.322900	0.174500	0.833870
O651	O65	0.622700	0.149000	0.663800
O661	O66	0.612800	0.996200	0.687010
O671	O67	0.863900	0.820600	0.067500
O681	O68	0.814400	0.952400	0.035000
O691	O69	0.173700	0.736200	0.920590
O701	O70	0.122900	0.863000	0.882560
O711	O71	0.312200	0.827400	0.868700
O721	O72	0.249700	0.031100	0.886470
O731	O73	0.796600	0.506600	0.206830
O741	O74	0.923600	0.546800	0.181100
O751	O75	0.807800	0.189600	0.204410
O761	O76	0.822900	0.325500	0.166130
O771	O77	0.122700	0.351000	0.336200
O781	O78	0.112800	0.503800	0.312990
O791	O79	0.363900	0.679400	0.932500
O801	O80	0.314400	0.547600	0.965000
O811	O81	0.673700	0.763800	0.079410
O821	O82	0.622900	0.637000	0.117440
O831	O83	0.812200	0.672600	0.131300
O841	O84	0.749700	0.468900	0.113530
O851	O85	0.703400	0.493400	0.706830
O861	O86	0.576400	0.453200	0.681100
O871	O87	0.692200	0.810400	0.704410
O881	O88	0.677100	0.674500	0.666130
O891	O89	0.377300	0.649000	0.836200
O901	O90	0.387200	0.496200	0.812990
O911	O91	0.136100	0.320600	0.432500
O921	O92	0.185600	0.452400	0.465000
O931	O93	0.826300	0.236200	0.579410
O941	O94	0.877100	0.363000	0.617440
O951	O95	0.687800	0.327400	0.631300
O961	O96	0.750300	0.531100	0.613530
