data_GUVLAL_freeONLY_PM
_symmetry_space_group_name_H-M	'P1'
_cell_length_a	13.728700
_cell_length_b	27.800000
_cell_length_c	45.481000
_cell_angle_alpha	90.000000
_cell_angle_beta	90.000000
_cell_angle_gamma	90.000000
_symmetry_Int_Tables_number 1

loop_
_symmetry_equiv_pos_as_xyz
'x,y,z'

loop_
_atom_site_label
_atom_site_type_symbol
_atom_site_fract_x
_atom_site_fract_y
_atom_site_fract_z
Zn11	Zn1	0.856730	0.743910	0.812820
Zn21	Zn2	0.642310	0.527000	0.915740
Zn31	Zn3	0.664410	0.056640	0.926120
Zn41	Zn4	0.143270	0.756090	0.312820
Zn51	Zn5	0.357690	0.973000	0.415740
Zn61	Zn6	0.335590	0.443360	0.426120
Zn71	Zn7	0.356730	0.256090	0.687180
Zn81	Zn8	0.142310	0.473000	0.584260
Zn91	Zn9	0.164410	0.943360	0.573880
Zn101	Zn10	0.643270	0.243910	0.187180
Zn111	Zn11	0.857690	0.027000	0.084260
Zn121	Zn12	0.835590	0.556640	0.073880
H11	H1	0.065000	0.713100	0.826500
H21	H2	0.149600	0.674100	0.864300
H31	H3	0.816000	0.690600	0.866300
H41	H4	0.894900	0.654700	0.905800
H51	H5	0.803600	0.598500	0.013400
H61	H6	0.888300	0.615600	0.970900
H71	H7	0.035700	0.541400	0.049100
H81	H8	0.128500	0.559500	0.008300
H91	H9	0.492700	0.534600	0.964500
H101	H10	0.333600	0.562000	0.971300
H111	H11	0.491500	0.582600	0.883000
H121	H12	0.336900	0.613900	0.888900
H131	H13	0.589500	0.489300	0.855800
H141	H14	0.575100	0.417100	0.829800
H151	H15	0.622000	0.423800	0.930800
H161	H16	0.597500	0.349400	0.908000
H171	H17	0.657800	0.163000	0.935900
H181	H18	0.629200	0.234300	0.910700
H191	H19	0.582800	0.087200	0.866700
H201	H20	0.551900	0.155400	0.840200
H211	H21	0.470800	0.197400	0.730500
H221	H22	0.529900	0.206300	0.779300
H231	H23	0.417100	0.335200	0.725700
H241	H24	0.484200	0.347200	0.772500
H251	H25	0.935000	0.786900	0.326500
H261	H26	0.850400	0.825900	0.364300
H271	H27	0.184000	0.809400	0.366300
H281	H28	0.105100	0.845300	0.405800
H291	H29	0.196400	0.901500	0.513400
H301	H30	0.111700	0.884400	0.470900
H311	H31	0.964300	0.958600	0.549100
H321	H32	0.871500	0.940500	0.508300
H331	H33	0.507300	0.965400	0.464500
H341	H34	0.666400	0.938000	0.471300
H351	H35	0.508500	0.917400	0.383000
H361	H36	0.663100	0.886100	0.388900
H371	H37	0.410500	0.010700	0.355800
H381	H38	0.424900	0.082900	0.329800
H391	H39	0.378000	0.076200	0.430800
H401	H40	0.402500	0.150600	0.408000
H411	H41	0.342200	0.337000	0.435900
H421	H42	0.370800	0.265700	0.410700
H431	H43	0.417200	0.412800	0.366700
H441	H44	0.448100	0.344600	0.340200
H451	H45	0.529200	0.302600	0.230500
H461	H46	0.470100	0.293700	0.279300
H471	H47	0.582900	0.164800	0.225700
H481	H48	0.515800	0.152800	0.272500
H491	H49	0.565000	0.286900	0.673500
H501	H50	0.649600	0.325900	0.635700
H511	H51	0.316000	0.309400	0.633700
H521	H52	0.394900	0.345300	0.594200
H531	H53	0.303600	0.401500	0.486600
H541	H54	0.388300	0.384400	0.529100
H551	H55	0.535700	0.458600	0.450900
H561	H56	0.628500	0.440500	0.491700
H571	H57	0.992700	0.465400	0.535500
H581	H58	0.833600	0.438000	0.528700
H591	H59	0.991500	0.417400	0.617000
H601	H60	0.836900	0.386100	0.611100
H611	H61	0.089500	0.510700	0.644200
H621	H62	0.075100	0.582900	0.670200
H631	H63	0.122000	0.576200	0.569200
H641	H64	0.097500	0.650600	0.592000
H651	H65	0.157800	0.837000	0.564100
H661	H66	0.129200	0.765700	0.589300
H671	H67	0.082800	0.912800	0.633300
H681	H68	0.051900	0.844600	0.659800
H691	H69	0.970800	0.802600	0.769500
H701	H70	0.029900	0.793700	0.720700
H711	H71	0.917100	0.664800	0.774300
H721	H72	0.984200	0.652800	0.727500
H731	H73	0.435000	0.213100	0.173500
H741	H74	0.350400	0.174100	0.135700
H751	H75	0.684000	0.190600	0.133700
H761	H76	0.605100	0.154700	0.094200
H771	H77	0.696400	0.098500	0.986600
H781	H78	0.611700	0.115600	0.029100
H791	H79	0.464300	0.041400	0.950900
H801	H80	0.371500	0.059500	0.991700
H811	H81	0.007300	0.034600	0.035500
H821	H82	0.166400	0.062000	0.028700
H831	H83	0.008500	0.082600	0.117000
H841	H84	0.163100	0.113900	0.111100
H851	H85	0.910500	0.989300	0.144200
H861	H86	0.924900	0.917100	0.170200
H871	H87	0.878000	0.923800	0.069200
H881	H88	0.902500	0.849400	0.092000
H891	H89	0.842200	0.663000	0.064100
H901	H90	0.870800	0.734300	0.089300
H911	H91	0.917200	0.587200	0.133300
H921	H92	0.948100	0.655400	0.159800
H931	H93	0.029200	0.697400	0.269500
H941	H94	0.970100	0.706300	0.220700
H951	H95	0.082900	0.835200	0.274300
H961	H96	0.015800	0.847200	0.227500
C11	C1	0.029600	0.700800	0.842900
C21	C2	0.081100	0.678200	0.865500
C31	C3	0.885000	0.688300	0.866100
C41	C4	0.931500	0.666600	0.889600
C51	C5	0.030800	0.662400	0.889400
C61	C6	0.082400	0.639800	0.914400
C71	C7	0.870500	0.590000	0.012300
C81	C8	0.920800	0.601600	0.987300
C91	C9	0.005500	0.557300	0.033000
C101	C10	0.061800	0.568400	0.009100
C111	C11	0.019400	0.592800	0.986300
C121	C12	0.075100	0.606200	0.960000
C131	C13	0.460100	0.550300	0.948800
C141	C14	0.365500	0.567300	0.953000
C151	C15	0.459500	0.578800	0.901400
C161	C16	0.367200	0.597300	0.904700
C171	C17	0.318600	0.591600	0.931000
C181	C18	0.215700	0.606700	0.934600
C191	C19	0.595200	0.459900	0.866300
C201	C20	0.583800	0.417000	0.850500
C211	C21	0.612700	0.422500	0.910100
C221	C22	0.598500	0.377800	0.896400
C231	C23	0.585900	0.374400	0.866300
C241	C24	0.573900	0.327500	0.851900
C251	C25	0.636400	0.161400	0.916100
C261	C26	0.620000	0.204300	0.901200
C271	C27	0.592600	0.117600	0.875800
C281	C28	0.574800	0.157900	0.859900
C291	C29	0.590100	0.202400	0.872400
C301	C30	0.575700	0.246500	0.855300
C311	C31	0.471400	0.228300	0.739400
C321	C32	0.507700	0.233500	0.768600
C331	C33	0.441500	0.308500	0.736500
C341	C34	0.479600	0.315600	0.764700
C351	C35	0.510100	0.277400	0.780800
C361	C36	0.541100	0.282600	0.812200
C371	C37	0.970400	0.799200	0.342900
C381	C38	0.918900	0.821800	0.365500
C391	C39	0.115000	0.811700	0.366100
C401	C40	0.068500	0.833400	0.389600
C411	C41	0.969200	0.837600	0.389400
C421	C42	0.917600	0.860200	0.414400
C431	C43	0.129500	0.910000	0.512300
C441	C44	0.079200	0.898400	0.487300
C451	C45	0.994500	0.942700	0.533000
C461	C46	0.938200	0.931600	0.509100
C471	C47	0.980600	0.907200	0.486300
C481	C48	0.924900	0.893800	0.460000
C491	C49	0.539900	0.949700	0.448800
C501	C50	0.634500	0.932700	0.453000
C511	C51	0.540500	0.921200	0.401400
C521	C52	0.632800	0.902700	0.404700
C531	C53	0.681400	0.908400	0.431000
C541	C54	0.784300	0.893300	0.434600
C551	C55	0.404800	0.040100	0.366300
C561	C56	0.416200	0.083000	0.350500
C571	C57	0.387300	0.077500	0.410100
C581	C58	0.401500	0.122200	0.396400
C591	C59	0.414100	0.125600	0.366300
C601	C60	0.426100	0.172500	0.351900
C611	C61	0.363600	0.338600	0.416100
C621	C62	0.380000	0.295700	0.401200
C631	C63	0.407400	0.382400	0.375800
C641	C64	0.425200	0.342100	0.359900
C651	C65	0.409900	0.297600	0.372400
C661	C66	0.424300	0.253500	0.355300
C671	C67	0.528600	0.271700	0.239400
C681	C68	0.492300	0.266500	0.268600
C691	C69	0.558500	0.191500	0.236500
C701	C70	0.520400	0.184400	0.264700
C711	C71	0.489900	0.222600	0.280800
C721	C72	0.458900	0.217400	0.312200
C731	C73	0.529600	0.299200	0.657100
C741	C74	0.581100	0.321800	0.634500
C751	C75	0.385000	0.311700	0.633900
C761	C76	0.431500	0.333400	0.610400
C771	C77	0.530800	0.337600	0.610600
C781	C78	0.582400	0.360200	0.585600
C791	C79	0.370500	0.410000	0.487700
C801	C80	0.420800	0.398400	0.512700
C811	C81	0.505500	0.442700	0.467000
C821	C82	0.561800	0.431600	0.490900
C831	C83	0.519400	0.407200	0.513700
C841	C84	0.575100	0.393800	0.540000
C851	C85	0.960100	0.449700	0.551200
C861	C86	0.865500	0.432700	0.547000
C871	C87	0.959500	0.421200	0.598600
C881	C88	0.867200	0.402700	0.595300
C891	C89	0.818600	0.408400	0.569000
C901	C90	0.715700	0.393300	0.565400
C911	C91	0.095200	0.540100	0.633700
C921	C92	0.083800	0.583000	0.649500
C931	C93	0.112700	0.577500	0.589900
C941	C94	0.098500	0.622200	0.603600
C951	C95	0.085900	0.625600	0.633700
C961	C96	0.073900	0.672500	0.648100
C971	C97	0.136400	0.838600	0.583900
C981	C98	0.120000	0.795700	0.598800
C991	C99	0.092600	0.882400	0.624200
C1001	C100	0.074800	0.842100	0.640100
C1011	C101	0.090100	0.797600	0.627600
C1021	C102	0.075700	0.753500	0.644700
C1031	C103	0.971400	0.771700	0.760600
C1041	C104	0.007700	0.766500	0.731400
C1051	C105	0.941500	0.691500	0.763500
C1061	C106	0.979600	0.684400	0.735300
C1071	C107	0.010100	0.722600	0.719200
C1081	C108	0.041100	0.717400	0.687800
C1091	C109	0.470400	0.200800	0.157100
C1101	C110	0.418900	0.178200	0.134500
C1111	C111	0.615000	0.188300	0.133900
C1121	C112	0.568500	0.166600	0.110400
C1131	C113	0.469200	0.162400	0.110600
C1141	C114	0.417600	0.139800	0.085600
C1151	C115	0.629500	0.090000	0.987700
C1161	C116	0.579200	0.101600	0.012700
C1171	C117	0.494500	0.057300	0.967000
C1181	C118	0.438200	0.068400	0.990900
C1191	C119	0.480600	0.092800	0.013700
C1201	C120	0.424900	0.106200	0.040000
C1211	C121	0.039900	0.050300	0.051200
C1221	C122	0.134500	0.067300	0.047000
C1231	C123	0.040500	0.078800	0.098600
C1241	C124	0.132800	0.097300	0.095300
C1251	C125	0.181400	0.091600	0.069000
C1261	C126	0.284300	0.106700	0.065400
C1271	C127	0.904800	0.959900	0.133700
C1281	C128	0.916200	0.917000	0.149500
C1291	C129	0.887300	0.922500	0.089900
C1301	C130	0.901500	0.877800	0.103600
C1311	C131	0.914100	0.874400	0.133700
C1321	C132	0.926100	0.827500	0.148100
C1331	C133	0.863600	0.661400	0.083900
C1341	C134	0.880000	0.704300	0.098800
C1351	C135	0.907400	0.617600	0.124200
C1361	C136	0.925200	0.657900	0.140100
C1371	C137	0.909900	0.702400	0.127600
C1381	C138	0.924300	0.746500	0.144700
C1391	C139	0.028600	0.728300	0.260600
C1401	C140	0.992300	0.733500	0.231400
C1411	C141	0.058500	0.808500	0.263500
C1421	C142	0.020400	0.815600	0.235300
C1431	C143	0.989900	0.777400	0.219200
C1441	C144	0.958900	0.782600	0.187800
I11	I1	0.695990	0.700650	0.803570
I21	I2	0.853850	0.831490	0.827680
I31	I3	0.725970	0.579260	0.877880
I41	I4	0.715420	0.507210	0.965770
I51	I5	0.845170	0.068940	0.935520
I61	I6	0.583650	0.988820	0.898130
I71	I7	0.304010	0.799350	0.303570
I81	I8	0.146150	0.668510	0.327680
I91	I9	0.274030	0.920740	0.377880
I101	I10	0.284580	0.992790	0.465770
I111	I11	0.154830	0.431060	0.435520
I121	I12	0.416350	0.511180	0.398130
I131	I13	0.195990	0.299350	0.696430
I141	I14	0.353850	0.168510	0.672320
I151	I15	0.225970	0.420740	0.622120
I161	I16	0.215420	0.492790	0.534230
I171	I17	0.345170	0.931060	0.564480
I181	I18	0.083650	0.011180	0.601870
I191	I19	0.804010	0.200650	0.196430
I201	I20	0.646150	0.331490	0.172320
I211	I21	0.774030	0.079260	0.122120
I221	I22	0.784580	0.007210	0.034230
I231	I23	0.654830	0.568940	0.064480
I241	I24	0.916350	0.488820	0.101870
N11	N1	0.932900	0.705900	0.843200
N21	N2	0.910300	0.567500	0.035000
N31	N3	0.505800	0.555800	0.923000
N41	N4	0.028600	0.628400	0.937630
N51	N5	0.170500	0.594800	0.958860
N61	N6	0.177600	0.629800	0.911900
N71	N7	0.613300	0.462200	0.894800
N81	N8	0.623700	0.118700	0.904130
N91	N9	0.438900	0.265500	0.724780
N101	N10	0.586700	0.288700	0.868500
N111	N11	0.553200	0.241400	0.826870
N121	N12	0.551100	0.326500	0.823380
N131	N13	0.067100	0.794100	0.343200
N141	N14	0.089700	0.932500	0.535000
N151	N15	0.494200	0.944200	0.423000
N161	N16	0.971400	0.871600	0.437630
N171	N17	0.829500	0.905200	0.458860
N181	N18	0.822400	0.870200	0.411900
N191	N19	0.386700	0.037800	0.394800
N201	N20	0.376300	0.381300	0.404130
N211	N21	0.561100	0.234500	0.224780
N221	N22	0.413300	0.211300	0.368500
N231	N23	0.446800	0.258600	0.326870
N241	N24	0.448900	0.173500	0.323380
N251	N25	0.432900	0.294100	0.656800
N261	N26	0.410300	0.432500	0.465000
N271	N27	0.005800	0.444200	0.577000
N281	N28	0.528600	0.371600	0.562370
N291	N29	0.670500	0.405200	0.541140
N301	N30	0.677600	0.370200	0.588100
N311	N31	0.113300	0.537800	0.605200
N321	N32	0.123700	0.881300	0.595870
N331	N33	0.938900	0.734500	0.775220
N341	N34	0.086700	0.711300	0.631500
N351	N35	0.053200	0.758600	0.673130
N361	N36	0.051100	0.673500	0.676620
N371	N37	0.567100	0.205900	0.156800
N381	N38	0.589700	0.067500	0.965000
N391	N39	0.994200	0.055800	0.077000
N401	N40	0.471400	0.128400	0.062370
N411	N41	0.329500	0.094800	0.041140
N421	N42	0.322400	0.129800	0.088100
N431	N43	0.886700	0.962200	0.105200
N441	N44	0.876300	0.618700	0.095870
N451	N45	0.061100	0.765500	0.275220
N461	N46	0.913300	0.788700	0.131500
N471	N47	0.946800	0.741400	0.173130
N481	N48	0.948900	0.826500	0.176620
Zn131	Zn13	0.143270	0.256090	0.187180
Zn141	Zn14	0.357690	0.473000	0.084260
Zn151	Zn15	0.335590	0.943360	0.073880
Zn161	Zn16	0.856730	0.243910	0.687180
Zn171	Zn17	0.642310	0.027000	0.584260
Zn181	Zn18	0.664410	0.556640	0.573880
Zn191	Zn19	0.643270	0.743910	0.312820
Zn201	Zn20	0.857690	0.527000	0.415740
Zn211	Zn21	0.835590	0.056640	0.426120
Zn221	Zn22	0.356730	0.756090	0.812820
Zn231	Zn23	0.142310	0.973000	0.915740
Zn241	Zn24	0.164410	0.443360	0.926120
H971	H97	0.935000	0.286900	0.173500
H981	H98	0.850400	0.325900	0.135700
H991	H99	0.184000	0.309400	0.133700
H1001	H100	0.105100	0.345300	0.094200
H1011	H101	0.196400	0.401500	0.986600
H1021	H102	0.111700	0.384400	0.029100
H1031	H103	0.964300	0.458600	0.950900
H1041	H104	0.871500	0.440500	0.991700
H1051	H105	0.507300	0.465400	0.035500
H1061	H106	0.666400	0.438000	0.028700
H1071	H107	0.508500	0.417400	0.117000
H1081	H108	0.663100	0.386100	0.111100
H1091	H109	0.410500	0.510700	0.144200
H1101	H110	0.424900	0.582900	0.170200
H1111	H111	0.378000	0.576200	0.069200
H1121	H112	0.402500	0.650600	0.092000
H1131	H113	0.342200	0.837000	0.064100
H1141	H114	0.370800	0.765700	0.089300
H1151	H115	0.417200	0.912800	0.133300
H1161	H116	0.448100	0.844600	0.159800
H1171	H117	0.529200	0.802600	0.269500
H1181	H118	0.470100	0.793700	0.220700
H1191	H119	0.582900	0.664800	0.274300
H1201	H120	0.515800	0.652800	0.227500
H1211	H121	0.065000	0.213100	0.673500
H1221	H122	0.149600	0.174100	0.635700
H1231	H123	0.816000	0.190600	0.633700
H1241	H124	0.894900	0.154700	0.594200
H1251	H125	0.803600	0.098500	0.486600
H1261	H126	0.888300	0.115600	0.529100
H1271	H127	0.035700	0.041400	0.450900
H1281	H128	0.128500	0.059500	0.491700
H1291	H129	0.492700	0.034600	0.535500
H1301	H130	0.333600	0.062000	0.528700
H1311	H131	0.491500	0.082600	0.617000
H1321	H132	0.336900	0.113900	0.611100
H1331	H133	0.589500	0.989300	0.644200
H1341	H134	0.575100	0.917100	0.670200
H1351	H135	0.622000	0.923800	0.569200
H1361	H136	0.597500	0.849400	0.592000
H1371	H137	0.657800	0.663000	0.564100
H1381	H138	0.629200	0.734300	0.589300
H1391	H139	0.582800	0.587200	0.633300
H1401	H140	0.551900	0.655400	0.659800
H1411	H141	0.470800	0.697400	0.769500
H1421	H142	0.529900	0.706300	0.720700
H1431	H143	0.417100	0.835200	0.774300
H1441	H144	0.484200	0.847200	0.727500
H1451	H145	0.435000	0.713100	0.326500
H1461	H146	0.350400	0.674100	0.364300
H1471	H147	0.684000	0.690600	0.366300
H1481	H148	0.605100	0.654700	0.405800
H1491	H149	0.696400	0.598500	0.513400
H1501	H150	0.611700	0.615600	0.470900
H1511	H151	0.464300	0.541400	0.549100
H1521	H152	0.371500	0.559500	0.508300
H1531	H153	0.007300	0.534600	0.464500
H1541	H154	0.166400	0.562000	0.471300
H1551	H155	0.008500	0.582600	0.383000
H1561	H156	0.163100	0.613900	0.388900
H1571	H157	0.910500	0.489300	0.355800
H1581	H158	0.924900	0.417100	0.329800
H1591	H159	0.878000	0.423800	0.430800
H1601	H160	0.902500	0.349400	0.408000
H1611	H161	0.842200	0.163000	0.435900
H1621	H162	0.870800	0.234300	0.410700
H1631	H163	0.917200	0.087200	0.366700
H1641	H164	0.948100	0.155400	0.340200
H1651	H165	0.029200	0.197400	0.230500
H1661	H166	0.970100	0.206300	0.279300
H1671	H167	0.082900	0.335200	0.225700
H1681	H168	0.015800	0.347200	0.272500
H1691	H169	0.565000	0.786900	0.826500
H1701	H170	0.649600	0.825900	0.864300
H1711	H171	0.316000	0.809400	0.866300
H1721	H172	0.394900	0.845300	0.905800
H1731	H173	0.303600	0.901500	0.013400
H1741	H174	0.388300	0.884400	0.970900
H1751	H175	0.535700	0.958600	0.049100
H1761	H176	0.628500	0.940500	0.008300
H1771	H177	0.992700	0.965400	0.964500
H1781	H178	0.833600	0.938000	0.971300
H1791	H179	0.991500	0.917400	0.883000
H1801	H180	0.836900	0.886100	0.888900
H1811	H181	0.089500	0.010700	0.855800
H1821	H182	0.075100	0.082900	0.829800
H1831	H183	0.122000	0.076200	0.930800
H1841	H184	0.097500	0.150600	0.908000
H1851	H185	0.157800	0.337000	0.935900
H1861	H186	0.129200	0.265700	0.910700
H1871	H187	0.082800	0.412800	0.866700
H1881	H188	0.051900	0.344600	0.840200
H1891	H189	0.970800	0.302600	0.730500
H1901	H190	0.029900	0.293700	0.779300
H1911	H191	0.917100	0.164800	0.725700
H1921	H192	0.984200	0.152800	0.772500
C1451	C145	0.970400	0.299200	0.157100
C1461	C146	0.918900	0.321800	0.134500
C1471	C147	0.115000	0.311700	0.133900
C1481	C148	0.068500	0.333400	0.110400
C1491	C149	0.969200	0.337600	0.110600
C1501	C150	0.917600	0.360200	0.085600
C1511	C151	0.129500	0.410000	0.987700
C1521	C152	0.079200	0.398400	0.012700
C1531	C153	0.994500	0.442700	0.967000
C1541	C154	0.938200	0.431600	0.990900
C1551	C155	0.980600	0.407200	0.013700
C1561	C156	0.924900	0.393800	0.040000
C1571	C157	0.539900	0.449700	0.051200
C1581	C158	0.634500	0.432700	0.047000
C1591	C159	0.540500	0.421200	0.098600
C1601	C160	0.632800	0.402700	0.095300
C1611	C161	0.681400	0.408400	0.069000
C1621	C162	0.784300	0.393300	0.065400
C1631	C163	0.404800	0.540100	0.133700
C1641	C164	0.416200	0.583000	0.149500
C1651	C165	0.387300	0.577500	0.089900
C1661	C166	0.401500	0.622200	0.103600
C1671	C167	0.414100	0.625600	0.133700
C1681	C168	0.426100	0.672500	0.148100
C1691	C169	0.363600	0.838600	0.083900
C1701	C170	0.380000	0.795700	0.098800
C1711	C171	0.407400	0.882400	0.124200
C1721	C172	0.425200	0.842100	0.140100
C1731	C173	0.409900	0.797600	0.127600
C1741	C174	0.424300	0.753500	0.144700
C1751	C175	0.528600	0.771700	0.260600
C1761	C176	0.492300	0.766500	0.231400
C1771	C177	0.558500	0.691500	0.263500
C1781	C178	0.520400	0.684400	0.235300
C1791	C179	0.489900	0.722600	0.219200
C1801	C180	0.458900	0.717400	0.187800
C1811	C181	0.029600	0.200800	0.657100
C1821	C182	0.081100	0.178200	0.634500
C1831	C183	0.885000	0.188300	0.633900
C1841	C184	0.931500	0.166600	0.610400
C1851	C185	0.030800	0.162400	0.610600
C1861	C186	0.082400	0.139800	0.585600
C1871	C187	0.870500	0.090000	0.487700
C1881	C188	0.920800	0.101600	0.512700
C1891	C189	0.005500	0.057300	0.467000
C1901	C190	0.061800	0.068400	0.490900
C1911	C191	0.019400	0.092800	0.513700
C1921	C192	0.075100	0.106200	0.540000
C1931	C193	0.460100	0.050300	0.551200
C1941	C194	0.365500	0.067300	0.547000
C1951	C195	0.459500	0.078800	0.598600
C1961	C196	0.367200	0.097300	0.595300
C1971	C197	0.318600	0.091600	0.569000
C1981	C198	0.215700	0.106700	0.565400
C1991	C199	0.595200	0.959900	0.633700
C2001	C200	0.583800	0.917000	0.649500
C2011	C201	0.612700	0.922500	0.589900
C2021	C202	0.598500	0.877800	0.603600
C2031	C203	0.585900	0.874400	0.633700
C2041	C204	0.573900	0.827500	0.648100
C2051	C205	0.636400	0.661400	0.583900
C2061	C206	0.620000	0.704300	0.598800
C2071	C207	0.592600	0.617600	0.624200
C2081	C208	0.574800	0.657900	0.640100
C2091	C209	0.590100	0.702400	0.627600
C2101	C210	0.575700	0.746500	0.644700
C2111	C211	0.471400	0.728300	0.760600
C2121	C212	0.507700	0.733500	0.731400
C2131	C213	0.441500	0.808500	0.763500
C2141	C214	0.479600	0.815600	0.735300
C2151	C215	0.510100	0.777400	0.719200
C2161	C216	0.541100	0.782600	0.687800
C2171	C217	0.470400	0.700800	0.342900
C2181	C218	0.418900	0.678200	0.365500
C2191	C219	0.615000	0.688300	0.366100
C2201	C220	0.568500	0.666600	0.389600
C2211	C221	0.469200	0.662400	0.389400
C2221	C222	0.417600	0.639800	0.414400
C2231	C223	0.629500	0.590000	0.512300
C2241	C224	0.579200	0.601600	0.487300
C2251	C225	0.494500	0.557300	0.533000
C2261	C226	0.438200	0.568400	0.509100
C2271	C227	0.480600	0.592800	0.486300
C2281	C228	0.424900	0.606200	0.460000
C2291	C229	0.039900	0.550300	0.448800
C2301	C230	0.134500	0.567300	0.453000
C2311	C231	0.040500	0.578800	0.401400
C2321	C232	0.132800	0.597300	0.404700
C2331	C233	0.181400	0.591600	0.431000
C2341	C234	0.284300	0.606700	0.434600
C2351	C235	0.904800	0.459900	0.366300
C2361	C236	0.916200	0.417000	0.350500
C2371	C237	0.887300	0.422500	0.410100
C2381	C238	0.901500	0.377800	0.396400
C2391	C239	0.914100	0.374400	0.366300
C2401	C240	0.926100	0.327500	0.351900
C2411	C241	0.863600	0.161400	0.416100
C2421	C242	0.880000	0.204300	0.401200
C2431	C243	0.907400	0.117600	0.375800
C2441	C244	0.925200	0.157900	0.359900
C2451	C245	0.909900	0.202400	0.372400
C2461	C246	0.924300	0.246500	0.355300
C2471	C247	0.028600	0.228300	0.239400
C2481	C248	0.992300	0.233500	0.268600
C2491	C249	0.058500	0.308500	0.236500
C2501	C250	0.020400	0.315600	0.264700
C2511	C251	0.989900	0.277400	0.280800
C2521	C252	0.958900	0.282600	0.312200
C2531	C253	0.529600	0.799200	0.842900
C2541	C254	0.581100	0.821800	0.865500
C2551	C255	0.385000	0.811700	0.866100
C2561	C256	0.431500	0.833400	0.889600
C2571	C257	0.530800	0.837600	0.889400
C2581	C258	0.582400	0.860200	0.914400
C2591	C259	0.370500	0.910000	0.012300
C2601	C260	0.420800	0.898400	0.987300
C2611	C261	0.505500	0.942700	0.033000
C2621	C262	0.561800	0.931600	0.009100
C2631	C263	0.519400	0.907200	0.986300
C2641	C264	0.575100	0.893800	0.960000
C2651	C265	0.960100	0.949700	0.948800
C2661	C266	0.865500	0.932700	0.953000
C2671	C267	0.959500	0.921200	0.901400
C2681	C268	0.867200	0.902700	0.904700
C2691	C269	0.818600	0.908400	0.931000
C2701	C270	0.715700	0.893300	0.934600
C2711	C271	0.095200	0.040100	0.866300
C2721	C272	0.083800	0.083000	0.850500
C2731	C273	0.112700	0.077500	0.910100
C2741	C274	0.098500	0.122200	0.896400
C2751	C275	0.085900	0.125600	0.866300
C2761	C276	0.073900	0.172500	0.851900
C2771	C277	0.136400	0.338600	0.916100
C2781	C278	0.120000	0.295700	0.901200
C2791	C279	0.092600	0.382400	0.875800
C2801	C280	0.074800	0.342100	0.859900
C2811	C281	0.090100	0.297600	0.872400
C2821	C282	0.075700	0.253500	0.855300
C2831	C283	0.971400	0.271700	0.739400
C2841	C284	0.007700	0.266500	0.768600
C2851	C285	0.941500	0.191500	0.736500
C2861	C286	0.979600	0.184400	0.764700
C2871	C287	0.010100	0.222600	0.780800
C2881	C288	0.041100	0.217400	0.812200
I251	I25	0.304010	0.299350	0.196430
I261	I26	0.146150	0.168510	0.172320
I271	I27	0.274030	0.420740	0.122120
I281	I28	0.284580	0.492790	0.034230
I291	I29	0.154830	0.931060	0.064480
I301	I30	0.416350	0.011180	0.101870
I311	I31	0.695990	0.200650	0.696430
I321	I32	0.853850	0.331490	0.672320
I331	I33	0.725970	0.079260	0.622120
I341	I34	0.715420	0.007210	0.534230
I351	I35	0.845170	0.568940	0.564480
I361	I36	0.583650	0.488820	0.601870
I371	I37	0.804010	0.700650	0.303570
I381	I38	0.646150	0.831490	0.327680
I391	I39	0.774030	0.579260	0.377880
I401	I40	0.784580	0.507210	0.465770
I411	I41	0.654830	0.068940	0.435520
I421	I42	0.916350	0.988820	0.398130
I431	I43	0.195990	0.799350	0.803570
I441	I44	0.353850	0.668510	0.827680
I451	I45	0.225970	0.920740	0.877880
I461	I46	0.215420	0.992790	0.965770
I471	I47	0.345170	0.431060	0.935520
I481	I48	0.083650	0.511180	0.898130
N491	N49	0.067100	0.294100	0.156800
N501	N50	0.089700	0.432500	0.965000
N511	N51	0.494200	0.444200	0.077000
N521	N52	0.971400	0.371600	0.062370
N531	N53	0.829500	0.405200	0.041140
N541	N54	0.822400	0.370200	0.088100
N551	N55	0.386700	0.537800	0.105200
N561	N56	0.376300	0.881300	0.095870
N571	N57	0.561100	0.734500	0.275220
N581	N58	0.413300	0.711300	0.131500
N591	N59	0.446800	0.758600	0.173130
N601	N60	0.448900	0.673500	0.176620
N611	N61	0.932900	0.205900	0.656800
N621	N62	0.910300	0.067500	0.465000
N631	N63	0.505800	0.055800	0.577000
N641	N64	0.028600	0.128400	0.562370
N651	N65	0.170500	0.094800	0.541140
N661	N66	0.177600	0.129800	0.588100
N671	N67	0.613300	0.962200	0.605200
N681	N68	0.623700	0.618700	0.595870
N691	N69	0.438900	0.765500	0.775220
N701	N70	0.586700	0.788700	0.631500
N711	N71	0.553200	0.741400	0.673130
N721	N72	0.551100	0.826500	0.676620
N731	N73	0.567100	0.705900	0.343200
N741	N74	0.589700	0.567500	0.535000
N751	N75	0.994200	0.555800	0.423000
N761	N76	0.471400	0.628400	0.437630
N771	N77	0.329500	0.594800	0.458860
N781	N78	0.322400	0.629800	0.411900
N791	N79	0.886700	0.462200	0.394800
N801	N80	0.876300	0.118700	0.404130
N811	N81	0.061100	0.265500	0.224780
N821	N82	0.913300	0.288700	0.368500
N831	N83	0.946800	0.241400	0.326870
N841	N84	0.948900	0.326500	0.323380
N851	N85	0.432900	0.794100	0.843200
N861	N86	0.410300	0.932500	0.035000
N871	N87	0.005800	0.944200	0.923000
N881	N88	0.528600	0.871600	0.937630
N891	N89	0.670500	0.905200	0.958860
N901	N90	0.677600	0.870200	0.911900
N911	N91	0.113300	0.037800	0.894800
N921	N92	0.123700	0.381300	0.904130
N931	N93	0.938900	0.234500	0.724780
N941	N94	0.086700	0.211300	0.868500
N951	N95	0.053200	0.258600	0.826870
N961	N96	0.051100	0.173500	0.823380
