data_GUWDUY_freeONLY_PM
_symmetry_space_group_name_H-M	'P1'
_cell_length_a	13.447000
_cell_length_b	13.715000
_cell_length_c	14.301000
_cell_angle_alpha	79.480000
_cell_angle_beta	63.900000
_cell_angle_gamma	65.680000
_symmetry_Int_Tables_number 1

loop_
_symmetry_equiv_pos_as_xyz
'x,y,z'

loop_
_atom_site_label
_atom_site_type_symbol
_atom_site_fract_x
_atom_site_fract_y
_atom_site_fract_z
La11	La1	0.475810	0.080460	0.341870
La21	La2	0.524190	0.919540	0.658130
H11	H1	0.125100	0.452400	0.580500
H21	H2	0.293500	0.301400	0.518100
H31	H3	0.658600	0.151000	0.088700
H41	H4	0.847800	0.134400	0.969400
H51	H5	0.592900	0.658700	0.979000
H61	H6	0.552800	0.946400	0.108400
H71	H7	0.979300	0.876100	0.128500
H81	H8	0.259800	0.978800	0.561800
H91	H9	0.533900	0.651400	0.318000
H101	H10	0.786000	0.895700	0.238400
H111	H11	0.498700	0.808400	0.384200
H121	H12	0.593800	0.504600	0.249400
H131	H13	0.578900	0.795500	0.038300
H141	H14	0.076700	0.964700	0.619100
H151	H15	0.625400	0.351600	0.177600
H161	H16	0.029000	0.413800	0.364900
H171	H17	0.638200	0.497600	0.913500
H181	H18	0.202000	0.265000	0.306700
H191	H19	0.270500	0.052100	0.282800
H201	H20	0.090300	0.038500	0.330800
H211	H21	0.874900	0.547600	0.419500
H221	H22	0.706500	0.698600	0.481900
H231	H23	0.341400	0.849000	0.911300
H241	H24	0.152200	0.865600	0.030600
H251	H25	0.407100	0.341300	0.021000
H261	H26	0.447200	0.053600	0.891600
H271	H27	0.020700	0.123900	0.871500
H281	H28	0.740200	0.021200	0.438200
H291	H29	0.466100	0.348600	0.682000
H301	H30	0.214000	0.104300	0.761600
H311	H31	0.501300	0.191600	0.615800
H321	H32	0.406200	0.495400	0.750600
H331	H33	0.421100	0.204500	0.961700
H341	H34	0.923300	0.035300	0.380900
H351	H35	0.374600	0.648400	0.822400
H361	H36	0.971000	0.586200	0.635100
H371	H37	0.361800	0.502400	0.086500
H381	H38	0.798000	0.735000	0.693300
H391	H39	0.729500	0.947900	0.717200
H401	H40	0.909700	0.961500	0.669200
C11	C1	0.138200	0.414700	0.524000
C21	C2	0.562400	0.703200	0.168800
C31	C3	0.937400	0.004900	0.036300
C41	C4	0.055600	0.450700	0.480200
C51	C5	0.239100	0.324200	0.485700
C61	C6	0.724700	0.094000	0.097100
C71	C7	0.587900	0.602200	0.123000
C81	C8	0.837900	0.085300	0.025800
C91	C9	0.601200	0.596500	0.021600
C101	C10	0.547200	0.886200	0.152400
C111	C11	0.914900	0.933700	0.118100
C121	C12	0.223800	0.993500	0.514000
C131	C13	0.537300	0.711400	0.273200
C141	C14	0.798500	0.946900	0.184400
C151	C15	0.059300	0.003200	0.482600
C161	C16	0.517200	0.805600	0.312300
C171	C17	0.600100	0.506300	0.180400
C181	C18	0.564900	0.795300	0.109500
C191	C19	0.114100	0.984300	0.548800
C201	C20	0.621300	0.414300	0.135800
C211	C21	0.082200	0.392500	0.398200
C221	C22	0.626600	0.499600	0.983700
C231	C23	0.186100	0.303100	0.364000
C241	C24	0.230000	0.035500	0.353400
C251	C25	0.121900	0.027400	0.381400
C261	C26	0.861800	0.585300	0.476000
C271	C27	0.437600	0.296800	0.831200
C281	C28	0.062600	0.995100	0.963700
C291	C29	0.944400	0.549300	0.519800
C301	C30	0.760900	0.675800	0.514300
C311	C31	0.275300	0.906000	0.902900
C321	C32	0.412100	0.397800	0.877000
C331	C33	0.162100	0.914700	0.974200
C341	C34	0.398800	0.403500	0.978400
C351	C35	0.452800	0.113800	0.847600
C361	C36	0.085100	0.066300	0.881900
C371	C37	0.776200	0.006500	0.486000
C381	C38	0.462700	0.288600	0.726800
C391	C39	0.201500	0.053100	0.815600
C401	C40	0.940700	0.996800	0.517400
C411	C41	0.482800	0.194400	0.687700
C421	C42	0.399900	0.493700	0.819600
C431	C43	0.435100	0.204700	0.890500
C441	C44	0.885900	0.015700	0.451200
C451	C45	0.378700	0.585700	0.864200
C461	C46	0.917800	0.607500	0.601800
C471	C47	0.373400	0.500400	0.016300
C481	C48	0.813900	0.696900	0.636000
C491	C49	0.770000	0.964500	0.646600
C501	C50	0.878100	0.972600	0.618600
N11	N1	0.702000	0.027000	0.177800
N21	N2	0.522500	0.894600	0.253700
N31	N3	0.266300	0.266300	0.406500
N41	N4	0.281600	0.021900	0.417100
N51	N5	0.636400	0.407500	0.038400
N61	N6	0.298000	0.973000	0.822200
N71	N7	0.477500	0.105400	0.746300
N81	N8	0.733700	0.733700	0.593500
N91	N9	0.718400	0.978100	0.582900
N101	N10	0.363600	0.592500	0.961600
Cl11	Cl1	0.622380	0.905610	0.428340
Cl21	Cl2	0.425440	0.158950	0.165760
Cl31	Cl3	0.572300	0.216770	0.356970
Cl41	Cl4	0.377620	0.094390	0.571660
Cl51	Cl5	0.574560	0.841050	0.834240
Cl61	Cl6	0.427700	0.783230	0.643030
