data_GUXZUV_freeONLY_PM
_symmetry_space_group_name_H-M	'P1'
_cell_length_a	8.810500
_cell_length_b	12.008400
_cell_length_c	12.349300
_cell_angle_alpha	63.518000
_cell_angle_beta	89.233000
_cell_angle_gamma	89.590000
_symmetry_Int_Tables_number 1

loop_
_symmetry_equiv_pos_as_xyz
'x,y,z'

loop_
_atom_site_label
_atom_site_type_symbol
_atom_site_fract_x
_atom_site_fract_y
_atom_site_fract_z
U11	U1	0.979510	0.550220	0.727840
O11	O1	0.136200	0.654300	0.681100
O21	O2	0.820700	0.450200	0.772600
P11	P1	0.824000	0.865290	0.576940
O31	O3	0.804500	0.728400	0.654500
O41	O4	0.909600	0.899700	0.459700
O51	O5	0.903100	0.922600	0.653100
H11	H1	0.960400	0.978500	0.609300
C11	C1	0.640600	0.939400	0.536600
C21	C2	0.632400	0.069200	0.475800
H21	H2	0.720700	0.116300	0.459400
C31	C3	0.505100	0.872700	0.559600
H31	H3	0.508400	0.786300	0.600200
P21	P2	0.826400	0.627120	0.419640
O61	O6	0.923100	0.598400	0.527900
O71	O7	0.796200	0.772300	0.355100
H41	H4	0.835600	0.804500	0.394000
O81	O8	0.888400	0.592200	0.325300
C41	C4	0.642400	0.558200	0.463700
C51	C5	0.571300	0.507600	0.395600
H51	H5	0.618800	0.511000	0.326500
C61	C6	0.570900	0.548100	0.569100
H61	H6	0.618800	0.579100	0.616600
P31	P3	0.826300	0.627000	0.970230
O91	O9	0.928200	0.594300	0.891000
O101	O10	0.884900	0.598300	0.094500
O111	O11	0.796700	0.771200	0.900400
H71	H7	0.834400	0.798400	0.832400
C71	C7	0.642600	0.556100	0.988400
C81	C8	0.547900	0.587600	0.887100
H81	H8	0.580300	0.646300	0.811100
C91	C9	0.590800	0.467600	0.099800
H91	H9	0.651800	0.445200	0.167200
U21	U2	0.020490	0.449780	0.272160
O121	O12	0.863800	0.345700	0.318900
O131	O13	0.179300	0.549800	0.227400
P41	P4	0.176000	0.134710	0.423060
O141	O14	0.195500	0.271600	0.345500
O151	O15	0.090400	0.100300	0.540300
O161	O16	0.096900	0.077400	0.346900
H101	H10	0.039600	0.021500	0.390700
C101	C10	0.359400	0.060600	0.463400
C111	C11	0.367600	0.930800	0.524200
H111	H11	0.279300	0.883700	0.540600
C121	C12	0.494900	0.127300	0.440400
H121	H12	0.491600	0.213700	0.399800
P51	P5	0.173600	0.372880	0.580360
O171	O17	0.076900	0.401600	0.472100
O181	O18	0.203800	0.227700	0.644900
H131	H13	0.164400	0.195500	0.606000
O191	O19	0.111600	0.407800	0.674700
C131	C13	0.357600	0.441800	0.536300
C141	C14	0.428700	0.492400	0.604400
H141	H14	0.381200	0.489000	0.673500
C151	C15	0.429100	0.451900	0.430900
H151	H15	0.381200	0.420900	0.383400
P61	P6	0.173700	0.373000	0.029770
O201	O20	0.071800	0.405700	0.109000
O211	O21	0.115100	0.401700	0.905500
O221	O22	0.203300	0.228800	0.099600
H161	H16	0.165600	0.201600	0.167600
C161	C16	0.357400	0.443900	0.011600
C171	C17	0.452100	0.412400	0.112900
H171	H17	0.419700	0.353700	0.188900
C181	C18	0.409200	0.532400	0.900200
H181	H18	0.348200	0.554800	0.832800
