data_GUYBAE_freeONLY_PM
_symmetry_space_group_name_H-M	'P1'
_cell_length_a	9.805100
_cell_length_b	19.569600
_cell_length_c	17.339000
_cell_angle_alpha	90.000000
_cell_angle_beta	92.015000
_cell_angle_gamma	90.000000
_symmetry_Int_Tables_number 1

loop_
_symmetry_equiv_pos_as_xyz
'x,y,z'

loop_
_atom_site_label
_atom_site_type_symbol
_atom_site_fract_x
_atom_site_fract_y
_atom_site_fract_z
U11	U1	0.714220	0.258370	0.011970
O11	O1	0.702000	0.202600	0.092200
O21	O2	0.716900	0.316300	0.933400
U21	U2	0.292200	0.237070	0.964060
O31	O3	0.307400	0.292500	0.883000
O41	O4	0.285100	0.182900	0.044200
U31	U3	0.252870	0.365710	0.242350
O51	O5	0.250900	0.275000	0.254600
O61	O6	0.254800	0.456300	0.230300
P11	P1	0.508500	0.357690	0.086870
O71	O7	0.660000	0.346400	0.106700
O81	O8	0.471000	0.300400	0.029100
O91	O9	0.421000	0.358400	0.156600
C11	C1	0.494300	0.437400	0.037100
C21	C2	0.509500	0.440000	0.957500
H11	H1	0.517500	0.399000	0.928700
P21	P2	0.495200	0.133060	0.895350
O101	O10	0.536000	0.194700	0.946700
O111	O11	0.344600	0.145300	0.873300
O121	O12	0.585200	0.121700	0.827000
C31	C3	0.505300	0.058800	0.954900
C41	C4	0.487200	0.498500	0.078300
H21	H2	0.480000	0.497000	0.132800
C51	C5	0.498400	0.063400	0.036400
H31	H3	0.496500	0.106900	0.060600
C61	C6	0.505400	0.994500	0.919900
H41	H4	0.508200	0.991100	0.865400
P31	P3	0.961700	0.145670	0.916340
O131	O13	0.088600	0.189500	0.920300
O141	O14	0.926300	0.124600	0.832300
O151	O15	0.841200	0.180500	0.951400
C71	C7	0.986600	0.066000	0.967700
C81	C8	0.111700	0.031800	0.969700
H51	H5	0.188600	0.052800	0.947700
C91	C9	0.874100	0.033000	0.996400
H61	H6	0.787000	0.054300	0.993100
P41	P4	0.045800	0.347120	0.062970
O161	O16	0.089200	0.356400	0.147800
O171	O17	0.919100	0.303800	0.055500
O181	O18	0.162900	0.317500	0.019600
C101	C10	0.014500	0.432300	0.025700
C111	C11	0.126600	0.469800	0.999400
H71	H7	0.213800	0.448800	0.998000
C121	C12	0.889300	0.462500	0.024600
H81	H8	0.812200	0.437300	0.040300
U41	U4	0.785780	0.758370	0.488030
O191	O19	0.798000	0.702600	0.407800
O201	O20	0.783100	0.816300	0.566600
U51	U5	0.207800	0.737070	0.535940
O211	O21	0.192600	0.792500	0.617000
O221	O22	0.214900	0.682900	0.455800
U61	U6	0.247130	0.865710	0.257650
O231	O23	0.249100	0.775000	0.245400
O241	O24	0.245200	0.956300	0.269700
P51	P5	0.991500	0.857690	0.413130
O251	O25	0.840000	0.846400	0.393300
O261	O26	0.029000	0.800400	0.470900
O271	O27	0.079000	0.858400	0.343400
C131	C13	0.005700	0.937400	0.462900
C141	C14	0.990500	0.940000	0.542500
H91	H9	0.982500	0.899000	0.571300
P61	P6	0.004800	0.633060	0.604650
O281	O28	0.964000	0.694700	0.553300
O291	O29	0.155400	0.645300	0.626700
O301	O30	0.914800	0.621700	0.673000
C151	C15	0.994700	0.558800	0.545100
C161	C16	0.012800	0.998500	0.421700
H101	H10	0.020000	0.997000	0.367200
C171	C17	0.001600	0.563400	0.463600
H111	H11	0.003500	0.606900	0.439400
C181	C18	0.994600	0.494500	0.580100
H121	H12	0.991800	0.491100	0.634600
P71	P7	0.538300	0.645670	0.583660
O311	O31	0.411400	0.689500	0.579700
O321	O32	0.573700	0.624600	0.667700
O331	O33	0.658800	0.680500	0.548600
C191	C19	0.513400	0.566000	0.532300
C201	C20	0.388300	0.531800	0.530300
H131	H13	0.311400	0.552800	0.552300
C211	C21	0.625900	0.533000	0.503600
H141	H14	0.713000	0.554300	0.506900
P81	P8	0.454200	0.847120	0.437030
O341	O34	0.410800	0.856400	0.352200
O351	O35	0.580900	0.803800	0.444500
O361	O36	0.337100	0.817500	0.480400
C221	C22	0.485500	0.932300	0.474300
C231	C23	0.373400	0.969800	0.500600
H151	H15	0.286200	0.948800	0.502000
C241	C24	0.610700	0.962500	0.475400
H161	H16	0.687800	0.937300	0.459700
U71	U7	0.285780	0.741630	0.988030
O371	O37	0.298000	0.797400	0.907800
O381	O38	0.283100	0.683700	0.066600
U81	U8	0.707800	0.762930	0.035940
O391	O39	0.692600	0.707500	0.117000
O401	O40	0.714900	0.817100	0.955800
U91	U9	0.747130	0.634290	0.757650
O411	O41	0.749100	0.725000	0.745400
O421	O42	0.745200	0.543700	0.769700
P91	P9	0.491500	0.642310	0.913130
O431	O43	0.340000	0.653600	0.893300
O441	O44	0.529000	0.699600	0.970900
O451	O45	0.579000	0.641600	0.843400
C251	C25	0.505700	0.562600	0.962900
C261	C26	0.490500	0.560000	0.042500
H171	H17	0.482500	0.601000	0.071300
P101	P10	0.504800	0.866940	0.104650
O461	O46	0.464000	0.805300	0.053300
O471	O47	0.655400	0.854700	0.126700
O481	O48	0.414800	0.878300	0.173000
C271	C27	0.494700	0.941200	0.045100
C281	C28	0.512800	0.501500	0.921700
H181	H18	0.520000	0.503000	0.867200
C291	C29	0.501600	0.936600	0.963600
H191	H19	0.503500	0.893100	0.939400
C301	C30	0.494600	0.005500	0.080100
H201	H20	0.491800	0.008900	0.134600
P111	P11	0.038300	0.854330	0.083660
O491	O49	0.911400	0.810500	0.079700
O501	O50	0.073700	0.875400	0.167700
O511	O51	0.158800	0.819500	0.048600
C311	C31	0.013400	0.934000	0.032300
C321	C32	0.888300	0.968200	0.030300
H211	H21	0.811400	0.947200	0.052300
C331	C33	0.125900	0.967000	0.003600
H221	H22	0.213000	0.945700	0.006900
P121	P12	0.954200	0.652880	0.937030
O521	O52	0.910800	0.643600	0.852200
O531	O53	0.080900	0.696200	0.944500
O541	O54	0.837100	0.682500	0.980400
C341	C34	0.985500	0.567700	0.974300
C351	C35	0.873400	0.530200	0.000600
H231	H23	0.786200	0.551200	0.002000
C361	C36	0.110700	0.537500	0.975400
H241	H24	0.187800	0.562700	0.959700
U101	U10	0.214220	0.241630	0.511970
O551	O55	0.202000	0.297400	0.592200
O561	O56	0.216900	0.183700	0.433400
U111	U11	0.792200	0.262930	0.464060
O571	O57	0.807400	0.207500	0.383000
O581	O58	0.785100	0.317100	0.544200
U121	U12	0.752870	0.134290	0.742350
O591	O59	0.750900	0.225000	0.754600
O601	O60	0.754800	0.043700	0.730300
P131	P13	0.008500	0.142310	0.586870
O611	O61	0.160000	0.153600	0.606700
O621	O62	0.971000	0.199600	0.529100
O631	O63	0.921000	0.141600	0.656600
C371	C37	0.994300	0.062600	0.537100
C381	C38	0.009500	0.060000	0.457500
H251	H25	0.017500	0.101000	0.428700
P141	P14	0.995200	0.366940	0.395350
O641	O64	0.036000	0.305300	0.446700
O651	O65	0.844600	0.354700	0.373300
O661	O66	0.085200	0.378300	0.327000
C391	C39	0.005300	0.441200	0.454900
C401	C40	0.987200	0.001500	0.578300
H261	H26	0.980000	0.003000	0.632800
C411	C41	0.998400	0.436600	0.536400
H271	H27	0.996500	0.393100	0.560600
C421	C42	0.005400	0.505500	0.419900
H281	H28	0.008200	0.508900	0.365400
P151	P15	0.461700	0.354330	0.416340
O671	O67	0.588600	0.310500	0.420300
O681	O68	0.426300	0.375400	0.332300
O691	O69	0.341200	0.319500	0.451400
C431	C43	0.486600	0.434000	0.467700
C441	C44	0.611700	0.468200	0.469700
H291	H29	0.688600	0.447200	0.447700
C451	C45	0.374100	0.467000	0.496400
H301	H30	0.287000	0.445700	0.493100
P161	P16	0.545800	0.152880	0.562970
O701	O70	0.589200	0.143600	0.647800
O711	O71	0.419100	0.196200	0.555500
O721	O72	0.662900	0.182500	0.519600
C461	C46	0.514500	0.067700	0.525700
C471	C47	0.626600	0.030200	0.499400
H311	H31	0.713800	0.051200	0.498000
C481	C48	0.389300	0.037500	0.524600
H321	H32	0.312200	0.062700	0.540300
