data_HABQUY_freeONLY_PM
_symmetry_space_group_name_H-M	'P1'
_cell_length_a	41.827500
_cell_length_b	41.827500
_cell_length_c	41.827500
_cell_angle_alpha	60.000000
_cell_angle_beta	60.000000
_cell_angle_gamma	60.000000
_symmetry_Int_Tables_number 1

loop_
_symmetry_equiv_pos_as_xyz
'x,y,z'

loop_
_atom_site_label
_atom_site_type_symbol
_atom_site_fract_x
_atom_site_fract_y
_atom_site_fract_z
Cu11	Cu1	0.809260	0.000000	0.000000
Cu21	Cu2	0.746000	0.000000	0.000000
Cu31	Cu3	0.000000	0.809260	0.190740
Cu41	Cu4	0.000000	0.746000	0.254000
Cu51	Cu5	0.000000	0.190740	0.809260
Cu61	Cu6	0.000000	0.254000	0.746000
Cu71	Cu7	0.190740	0.000000	0.000000
Cu81	Cu8	0.254000	0.000000	0.000000
Cu91	Cu9	0.809260	0.000000	0.190740
Cu101	Cu10	0.746000	0.000000	0.254000
Cu111	Cu11	0.000000	0.190740	0.000000
Cu121	Cu12	0.000000	0.254000	0.000000
Cu131	Cu13	0.000000	0.809260	0.000000
Cu141	Cu14	0.000000	0.746000	0.000000
Cu151	Cu15	0.190740	0.000000	0.809260
Cu161	Cu16	0.254000	0.000000	0.746000
Cu171	Cu17	0.809260	0.190740	0.000000
Cu181	Cu18	0.746000	0.254000	0.000000
Cu191	Cu19	0.000000	0.000000	0.809260
Cu201	Cu20	0.000000	0.000000	0.746000
Cu211	Cu21	0.000000	0.000000	0.190740
Cu221	Cu22	0.000000	0.000000	0.254000
Cu231	Cu23	0.190740	0.809260	0.000000
Cu241	Cu24	0.254000	0.746000	0.000000
H11	H1	0.680900	0.976100	0.123100
H21	H2	0.568700	0.951500	0.191500
H31	H3	0.508800	0.940400	0.227000
H41	H4	0.976100	0.680900	0.219900
H51	H5	0.951500	0.568700	0.288300
H61	H6	0.940400	0.508800	0.323800
H71	H7	0.123100	0.219900	0.680900
H81	H8	0.191500	0.288300	0.568700
H91	H9	0.227000	0.323800	0.508800
H101	H10	0.219900	0.123100	0.976100
H111	H11	0.288300	0.191500	0.951500
H121	H12	0.323800	0.227000	0.940400
H131	H13	0.680900	0.123100	0.219900
H141	H14	0.568700	0.191500	0.288300
H151	H15	0.508800	0.227000	0.323800
H161	H16	0.976100	0.219900	0.123100
H171	H17	0.951500	0.288300	0.191500
H181	H18	0.940400	0.323800	0.227000
H191	H19	0.123100	0.680900	0.976100
H201	H20	0.191500	0.568700	0.951500
H211	H21	0.227000	0.508800	0.940400
H221	H22	0.219900	0.976100	0.680900
H231	H23	0.288300	0.951500	0.568700
H241	H24	0.323800	0.940400	0.508800
H251	H25	0.680900	0.219900	0.976100
H261	H26	0.568700	0.288300	0.951500
H271	H27	0.508800	0.323800	0.940400
H281	H28	0.976100	0.123100	0.680900
H291	H29	0.951500	0.191500	0.568700
H301	H30	0.940400	0.227000	0.508800
H311	H31	0.123100	0.976100	0.219900
H321	H32	0.191500	0.951500	0.288300
H331	H33	0.227000	0.940400	0.323800
H341	H34	0.219900	0.680900	0.123100
H351	H35	0.288300	0.568700	0.191500
H361	H36	0.323800	0.508800	0.227000
H371	H37	0.023900	0.319100	0.876900
H381	H38	0.048500	0.431300	0.808500
H391	H39	0.059600	0.491200	0.773000
H401	H40	0.319100	0.023900	0.780100
H411	H41	0.431300	0.048500	0.711700
H421	H42	0.491200	0.059600	0.676200
H431	H43	0.780100	0.876900	0.319100
H441	H44	0.711700	0.808500	0.431300
H451	H45	0.676200	0.773000	0.491200
H461	H46	0.876900	0.780100	0.023900
H471	H47	0.808500	0.711700	0.048500
H481	H48	0.773000	0.676200	0.059600
H491	H49	0.876900	0.319100	0.780100
H501	H50	0.808500	0.431300	0.711700
H511	H51	0.773000	0.491200	0.676200
H521	H52	0.780100	0.023900	0.876900
H531	H53	0.711700	0.048500	0.808500
H541	H54	0.676200	0.059600	0.773000
H551	H55	0.319100	0.876900	0.023900
H561	H56	0.431300	0.808500	0.048500
H571	H57	0.491200	0.773000	0.059600
H581	H58	0.023900	0.780100	0.319100
H591	H59	0.048500	0.711700	0.431300
H601	H60	0.059600	0.676200	0.491200
H611	H61	0.780100	0.319100	0.023900
H621	H62	0.711700	0.431300	0.048500
H631	H63	0.676200	0.491200	0.059600
H641	H64	0.876900	0.023900	0.319100
H651	H65	0.808500	0.048500	0.431300
H661	H66	0.773000	0.059600	0.491200
H671	H67	0.023900	0.876900	0.780100
H681	H68	0.048500	0.808500	0.711700
H691	H69	0.059600	0.773000	0.676200
H701	H70	0.319100	0.780100	0.876900
H711	H71	0.431300	0.711700	0.808500
H721	H72	0.491200	0.676200	0.773000
H731	H73	0.319100	0.023900	0.876900
H741	H74	0.431300	0.048500	0.808500
H751	H75	0.491200	0.059600	0.773000
H761	H76	0.023900	0.319100	0.780100
H771	H77	0.048500	0.431300	0.711700
H781	H78	0.059600	0.491200	0.676200
H791	H79	0.876900	0.780100	0.319100
H801	H80	0.808500	0.711700	0.431300
H811	H81	0.773000	0.676200	0.491200
H821	H82	0.780100	0.876900	0.023900
H831	H83	0.711700	0.808500	0.048500
H841	H84	0.676200	0.773000	0.059600
H851	H85	0.319100	0.876900	0.780100
H861	H86	0.431300	0.808500	0.711700
H871	H87	0.491200	0.773000	0.676200
H881	H88	0.023900	0.780100	0.876900
H891	H89	0.048500	0.711700	0.808500
H901	H90	0.059600	0.676200	0.773000
H911	H91	0.876900	0.319100	0.023900
H921	H92	0.808500	0.431300	0.048500
H931	H93	0.773000	0.491200	0.059600
H941	H94	0.780100	0.023900	0.319100
H951	H95	0.711700	0.048500	0.431300
H961	H96	0.676200	0.059600	0.491200
H971	H97	0.319100	0.780100	0.023900
H981	H98	0.431300	0.711700	0.048500
H991	H99	0.491200	0.676200	0.059600
H1001	H100	0.023900	0.876900	0.319100
H1011	H101	0.048500	0.808500	0.431300
H1021	H102	0.059600	0.773000	0.491200
H1031	H103	0.876900	0.023900	0.780100
H1041	H104	0.808500	0.048500	0.711700
H1051	H105	0.773000	0.059600	0.676200
H1061	H106	0.780100	0.319100	0.876900
H1071	H107	0.711700	0.431300	0.808500
H1081	H108	0.676200	0.491200	0.773000
H1091	H109	0.976100	0.680900	0.123100
H1101	H110	0.951500	0.568700	0.191500
H1111	H111	0.940400	0.508800	0.227000
H1121	H112	0.680900	0.976100	0.219900
H1131	H113	0.568700	0.951500	0.288300
H1141	H114	0.508800	0.940400	0.323800
H1151	H115	0.219900	0.123100	0.680900
H1161	H116	0.288300	0.191500	0.568700
H1171	H117	0.323800	0.227000	0.508800
H1181	H118	0.123100	0.219900	0.976100
H1191	H119	0.191500	0.288300	0.951500
H1201	H120	0.227000	0.323800	0.940400
H1211	H121	0.123100	0.680900	0.219900
H1221	H122	0.191500	0.568700	0.288300
H1231	H123	0.227000	0.508800	0.323800
H1241	H124	0.219900	0.976100	0.123100
H1251	H125	0.288300	0.951500	0.191500
H1261	H126	0.323800	0.940400	0.227000
H1271	H127	0.680900	0.123100	0.976100
H1281	H128	0.568700	0.191500	0.951500
H1291	H129	0.508800	0.227000	0.940400
H1301	H130	0.976100	0.219900	0.680900
H1311	H131	0.951500	0.288300	0.568700
H1321	H132	0.940400	0.323800	0.508800
H1331	H133	0.219900	0.680900	0.976100
H1341	H134	0.288300	0.568700	0.951500
H1351	H135	0.323800	0.508800	0.940400
H1361	H136	0.123100	0.976100	0.680900
H1371	H137	0.191500	0.951500	0.568700
H1381	H138	0.227000	0.940400	0.508800
H1391	H139	0.976100	0.123100	0.219900
H1401	H140	0.951500	0.191500	0.288300
H1411	H141	0.940400	0.227000	0.323800
H1421	H142	0.680900	0.219900	0.123100
H1431	H143	0.568700	0.288300	0.191500
H1441	H144	0.508800	0.323800	0.227000
H1451	H145	0.770900	0.991300	0.118900
H1461	H146	0.991300	0.770900	0.118900
H1471	H147	0.118900	0.118900	0.770900
H1481	H148	0.118900	0.118900	0.991300
H1491	H149	0.770900	0.118900	0.118900
H1501	H150	0.991300	0.118900	0.118900
H1511	H151	0.118900	0.770900	0.991300
H1521	H152	0.118900	0.991300	0.770900
H1531	H153	0.770900	0.118900	0.991300
H1541	H154	0.991300	0.118900	0.770900
H1551	H155	0.118900	0.991300	0.118900
H1561	H156	0.118900	0.770900	0.118900
H1571	H157	0.008700	0.229100	0.881100
H1581	H158	0.229100	0.008700	0.881100
H1591	H159	0.881100	0.881100	0.229100
H1601	H160	0.881100	0.881100	0.008700
H1611	H161	0.881100	0.229100	0.881100
H1621	H162	0.881100	0.008700	0.881100
H1631	H163	0.229100	0.881100	0.008700
H1641	H164	0.008700	0.881100	0.229100
H1651	H165	0.881100	0.229100	0.008700
H1661	H166	0.881100	0.008700	0.229100
H1671	H167	0.008700	0.881100	0.881100
H1681	H168	0.229100	0.881100	0.881100
H1691	H169	0.392000	0.920400	0.392000
H1701	H170	0.920400	0.392000	0.295600
H1711	H171	0.392000	0.295600	0.392000
H1721	H172	0.295600	0.392000	0.920400
H1731	H173	0.392000	0.392000	0.295600
H1741	H174	0.920400	0.295600	0.392000
H1751	H175	0.392000	0.392000	0.920400
H1761	H176	0.295600	0.920400	0.392000
H1771	H177	0.392000	0.295600	0.920400
H1781	H178	0.920400	0.392000	0.392000
H1791	H179	0.392000	0.920400	0.295600
H1801	H180	0.295600	0.392000	0.392000
H1811	H181	0.079600	0.608000	0.608000
H1821	H182	0.608000	0.079600	0.704400
H1831	H183	0.704400	0.608000	0.608000
H1841	H184	0.608000	0.704400	0.079600
H1851	H185	0.608000	0.608000	0.704400
H1861	H186	0.704400	0.079600	0.608000
H1871	H187	0.608000	0.608000	0.079600
H1881	H188	0.079600	0.704400	0.608000
H1891	H189	0.704400	0.608000	0.079600
H1901	H190	0.608000	0.079600	0.608000
H1911	H191	0.079600	0.608000	0.704400
H1921	H192	0.608000	0.704400	0.608000
C11	C1	0.747700	0.988900	0.072100
C21	C2	0.729050	0.984750	0.114370
C31	C3	0.693250	0.977950	0.135630
C41	C4	0.556600	0.949200	0.218400
C51	C5	0.520900	0.942700	0.239500
C61	C6	0.988900	0.747700	0.191300
C71	C7	0.984750	0.729050	0.171830
C81	C8	0.977950	0.693250	0.193170
C91	C9	0.949200	0.556600	0.275800
C101	C10	0.942700	0.520900	0.296900
C111	C11	0.072100	0.191300	0.747700
C121	C12	0.114370	0.171830	0.729050
C131	C13	0.135630	0.193170	0.693250
C141	C14	0.218400	0.275800	0.556600
C151	C15	0.239500	0.296900	0.520900
C161	C16	0.191300	0.072100	0.988900
C171	C17	0.171830	0.114370	0.984750
C181	C18	0.193170	0.135630	0.977950
C191	C19	0.275800	0.218400	0.949200
C201	C20	0.296900	0.239500	0.942700
C211	C21	0.747700	0.072100	0.191300
C221	C22	0.729050	0.114370	0.171830
C231	C23	0.693250	0.135630	0.193170
C241	C24	0.556600	0.218400	0.275800
C251	C25	0.520900	0.239500	0.296900
C261	C26	0.988900	0.191300	0.072100
C271	C27	0.984750	0.171830	0.114370
C281	C28	0.977950	0.193170	0.135630
C291	C29	0.949200	0.275800	0.218400
C301	C30	0.942700	0.296900	0.239500
C311	C31	0.072100	0.747700	0.988900
C321	C32	0.114370	0.729050	0.984750
C331	C33	0.135630	0.693250	0.977950
C341	C34	0.218400	0.556600	0.949200
C351	C35	0.239500	0.520900	0.942700
C361	C36	0.191300	0.988900	0.747700
C371	C37	0.171830	0.984750	0.729050
C381	C38	0.193170	0.977950	0.693250
C391	C39	0.275800	0.949200	0.556600
C401	C40	0.296900	0.942700	0.520900
C411	C41	0.747700	0.191300	0.988900
C421	C42	0.729050	0.171830	0.984750
C431	C43	0.693250	0.193170	0.977950
C441	C44	0.556600	0.275800	0.949200
C451	C45	0.520900	0.296900	0.942700
C461	C46	0.988900	0.072100	0.747700
C471	C47	0.984750	0.114370	0.729050
C481	C48	0.977950	0.135630	0.693250
C491	C49	0.949200	0.218400	0.556600
C501	C50	0.942700	0.239500	0.520900
C511	C51	0.072100	0.988900	0.191300
C521	C52	0.114370	0.984750	0.171830
C531	C53	0.135630	0.977950	0.193170
C541	C54	0.218400	0.949200	0.275800
C551	C55	0.239500	0.942700	0.296900
C561	C56	0.191300	0.747700	0.072100
C571	C57	0.171830	0.729050	0.114370
C581	C58	0.193170	0.693250	0.135630
C591	C59	0.275800	0.556600	0.218400
C601	C60	0.296900	0.520900	0.239500
C611	C61	0.011100	0.252300	0.927900
C621	C62	0.015250	0.270950	0.885630
C631	C63	0.022050	0.306750	0.864370
C641	C64	0.050800	0.443400	0.781600
C651	C65	0.057300	0.479100	0.760500
C661	C66	0.252300	0.011100	0.808700
C671	C67	0.270950	0.015250	0.828170
C681	C68	0.306750	0.022050	0.806830
C691	C69	0.443400	0.050800	0.724200
C701	C70	0.479100	0.057300	0.703100
C711	C71	0.808700	0.927900	0.252300
C721	C72	0.828170	0.885630	0.270950
C731	C73	0.806830	0.864370	0.306750
C741	C74	0.724200	0.781600	0.443400
C751	C75	0.703100	0.760500	0.479100
C761	C76	0.927900	0.808700	0.011100
C771	C77	0.885630	0.828170	0.015250
C781	C78	0.864370	0.806830	0.022050
C791	C79	0.781600	0.724200	0.050800
C801	C80	0.760500	0.703100	0.057300
C811	C81	0.927900	0.252300	0.808700
C821	C82	0.885630	0.270950	0.828170
C831	C83	0.864370	0.306750	0.806830
C841	C84	0.781600	0.443400	0.724200
C851	C85	0.760500	0.479100	0.703100
C861	C86	0.808700	0.011100	0.927900
C871	C87	0.828170	0.015250	0.885630
C881	C88	0.806830	0.022050	0.864370
C891	C89	0.724200	0.050800	0.781600
C901	C90	0.703100	0.057300	0.760500
C911	C91	0.252300	0.927900	0.011100
C921	C92	0.270950	0.885630	0.015250
C931	C93	0.306750	0.864370	0.022050
C941	C94	0.443400	0.781600	0.050800
C951	C95	0.479100	0.760500	0.057300
C961	C96	0.011100	0.808700	0.252300
C971	C97	0.015250	0.828170	0.270950
C981	C98	0.022050	0.806830	0.306750
C991	C99	0.050800	0.724200	0.443400
C1001	C100	0.057300	0.703100	0.479100
C1011	C101	0.808700	0.252300	0.011100
C1021	C102	0.828170	0.270950	0.015250
C1031	C103	0.806830	0.306750	0.022050
C1041	C104	0.724200	0.443400	0.050800
C1051	C105	0.703100	0.479100	0.057300
C1061	C106	0.927900	0.011100	0.252300
C1071	C107	0.885630	0.015250	0.270950
C1081	C108	0.864370	0.022050	0.306750
C1091	C109	0.781600	0.050800	0.443400
C1101	C110	0.760500	0.057300	0.479100
C1111	C111	0.011100	0.927900	0.808700
C1121	C112	0.015250	0.885630	0.828170
C1131	C113	0.022050	0.864370	0.806830
C1141	C114	0.050800	0.781600	0.724200
C1151	C115	0.057300	0.760500	0.703100
C1161	C116	0.252300	0.808700	0.927900
C1171	C117	0.270950	0.828170	0.885630
C1181	C118	0.306750	0.806830	0.864370
C1191	C119	0.443400	0.724200	0.781600
C1201	C120	0.479100	0.703100	0.760500
C1211	C121	0.252300	0.011100	0.927900
C1221	C122	0.270950	0.015250	0.885630
C1231	C123	0.306750	0.022050	0.864370
C1241	C124	0.443400	0.050800	0.781600
C1251	C125	0.479100	0.057300	0.760500
C1261	C126	0.011100	0.252300	0.808700
C1271	C127	0.015250	0.270950	0.828170
C1281	C128	0.022050	0.306750	0.806830
C1291	C129	0.050800	0.443400	0.724200
C1301	C130	0.057300	0.479100	0.703100
C1311	C131	0.927900	0.808700	0.252300
C1321	C132	0.885630	0.828170	0.270950
C1331	C133	0.864370	0.806830	0.306750
C1341	C134	0.781600	0.724200	0.443400
C1351	C135	0.760500	0.703100	0.479100
C1361	C136	0.808700	0.927900	0.011100
C1371	C137	0.828170	0.885630	0.015250
C1381	C138	0.806830	0.864370	0.022050
C1391	C139	0.724200	0.781600	0.050800
C1401	C140	0.703100	0.760500	0.057300
C1411	C141	0.252300	0.927900	0.808700
C1421	C142	0.270950	0.885630	0.828170
C1431	C143	0.306750	0.864370	0.806830
C1441	C144	0.443400	0.781600	0.724200
C1451	C145	0.479100	0.760500	0.703100
C1461	C146	0.011100	0.808700	0.927900
C1471	C147	0.015250	0.828170	0.885630
C1481	C148	0.022050	0.806830	0.864370
C1491	C149	0.050800	0.724200	0.781600
C1501	C150	0.057300	0.703100	0.760500
C1511	C151	0.927900	0.252300	0.011100
C1521	C152	0.885630	0.270950	0.015250
C1531	C153	0.864370	0.306750	0.022050
C1541	C154	0.781600	0.443400	0.050800
C1551	C155	0.760500	0.479100	0.057300
C1561	C156	0.808700	0.011100	0.252300
C1571	C157	0.828170	0.015250	0.270950
C1581	C158	0.806830	0.022050	0.306750
C1591	C159	0.724200	0.050800	0.443400
C1601	C160	0.703100	0.057300	0.479100
C1611	C161	0.252300	0.808700	0.011100
C1621	C162	0.270950	0.828170	0.015250
C1631	C163	0.306750	0.806830	0.022050
C1641	C164	0.443400	0.724200	0.050800
C1651	C165	0.479100	0.703100	0.057300
C1661	C166	0.011100	0.927900	0.252300
C1671	C167	0.015250	0.885630	0.270950
C1681	C168	0.022050	0.864370	0.306750
C1691	C169	0.050800	0.781600	0.443400
C1701	C170	0.057300	0.760500	0.479100
C1711	C171	0.927900	0.011100	0.808700
C1721	C172	0.885630	0.015250	0.828170
C1731	C173	0.864370	0.022050	0.806830
C1741	C174	0.781600	0.050800	0.724200
C1751	C175	0.760500	0.057300	0.703100
C1761	C176	0.808700	0.252300	0.927900
C1771	C177	0.828170	0.270950	0.885630
C1781	C178	0.806830	0.306750	0.864370
C1791	C179	0.724200	0.443400	0.781600
C1801	C180	0.703100	0.479100	0.760500
C1811	C181	0.988900	0.747700	0.072100
C1821	C182	0.984750	0.729050	0.114370
C1831	C183	0.977950	0.693250	0.135630
C1841	C184	0.949200	0.556600	0.218400
C1851	C185	0.942700	0.520900	0.239500
C1861	C186	0.747700	0.988900	0.191300
C1871	C187	0.729050	0.984750	0.171830
C1881	C188	0.693250	0.977950	0.193170
C1891	C189	0.556600	0.949200	0.275800
C1901	C190	0.520900	0.942700	0.296900
C1911	C191	0.191300	0.072100	0.747700
C1921	C192	0.171830	0.114370	0.729050
C1931	C193	0.193170	0.135630	0.693250
C1941	C194	0.275800	0.218400	0.556600
C1951	C195	0.296900	0.239500	0.520900
C1961	C196	0.072100	0.191300	0.988900
C1971	C197	0.114370	0.171830	0.984750
C1981	C198	0.135630	0.193170	0.977950
C1991	C199	0.218400	0.275800	0.949200
C2001	C200	0.239500	0.296900	0.942700
C2011	C201	0.072100	0.747700	0.191300
C2021	C202	0.114370	0.729050	0.171830
C2031	C203	0.135630	0.693250	0.193170
C2041	C204	0.218400	0.556600	0.275800
C2051	C205	0.239500	0.520900	0.296900
C2061	C206	0.191300	0.988900	0.072100
C2071	C207	0.171830	0.984750	0.114370
C2081	C208	0.193170	0.977950	0.135630
C2091	C209	0.275800	0.949200	0.218400
C2101	C210	0.296900	0.942700	0.239500
C2111	C211	0.747700	0.072100	0.988900
C2121	C212	0.729050	0.114370	0.984750
C2131	C213	0.693250	0.135630	0.977950
C2141	C214	0.556600	0.218400	0.949200
C2151	C215	0.520900	0.239500	0.942700
C2161	C216	0.988900	0.191300	0.747700
C2171	C217	0.984750	0.171830	0.729050
C2181	C218	0.977950	0.193170	0.693250
C2191	C219	0.949200	0.275800	0.556600
C2201	C220	0.942700	0.296900	0.520900
C2211	C221	0.191300	0.747700	0.988900
C2221	C222	0.171830	0.729050	0.984750
C2231	C223	0.193170	0.693250	0.977950
C2241	C224	0.275800	0.556600	0.949200
C2251	C225	0.296900	0.520900	0.942700
C2261	C226	0.072100	0.988900	0.747700
C2271	C227	0.114370	0.984750	0.729050
C2281	C228	0.135630	0.977950	0.693250
C2291	C229	0.218400	0.949200	0.556600
C2301	C230	0.239500	0.942700	0.520900
C2311	C231	0.988900	0.072100	0.191300
C2321	C232	0.984750	0.114370	0.171830
C2331	C233	0.977950	0.135630	0.193170
C2341	C234	0.949200	0.218400	0.275800
C2351	C235	0.942700	0.239500	0.296900
C2361	C236	0.747700	0.191300	0.072100
C2371	C237	0.729050	0.171830	0.114370
C2381	C238	0.693250	0.193170	0.135630
C2391	C239	0.556600	0.275800	0.218400
C2401	C240	0.520900	0.296900	0.239500
C2411	C241	0.746200	0.987400	0.133200
C2421	C242	0.675780	0.974020	0.175100
C2431	C243	0.639100	0.967100	0.196900
C2441	C244	0.610900	0.959300	0.214900
C2451	C245	0.574500	0.952500	0.236500
C2461	C246	0.502900	0.939300	0.278900
C2471	C247	0.466100	0.932500	0.300700
C2481	C248	0.435600	0.926800	0.318800
C2491	C249	0.395900	0.927500	0.338300
C2501	C250	0.987400	0.746200	0.133200
C2511	C251	0.974020	0.675780	0.175100
C2521	C252	0.967100	0.639100	0.196900
C2531	C253	0.959300	0.610900	0.214900
C2541	C254	0.952500	0.574500	0.236500
C2551	C255	0.939300	0.502900	0.278900
C2561	C256	0.932500	0.466100	0.300700
C2571	C257	0.926800	0.435600	0.318800
C2581	C258	0.927500	0.395900	0.338300
C2591	C259	0.133200	0.133200	0.746200
C2601	C260	0.175100	0.175100	0.675780
C2611	C261	0.196900	0.196900	0.639100
C2621	C262	0.214900	0.214900	0.610900
C2631	C263	0.236500	0.236500	0.574500
C2641	C264	0.278900	0.278900	0.502900
C2651	C265	0.300700	0.300700	0.466100
C2661	C266	0.318800	0.318800	0.435600
C2671	C267	0.338300	0.338300	0.395900
C2681	C268	0.133200	0.133200	0.987400
C2691	C269	0.175100	0.175100	0.974020
C2701	C270	0.196900	0.196900	0.967100
C2711	C271	0.214900	0.214900	0.959300
C2721	C272	0.236500	0.236500	0.952500
C2731	C273	0.278900	0.278900	0.939300
C2741	C274	0.300700	0.300700	0.932500
C2751	C275	0.318800	0.318800	0.926800
C2761	C276	0.338300	0.338300	0.927500
C2771	C277	0.746200	0.133200	0.133200
C2781	C278	0.675780	0.175100	0.175100
C2791	C279	0.639100	0.196900	0.196900
C2801	C280	0.610900	0.214900	0.214900
C2811	C281	0.574500	0.236500	0.236500
C2821	C282	0.502900	0.278900	0.278900
C2831	C283	0.466100	0.300700	0.300700
C2841	C284	0.435600	0.318800	0.318800
C2851	C285	0.395900	0.338300	0.338300
C2861	C286	0.987400	0.133200	0.133200
C2871	C287	0.974020	0.175100	0.175100
C2881	C288	0.967100	0.196900	0.196900
C2891	C289	0.959300	0.214900	0.214900
C2901	C290	0.952500	0.236500	0.236500
C2911	C291	0.939300	0.278900	0.278900
C2921	C292	0.932500	0.300700	0.300700
C2931	C293	0.926800	0.318800	0.318800
C2941	C294	0.927500	0.338300	0.338300
C2951	C295	0.133200	0.746200	0.987400
C2961	C296	0.175100	0.675780	0.974020
C2971	C297	0.196900	0.639100	0.967100
C2981	C298	0.214900	0.610900	0.959300
C2991	C299	0.236500	0.574500	0.952500
C3001	C300	0.278900	0.502900	0.939300
C3011	C301	0.300700	0.466100	0.932500
C3021	C302	0.318800	0.435600	0.926800
C3031	C303	0.338300	0.395900	0.927500
C3041	C304	0.133200	0.987400	0.746200
C3051	C305	0.175100	0.974020	0.675780
C3061	C306	0.196900	0.967100	0.639100
C3071	C307	0.214900	0.959300	0.610900
C3081	C308	0.236500	0.952500	0.574500
C3091	C309	0.278900	0.939300	0.502900
C3101	C310	0.300700	0.932500	0.466100
C3111	C311	0.318800	0.926800	0.435600
C3121	C312	0.338300	0.927500	0.395900
C3131	C313	0.746200	0.133200	0.987400
C3141	C314	0.675780	0.175100	0.974020
C3151	C315	0.639100	0.196900	0.967100
C3161	C316	0.610900	0.214900	0.959300
C3171	C317	0.574500	0.236500	0.952500
C3181	C318	0.502900	0.278900	0.939300
C3191	C319	0.466100	0.300700	0.932500
C3201	C320	0.435600	0.318800	0.926800
C3211	C321	0.395900	0.338300	0.927500
C3221	C322	0.987400	0.133200	0.746200
C3231	C323	0.974020	0.175100	0.675780
C3241	C324	0.967100	0.196900	0.639100
C3251	C325	0.959300	0.214900	0.610900
C3261	C326	0.952500	0.236500	0.574500
C3271	C327	0.939300	0.278900	0.502900
C3281	C328	0.932500	0.300700	0.466100
C3291	C329	0.926800	0.318800	0.435600
C3301	C330	0.927500	0.338300	0.395900
C3311	C331	0.133200	0.987400	0.133200
C3321	C332	0.175100	0.974020	0.175100
C3331	C333	0.196900	0.967100	0.196900
C3341	C334	0.214900	0.959300	0.214900
C3351	C335	0.236500	0.952500	0.236500
C3361	C336	0.278900	0.939300	0.278900
C3371	C337	0.300700	0.932500	0.300700
C3381	C338	0.318800	0.926800	0.318800
C3391	C339	0.338300	0.927500	0.338300
C3401	C340	0.133200	0.746200	0.133200
C3411	C341	0.175100	0.675780	0.175100
C3421	C342	0.196900	0.639100	0.196900
C3431	C343	0.214900	0.610900	0.214900
C3441	C344	0.236500	0.574500	0.236500
C3451	C345	0.278900	0.502900	0.278900
C3461	C346	0.300700	0.466100	0.300700
C3471	C347	0.318800	0.435600	0.318800
C3481	C348	0.338300	0.395900	0.338300
C3491	C349	0.012600	0.253800	0.866800
C3501	C350	0.025980	0.324220	0.824900
C3511	C351	0.032900	0.360900	0.803100
C3521	C352	0.040700	0.389100	0.785100
C3531	C353	0.047500	0.425500	0.763500
C3541	C354	0.060700	0.497100	0.721100
C3551	C355	0.067500	0.533900	0.699300
C3561	C356	0.073200	0.564400	0.681200
C3571	C357	0.072500	0.604100	0.661700
C3581	C358	0.253800	0.012600	0.866800
C3591	C359	0.324220	0.025980	0.824900
C3601	C360	0.360900	0.032900	0.803100
C3611	C361	0.389100	0.040700	0.785100
C3621	C362	0.425500	0.047500	0.763500
C3631	C363	0.497100	0.060700	0.721100
C3641	C364	0.533900	0.067500	0.699300
C3651	C365	0.564400	0.073200	0.681200
C3661	C366	0.604100	0.072500	0.661700
C3671	C367	0.866800	0.866800	0.253800
C3681	C368	0.824900	0.824900	0.324220
C3691	C369	0.803100	0.803100	0.360900
C3701	C370	0.785100	0.785100	0.389100
C3711	C371	0.763500	0.763500	0.425500
C3721	C372	0.721100	0.721100	0.497100
C3731	C373	0.699300	0.699300	0.533900
C3741	C374	0.681200	0.681200	0.564400
C3751	C375	0.661700	0.661700	0.604100
C3761	C376	0.866800	0.866800	0.012600
C3771	C377	0.824900	0.824900	0.025980
C3781	C378	0.803100	0.803100	0.032900
C3791	C379	0.785100	0.785100	0.040700
C3801	C380	0.763500	0.763500	0.047500
C3811	C381	0.721100	0.721100	0.060700
C3821	C382	0.699300	0.699300	0.067500
C3831	C383	0.681200	0.681200	0.073200
C3841	C384	0.661700	0.661700	0.072500
C3851	C385	0.866800	0.253800	0.866800
C3861	C386	0.824900	0.324220	0.824900
C3871	C387	0.803100	0.360900	0.803100
C3881	C388	0.785100	0.389100	0.785100
C3891	C389	0.763500	0.425500	0.763500
C3901	C390	0.721100	0.497100	0.721100
C3911	C391	0.699300	0.533900	0.699300
C3921	C392	0.681200	0.564400	0.681200
C3931	C393	0.661700	0.604100	0.661700
C3941	C394	0.866800	0.012600	0.866800
C3951	C395	0.824900	0.025980	0.824900
C3961	C396	0.803100	0.032900	0.803100
C3971	C397	0.785100	0.040700	0.785100
C3981	C398	0.763500	0.047500	0.763500
C3991	C399	0.721100	0.060700	0.721100
C4001	C400	0.699300	0.067500	0.699300
C4011	C401	0.681200	0.073200	0.681200
C4021	C402	0.661700	0.072500	0.661700
C4031	C403	0.253800	0.866800	0.012600
C4041	C404	0.324220	0.824900	0.025980
C4051	C405	0.360900	0.803100	0.032900
C4061	C406	0.389100	0.785100	0.040700
C4071	C407	0.425500	0.763500	0.047500
C4081	C408	0.497100	0.721100	0.060700
C4091	C409	0.533900	0.699300	0.067500
C4101	C410	0.564400	0.681200	0.073200
C4111	C411	0.604100	0.661700	0.072500
C4121	C412	0.012600	0.866800	0.253800
C4131	C413	0.025980	0.824900	0.324220
C4141	C414	0.032900	0.803100	0.360900
C4151	C415	0.040700	0.785100	0.389100
C4161	C416	0.047500	0.763500	0.425500
C4171	C417	0.060700	0.721100	0.497100
C4181	C418	0.067500	0.699300	0.533900
C4191	C419	0.073200	0.681200	0.564400
C4201	C420	0.072500	0.661700	0.604100
C4211	C421	0.866800	0.253800	0.012600
C4221	C422	0.824900	0.324220	0.025980
C4231	C423	0.803100	0.360900	0.032900
C4241	C424	0.785100	0.389100	0.040700
C4251	C425	0.763500	0.425500	0.047500
C4261	C426	0.721100	0.497100	0.060700
C4271	C427	0.699300	0.533900	0.067500
C4281	C428	0.681200	0.564400	0.073200
C4291	C429	0.661700	0.604100	0.072500
C4301	C430	0.866800	0.012600	0.253800
C4311	C431	0.824900	0.025980	0.324220
C4321	C432	0.803100	0.032900	0.360900
C4331	C433	0.785100	0.040700	0.389100
C4341	C434	0.763500	0.047500	0.425500
C4351	C435	0.721100	0.060700	0.497100
C4361	C436	0.699300	0.067500	0.533900
C4371	C437	0.681200	0.073200	0.564400
C4381	C438	0.661700	0.072500	0.604100
C4391	C439	0.012600	0.866800	0.866800
C4401	C440	0.025980	0.824900	0.824900
C4411	C441	0.032900	0.803100	0.803100
C4421	C442	0.040700	0.785100	0.785100
C4431	C443	0.047500	0.763500	0.763500
C4441	C444	0.060700	0.721100	0.721100
C4451	C445	0.067500	0.699300	0.699300
C4461	C446	0.073200	0.681200	0.681200
C4471	C447	0.072500	0.661700	0.661700
C4481	C448	0.253800	0.866800	0.866800
C4491	C449	0.324220	0.824900	0.824900
C4501	C450	0.360900	0.803100	0.803100
C4511	C451	0.389100	0.785100	0.785100
C4521	C452	0.425500	0.763500	0.763500
C4531	C453	0.497100	0.721100	0.721100
C4541	C454	0.533900	0.699300	0.699300
C4551	C455	0.564400	0.681200	0.681200
C4561	C456	0.604100	0.661700	0.661700
C4571	C457	0.377700	0.924500	0.377700
C4581	C458	0.924500	0.377700	0.320100
C4591	C459	0.377700	0.320100	0.377700
C4601	C460	0.320100	0.377700	0.924500
C4611	C461	0.377700	0.377700	0.320100
C4621	C462	0.924500	0.320100	0.377700
C4631	C463	0.377700	0.377700	0.924500
C4641	C464	0.320100	0.924500	0.377700
C4651	C465	0.377700	0.320100	0.924500
C4661	C466	0.924500	0.377700	0.377700
C4671	C467	0.377700	0.924500	0.320100
C4681	C468	0.320100	0.377700	0.377700
C4691	C469	0.075500	0.622300	0.622300
C4701	C470	0.622300	0.075500	0.679900
C4711	C471	0.679900	0.622300	0.622300
C4721	C472	0.622300	0.679900	0.075500
C4731	C473	0.622300	0.622300	0.679900
C4741	C474	0.679900	0.075500	0.622300
C4751	C475	0.622300	0.622300	0.075500
C4761	C476	0.075500	0.679900	0.622300
C4771	C477	0.679900	0.622300	0.075500
C4781	C478	0.622300	0.075500	0.622300
C4791	C479	0.075500	0.622300	0.679900
C4801	C480	0.622300	0.679900	0.622300
O11	O1	0.781130	0.991070	0.055330
O21	O2	0.728200	0.990000	0.055800
O31	O3	0.991070	0.781130	0.172470
O41	O4	0.990000	0.728200	0.226000
O51	O5	0.055330	0.172470	0.781130
O61	O6	0.055800	0.226000	0.728200
O71	O7	0.172470	0.055330	0.991070
O81	O8	0.226000	0.055800	0.990000
O91	O9	0.781130	0.055330	0.172470
O101	O10	0.728200	0.055800	0.226000
O111	O11	0.991070	0.172470	0.055330
O121	O12	0.990000	0.226000	0.055800
O131	O13	0.055330	0.781130	0.991070
O141	O14	0.055800	0.728200	0.990000
O151	O15	0.172470	0.991070	0.781130
O161	O16	0.226000	0.990000	0.728200
O171	O17	0.781130	0.172470	0.991070
O181	O18	0.728200	0.226000	0.990000
O191	O19	0.991070	0.055330	0.781130
O201	O20	0.990000	0.055800	0.728200
O211	O21	0.055330	0.991070	0.172470
O221	O22	0.055800	0.990000	0.226000
O231	O23	0.172470	0.781130	0.055330
O241	O24	0.226000	0.728200	0.055800
O251	O25	0.008930	0.218870	0.944670
O261	O26	0.010000	0.271800	0.944200
O271	O27	0.218870	0.008930	0.827530
O281	O28	0.271800	0.010000	0.774000
O291	O29	0.827530	0.944670	0.218870
O301	O30	0.774000	0.944200	0.271800
O311	O31	0.944670	0.827530	0.008930
O321	O32	0.944200	0.774000	0.010000
O331	O33	0.944670	0.218870	0.827530
O341	O34	0.944200	0.271800	0.774000
O351	O35	0.827530	0.008930	0.944670
O361	O36	0.774000	0.010000	0.944200
O371	O37	0.218870	0.944670	0.008930
O381	O38	0.271800	0.944200	0.010000
O391	O39	0.008930	0.827530	0.218870
O401	O40	0.010000	0.774000	0.271800
O411	O41	0.827530	0.218870	0.008930
O421	O42	0.774000	0.271800	0.010000
O431	O43	0.944670	0.008930	0.218870
O441	O44	0.944200	0.010000	0.271800
O451	O45	0.008930	0.944670	0.827530
O461	O46	0.010000	0.944200	0.774000
O471	O47	0.218870	0.827530	0.944670
O481	O48	0.271800	0.774000	0.944200
O491	O49	0.218870	0.008930	0.944670
O501	O50	0.271800	0.010000	0.944200
O511	O51	0.008930	0.218870	0.827530
O521	O52	0.010000	0.271800	0.774000
O531	O53	0.944670	0.827530	0.218870
O541	O54	0.944200	0.774000	0.271800
O551	O55	0.827530	0.944670	0.008930
O561	O56	0.774000	0.944200	0.010000
O571	O57	0.218870	0.944670	0.827530
O581	O58	0.271800	0.944200	0.774000
O591	O59	0.008930	0.827530	0.944670
O601	O60	0.010000	0.774000	0.944200
O611	O61	0.944670	0.218870	0.008930
O621	O62	0.944200	0.271800	0.010000
O631	O63	0.827530	0.008930	0.218870
O641	O64	0.774000	0.010000	0.271800
O651	O65	0.218870	0.827530	0.008930
O661	O66	0.271800	0.774000	0.010000
O671	O67	0.008930	0.944670	0.218870
O681	O68	0.010000	0.944200	0.271800
O691	O69	0.944670	0.008930	0.827530
O701	O70	0.944200	0.010000	0.774000
O711	O71	0.827530	0.218870	0.944670
O721	O72	0.774000	0.271800	0.944200
O731	O73	0.991070	0.781130	0.055330
O741	O74	0.990000	0.728200	0.055800
O751	O75	0.781130	0.991070	0.172470
O761	O76	0.728200	0.990000	0.226000
O771	O77	0.172470	0.055330	0.781130
O781	O78	0.226000	0.055800	0.728200
O791	O79	0.055330	0.172470	0.991070
O801	O80	0.055800	0.226000	0.990000
O811	O81	0.055330	0.781130	0.172470
O821	O82	0.055800	0.728200	0.226000
O831	O83	0.172470	0.991070	0.055330
O841	O84	0.226000	0.990000	0.055800
O851	O85	0.781130	0.055330	0.991070
O861	O86	0.728200	0.055800	0.990000
O871	O87	0.991070	0.172470	0.781130
O881	O88	0.990000	0.226000	0.728200
O891	O89	0.172470	0.781130	0.991070
O901	O90	0.226000	0.728200	0.990000
O911	O91	0.055330	0.991070	0.781130
O921	O92	0.055800	0.990000	0.728200
O931	O93	0.991070	0.055330	0.172470
O941	O94	0.990000	0.055800	0.226000
O951	O95	0.781130	0.172470	0.055330
O961	O96	0.728200	0.226000	0.055800
O971	O97	0.862600	0.000000	0.000000
O981	O98	0.000000	0.862600	0.137400
O991	O99	0.000000	0.137400	0.862600
O1001	O100	0.137400	0.000000	0.000000
O1011	O101	0.862600	0.000000	0.137400
O1021	O102	0.000000	0.137400	0.000000
O1031	O103	0.000000	0.862600	0.000000
O1041	O104	0.137400	0.000000	0.862600
O1051	O105	0.862600	0.137400	0.000000
O1061	O106	0.000000	0.000000	0.862600
O1071	O107	0.000000	0.000000	0.137400
O1081	O108	0.137400	0.862600	0.000000
