data_HABRAF_manual_PM
_symmetry_space_group_name_H-M	'P1'
_cell_length_a	37.291400
_cell_length_b	37.291400
_cell_length_c	37.291400
_cell_angle_alpha	60.000000
_cell_angle_beta	60.000000
_cell_angle_gamma	60.000000
_symmetry_Int_Tables_number 1

loop_
_symmetry_equiv_pos_as_xyz
'x,y,z'

loop_
_atom_site_label
_atom_site_type_symbol
_atom_site_fract_x
_atom_site_fract_y
_atom_site_fract_z
Cu11	Cu1	0.717040	0.500000	0.500050
Cu21	Cu2	0.774280	0.499850	0.499870
Cu31	Cu3	0.500090	0.717150	0.282740
Cu41	Cu4	0.500210	0.774060	0.226300
Cu51	Cu5	0.499970	0.282740	0.717340
Cu61	Cu6	0.500360	0.225710	0.774030
Cu71	Cu7	0.282830	0.500010	0.500000
Cu81	Cu8	0.225920	0.499850	0.499780
Cu91	Cu9	0.717580	0.499960	0.282520
Cu101	Cu10	0.775020	0.499990	0.224750
Cu111	Cu11	0.500140	0.282900	0.499960
Cu121	Cu12	0.499700	0.225500	0.500170
Cu131	Cu13	0.500030	0.717140	0.499910
Cu141	Cu14	0.499820	0.774610	0.500120
Cu151	Cu15	0.283010	0.500060	0.717040
Cu161	Cu16	0.225440	0.499700	0.774500
Cu171	Cu17	0.717020	0.282950	0.499940
Cu181	Cu18	0.774860	0.225600	0.499710
Cu191	Cu19	0.499960	0.499990	0.717610
Cu201	Cu20	0.499950	0.499980	0.775700
Cu211	Cu21	0.499890	0.500060	0.282410
Cu221	Cu22	0.499910	0.500040	0.224350
Cu231	Cu23	0.282790	0.717100	0.500080
Cu241	Cu24	0.225560	0.774880	0.499840
H11	H1	0.854260	0.365990	0.528530
H21	H2	0.985920	0.185220	0.528320
H31	H3	0.057410	0.145860	0.533420
H41	H4	0.366040	0.854040	0.251410
H51	H5	0.185270	0.985860	0.300540
H61	H6	0.145890	0.057360	0.263310
H71	H7	0.528190	0.251340	0.854320
H81	H8	0.528380	0.300530	0.985940
H91	H9	0.533430	0.263290	0.057430
H101	H10	0.251090	0.528700	0.366010
H111	H11	0.300520	0.528340	0.185200
H121	H12	0.263300	0.533440	0.145830
H131	H13	0.853970	0.528350	0.251550
H141	H14	0.985870	0.528360	0.300510
H151	H15	0.057330	0.533490	0.263260
H161	H16	0.366050	0.251290	0.528190
H171	H17	0.185110	0.300510	0.528350
H181	H18	0.145840	0.263240	0.533440
H191	H19	0.528700	0.854230	0.365800
H201	H20	0.528370	0.985980	0.185190
H211	H21	0.533460	0.057440	0.145840
H221	H22	0.251180	0.365970	0.854650
H231	H23	0.300540	0.185130	0.985970
H241	H24	0.263300	0.145830	0.057460
H251	H25	0.854110	0.251110	0.365960
H261	H26	0.985950	0.300490	0.185190
H271	H27	0.057450	0.263270	0.145860
H281	H28	0.366050	0.528340	0.854260
H291	H29	0.185140	0.528360	0.985930
H301	H30	0.145830	0.533470	0.057390
H311	H31	0.528280	0.366110	0.251410
H321	H32	0.528360	0.185140	0.300570
H331	H33	0.533460	0.145860	0.263290
H341	H34	0.251060	0.854210	0.528780
H351	H35	0.300530	0.985930	0.528360
H361	H36	0.263290	0.057420	0.533430
H371	H37	0.634110	0.145870	0.471240
H381	H38	0.814830	0.014080	0.471620
H391	H39	0.854150	0.942620	0.466520
H401	H40	0.145800	0.634130	0.748920
H411	H41	0.014170	0.814760	0.699450
H421	H42	0.942670	0.854110	0.736670
H431	H43	0.748610	0.471590	0.146050
H441	H44	0.699470	0.471630	0.014140
H451	H45	0.736690	0.466530	0.942660
H461	H46	0.471760	0.748700	0.633970
H471	H47	0.471620	0.699470	0.814850
H481	H48	0.466570	0.736700	0.854160
H491	H49	0.471250	0.145940	0.748780
H501	H50	0.471620	0.014050	0.699510
H511	H51	0.466530	0.942580	0.736760
H521	H52	0.748610	0.634020	0.471810
H531	H53	0.699480	0.814830	0.471620
H541	H54	0.736700	0.854160	0.466550
H551	H55	0.145630	0.471760	0.634000
H561	H56	0.014070	0.471580	0.814820
H571	H57	0.942570	0.466560	0.854150
H581	H58	0.633820	0.748660	0.145690
H591	H59	0.814740	0.699510	0.014110
H601	H60	0.854140	0.736690	0.942580
H611	H61	0.748630	0.145570	0.634060
H621	H62	0.699540	0.014040	0.814840
H631	H63	0.736760	0.942530	0.854140
H641	H64	0.471500	0.634000	0.145660
H651	H65	0.471640	0.814830	0.014040
H661	H66	0.466540	0.854160	0.942590
H671	H67	0.634050	0.471470	0.748790
H681	H68	0.814870	0.471610	0.699480
H691	H69	0.854150	0.466560	0.736730
H701	H70	0.145470	0.748730	0.471680
H711	H71	0.014080	0.699500	0.471580
H721	H72	0.942570	0.736720	0.466570
H731	H73	0.145600	0.634000	0.471720
H741	H74	0.014090	0.814850	0.471580
H751	H75	0.942580	0.854160	0.466570
H761	H76	0.633990	0.145630	0.748810
H771	H77	0.814880	0.014040	0.699470
H781	H78	0.854180	0.942530	0.736670
H791	H79	0.471630	0.748550	0.145790
H801	H80	0.471640	0.699470	0.014010
H811	H81	0.466520	0.736730	0.942580
H821	H82	0.748590	0.471790	0.633990
H831	H83	0.699480	0.471600	0.814830
H841	H84	0.736710	0.466550	0.854150
H851	H85	0.145450	0.471690	0.748810
H861	H86	0.013980	0.471590	0.699490
H871	H87	0.942500	0.466590	0.736740
H881	H88	0.634170	0.748840	0.471290
H891	H89	0.814840	0.699490	0.471620
H901	H90	0.854160	0.736730	0.466540
H911	H91	0.471890	0.145310	0.634090
H921	H92	0.471640	0.014020	0.814890
H931	H93	0.466580	0.942540	0.854180
H941	H94	0.749020	0.634420	0.145440
H951	H95	0.699460	0.814970	0.013930
H961	H96	0.736780	0.854180	0.942470
H971	H97	0.145580	0.748540	0.633910
H981	H98	0.014100	0.699430	0.814840
H991	H99	0.942620	0.736700	0.854130
H1001	H100	0.634130	0.471510	0.145620
H1011	H101	0.814890	0.471630	0.014050
H1021	H102	0.854140	0.466530	0.942610
H1031	H103	0.471410	0.634110	0.748830
H1041	H104	0.471610	0.814870	0.699490
H1051	H105	0.466550	0.854140	0.736750
H1061	H106	0.748640	0.145490	0.471840
H1071	H107	0.699460	0.014090	0.471620
H1081	H108	0.736700	0.942610	0.466530
H1091	H109	0.366020	0.854460	0.528160
H1101	H110	0.185150	0.985960	0.528360
H1111	H111	0.145850	0.057440	0.533420
H1121	H112	0.854880	0.365780	0.251210
H1131	H113	0.986030	0.185070	0.300530
H1141	H114	0.057500	0.145820	0.263260
H1151	H115	0.251240	0.528690	0.854150
H1161	H116	0.300520	0.528360	0.985910
H1171	H117	0.263270	0.533490	0.057360
H1181	H118	0.528750	0.251160	0.365870
H1191	H119	0.528360	0.300540	0.185220
H1201	H120	0.533470	0.263300	0.145880
H1211	H121	0.528270	0.854380	0.251250
H1221	H122	0.528360	0.986050	0.300520
H1231	H123	0.533430	0.057500	0.263280
H1241	H124	0.251150	0.365980	0.528720
H1251	H125	0.300520	0.185210	0.528350
H1261	H126	0.263320	0.145840	0.533410
H1271	H127	0.854260	0.528590	0.365960
H1281	H128	0.985880	0.528340	0.185170
H1291	H129	0.057370	0.533420	0.145840
H1301	H130	0.365920	0.251290	0.854190
H1311	H131	0.185240	0.300510	0.985890
H1321	H132	0.145860	0.263320	0.057400
H1331	H133	0.251170	0.854290	0.365880
H1341	H134	0.300580	0.985960	0.185130
H1351	H135	0.263280	0.057430	0.145850
H1361	H136	0.528580	0.365850	0.854360
H1371	H137	0.528380	0.185090	0.986010
H1381	H138	0.533450	0.145860	0.057460
H1391	H139	0.365820	0.528440	0.251240
H1401	H140	0.185110	0.528340	0.300510
H1411	H141	0.145820	0.533480	0.263230
H1421	H142	0.854270	0.251160	0.528630
H1431	H143	0.985990	0.300540	0.528320
H1441	H144	0.057450	0.263270	0.533440
H1451	H145	0.745420	0.371320	0.511800
H1461	H146	0.371270	0.745210	0.371600
H1471	H147	0.511290	0.371700	0.745620
H1481	H148	0.371530	0.511730	0.371240
H1491	H149	0.745230	0.511720	0.371740
H1501	H150	0.371560	0.371410	0.511450
H1511	H151	0.511580	0.745470	0.371530
H1521	H152	0.371320	0.371740	0.745660
H1531	H153	0.745790	0.371720	0.371140
H1541	H154	0.371490	0.511680	0.745330
H1551	H155	0.511690	0.371380	0.371580
H1561	H156	0.371400	0.745560	0.511500
H1571	H157	0.628530	0.254480	0.488540
H1581	H158	0.254480	0.628390	0.628560
H1591	H159	0.628120	0.488470	0.254670
H1601	H160	0.488730	0.628380	0.628570
H1611	H161	0.488570	0.254460	0.628340
H1621	H162	0.628410	0.628570	0.488530
H1631	H163	0.254230	0.489000	0.628500
H1641	H164	0.628990	0.628170	0.254350
H1651	H165	0.628440	0.254330	0.628370
H1661	H166	0.488550	0.628300	0.254520
H1671	H167	0.628340	0.488730	0.628490
H1681	H168	0.254270	0.628480	0.488920
H1691	H169	0.111570	0.111590	0.552120
H1701	H170	0.111630	0.111550	0.224710
H1711	H171	0.552070	0.224760	0.111620
H1721	H172	0.224720	0.552060	0.111590
H1731	H173	0.111580	0.552000	0.224730
H1741	H174	0.111600	0.224690	0.552100
H1751	H175	0.552050	0.111620	0.111630
H1761	H176	0.224720	0.111570	0.111570
H1771	H177	0.111610	0.224730	0.111560
H1781	H178	0.111560	0.552060	0.111590
H1791	H179	0.552090	0.111620	0.224720
H1801	H180	0.224720	0.111570	0.552120
H1811	H181	0.888380	0.888400	0.447990
H1821	H182	0.888490	0.888400	0.775210
H1831	H183	0.775220	0.447990	0.888420
H1841	H184	0.447950	0.775250	0.888400
H1851	H185	0.447960	0.888380	0.775280
H1861	H186	0.775250	0.888410	0.447960
H1871	H187	0.888370	0.447980	0.888410
H1881	H188	0.888450	0.775260	0.888390
H1891	H189	0.775360	0.888390	0.888340
H1901	H190	0.447890	0.888400	0.888430
H1911	H191	0.888360	0.447920	0.775320
H1921	H192	0.888390	0.775280	0.447950
C11	C1	0.777330	0.420410	0.513820
C21	C2	0.796940	0.373630	0.520650
C31	C3	0.837400	0.350010	0.527380
C41	C4	0.001850	0.201590	0.530190
C51	C5	0.043260	0.178840	0.533960
C61	C6	0.420560	0.777300	0.288380
C71	C7	0.373740	0.796830	0.308890
C81	C8	0.350070	0.837230	0.285360
C91	C9	0.201640	0.001800	0.266370
C101	C10	0.178870	0.043210	0.243950
C111	C11	0.513640	0.288520	0.777310
C121	C12	0.520540	0.308880	0.796880
C131	C13	0.527130	0.285300	0.837400
C141	C14	0.530220	0.266370	0.001840
C151	C15	0.533970	0.243940	0.043250
C161	C16	0.288510	0.513630	0.420460
C171	C17	0.308810	0.520540	0.373680
C181	C18	0.285150	0.527370	0.350080
C191	C19	0.266370	0.530180	0.201570
C201	C20	0.243930	0.533960	0.178820
C211	C21	0.776990	0.513760	0.288670
C221	C22	0.796600	0.520730	0.308990
C231	C23	0.837120	0.527310	0.285460
C241	C24	0.001760	0.530230	0.266340
C251	C25	0.043170	0.534010	0.243910
C261	C26	0.420520	0.288280	0.513680
C271	C27	0.373740	0.308710	0.520520
C281	C28	0.350080	0.285260	0.527100
C291	C29	0.201530	0.266360	0.530210
C301	C30	0.178830	0.243900	0.533970
C311	C31	0.513680	0.777520	0.420490
C321	C32	0.520630	0.796980	0.373670
C331	C33	0.527460	0.837370	0.349920
C341	C34	0.530200	0.001890	0.201610
C351	C35	0.533990	0.043290	0.178840
C361	C36	0.288300	0.420590	0.777460
C371	C37	0.308690	0.373760	0.797070
C381	C38	0.285210	0.350140	0.837620
C391	C39	0.266380	0.201520	0.001890
C401	C40	0.243930	0.178800	0.043290
C411	C41	0.777470	0.288510	0.420330
C421	C42	0.797100	0.308930	0.373560
C431	C43	0.837420	0.285190	0.349990
C441	C44	0.001880	0.266330	0.201580
C451	C45	0.043280	0.243910	0.178840
C461	C46	0.420620	0.513590	0.777370
C471	C47	0.373780	0.520570	0.796830
C481	C48	0.350130	0.527240	0.837310
C491	C49	0.201570	0.530180	0.001830
C501	C50	0.178830	0.533980	0.043230
C511	C51	0.513520	0.420670	0.288480
C521	C52	0.520580	0.373770	0.308870
C531	C53	0.527250	0.350140	0.285330
C541	C54	0.530200	0.201560	0.266410
C551	C55	0.533980	0.178840	0.243950
C561	C56	0.288330	0.777460	0.513710
C571	C57	0.308760	0.797010	0.520530
C581	C58	0.285160	0.837410	0.527380
C591	C59	0.266370	0.001850	0.530200
C601	C60	0.243930	0.043250	0.533980
C611	C61	0.579380	0.222470	0.486430
C621	C62	0.626270	0.203030	0.479460
C631	C63	0.649980	0.162640	0.472640
C641	C64	0.798410	0.998160	0.469810
C651	C65	0.821150	0.956770	0.466010
C661	C66	0.222590	0.579330	0.711610
C671	C67	0.203030	0.626190	0.691230
C681	C68	0.162640	0.649890	0.714820
C691	C69	0.998220	0.798380	0.733600
C701	C70	0.956820	0.821130	0.756030
C711	C71	0.711160	0.486410	0.223000
C721	C72	0.690910	0.479430	0.203390
C731	C73	0.714610	0.472730	0.162880
C741	C74	0.733620	0.469790	0.998220
C751	C75	0.756050	0.466010	0.956810
C761	C76	0.486470	0.711590	0.579400
C771	C77	0.479620	0.691180	0.626250
C781	C78	0.472910	0.714730	0.649890
C791	C79	0.469790	0.733630	0.798450
C801	C80	0.466020	0.756060	0.821180
C811	C81	0.486430	0.222580	0.711540
C821	C82	0.479660	0.202980	0.691070
C831	C83	0.472710	0.162650	0.714700
C841	C84	0.469790	0.998150	0.733670
C851	C85	0.466010	0.956740	0.756110
C861	C86	0.711590	0.579300	0.486580
C871	C87	0.691200	0.626230	0.479510
C881	C88	0.714670	0.649880	0.472870
C891	C89	0.733630	0.798440	0.469800
C901	C90	0.756070	0.821190	0.466000
C911	C91	0.222560	0.486440	0.579370
C921	C92	0.202990	0.479600	0.626280
C931	C93	0.162520	0.472940	0.649900
C941	C94	0.998140	0.469750	0.798420
C951	C95	0.956730	0.465990	0.821180
C961	C96	0.579540	0.711320	0.222650
C971	C97	0.626460	0.691060	0.203160
C981	C98	0.649890	0.714690	0.162590
C991	C99	0.798380	0.733660	0.998140
C1001	C100	0.821160	0.756060	0.956740
C1011	C101	0.711710	0.222450	0.579230
C1021	C102	0.691300	0.202970	0.626160
C1031	C103	0.714710	0.162540	0.649920
C1041	C104	0.733690	0.998120	0.798420
C1051	C105	0.756130	0.956720	0.821160
C1061	C106	0.486340	0.579370	0.222660
C1071	C107	0.479420	0.626210	0.203140
C1081	C108	0.472790	0.649830	0.162600
C1091	C109	0.469810	0.798450	0.998110
C1101	C110	0.466030	0.821170	0.956720
C1111	C111	0.579340	0.486380	0.711660
C1121	C112	0.626180	0.479540	0.691210
C1131	C113	0.649850	0.472830	0.714730
C1141	C114	0.798460	0.469780	0.733630
C1151	C115	0.821180	0.466000	0.756090
C1161	C116	0.222410	0.711700	0.486590
C1171	C117	0.202890	0.691290	0.479650
C1181	C118	0.162460	0.714760	0.472880
C1191	C119	0.998130	0.733650	0.469760
C1201	C120	0.956740	0.756100	0.465980
C1211	C121	0.222590	0.579370	0.486400
C1221	C122	0.203010	0.626260	0.479550
C1231	C123	0.162500	0.649870	0.472960
C1241	C124	0.998150	0.798450	0.469760
C1251	C125	0.956750	0.821190	0.465980
C1261	C126	0.579540	0.222530	0.711580
C1271	C127	0.626290	0.203000	0.691140
C1281	C128	0.649870	0.162490	0.714730
C1291	C129	0.798500	0.998110	0.733610
C1301	C130	0.821220	0.956710	0.756050
C1311	C131	0.486550	0.711670	0.222610
C1321	C132	0.479500	0.691200	0.203150
C1331	C133	0.472700	0.714650	0.162750
C1341	C134	0.469800	0.733630	0.998130
C1351	C135	0.466030	0.756070	0.956730
C1361	C136	0.711580	0.486600	0.579290
C1371	C137	0.691160	0.479560	0.626210
C1381	C138	0.714660	0.472840	0.649880
C1391	C139	0.733630	0.469780	0.798420
C1401	C140	0.756070	0.466000	0.821170
C1411	C141	0.222470	0.486410	0.711690
C1421	C142	0.202870	0.479680	0.691260
C1431	C143	0.162400	0.472960	0.714780
C1441	C144	0.998080	0.469760	0.733630
C1451	C145	0.956680	0.466000	0.756100
C1461	C146	0.579410	0.711730	0.486350
C1471	C147	0.626270	0.691260	0.479440
C1481	C148	0.649960	0.714790	0.472640
C1491	C149	0.798450	0.733640	0.469800
C1501	C150	0.821180	0.756090	0.466000
C1511	C151	0.486350	0.222500	0.579400
C1521	C152	0.479410	0.203000	0.626240
C1531	C153	0.472890	0.162430	0.649910
C1541	C154	0.469800	0.998110	0.798490
C1551	C155	0.466030	0.956710	0.821210
C1561	C156	0.712230	0.579360	0.221800
C1571	C157	0.691560	0.626190	0.202630
C1581	C158	0.714970	0.650110	0.162380
C1591	C159	0.733620	0.798520	0.998050
C1601	C160	0.756110	0.821200	0.956660
C1611	C161	0.222600	0.711610	0.579370
C1621	C162	0.203110	0.691190	0.626260
C1631	C163	0.162570	0.714640	0.649870
C1641	C164	0.998190	0.733590	0.798430
C1651	C165	0.956800	0.756050	0.821150
C1661	C166	0.579330	0.486430	0.222310
C1671	C167	0.626160	0.479460	0.203020
C1681	C168	0.649940	0.472760	0.162580
C1691	C169	0.798440	0.469790	0.998190
C1701	C170	0.821150	0.466010	0.956780
C1711	C171	0.486340	0.579420	0.711900
C1721	C172	0.479500	0.626260	0.691330
C1731	C173	0.472710	0.649970	0.714810
C1741	C174	0.469780	0.798440	0.733650
C1751	C175	0.466010	0.821160	0.756100
C1761	C176	0.711640	0.222610	0.486450
C1771	C177	0.691320	0.203080	0.479430
C1781	C178	0.714730	0.162520	0.472870
C1791	C179	0.733610	0.998140	0.469820
C1801	C180	0.756060	0.956760	0.466010
C1811	C181	0.420550	0.777480	0.513600
C1821	C182	0.373710	0.797030	0.520480
C1831	C183	0.350060	0.837510	0.527130
C1841	C184	0.201560	0.001870	0.530200
C1851	C185	0.178830	0.043260	0.533980
C1861	C186	0.778030	0.420510	0.287720
C1871	C187	0.797350	0.373690	0.308390
C1881	C188	0.837840	0.349910	0.285140
C1891	C189	0.001930	0.201490	0.266370
C1901	C190	0.043320	0.178790	0.243910
C1911	C191	0.288340	0.513580	0.777440
C1921	C192	0.308760	0.520590	0.796900
C1931	C193	0.285270	0.527390	0.837310
C1941	C194	0.266370	0.530180	0.001820
C1951	C195	0.243920	0.533990	0.043220
C1961	C196	0.513590	0.288380	0.420630
C1971	C197	0.520520	0.308790	0.373770
C1981	C198	0.527370	0.285210	0.350080
C1991	C199	0.530200	0.266380	0.201620
C2001	C200	0.533980	0.243950	0.178870
C2011	C201	0.513780	0.777370	0.288520
C2021	C202	0.520630	0.796900	0.308840
C2031	C203	0.527150	0.837500	0.285250
C2041	C204	0.530190	0.001950	0.266390
C2051	C205	0.533970	0.043340	0.243920
C2061	C206	0.288520	0.420510	0.513530
C2071	C207	0.308870	0.373710	0.520410
C2081	C208	0.285220	0.350050	0.527350
C2091	C209	0.266360	0.201580	0.530200
C2101	C210	0.243950	0.178830	0.533960
C2111	C211	0.777270	0.513780	0.420560
C2121	C212	0.796850	0.520580	0.373830
C2131	C213	0.837340	0.527300	0.350150
C2141	C214	0.001800	0.530220	0.201530
C2151	C215	0.043210	0.533970	0.178810
C2161	C216	0.420700	0.288360	0.777470
C2171	C217	0.373760	0.308820	0.797030
C2181	C218	0.350050	0.285290	0.837360
C2191	C219	0.201600	0.266340	0.001850
C2201	C220	0.178840	0.243920	0.043250
C2211	C221	0.288250	0.777440	0.420540
C2221	C222	0.308700	0.796870	0.373740
C2231	C223	0.285210	0.837360	0.350040
C2241	C224	0.266420	0.001850	0.201540
C2251	C225	0.243950	0.043250	0.178840
C2261	C226	0.513550	0.420600	0.777750
C2271	C227	0.520440	0.373780	0.797090
C2281	C228	0.527260	0.350020	0.837480
C2291	C229	0.530220	0.201540	0.001870
C2301	C230	0.533980	0.178840	0.043280
C2311	C231	0.420480	0.513740	0.288030
C2321	C232	0.373630	0.520680	0.308600
C2331	C233	0.349910	0.527350	0.285210
C2341	C234	0.201550	0.530190	0.266360
C2351	C235	0.178820	0.533970	0.243900
C2361	C236	0.777410	0.288360	0.513770
C2371	C237	0.796970	0.308770	0.520610
C2381	C238	0.837420	0.285210	0.527340
C2391	C239	0.001870	0.266380	0.530190
C2401	C240	0.043280	0.243930	0.533960
C2411	C241	0.776510	0.352840	0.517770
C2421	C242	0.857120	0.306090	0.530700
C2431	C243	0.900260	0.284020	0.531720
C2441	C244	0.937200	0.265990	0.530860
C2451	C245	0.980960	0.244620	0.529820
C2461	C246	0.064200	0.198740	0.538310
C2471	C247	0.107910	0.173500	0.545070
C2481	C248	0.352840	0.776340	0.352990
C2491	C249	0.306150	0.857010	0.306140
C2501	C250	0.284150	0.900180	0.283980
C2511	C251	0.266130	0.937140	0.265900
C2521	C252	0.244690	0.980920	0.244570
C2531	C253	0.198760	0.064160	0.198750
C2541	C254	0.173530	0.107890	0.173510
C2551	C255	0.517580	0.353040	0.776540
C2561	C256	0.530390	0.306160	0.857200
C2571	C257	0.531550	0.284020	0.900280
C2581	C258	0.530850	0.265930	0.937180
C2591	C259	0.529890	0.244570	0.980940
C2601	C260	0.538320	0.198760	0.064200
C2611	C261	0.545050	0.173550	0.107920
C2621	C262	0.352900	0.517800	0.352760
C2631	C263	0.306010	0.530660	0.306170
C2641	C264	0.283930	0.531700	0.284090
C2651	C265	0.265920	0.530870	0.265980
C2661	C266	0.244580	0.529830	0.244590
C2671	C267	0.198730	0.538310	0.198720
C2681	C268	0.173500	0.545050	0.173490
C2691	C269	0.776280	0.517790	0.353110
C2701	C270	0.857010	0.530560	0.306250
C2711	C271	0.900170	0.531600	0.284030
C2721	C272	0.937110	0.530820	0.265910
C2731	C273	0.980870	0.529850	0.244550
C2741	C274	0.064140	0.538320	0.198730
C2751	C275	0.107890	0.545030	0.173510
C2761	C276	0.352980	0.352850	0.517590
C2771	C277	0.306130	0.306160	0.530520
C2781	C278	0.284000	0.284080	0.531640
C2791	C279	0.265930	0.266010	0.530870
C2801	C280	0.244560	0.244610	0.529860
C2811	C281	0.198750	0.198710	0.538320
C2821	C282	0.173520	0.173480	0.545080
C2831	C283	0.517740	0.776470	0.352940
C2841	C284	0.530550	0.857190	0.306080
C2851	C285	0.531630	0.900310	0.284020
C2861	C286	0.530850	0.937240	0.266050
C2871	C287	0.529830	0.981020	0.244650
C2881	C288	0.538320	0.064240	0.198740
C2891	C289	0.545050	0.107960	0.173520
C2901	C290	0.352860	0.352990	0.776630
C2911	C291	0.306170	0.306210	0.857230
C2921	C292	0.284070	0.284010	0.900320
C2931	C293	0.266020	0.265860	0.937220
C2941	C294	0.244630	0.244530	0.980970
C2951	C295	0.198740	0.198720	0.064200
C2961	C296	0.173520	0.173500	0.107910
C2971	C297	0.776810	0.353070	0.352630
C2981	C298	0.857320	0.306000	0.306140
C2991	C299	0.900390	0.283830	0.284120
C3001	C300	0.937300	0.265820	0.266010
C3011	C301	0.981030	0.244520	0.244610
C3021	C302	0.064230	0.198720	0.198730
C3031	C303	0.107930	0.173500	0.173490
C3041	C304	0.352920	0.517800	0.776360
C3051	C305	0.306210	0.530570	0.857050
C3061	C306	0.284090	0.531660	0.900180
C3071	C307	0.265980	0.530870	0.937120
C3081	C308	0.244600	0.529830	0.980910
C3091	C309	0.198730	0.538330	0.064160
C3101	C310	0.173500	0.545050	0.107890
C3111	C311	0.517780	0.352880	0.352970
C3121	C312	0.530600	0.306190	0.306160
C3131	C313	0.531640	0.284120	0.284040
C3141	C314	0.530840	0.266010	0.266010
C3151	C315	0.529840	0.244600	0.244650
C3161	C316	0.538320	0.198770	0.198770
C3171	C317	0.545050	0.173550	0.173530
C3181	C318	0.352900	0.776590	0.517610
C3191	C319	0.306110	0.857180	0.530520
C3201	C320	0.284000	0.900280	0.531640
C3211	C321	0.265940	0.937200	0.530860
C3221	C322	0.244590	0.980960	0.529840
C3231	C323	0.198740	0.064180	0.538330
C3241	C324	0.173510	0.107890	0.545080
C3251	C325	0.647160	0.223550	0.482250
C3261	C326	0.693810	0.142820	0.469570
C3271	C327	0.715910	0.099730	0.468400
C3281	C328	0.734000	0.062830	0.469110
C3291	C329	0.755380	0.019060	0.470150
C3301	C330	0.801250	0.935830	0.461650
C3311	C331	0.826470	0.892100	0.454960
C3321	C332	0.223530	0.647040	0.647110
C3331	C333	0.142850	0.693770	0.693810
C3341	C334	0.099770	0.715920	0.715900
C3351	C335	0.062870	0.734000	0.733990
C3361	C336	0.019110	0.755360	0.755390
C3371	C337	0.935890	0.801240	0.801230
C3381	C338	0.892160	0.826460	0.826440
C3391	C339	0.646820	0.482260	0.223690
C3401	C340	0.693830	0.469540	0.142960
C3411	C341	0.716010	0.468420	0.099840
C3421	C342	0.734040	0.469150	0.062920
C3431	C343	0.755400	0.470130	0.019140
C3441	C344	0.801240	0.461670	0.935860
C3451	C345	0.826440	0.454960	0.892120
C3461	C346	0.482490	0.647020	0.647130
C3471	C347	0.469580	0.693840	0.693820
C3481	C348	0.468400	0.715950	0.715960
C3491	C349	0.469120	0.734030	0.734060
C3501	C350	0.470130	0.755410	0.755430
C3511	C351	0.461670	0.801250	0.801280
C3521	C352	0.454960	0.826470	0.826500
C3531	C353	0.482430	0.223420	0.646960
C3541	C354	0.469550	0.142810	0.693830
C3551	C355	0.468390	0.099710	0.716050
C3561	C356	0.469130	0.062790	0.734150
C3571	C357	0.470150	0.019040	0.755470
C3581	C358	0.461670	0.935790	0.801290
C3591	C359	0.454950	0.892070	0.826500
C3601	C360	0.647070	0.647120	0.482280
C3611	C361	0.693800	0.693810	0.469560
C3621	C362	0.715950	0.715930	0.468420
C3631	C363	0.734050	0.734020	0.469140
C3641	C364	0.755410	0.755400	0.470160
C3651	C365	0.801260	0.801280	0.461650
C3661	C366	0.826470	0.826490	0.454970
C3671	C367	0.223320	0.482630	0.647120
C3681	C368	0.142690	0.469770	0.693790
C3691	C369	0.099620	0.468520	0.715880
C3701	C370	0.062750	0.469160	0.733950
C3711	C371	0.019020	0.470100	0.755380
C3721	C372	0.935780	0.461650	0.801290
C3731	C373	0.892050	0.454970	0.826510
C3741	C374	0.647460	0.646890	0.223410
C3751	C375	0.693820	0.693950	0.142760
C3761	C376	0.715830	0.716130	0.099660
C3771	C377	0.733930	0.734180	0.062750
C3781	C378	0.755350	0.755500	0.019000
C3791	C379	0.801300	0.801260	0.935780
C3801	C380	0.826550	0.826460	0.892050
C3811	C381	0.647110	0.223420	0.646970
C3821	C382	0.693750	0.142740	0.693800
C3831	C383	0.715920	0.099660	0.715930
C3841	C384	0.734100	0.062770	0.733970
C3851	C385	0.755480	0.019020	0.755370
C3861	C386	0.801330	0.935790	0.801240
C3871	C387	0.826560	0.892060	0.826430
C3881	C388	0.482270	0.647030	0.223610
C3891	C389	0.469520	0.693740	0.142900
C3901	C390	0.468380	0.715910	0.099750
C3911	C391	0.469110	0.734070	0.062820
C3921	C392	0.470130	0.755430	0.019040
C3931	C393	0.461680	0.801250	0.935800
C3941	C394	0.454940	0.826480	0.892090
C3951	C395	0.647000	0.482420	0.647070
C3961	C396	0.693740	0.469660	0.693770
C3971	C397	0.715920	0.468470	0.715900
C3981	C398	0.734060	0.469140	0.733980
C3991	C399	0.755430	0.470130	0.755380
C4001	C400	0.801250	0.461660	0.801280
C4011	C401	0.826440	0.454970	0.826510
C4021	C402	0.223380	0.647120	0.482530
C4031	C403	0.142700	0.693750	0.469770
C4041	C404	0.099640	0.715870	0.468540
C4051	C405	0.062760	0.734000	0.469170
C4061	C406	0.019040	0.755420	0.470120
C4071	C407	0.935820	0.801290	0.461630
C4081	C408	0.892070	0.826490	0.454980
C4091	C409	0.129470	0.129460	0.547330
C4101	C410	0.129500	0.129460	0.193710
C4111	C411	0.547290	0.193770	0.129500
C4121	C412	0.193710	0.547300	0.129460
C4131	C413	0.129470	0.547260	0.193730
C4141	C414	0.129480	0.193700	0.547320
C4151	C415	0.547290	0.129520	0.129490
C4161	C416	0.193750	0.129470	0.129480
C4171	C417	0.129490	0.193730	0.129460
C4181	C418	0.129460	0.547280	0.129470
C4191	C419	0.547290	0.129520	0.193740
C4201	C420	0.193730	0.129450	0.547330
C4211	C421	0.870490	0.870520	0.452750
C4221	C422	0.870600	0.870500	0.806210
C4231	C423	0.806220	0.452740	0.870540
C4241	C424	0.452710	0.806250	0.870520
C4251	C425	0.452730	0.870500	0.806270
C4261	C426	0.806240	0.870520	0.452730
C4271	C427	0.870480	0.452740	0.870540
C4281	C428	0.870580	0.806240	0.870480
C4291	C429	0.806340	0.870490	0.870460
C4301	C430	0.452700	0.870510	0.870530
C4311	C431	0.870470	0.452730	0.806300
C4321	C432	0.870490	0.806270	0.452740
O11	O1	0.739210	0.441180	0.510190
O21	O2	0.798780	0.440490	0.510590
O31	O3	0.441340	0.739190	0.309240
O41	O4	0.440760	0.798680	0.250110
O51	O5	0.510020	0.309490	0.739210
O61	O6	0.510380	0.250220	0.798720
O71	O7	0.309390	0.510140	0.441240
O81	O8	0.250230	0.510330	0.440520
O91	O9	0.738910	0.510090	0.309700
O101	O10	0.798490	0.510330	0.250400
O111	O11	0.441320	0.309220	0.510090
O121	O12	0.440520	0.250030	0.510330
O131	O13	0.510120	0.739400	0.441160
O141	O14	0.510400	0.798940	0.440670
O151	O15	0.309340	0.441340	0.739360
O161	O16	0.249990	0.440670	0.798950
O171	O17	0.739290	0.309410	0.441110
O181	O18	0.799030	0.250200	0.440350
O191	O19	0.441390	0.510070	0.739220
O201	O20	0.440610	0.510270	0.798990
O211	O21	0.509930	0.441470	0.309380
O221	O22	0.510190	0.440660	0.250180
O231	O23	0.309230	0.739290	0.510190
O241	O24	0.250050	0.799050	0.510410
O251	O25	0.558810	0.260630	0.489860
O261	O26	0.559090	0.201090	0.489770
O271	O27	0.260830	0.558730	0.690680
O281	O28	0.201130	0.559100	0.749900
O291	O29	0.690320	0.489870	0.261200
O301	O30	0.749450	0.489700	0.201410
O311	O31	0.489940	0.690660	0.558680
O321	O32	0.489870	0.749840	0.559260
O331	O33	0.489800	0.260790	0.690670
O341	O34	0.489790	0.201160	0.749820
O351	O35	0.690640	0.558660	0.490000
O361	O36	0.749850	0.559010	0.490060
O371	O37	0.260690	0.489940	0.558720
O381	O38	0.201180	0.489800	0.559060
O391	O39	0.558760	0.690440	0.260740
O401	O40	0.559320	0.749560	0.201240
O411	O41	0.690680	0.260620	0.558640
O421	O42	0.750040	0.201050	0.558980
O431	O43	0.489860	0.558610	0.260810
O441	O44	0.489650	0.559360	0.201060
O451	O45	0.558570	0.489900	0.690760
O461	O46	0.559310	0.489670	0.749990
O471	O47	0.260570	0.690680	0.490060
O481	O48	0.201020	0.750030	0.489910
O491	O49	0.260690	0.558720	0.489950
O501	O50	0.201220	0.559080	0.489740
O511	O51	0.558700	0.260690	0.690760
O521	O52	0.559540	0.200920	0.749870
O531	O53	0.490030	0.690630	0.260740
O541	O54	0.489940	0.749990	0.201320
O551	O55	0.690630	0.489960	0.558670
O561	O56	0.749850	0.490070	0.559000
O571	O57	0.260630	0.489980	0.690740
O581	O58	0.200950	0.489610	0.750010
O591	O59	0.558730	0.690800	0.489790
O601	O60	0.559260	0.750080	0.489600
O611	O61	0.490090	0.260590	0.558650
O621	O62	0.489620	0.200980	0.559320
O631	O63	0.691510	0.558610	0.260050
O641	O64	0.750510	0.559340	0.200140
O651	O65	0.260730	0.690610	0.558730
O661	O66	0.201140	0.749910	0.559130
O671	O67	0.558530	0.489970	0.260440
O681	O68	0.559320	0.489750	0.200670
O691	O69	0.489860	0.558660	0.691010
O701	O70	0.489650	0.559380	0.750240
O711	O71	0.690620	0.260810	0.489850
O721	O72	0.749920	0.201180	0.489860
O731	O73	0.441270	0.739320	0.510050
O741	O74	0.440670	0.799030	0.510180
O751	O75	0.740000	0.441260	0.308740
O761	O76	0.799530	0.440620	0.249360
O771	O77	0.309350	0.510190	0.739260
O781	O78	0.250070	0.510120	0.798880
O791	O79	0.510290	0.309300	0.441270
O801	O80	0.510150	0.250100	0.440800
O811	O81	0.510230	0.739200	0.309360
O821	O82	0.510450	0.798980	0.250300
O831	O83	0.309390	0.441260	0.510110
O841	O84	0.250240	0.440590	0.510230
O851	O85	0.739150	0.510150	0.441330
O861	O86	0.798750	0.510570	0.440600
O871	O87	0.441300	0.309370	0.739340
O881	O88	0.441050	0.249990	0.798810
O891	O89	0.309160	0.739290	0.441360
O901	O90	0.249980	0.799050	0.440550
O911	O91	0.510040	0.441380	0.739620
O921	O92	0.510240	0.440590	0.799400
O931	O93	0.441250	0.510200	0.308920
O941	O94	0.440520	0.510340	0.249730
O951	O95	0.739280	0.309320	0.510130
O961	O96	0.798990	0.250080	0.510460
