data_HAFWAO_charged_PM
_symmetry_space_group_name_H-M	'P1'
_cell_length_a	21.800400
_cell_length_b	21.800400
_cell_length_c	21.800400
_cell_angle_alpha	93.559700
_cell_angle_beta	117.967000
_cell_angle_gamma	117.967000
_symmetry_Int_Tables_number 1

loop_
_symmetry_equiv_pos_as_xyz
'x,y,z'

loop_
_atom_site_label
_atom_site_type_symbol
_atom_site_fract_x
_atom_site_fract_y
_atom_site_fract_z
Zn11	Zn1	0.079640	0.766260	0.305520
Zn21	Zn2	0.920360	0.225880	0.686620
Zn31	Zn3	0.460740	0.694480	0.774120
Zn41	Zn4	0.539260	0.313380	0.233740
Zn51	Zn5	0.960740	0.524120	0.944480
Zn61	Zn6	0.039260	0.983740	0.563380
Zn71	Zn7	0.420360	0.436620	0.475880
Zn81	Zn8	0.579640	0.055520	0.016260
H11	H1	0.280000	0.934100	0.220700
H21	H2	0.316500	0.027800	0.170100
H31	H3	0.274700	0.711600	0.515300
H41	H4	0.346200	0.816200	0.717000
H51	H5	0.225700	0.861700	0.545800
H61	H6	0.720000	0.940700	0.654100
H71	H7	0.683500	0.853600	0.711300
H81	H8	0.725300	0.240600	0.436900
H91	H9	0.653800	0.370800	0.470000
H101	H10	0.774300	0.320100	0.636000
H111	H11	0.713400	0.779300	0.059300
H121	H12	0.857700	0.829900	0.146400
H131	H13	0.196300	0.484700	0.759400
H141	H14	0.099200	0.283000	0.629200
H151	H15	0.315900	0.454200	0.679900
H161	H16	0.286600	0.345900	0.065900
H171	H17	0.142300	0.288700	0.972200
H181	H18	0.803700	0.563100	0.288400
H191	H19	0.900800	0.530000	0.183800
H201	H20	0.684100	0.364000	0.138300
H211	H21	0.213400	0.809300	0.029300
H221	H22	0.357700	0.896400	0.079900
H231	H23	0.696300	0.509400	0.734700
H241	H24	0.599200	0.379200	0.533000
H251	H25	0.815900	0.429900	0.704200
H261	H26	0.786600	0.815900	0.595900
H271	H27	0.642300	0.722200	0.538700
H281	H28	0.303700	0.038400	0.813100
H291	H29	0.400800	0.933800	0.780000
H301	H30	0.184100	0.888300	0.614000
H311	H31	0.220000	0.404100	0.190700
H321	H32	0.183500	0.461300	0.103600
H331	H33	0.225300	0.186900	0.490600
H341	H34	0.153800	0.220000	0.620800
H351	H35	0.274300	0.386000	0.570100
H361	H36	0.780000	0.970700	0.184100
H371	H37	0.816500	0.920100	0.277800
H381	H38	0.774700	0.265300	0.961600
H391	H39	0.846200	0.467000	0.066200
H401	H40	0.725700	0.295800	0.111700
H411	H41	0.092600	0.717600	0.125000
H421	H42	0.490400	0.115400	0.125000
H431	H43	0.907400	0.032400	0.625000
H441	H44	0.509600	0.634600	0.625000
H451	H45	0.592600	0.875000	0.967600
H461	H46	0.990400	0.875000	0.365400
H471	H47	0.407400	0.375000	0.282400
H481	H48	0.009600	0.375000	0.884600
C11	C1	0.170200	0.834200	0.242600
C21	C2	0.183600	0.828700	0.180500
C31	C3	0.245500	0.888700	0.181600
C41	C4	0.345700	0.021500	0.152800
C51	C5	0.407800	0.082100	0.154900
C61	C6	0.431000	0.159200	0.186200
C71	C7	0.246200	0.786500	0.517100
C81	C8	0.279500	0.747100	0.546400
C91	C9	0.319700	0.759600	0.621300
C101	C10	0.321000	0.809200	0.666600
C111	C11	0.286900	0.846800	0.639500
C121	C12	0.249500	0.835800	0.565100
C131	C13	0.197700	0.771600	0.434300
C141	C14	0.356700	0.717700	0.652400
C151	C15	0.829800	0.072400	0.664000
C161	C16	0.816400	0.996900	0.645100
C171	C17	0.754500	0.936100	0.643200
C181	C18	0.654300	0.807100	0.675800
C191	C19	0.592200	0.747100	0.674300
C201	C20	0.569000	0.755200	0.728200
C211	C21	0.753800	0.270900	0.540300
C221	C22	0.720500	0.266900	0.467600
C231	C23	0.680300	0.301600	0.439900
C241	C24	0.679000	0.345600	0.488200
C251	C25	0.713100	0.352600	0.559900
C261	C26	0.750500	0.315600	0.586300
C271	C27	0.802300	0.236600	0.573900
C281	C28	0.643300	0.295700	0.361000
C291	C29	0.591600	0.757400	0.927600
C301	C30	0.648200	0.819500	0.003100
C311	C31	0.707100	0.818400	0.063900
C321	C32	0.868700	0.847200	0.192900
C331	C33	0.927200	0.845100	0.252900
C341	C34	0.973000	0.813800	0.244800
C351	C35	0.269400	0.482900	0.729100
C361	C36	0.200700	0.453600	0.733100
C371	C37	0.138300	0.378700	0.698400
C381	C38	0.142600	0.333400	0.654400
C391	C39	0.207300	0.360500	0.647400
C401	C40	0.270700	0.434900	0.684400
C411	C41	0.337300	0.565700	0.763400
C421	C42	0.065300	0.347600	0.704300
C431	C43	0.408400	0.336000	0.165800
C441	C44	0.351800	0.354900	0.171300
C451	C45	0.292900	0.356800	0.111300
C461	C46	0.131300	0.324200	0.978500
C471	C47	0.072800	0.325700	0.917900
C481	C48	0.027000	0.271800	0.840800
C491	C49	0.730600	0.459700	0.213500
C501	C50	0.799300	0.532400	0.252900
C511	C51	0.861700	0.560100	0.240400
C521	C52	0.857400	0.511800	0.190800
C531	C53	0.792700	0.440100	0.153200
C541	C54	0.729300	0.413700	0.164200
C551	C55	0.662700	0.426100	0.228400
C561	C56	0.934700	0.639000	0.282300
C571	C57	0.091600	0.677600	0.007400
C581	C58	0.148200	0.753100	0.069500
C591	C59	0.207100	0.813900	0.068400
C601	C60	0.368700	0.942900	0.097200
C611	C61	0.427200	0.002900	0.095100
C621	C62	0.473000	0.994800	0.063800
C631	C63	0.769400	0.479100	0.732900
C641	C64	0.700700	0.483100	0.703600
C651	C65	0.638300	0.448400	0.628700
C661	C66	0.642600	0.404400	0.583400
C671	C67	0.707300	0.397400	0.610500
C681	C68	0.770700	0.434400	0.684900
C691	C69	0.837300	0.513400	0.815700
C701	C70	0.565300	0.454300	0.597600
C711	C71	0.908400	0.915800	0.586000
C721	C72	0.851800	0.921300	0.604900
C731	C73	0.792900	0.861300	0.606800
C741	C74	0.631300	0.728500	0.574200
C751	C75	0.572800	0.667900	0.575700
C761	C76	0.527000	0.590800	0.521800
C771	C77	0.230600	0.963500	0.709700
C781	C78	0.299300	0.002900	0.782400
C791	C79	0.361700	0.990400	0.810100
C801	C80	0.357400	0.940800	0.761800
C811	C81	0.292700	0.903200	0.690100
C821	C82	0.229300	0.914200	0.663700
C831	C83	0.162700	0.978400	0.676100
C841	C84	0.434700	0.032300	0.889000
C851	C85	0.329800	0.414000	0.322400
C861	C86	0.316400	0.395100	0.246900
C871	C87	0.254500	0.393200	0.186100
C881	C88	0.154300	0.425800	0.057100
C891	C89	0.092200	0.424300	0.997100
C901	C90	0.069000	0.478200	0.005200
C911	C91	0.253800	0.290300	0.520900
C921	C92	0.220500	0.217600	0.516900
C931	C93	0.180300	0.189900	0.551600
C941	C94	0.179000	0.238200	0.595600
C951	C95	0.213100	0.309900	0.602600
C961	C96	0.250500	0.336300	0.565600
C971	C97	0.302300	0.323900	0.486600
C981	C98	0.143300	0.111000	0.545700
C991	C99	0.670200	0.992600	0.084200
C1001	C100	0.683600	0.930500	0.078700
C1011	C101	0.745500	0.931600	0.138700
C1021	C102	0.845700	0.902800	0.271500
C1031	C103	0.907800	0.904900	0.332100
C1041	C104	0.931000	0.936200	0.409200
C1051	C105	0.746200	0.267100	0.036500
C1061	C106	0.779500	0.296400	0.997100
C1071	C107	0.819700	0.371300	0.009600
C1081	C108	0.821000	0.416600	0.059200
C1091	C109	0.786900	0.389500	0.096800
C1101	C110	0.749500	0.315100	0.085800
C1111	C111	0.697700	0.184300	0.021600
C1121	C112	0.856700	0.402400	0.967700
C1131	C113	0.258200	0.883200	0.125000
C1141	C114	0.323800	0.948800	0.125000
C1151	C115	0.134000	0.759000	0.125000
C1161	C116	0.449000	0.074000	0.125000
C1171	C117	0.741800	0.866800	0.625000
C1181	C118	0.676200	0.801200	0.625000
C1191	C119	0.866000	0.991000	0.625000
C1201	C120	0.551000	0.676000	0.625000
C1211	C121	0.758200	0.875000	0.133200
C1221	C122	0.823800	0.875000	0.198800
C1231	C123	0.634000	0.875000	0.009000
C1241	C124	0.949000	0.875000	0.324000
C1251	C125	0.241800	0.375000	0.116800
C1261	C126	0.176200	0.375000	0.051200
C1271	C127	0.366000	0.375000	0.241000
C1281	C128	0.051000	0.375000	0.926000
O11	O1	0.119600	0.771600	0.242000
O21	O2	0.205600	0.896700	0.287100
O31	O3	0.410400	0.170000	0.228000
O41	O4	0.473200	0.209000	0.170400
O51	O5	0.167300	0.809200	0.412300
O61	O6	0.186900	0.721400	0.391500
O71	O7	0.394000	0.733300	0.721500
O81	O8	0.354800	0.673400	0.610200
O91	O9	0.880400	0.122400	0.652000
O101	O10	0.794400	0.081500	0.691100
O111	O11	0.589600	0.817600	0.759600
O121	O12	0.526800	0.697200	0.735800
O131	O13	0.832700	0.245000	0.641900
O141	O14	0.813100	0.204600	0.534500
O151	O15	0.606000	0.327500	0.339300
O161	O16	0.645200	0.255400	0.318600
O171	O17	0.529600	0.758000	0.877600
O181	O18	0.609600	0.712900	0.918500
O191	O19	0.942000	0.772000	0.182400
O201	O20	0.038600	0.829600	0.302800
O211	O21	0.396900	0.587700	0.755000
O221	O22	0.329900	0.608500	0.795400
O231	O23	0.011800	0.278500	0.672500
O241	O24	0.063200	0.389800	0.744600
O251	O25	0.470400	0.348000	0.228400
O261	O26	0.390400	0.308900	0.103300
O271	O27	0.058000	0.240400	0.830000
O281	O28	0.961400	0.264200	0.791000
O291	O29	0.603100	0.358100	0.190800
O301	O30	0.670100	0.465500	0.278600
O311	O31	0.988200	0.660700	0.266700
O321	O32	0.936800	0.681400	0.326600
O331	O33	0.029600	0.627600	0.008000
O341	O34	0.109600	0.668500	0.962900
O351	O35	0.442000	0.932400	0.022000
O361	O36	0.538600	0.052800	0.079600
O371	O37	0.896900	0.505000	0.837700
O381	O38	0.829900	0.545400	0.858500
O391	O39	0.511800	0.422500	0.528500
O401	O40	0.563200	0.494600	0.639800
O411	O41	0.970400	0.978400	0.598000
O421	O42	0.890400	0.853300	0.558900
O431	O43	0.558000	0.580000	0.490400
O441	O44	0.461400	0.541000	0.514200
O451	O45	0.103100	0.940800	0.608100
O461	O46	0.170100	0.028600	0.715500
O471	O47	0.488200	0.016700	0.910700
O481	O48	0.436800	0.076600	0.931400
O491	O49	0.380400	0.402000	0.372400
O501	O50	0.294400	0.441100	0.331500
O511	O51	0.089600	0.509600	0.067600
O521	O52	0.026800	0.485800	0.947200
O531	O53	0.332700	0.391900	0.495000
O541	O54	0.313100	0.284500	0.454600
O551	O55	0.106000	0.089300	0.577500
O561	O56	0.145200	0.068600	0.505400
O571	O57	0.619600	0.992000	0.021600
O581	O58	0.705600	0.037100	0.146700
O591	O59	0.910400	0.978000	0.420000
O601	O60	0.973200	0.920400	0.459000
O611	O61	0.667300	0.162300	0.059200
O621	O62	0.686900	0.141500	0.971400
O631	O63	0.894000	0.471500	0.983300
O641	O64	0.854800	0.360200	0.923400
H491	H49	0.184100	0.941500	0.424800
H501	H50	0.194300	0.931600	0.364300
H511	H51	0.118300	0.983500	0.338400
H521	H52	0.204900	0.040600	0.350900
H531	H53	0.191900	0.049600	0.414900
H541	H54	0.318900	0.976600	0.474500
H551	H55	0.319200	0.045600	0.500000
H561	H56	0.330100	0.034800	0.434900
C1291	C129	0.178300	0.014400	0.374100
C1301	C130	0.302800	0.009700	0.458100
N11	N1	0.209400	0.965900	0.403100
H571	H57	0.389600	0.823400	0.484000
H581	H58	0.465400	0.868600	0.485200
H591	H59	0.487500	0.930400	0.592100
H601	H60	0.406900	0.929700	0.541600
H611	H61	0.487500	0.978700	0.541800
H621	H62	0.349600	0.831700	0.365900
H631	H63	0.403100	0.918500	0.403800
H641	H64	0.321400	0.868400	0.401600
C1311	C131	0.453900	0.932600	0.545300
C1321	C132	0.368900	0.871800	0.405900
N21	N2	0.421500	0.866800	0.481300
H651	H65	0.815900	0.240700	0.757400
H661	H66	0.805700	0.170000	0.737300
H671	H67	0.881700	0.220100	0.865200
H681	H68	0.795100	0.146000	0.835700
H691	H69	0.808100	0.223000	0.857700
H701	H70	0.681100	0.155600	0.657700
H711	H71	0.680800	0.180800	0.726400
H721	H72	0.669900	0.104800	0.704700
C1331	C133	0.821700	0.195800	0.836100
C1341	C134	0.697200	0.155300	0.706900
N31	N3	0.790600	0.193700	0.756500
H731	H73	0.610400	0.094400	0.433800
H741	H74	0.534600	0.019800	0.403200
H751	H75	0.512500	0.104600	0.442900
H761	H76	0.593100	0.134700	0.522800
H771	H77	0.512500	0.054300	0.491200
H781	H78	0.650400	0.016300	0.482100
H791	H79	0.596900	0.000700	0.515400
H801	H80	0.678600	0.080200	0.547000
C1351	C135	0.546100	0.091400	0.478700
C1361	C136	0.631100	0.037000	0.502900
N41	N4	0.578500	0.059800	0.445300
H811	H81	0.516700	0.575200	0.759300
H821	H82	0.567300	0.635700	0.830000
H831	H83	0.645100	0.661600	0.779900
H841	H84	0.689700	0.649100	0.854000
H851	H85	0.634700	0.585100	0.777000
H861	H86	0.502100	0.525500	0.844400
H871	H87	0.545600	0.500000	0.819200
H881	H88	0.599900	0.565100	0.895200
C1371	C137	0.640300	0.625900	0.804200
C1381	C138	0.551600	0.541900	0.844700
N51	N5	0.562800	0.596900	0.806300
H891	H89	0.339400	0.516000	0.905600
H901	H90	0.383400	0.514800	0.980200
H911	H91	0.338300	0.407900	0.895400
H921	H92	0.388100	0.458400	0.865300
H931	H93	0.436900	0.458200	0.945700
H941	H94	0.465800	0.634100	0.983700
H951	H95	0.514700	0.596200	0.999300
H961	H96	0.466800	0.598400	0.919800
C1391	C139	0.387300	0.454700	0.908600
C1401	C140	0.465900	0.594100	0.963000
N61	N6	0.385500	0.518700	0.940200
H971	H97	0.483300	0.242600	0.058500
H981	H98	0.432700	0.262700	0.068400
H991	H99	0.354900	0.134800	0.016500
H1001	H100	0.310300	0.164300	0.959400
H1011	H101	0.365300	0.142300	0.950400
H1021	H102	0.497900	0.342300	0.023400
H1031	H103	0.454400	0.273600	0.954400
H1041	H104	0.400100	0.295300	0.965200
C1411	C141	0.359700	0.163900	0.985600
C1421	C142	0.448400	0.293100	0.990300
N71	N7	0.437200	0.243500	0.034100
H1051	H105	0.660600	0.566200	0.176600
H1061	H106	0.616600	0.596800	0.131400
H1071	H107	0.661700	0.557100	0.069600
H1081	H108	0.611900	0.477200	0.070300
H1091	H109	0.563100	0.508800	0.021300
H1101	H110	0.534200	0.517900	0.168300
H1111	H111	0.485300	0.484600	0.081500
H1121	H112	0.533200	0.453000	0.131600
C1431	C143	0.612700	0.521300	0.067400
C1441	C144	0.534100	0.497100	0.128200
N81	N8	0.614500	0.554700	0.133200
H1131	H113	0.016700	0.509300	0.825200
H1141	H114	0.067300	0.580000	0.885700
H1151	H115	0.145100	0.529900	0.911600
H1161	H116	0.189700	0.604000	0.899100
H1171	H117	0.134700	0.527000	0.835100
H1181	H118	0.002100	0.594400	0.775500
H1191	H119	0.045600	0.569200	0.750000
H1201	H120	0.099900	0.645200	0.815100
C1451	C145	0.140300	0.554200	0.875900
C1461	C146	0.051600	0.594700	0.791900
N91	N9	0.062800	0.556300	0.846900
H1211	H121	0.839400	0.655600	0.766000
H1221	H122	0.883400	0.730200	0.764800
H1231	H123	0.838300	0.645400	0.657900
H1241	H124	0.888100	0.615300	0.708400
H1251	H125	0.936900	0.695700	0.708200
H1261	H126	0.965800	0.733700	0.884100
H1271	H127	0.014700	0.749300	0.846200
H1281	H128	0.966800	0.669800	0.848400
C1471	C147	0.887300	0.658600	0.704700
C1481	C148	0.965900	0.713000	0.844100
N101	N10	0.885500	0.690200	0.768700
H1291	H129	0.983300	0.808500	0.492600
H1301	H130	0.932700	0.818400	0.512700
H1311	H131	0.854900	0.766500	0.384800
H1321	H132	0.810300	0.709400	0.414300
H1331	H133	0.865300	0.700400	0.392300
H1341	H134	0.997900	0.773400	0.592300
H1351	H135	0.954400	0.704400	0.523600
H1361	H136	0.900100	0.715200	0.545300
C1491	C149	0.859700	0.735600	0.413900
C1501	C150	0.948400	0.740300	0.543100
N111	N11	0.937200	0.784100	0.493500
H1371	H137	0.160600	0.926600	0.816200
H1381	H138	0.116600	0.881400	0.846800
H1391	H139	0.161700	0.819600	0.807100
H1401	H140	0.111900	0.820300	0.727200
H1411	H141	0.063100	0.771300	0.758800
H1421	H142	0.034200	0.918300	0.767900
H1431	H143	0.985300	0.831500	0.734600
H1441	H144	0.033200	0.881600	0.703000
C1511	C151	0.112700	0.817400	0.771300
C1521	C152	0.034100	0.878200	0.747100
N121	N12	0.114500	0.883200	0.804700
H1451	H145	0.315900	0.507400	0.490700
H1461	H146	0.305700	0.487300	0.420000
H1471	H147	0.381700	0.615200	0.470100
H1481	H148	0.295100	0.585700	0.396000
H1491	H149	0.308100	0.607700	0.473000
H1501	H150	0.181100	0.407700	0.405600
H1511	H151	0.180800	0.476400	0.430800
H1521	H152	0.169900	0.454700	0.354800
C1531	C153	0.321700	0.586100	0.445800
C1541	C154	0.197200	0.456900	0.405300
N131	N13	0.290600	0.506500	0.443700
H1531	H153	0.110400	0.183800	0.344400
H1541	H154	0.034600	0.153200	0.269800
H1551	H155	0.012500	0.192900	0.354600
H1561	H156	0.093100	0.272800	0.384700
H1571	H157	0.012500	0.241200	0.304300
H1581	H158	0.150400	0.232100	0.266300
H1591	H159	0.096900	0.265400	0.250700
H1601	H160	0.178600	0.297000	0.330200
C1551	C155	0.046100	0.228700	0.341400
C1561	C156	0.131100	0.252900	0.287000
N141	N14	0.078500	0.195300	0.309800
H1611	H161	0.684100	0.174800	0.191500
H1621	H162	0.694300	0.114300	0.181600
H1631	H163	0.618300	0.088400	0.233500
H1641	H164	0.704900	0.100900	0.290600
H1651	H165	0.691900	0.164900	0.299600
H1661	H166	0.818900	0.224500	0.226600
H1671	H167	0.819200	0.250000	0.295600
H1681	H168	0.830100	0.184900	0.284800
C1571	C157	0.678300	0.124100	0.264400
C1581	C158	0.802800	0.208100	0.259700
N151	N15	0.709400	0.153100	0.215900
H1691	H169	0.889600	0.234000	0.073400
H1701	H170	0.965400	0.235200	0.118600
H1711	H171	0.987500	0.342100	0.180400
H1721	H172	0.906900	0.291600	0.179700
H1731	H173	0.987500	0.291800	0.228700
H1741	H174	0.849600	0.115900	0.081700
H1751	H175	0.903100	0.153800	0.168500
H1761	H176	0.821400	0.151600	0.118400
C1591	C159	0.953900	0.295300	0.182600
C1601	C160	0.868900	0.155900	0.121800
N161	N16	0.921500	0.231300	0.116800
