data_HAJRES_freeONLY_PM
_symmetry_space_group_name_H-M	'P1'
_cell_length_a	30.438000
_cell_length_b	44.985000
_cell_length_c	30.399200
_cell_angle_alpha	90.000000
_cell_angle_beta	90.000000
_cell_angle_gamma	90.000000
_symmetry_Int_Tables_number 1

loop_
_symmetry_equiv_pos_as_xyz
'x,y,z'

loop_
_atom_site_label
_atom_site_type_symbol
_atom_site_fract_x
_atom_site_fract_y
_atom_site_fract_z
Cu11	Cu1	0.498700	0.250120	0.616460
N11	N1	0.266400	0.453000	0.438400
N21	N2	0.418100	0.289700	0.594400
N31	N3	0.522900	0.211200	0.535400
N41	N4	0.681100	0.049300	0.385700
C11	C1	0.257600	0.471000	0.415400
C21	C2	0.286100	0.428900	0.463000
C31	C3	0.328700	0.419700	0.449100
C41	C4	0.347400	0.397000	0.470100
H11	H1	0.375800	0.390600	0.461000
C51	C5	0.327400	0.382400	0.504100
C61	C6	0.284700	0.391100	0.516700
H21	H2	0.270000	0.380100	0.539000
C71	C7	0.264100	0.414500	0.498000
C81	C8	0.221300	0.425800	0.515500
C91	C9	0.223400	0.448100	0.549600
C101	C10	0.181400	0.457200	0.569900
H31	H3	0.181400	0.471300	0.593100
C111	C11	0.143700	0.445800	0.556000
C121	C12	0.141600	0.421500	0.525300
H41	H4	0.114700	0.412400	0.517100
C131	C13	0.184300	0.411900	0.507500
C141	C14	0.179800	0.384500	0.478400
H51	H5	0.148900	0.378200	0.477600
H61	H6	0.189600	0.389300	0.448500
H71	H7	0.197800	0.368400	0.490200
C151	C15	0.266800	0.460700	0.564700
H81	H8	0.261700	0.475400	0.587900
H91	H9	0.285300	0.444700	0.576100
H101	H10	0.281600	0.470300	0.539800
C161	C16	0.098400	0.455900	0.574600
H111	H11	0.074900	0.444800	0.560000
H121	H12	0.097500	0.452100	0.606400
H131	H13	0.094500	0.477200	0.569200
C171	C17	0.350800	0.434500	0.410200
C181	C18	0.360400	0.415900	0.372400
C191	C19	0.384900	0.428100	0.338500
H141	H14	0.394200	0.415600	0.315100
C201	C20	0.396600	0.458900	0.337300
C211	C21	0.390500	0.473600	0.374400
H151	H15	0.401300	0.493300	0.376100
C221	C22	0.368700	0.461800	0.411700
C231	C23	0.362800	0.482000	0.452100
H161	H16	0.378100	0.500900	0.447200
H171	H17	0.331400	0.485800	0.456800
H181	H18	0.375100	0.472200	0.478100
C241	C24	0.414800	0.472100	0.297700
H191	H19	0.416300	0.457000	0.274500
H201	H20	0.396000	0.488500	0.288100
H211	H21	0.444400	0.479600	0.303900
C251	C25	0.344900	0.383900	0.369900
H221	H22	0.328200	0.379000	0.396500
H231	H23	0.326200	0.381300	0.344000
H241	H24	0.370400	0.370700	0.367600
C261	C26	0.349100	0.357000	0.527600
C271	C27	0.387600	0.344300	0.510100
H251	H25	0.398200	0.350800	0.482400
C281	C28	0.409900	0.322700	0.533000
C291	C29	0.393500	0.311600	0.572100
C301	C30	0.354600	0.323100	0.590800
C311	C31	0.334700	0.346000	0.568200
C321	C32	0.337600	0.313200	0.634200
C331	C33	0.358600	0.321100	0.671300
C341	C34	0.343100	0.313900	0.713200
H261	H26	0.359600	0.319300	0.738500
C351	C35	0.306600	0.300000	0.717200
C361	C36	0.283200	0.291900	0.679700
H271	H27	0.256900	0.280800	0.683500
C371	C37	0.296500	0.299400	0.635200
C381	C38	0.269800	0.292600	0.597800
H281	H28	0.242600	0.282900	0.607500
H291	H29	0.262700	0.310900	0.582000
H301	H30	0.285900	0.279100	0.578200
C391	C39	0.402500	0.339800	0.669100
H311	H31	0.413200	0.343500	0.699000
H321	H32	0.424700	0.328600	0.652600
H331	H33	0.396800	0.358800	0.654300
C401	C40	0.289600	0.290000	0.764100
H341	H34	0.261400	0.279700	0.761000
H351	H35	0.311100	0.276500	0.777500
H361	H36	0.285900	0.307500	0.782900
C411	C41	0.450000	0.288900	0.480700
C421	C42	0.488800	0.276700	0.464600
H371	H37	0.487800	0.262400	0.441600
C431	C43	0.528900	0.285300	0.482200
C441	C44	0.530400	0.306200	0.515800
H381	H38	0.557800	0.312200	0.527900
C451	C45	0.491600	0.318500	0.531900
C461	C46	0.451500	0.309800	0.514400
C471	C47	0.405800	0.279300	0.458900
H391	H39	0.381300	0.289500	0.473400
H401	H40	0.406200	0.284500	0.427600
H411	H41	0.402000	0.257700	0.462100
C481	C48	0.571000	0.271100	0.461500
H421	H42	0.562400	0.257000	0.438400
H431	H43	0.589500	0.286700	0.448700
H441	H44	0.587600	0.260600	0.484400
C491	C49	0.492700	0.339600	0.569100
H451	H45	0.462600	0.346000	0.576100
H461	H46	0.505700	0.329900	0.594900
H471	H47	0.510300	0.357000	0.561000
C501	C50	0.445500	0.273800	0.605800
C511	C51	0.512000	0.227400	0.563500
C521	C52	0.544300	0.188300	0.512000
C531	C53	0.585000	0.178900	0.530200
C541	C54	0.606200	0.156800	0.506900
H481	H48	0.633600	0.149900	0.517800
C551	C55	0.590200	0.144100	0.468700
C561	C56	0.550100	0.154900	0.451100
H491	H49	0.538300	0.146800	0.424800
C571	C57	0.528400	0.177500	0.472900
C581	C58	0.484900	0.188000	0.454100
C591	C59	0.480800	0.201900	0.415100
C601	C60	0.439600	0.210800	0.399000
H501	H50	0.437800	0.222600	0.373100
C611	C61	0.401800	0.202500	0.420500
C621	C62	0.405200	0.186300	0.458400
H511	H51	0.379000	0.180500	0.473100
C631	C63	0.444100	0.178300	0.475900
C641	C64	0.446100	0.158500	0.514300
H521	H52	0.476900	0.155100	0.522400
H531	H53	0.430600	0.167700	0.539000
H541	H54	0.432200	0.139500	0.507000
C651	C65	0.522400	0.210000	0.390200
H551	H55	0.514500	0.219900	0.362600
H561	H56	0.540300	0.223400	0.408100
H571	H57	0.539100	0.191900	0.383700
C661	C66	0.362700	0.211400	0.392600
H581	H58	0.372900	0.223100	0.367400
H591	H59	0.347700	0.193500	0.382000
H601	H60	0.342300	0.223200	0.410300
C671	C67	0.604700	0.190400	0.572900
C681	C68	0.584200	0.182200	0.610400
C691	C69	0.544500	0.161000	0.612400
H611	H61	0.535400	0.158400	0.643100
H621	H62	0.520100	0.169500	0.595500
H631	H63	0.552700	0.141700	0.599900
C701	C70	0.603100	0.191500	0.650100
H641	H64	0.589200	0.186500	0.677100
C711	C71	0.643400	0.208500	0.651100
C721	C72	0.654800	0.217800	0.614700
H651	H65	0.674100	0.234400	0.614500
C731	C73	0.642100	0.206200	0.572800
C741	C74	0.664500	0.215800	0.529400
H661	H66	0.691200	0.227100	0.536100
H671	H67	0.672100	0.198200	0.512200
H681	H68	0.644300	0.228300	0.512500
C751	C75	0.668300	0.216800	0.689700
H691	H69	0.655100	0.207700	0.715800
H701	H70	0.698700	0.209900	0.686500
H711	H71	0.668100	0.238500	0.692900
C761	C76	0.613300	0.120000	0.445200
C771	C77	0.605600	0.111400	0.405100
H721	H72	0.583500	0.122000	0.389400
C781	C78	0.626200	0.088800	0.383100
C791	C79	0.660400	0.073500	0.405000
C801	C80	0.671600	0.081800	0.447800
C811	C81	0.646500	0.104100	0.468800
H731	H73	0.651800	0.108500	0.498900
C821	C82	0.708100	0.068600	0.472100
C831	C83	0.707900	0.039700	0.485500
C841	C84	0.742800	0.030400	0.513300
H741	H74	0.739200	0.012800	0.530300
C851	C85	0.780900	0.045500	0.516500
C861	C86	0.780700	0.073600	0.504000
H751	H75	0.805500	0.085500	0.511100
C871	C87	0.746600	0.086700	0.481000
C881	C88	0.750100	0.117400	0.464600
H761	H76	0.723000	0.122800	0.449200
H771	H77	0.754800	0.130900	0.489400
H781	H78	0.775000	0.118800	0.444200
C891	C89	0.669700	0.018800	0.480100
H791	H79	0.677400	0.999300	0.492200
H801	H80	0.644100	0.026800	0.495700
H811	H81	0.662700	0.016800	0.448700
C901	C90	0.824200	0.031700	0.538700
H821	H82	0.818900	0.010800	0.546000
H831	H83	0.848800	0.033100	0.518000
H841	H84	0.831300	0.042800	0.565500
C911	C91	0.607100	0.078200	0.339800
C921	C92	0.616700	0.091900	0.300000
C931	C93	0.597100	0.081900	0.261400
H851	H85	0.603700	0.091300	0.234200
C941	C94	0.567900	0.058200	0.262700
C951	C95	0.558300	0.044500	0.302500
H861	H86	0.538300	0.028200	0.303400
C961	C96	0.577900	0.054500	0.341000
C971	C97	0.644800	0.118500	0.301500
H871	H87	0.638100	0.131300	0.276300
H881	H88	0.675700	0.112500	0.300300
H891	H89	0.639300	0.129400	0.328900
C981	C98	0.567400	0.037600	0.380900
H901	H90	0.555800	0.052500	0.398400
H911	H91	0.546200	0.021200	0.375300
H921	H92	0.593700	0.028000	0.395400
C991	C99	0.547100	0.049100	0.217600
H931	H93	0.527100	0.032200	0.222100
H941	H94	0.530700	0.065900	0.205500
H951	H95	0.570400	0.043300	0.197100
C1001	C100	0.705000	0.029700	0.377400
Cu21	Cu2	0.498700	0.750120	0.116460
N51	N5	0.266400	0.953000	0.938400
N61	N6	0.418100	0.789700	0.094400
N71	N7	0.522900	0.711200	0.035400
N81	N8	0.681100	0.549300	0.885700
C1011	C101	0.257600	0.971000	0.915400
C1021	C102	0.286100	0.928900	0.963000
C1031	C103	0.328700	0.919700	0.949100
C1041	C104	0.347400	0.897000	0.970100
H961	H96	0.375800	0.890600	0.961000
C1051	C105	0.327400	0.882400	0.004100
C1061	C106	0.284700	0.891100	0.016700
H971	H97	0.270000	0.880100	0.039000
C1071	C107	0.264100	0.914500	0.998000
C1081	C108	0.221300	0.925800	0.015500
C1091	C109	0.223400	0.948100	0.049600
C1101	C110	0.181400	0.957200	0.069900
H981	H98	0.181400	0.971300	0.093100
C1111	C111	0.143700	0.945800	0.056000
C1121	C112	0.141600	0.921500	0.025300
H991	H99	0.114700	0.912400	0.017100
C1131	C113	0.184300	0.911900	0.007500
C1141	C114	0.179800	0.884500	0.978400
H1001	H100	0.148900	0.878200	0.977600
H1011	H101	0.189600	0.889300	0.948500
H1021	H102	0.197800	0.868400	0.990200
C1151	C115	0.266800	0.960700	0.064700
H1031	H103	0.261700	0.975400	0.087900
H1041	H104	0.285300	0.944700	0.076100
H1051	H105	0.281600	0.970300	0.039800
C1161	C116	0.098400	0.955900	0.074600
H1061	H106	0.074900	0.944800	0.060000
H1071	H107	0.097500	0.952100	0.106400
H1081	H108	0.094500	0.977200	0.069200
C1171	C117	0.350800	0.934500	0.910200
C1181	C118	0.360400	0.915900	0.872400
C1191	C119	0.384900	0.928100	0.838500
H1091	H109	0.394200	0.915600	0.815100
C1201	C120	0.396600	0.958900	0.837300
C1211	C121	0.390500	0.973600	0.874400
H1101	H110	0.401300	0.993300	0.876100
C1221	C122	0.368700	0.961800	0.911700
C1231	C123	0.362800	0.982000	0.952100
H1111	H111	0.378100	0.000900	0.947200
H1121	H112	0.331400	0.985800	0.956800
H1131	H113	0.375100	0.972200	0.978100
C1241	C124	0.414800	0.972100	0.797700
H1141	H114	0.416300	0.957000	0.774500
H1151	H115	0.396000	0.988500	0.788100
H1161	H116	0.444400	0.979600	0.803900
C1251	C125	0.344900	0.883900	0.869900
H1171	H117	0.328200	0.879000	0.896500
H1181	H118	0.326200	0.881300	0.844000
H1191	H119	0.370400	0.870700	0.867600
C1261	C126	0.349100	0.857000	0.027600
C1271	C127	0.387600	0.844300	0.010100
H1201	H120	0.398200	0.850800	0.982400
C1281	C128	0.409900	0.822700	0.033000
C1291	C129	0.393500	0.811600	0.072100
C1301	C130	0.354600	0.823100	0.090800
C1311	C131	0.334700	0.846000	0.068200
C1321	C132	0.337600	0.813200	0.134200
C1331	C133	0.358600	0.821100	0.171300
C1341	C134	0.343100	0.813900	0.213200
H1211	H121	0.359600	0.819300	0.238500
C1351	C135	0.306600	0.800000	0.217200
C1361	C136	0.283200	0.791900	0.179700
H1221	H122	0.256900	0.780800	0.183500
C1371	C137	0.296500	0.799400	0.135200
C1381	C138	0.269800	0.792600	0.097800
H1231	H123	0.242600	0.782900	0.107500
H1241	H124	0.262700	0.810900	0.082000
H1251	H125	0.285900	0.779100	0.078200
C1391	C139	0.402500	0.839800	0.169100
H1261	H126	0.413200	0.843500	0.199000
H1271	H127	0.424700	0.828600	0.152600
H1281	H128	0.396800	0.858800	0.154300
C1401	C140	0.289600	0.790000	0.264100
H1291	H129	0.261400	0.779700	0.261000
H1301	H130	0.311100	0.776500	0.277500
H1311	H131	0.285900	0.807500	0.282900
C1411	C141	0.450000	0.788900	0.980700
C1421	C142	0.488800	0.776700	0.964600
H1321	H132	0.487800	0.762400	0.941600
C1431	C143	0.528900	0.785300	0.982200
C1441	C144	0.530400	0.806200	0.015800
H1331	H133	0.557800	0.812200	0.027900
C1451	C145	0.491600	0.818500	0.031900
C1461	C146	0.451500	0.809800	0.014400
C1471	C147	0.405800	0.779300	0.958900
H1341	H134	0.381300	0.789500	0.973400
H1351	H135	0.406200	0.784500	0.927600
H1361	H136	0.402000	0.757700	0.962100
C1481	C148	0.571000	0.771100	0.961500
H1371	H137	0.562400	0.757000	0.938400
H1381	H138	0.589500	0.786700	0.948700
H1391	H139	0.587600	0.760600	0.984400
C1491	C149	0.492700	0.839600	0.069100
H1401	H140	0.462600	0.846000	0.076100
H1411	H141	0.505700	0.829900	0.094900
H1421	H142	0.510300	0.857000	0.061000
C1501	C150	0.445500	0.773800	0.105800
C1511	C151	0.512000	0.727400	0.063500
C1521	C152	0.544300	0.688300	0.012000
C1531	C153	0.585000	0.678900	0.030200
C1541	C154	0.606200	0.656800	0.006900
H1431	H143	0.633600	0.649900	0.017800
C1551	C155	0.590200	0.644100	0.968700
C1561	C156	0.550100	0.654900	0.951100
H1441	H144	0.538300	0.646800	0.924800
C1571	C157	0.528400	0.677500	0.972900
C1581	C158	0.484900	0.688000	0.954100
C1591	C159	0.480800	0.701900	0.915100
C1601	C160	0.439600	0.710800	0.899000
H1451	H145	0.437800	0.722600	0.873100
C1611	C161	0.401800	0.702500	0.920500
C1621	C162	0.405200	0.686300	0.958400
H1461	H146	0.379000	0.680500	0.973100
C1631	C163	0.444100	0.678300	0.975900
C1641	C164	0.446100	0.658500	0.014300
H1471	H147	0.476900	0.655100	0.022400
H1481	H148	0.430600	0.667700	0.039000
H1491	H149	0.432200	0.639500	0.007000
C1651	C165	0.522400	0.710000	0.890200
H1501	H150	0.514500	0.719900	0.862600
H1511	H151	0.540300	0.723400	0.908100
H1521	H152	0.539100	0.691900	0.883700
C1661	C166	0.362700	0.711400	0.892600
H1531	H153	0.372900	0.723100	0.867400
H1541	H154	0.347700	0.693500	0.882000
H1551	H155	0.342300	0.723200	0.910300
C1671	C167	0.604700	0.690400	0.072900
C1681	C168	0.584200	0.682200	0.110400
C1691	C169	0.544500	0.661000	0.112400
H1561	H156	0.535400	0.658400	0.143100
H1571	H157	0.520100	0.669500	0.095500
H1581	H158	0.552700	0.641700	0.099900
C1701	C170	0.603100	0.691500	0.150100
H1591	H159	0.589200	0.686500	0.177100
C1711	C171	0.643400	0.708500	0.151100
C1721	C172	0.654800	0.717800	0.114700
H1601	H160	0.674100	0.734400	0.114500
C1731	C173	0.642100	0.706200	0.072800
C1741	C174	0.664500	0.715800	0.029400
H1611	H161	0.691200	0.727100	0.036100
H1621	H162	0.672100	0.698200	0.012200
H1631	H163	0.644300	0.728300	0.012500
C1751	C175	0.668300	0.716800	0.189700
H1641	H164	0.655100	0.707700	0.215800
H1651	H165	0.698700	0.709900	0.186500
H1661	H166	0.668100	0.738500	0.192900
C1761	C176	0.613300	0.620000	0.945200
C1771	C177	0.605600	0.611400	0.905100
H1671	H167	0.583500	0.622000	0.889400
C1781	C178	0.626200	0.588800	0.883100
C1791	C179	0.660400	0.573500	0.905000
C1801	C180	0.671600	0.581800	0.947800
C1811	C181	0.646500	0.604100	0.968800
H1681	H168	0.651800	0.608500	0.998900
C1821	C182	0.708100	0.568600	0.972100
C1831	C183	0.707900	0.539700	0.985500
C1841	C184	0.742800	0.530400	0.013300
H1691	H169	0.739200	0.512800	0.030300
C1851	C185	0.780900	0.545500	0.016500
C1861	C186	0.780700	0.573600	0.004000
H1701	H170	0.805500	0.585500	0.011100
C1871	C187	0.746600	0.586700	0.981000
C1881	C188	0.750100	0.617400	0.964600
H1711	H171	0.723000	0.622800	0.949200
H1721	H172	0.754800	0.630900	0.989400
H1731	H173	0.775000	0.618800	0.944200
C1891	C189	0.669700	0.518800	0.980100
H1741	H174	0.677400	0.499300	0.992200
H1751	H175	0.644100	0.526800	0.995700
H1761	H176	0.662700	0.516800	0.948700
C1901	C190	0.824200	0.531700	0.038700
H1771	H177	0.818900	0.510800	0.046000
H1781	H178	0.848800	0.533100	0.018000
H1791	H179	0.831300	0.542800	0.065500
C1911	C191	0.607100	0.578200	0.839800
C1921	C192	0.616700	0.591900	0.800000
C1931	C193	0.597100	0.581900	0.761400
H1801	H180	0.603700	0.591300	0.734200
C1941	C194	0.567900	0.558200	0.762700
C1951	C195	0.558300	0.544500	0.802500
H1811	H181	0.538300	0.528200	0.803400
C1961	C196	0.577900	0.554500	0.841000
C1971	C197	0.644800	0.618500	0.801500
H1821	H182	0.638100	0.631300	0.776300
H1831	H183	0.675700	0.612500	0.800300
H1841	H184	0.639300	0.629400	0.828900
C1981	C198	0.567400	0.537600	0.880900
H1851	H185	0.555800	0.552500	0.898400
H1861	H186	0.546200	0.521200	0.875300
H1871	H187	0.593700	0.528000	0.895400
C1991	C199	0.547100	0.549100	0.717600
H1881	H188	0.527100	0.532200	0.722100
H1891	H189	0.530700	0.565900	0.705500
H1901	H190	0.570400	0.543300	0.697100
C2001	C200	0.705000	0.529700	0.877400
Cu31	Cu3	0.998700	0.250120	0.116460
N91	N9	0.766400	0.453000	0.938400
N101	N10	0.918100	0.289700	0.094400
N111	N11	0.022900	0.211200	0.035400
N121	N12	0.181100	0.049300	0.885700
C2011	C201	0.757600	0.471000	0.915400
C2021	C202	0.786100	0.428900	0.963000
C2031	C203	0.828700	0.419700	0.949100
C2041	C204	0.847400	0.397000	0.970100
H1911	H191	0.875800	0.390600	0.961000
C2051	C205	0.827400	0.382400	0.004100
C2061	C206	0.784700	0.391100	0.016700
H1921	H192	0.770000	0.380100	0.039000
C2071	C207	0.764100	0.414500	0.998000
C2081	C208	0.721300	0.425800	0.015500
C2091	C209	0.723400	0.448100	0.049600
C2101	C210	0.681400	0.457200	0.069900
H1931	H193	0.681400	0.471300	0.093100
C2111	C211	0.643700	0.445800	0.056000
C2121	C212	0.641600	0.421500	0.025300
H1941	H194	0.614700	0.412400	0.017100
C2131	C213	0.684300	0.411900	0.007500
C2141	C214	0.679800	0.384500	0.978400
H1951	H195	0.648900	0.378200	0.977600
H1961	H196	0.689600	0.389300	0.948500
H1971	H197	0.697800	0.368400	0.990200
C2151	C215	0.766800	0.460700	0.064700
H1981	H198	0.761700	0.475400	0.087900
H1991	H199	0.785300	0.444700	0.076100
H2001	H200	0.781600	0.470300	0.039800
C2161	C216	0.598400	0.455900	0.074600
H2011	H201	0.574900	0.444800	0.060000
H2021	H202	0.597500	0.452100	0.106400
H2031	H203	0.594500	0.477200	0.069200
C2171	C217	0.850800	0.434500	0.910200
C2181	C218	0.860400	0.415900	0.872400
C2191	C219	0.884900	0.428100	0.838500
H2041	H204	0.894200	0.415600	0.815100
C2201	C220	0.896600	0.458900	0.837300
C2211	C221	0.890500	0.473600	0.874400
H2051	H205	0.901300	0.493300	0.876100
C2221	C222	0.868700	0.461800	0.911700
C2231	C223	0.862800	0.482000	0.952100
H2061	H206	0.878100	0.500900	0.947200
H2071	H207	0.831400	0.485800	0.956800
H2081	H208	0.875100	0.472200	0.978100
C2241	C224	0.914800	0.472100	0.797700
H2091	H209	0.916300	0.457000	0.774500
H2101	H210	0.896000	0.488500	0.788100
H2111	H211	0.944400	0.479600	0.803900
C2251	C225	0.844900	0.383900	0.869900
H2121	H212	0.828200	0.379000	0.896500
H2131	H213	0.826200	0.381300	0.844000
H2141	H214	0.870400	0.370700	0.867600
C2261	C226	0.849100	0.357000	0.027600
C2271	C227	0.887600	0.344300	0.010100
H2151	H215	0.898200	0.350800	0.982400
C2281	C228	0.909900	0.322700	0.033000
C2291	C229	0.893500	0.311600	0.072100
C2301	C230	0.854600	0.323100	0.090800
C2311	C231	0.834700	0.346000	0.068200
C2321	C232	0.837600	0.313200	0.134200
C2331	C233	0.858600	0.321100	0.171300
C2341	C234	0.843100	0.313900	0.213200
H2161	H216	0.859600	0.319300	0.238500
C2351	C235	0.806600	0.300000	0.217200
C2361	C236	0.783200	0.291900	0.179700
H2171	H217	0.756900	0.280800	0.183500
C2371	C237	0.796500	0.299400	0.135200
C2381	C238	0.769800	0.292600	0.097800
H2181	H218	0.742600	0.282900	0.107500
H2191	H219	0.762700	0.310900	0.082000
H2201	H220	0.785900	0.279100	0.078200
C2391	C239	0.902500	0.339800	0.169100
H2211	H221	0.913200	0.343500	0.199000
H2221	H222	0.924700	0.328600	0.152600
H2231	H223	0.896800	0.358800	0.154300
C2401	C240	0.789600	0.290000	0.264100
H2241	H224	0.761400	0.279700	0.261000
H2251	H225	0.811100	0.276500	0.277500
H2261	H226	0.785900	0.307500	0.282900
C2411	C241	0.950000	0.288900	0.980700
C2421	C242	0.988800	0.276700	0.964600
H2271	H227	0.987800	0.262400	0.941600
C2431	C243	0.028900	0.285300	0.982200
C2441	C244	0.030400	0.306200	0.015800
H2281	H228	0.057800	0.312200	0.027900
C2451	C245	0.991600	0.318500	0.031900
C2461	C246	0.951500	0.309800	0.014400
C2471	C247	0.905800	0.279300	0.958900
H2291	H229	0.881300	0.289500	0.973400
H2301	H230	0.906200	0.284500	0.927600
H2311	H231	0.902000	0.257700	0.962100
C2481	C248	0.071000	0.271100	0.961500
H2321	H232	0.062400	0.257000	0.938400
H2331	H233	0.089500	0.286700	0.948700
H2341	H234	0.087600	0.260600	0.984400
C2491	C249	0.992700	0.339600	0.069100
H2351	H235	0.962600	0.346000	0.076100
H2361	H236	0.005700	0.329900	0.094900
H2371	H237	0.010300	0.357000	0.061000
C2501	C250	0.945500	0.273800	0.105800
C2511	C251	0.012000	0.227400	0.063500
C2521	C252	0.044300	0.188300	0.012000
C2531	C253	0.085000	0.178900	0.030200
C2541	C254	0.106200	0.156800	0.006900
H2381	H238	0.133600	0.149900	0.017800
C2551	C255	0.090200	0.144100	0.968700
C2561	C256	0.050100	0.154900	0.951100
H2391	H239	0.038300	0.146800	0.924800
C2571	C257	0.028400	0.177500	0.972900
C2581	C258	0.984900	0.188000	0.954100
C2591	C259	0.980800	0.201900	0.915100
C2601	C260	0.939600	0.210800	0.899000
H2401	H240	0.937800	0.222600	0.873100
C2611	C261	0.901800	0.202500	0.920500
C2621	C262	0.905200	0.186300	0.958400
H2411	H241	0.879000	0.180500	0.973100
C2631	C263	0.944100	0.178300	0.975900
C2641	C264	0.946100	0.158500	0.014300
H2421	H242	0.976900	0.155100	0.022400
H2431	H243	0.930600	0.167700	0.039000
H2441	H244	0.932200	0.139500	0.007000
C2651	C265	0.022400	0.210000	0.890200
H2451	H245	0.014500	0.219900	0.862600
H2461	H246	0.040300	0.223400	0.908100
H2471	H247	0.039100	0.191900	0.883700
C2661	C266	0.862700	0.211400	0.892600
H2481	H248	0.872900	0.223100	0.867400
H2491	H249	0.847700	0.193500	0.882000
H2501	H250	0.842300	0.223200	0.910300
C2671	C267	0.104700	0.190400	0.072900
C2681	C268	0.084200	0.182200	0.110400
C2691	C269	0.044500	0.161000	0.112400
H2511	H251	0.035400	0.158400	0.143100
H2521	H252	0.020100	0.169500	0.095500
H2531	H253	0.052700	0.141700	0.099900
C2701	C270	0.103100	0.191500	0.150100
H2541	H254	0.089200	0.186500	0.177100
C2711	C271	0.143400	0.208500	0.151100
C2721	C272	0.154800	0.217800	0.114700
H2551	H255	0.174100	0.234400	0.114500
C2731	C273	0.142100	0.206200	0.072800
C2741	C274	0.164500	0.215800	0.029400
H2561	H256	0.191200	0.227100	0.036100
H2571	H257	0.172100	0.198200	0.012200
H2581	H258	0.144300	0.228300	0.012500
C2751	C275	0.168300	0.216800	0.189700
H2591	H259	0.155100	0.207700	0.215800
H2601	H260	0.198700	0.209900	0.186500
H2611	H261	0.168100	0.238500	0.192900
C2761	C276	0.113300	0.120000	0.945200
C2771	C277	0.105600	0.111400	0.905100
H2621	H262	0.083500	0.122000	0.889400
C2781	C278	0.126200	0.088800	0.883100
C2791	C279	0.160400	0.073500	0.905000
C2801	C280	0.171600	0.081800	0.947800
C2811	C281	0.146500	0.104100	0.968800
H2631	H263	0.151800	0.108500	0.998900
C2821	C282	0.208100	0.068600	0.972100
C2831	C283	0.207900	0.039700	0.985500
C2841	C284	0.242800	0.030400	0.013300
H2641	H264	0.239200	0.012800	0.030300
C2851	C285	0.280900	0.045500	0.016500
C2861	C286	0.280700	0.073600	0.004000
H2651	H265	0.305500	0.085500	0.011100
C2871	C287	0.246600	0.086700	0.981000
C2881	C288	0.250100	0.117400	0.964600
H2661	H266	0.223000	0.122800	0.949200
H2671	H267	0.254800	0.130900	0.989400
H2681	H268	0.275000	0.118800	0.944200
C2891	C289	0.169700	0.018800	0.980100
H2691	H269	0.177400	0.999300	0.992200
H2701	H270	0.144100	0.026800	0.995700
H2711	H271	0.162700	0.016800	0.948700
C2901	C290	0.324200	0.031700	0.038700
H2721	H272	0.318900	0.010800	0.046000
H2731	H273	0.348800	0.033100	0.018000
H2741	H274	0.331300	0.042800	0.065500
C2911	C291	0.107100	0.078200	0.839800
C2921	C292	0.116700	0.091900	0.800000
C2931	C293	0.097100	0.081900	0.761400
H2751	H275	0.103700	0.091300	0.734200
C2941	C294	0.067900	0.058200	0.762700
C2951	C295	0.058300	0.044500	0.802500
H2761	H276	0.038300	0.028200	0.803400
C2961	C296	0.077900	0.054500	0.841000
C2971	C297	0.144800	0.118500	0.801500
H2771	H277	0.138100	0.131300	0.776300
H2781	H278	0.175700	0.112500	0.800300
H2791	H279	0.139300	0.129400	0.828900
C2981	C298	0.067400	0.037600	0.880900
H2801	H280	0.055800	0.052500	0.898400
H2811	H281	0.046200	0.021200	0.875300
H2821	H282	0.093700	0.028000	0.895400
C2991	C299	0.047100	0.049100	0.717600
H2831	H283	0.027100	0.032200	0.722100
H2841	H284	0.030700	0.065900	0.705500
H2851	H285	0.070400	0.043300	0.697100
C3001	C300	0.205000	0.029700	0.877400
Cu41	Cu4	0.998700	0.750120	0.616460
N131	N13	0.766400	0.953000	0.438400
N141	N14	0.918100	0.789700	0.594400
N151	N15	0.022900	0.711200	0.535400
N161	N16	0.181100	0.549300	0.385700
C3011	C301	0.757600	0.971000	0.415400
C3021	C302	0.786100	0.928900	0.463000
C3031	C303	0.828700	0.919700	0.449100
C3041	C304	0.847400	0.897000	0.470100
H2861	H286	0.875800	0.890600	0.461000
C3051	C305	0.827400	0.882400	0.504100
C3061	C306	0.784700	0.891100	0.516700
H2871	H287	0.770000	0.880100	0.539000
C3071	C307	0.764100	0.914500	0.498000
C3081	C308	0.721300	0.925800	0.515500
C3091	C309	0.723400	0.948100	0.549600
C3101	C310	0.681400	0.957200	0.569900
H2881	H288	0.681400	0.971300	0.593100
C3111	C311	0.643700	0.945800	0.556000
C3121	C312	0.641600	0.921500	0.525300
H2891	H289	0.614700	0.912400	0.517100
C3131	C313	0.684300	0.911900	0.507500
C3141	C314	0.679800	0.884500	0.478400
H2901	H290	0.648900	0.878200	0.477600
H2911	H291	0.689600	0.889300	0.448500
H2921	H292	0.697800	0.868400	0.490200
C3151	C315	0.766800	0.960700	0.564700
H2931	H293	0.761700	0.975400	0.587900
H2941	H294	0.785300	0.944700	0.576100
H2951	H295	0.781600	0.970300	0.539800
C3161	C316	0.598400	0.955900	0.574600
H2961	H296	0.574900	0.944800	0.560000
H2971	H297	0.597500	0.952100	0.606400
H2981	H298	0.594500	0.977200	0.569200
C3171	C317	0.850800	0.934500	0.410200
C3181	C318	0.860400	0.915900	0.372400
C3191	C319	0.884900	0.928100	0.338500
H2991	H299	0.894200	0.915600	0.315100
C3201	C320	0.896600	0.958900	0.337300
C3211	C321	0.890500	0.973600	0.374400
H3001	H300	0.901300	0.993300	0.376100
C3221	C322	0.868700	0.961800	0.411700
C3231	C323	0.862800	0.982000	0.452100
H3011	H301	0.878100	0.000900	0.447200
H3021	H302	0.831400	0.985800	0.456800
H3031	H303	0.875100	0.972200	0.478100
C3241	C324	0.914800	0.972100	0.297700
H3041	H304	0.916300	0.957000	0.274500
H3051	H305	0.896000	0.988500	0.288100
H3061	H306	0.944400	0.979600	0.303900
C3251	C325	0.844900	0.883900	0.369900
H3071	H307	0.828200	0.879000	0.396500
H3081	H308	0.826200	0.881300	0.344000
H3091	H309	0.870400	0.870700	0.367600
C3261	C326	0.849100	0.857000	0.527600
C3271	C327	0.887600	0.844300	0.510100
H3101	H310	0.898200	0.850800	0.482400
C3281	C328	0.909900	0.822700	0.533000
C3291	C329	0.893500	0.811600	0.572100
C3301	C330	0.854600	0.823100	0.590800
C3311	C331	0.834700	0.846000	0.568200
C3321	C332	0.837600	0.813200	0.634200
C3331	C333	0.858600	0.821100	0.671300
C3341	C334	0.843100	0.813900	0.713200
H3111	H311	0.859600	0.819300	0.738500
C3351	C335	0.806600	0.800000	0.717200
C3361	C336	0.783200	0.791900	0.679700
H3121	H312	0.756900	0.780800	0.683500
C3371	C337	0.796500	0.799400	0.635200
C3381	C338	0.769800	0.792600	0.597800
H3131	H313	0.742600	0.782900	0.607500
H3141	H314	0.762700	0.810900	0.582000
H3151	H315	0.785900	0.779100	0.578200
C3391	C339	0.902500	0.839800	0.669100
H3161	H316	0.913200	0.843500	0.699000
H3171	H317	0.924700	0.828600	0.652600
H3181	H318	0.896800	0.858800	0.654300
C3401	C340	0.789600	0.790000	0.764100
H3191	H319	0.761400	0.779700	0.761000
H3201	H320	0.811100	0.776500	0.777500
H3211	H321	0.785900	0.807500	0.782900
C3411	C341	0.950000	0.788900	0.480700
C3421	C342	0.988800	0.776700	0.464600
H3221	H322	0.987800	0.762400	0.441600
C3431	C343	0.028900	0.785300	0.482200
C3441	C344	0.030400	0.806200	0.515800
H3231	H323	0.057800	0.812200	0.527900
C3451	C345	0.991600	0.818500	0.531900
C3461	C346	0.951500	0.809800	0.514400
C3471	C347	0.905800	0.779300	0.458900
H3241	H324	0.881300	0.789500	0.473400
H3251	H325	0.906200	0.784500	0.427600
H3261	H326	0.902000	0.757700	0.462100
C3481	C348	0.071000	0.771100	0.461500
H3271	H327	0.062400	0.757000	0.438400
H3281	H328	0.089500	0.786700	0.448700
H3291	H329	0.087600	0.760600	0.484400
C3491	C349	0.992700	0.839600	0.569100
H3301	H330	0.962600	0.846000	0.576100
H3311	H331	0.005700	0.829900	0.594900
H3321	H332	0.010300	0.857000	0.561000
C3501	C350	0.945500	0.773800	0.605800
C3511	C351	0.012000	0.727400	0.563500
C3521	C352	0.044300	0.688300	0.512000
C3531	C353	0.085000	0.678900	0.530200
C3541	C354	0.106200	0.656800	0.506900
H3331	H333	0.133600	0.649900	0.517800
C3551	C355	0.090200	0.644100	0.468700
C3561	C356	0.050100	0.654900	0.451100
H3341	H334	0.038300	0.646800	0.424800
C3571	C357	0.028400	0.677500	0.472900
C3581	C358	0.984900	0.688000	0.454100
C3591	C359	0.980800	0.701900	0.415100
C3601	C360	0.939600	0.710800	0.399000
H3351	H335	0.937800	0.722600	0.373100
C3611	C361	0.901800	0.702500	0.420500
C3621	C362	0.905200	0.686300	0.458400
H3361	H336	0.879000	0.680500	0.473100
C3631	C363	0.944100	0.678300	0.475900
C3641	C364	0.946100	0.658500	0.514300
H3371	H337	0.976900	0.655100	0.522400
H3381	H338	0.930600	0.667700	0.539000
H3391	H339	0.932200	0.639500	0.507000
C3651	C365	0.022400	0.710000	0.390200
H3401	H340	0.014500	0.719900	0.362600
H3411	H341	0.040300	0.723400	0.408100
H3421	H342	0.039100	0.691900	0.383700
C3661	C366	0.862700	0.711400	0.392600
H3431	H343	0.872900	0.723100	0.367400
H3441	H344	0.847700	0.693500	0.382000
H3451	H345	0.842300	0.723200	0.410300
C3671	C367	0.104700	0.690400	0.572900
C3681	C368	0.084200	0.682200	0.610400
C3691	C369	0.044500	0.661000	0.612400
H3461	H346	0.035400	0.658400	0.643100
H3471	H347	0.020100	0.669500	0.595500
H3481	H348	0.052700	0.641700	0.599900
C3701	C370	0.103100	0.691500	0.650100
H3491	H349	0.089200	0.686500	0.677100
C3711	C371	0.143400	0.708500	0.651100
C3721	C372	0.154800	0.717800	0.614700
H3501	H350	0.174100	0.734400	0.614500
C3731	C373	0.142100	0.706200	0.572800
C3741	C374	0.164500	0.715800	0.529400
H3511	H351	0.191200	0.727100	0.536100
H3521	H352	0.172100	0.698200	0.512200
H3531	H353	0.144300	0.728300	0.512500
C3751	C375	0.168300	0.716800	0.689700
H3541	H354	0.155100	0.707700	0.715800
H3551	H355	0.198700	0.709900	0.686500
H3561	H356	0.168100	0.738500	0.692900
C3761	C376	0.113300	0.620000	0.445200
C3771	C377	0.105600	0.611400	0.405100
H3571	H357	0.083500	0.622000	0.389400
C3781	C378	0.126200	0.588800	0.383100
C3791	C379	0.160400	0.573500	0.405000
C3801	C380	0.171600	0.581800	0.447800
C3811	C381	0.146500	0.604100	0.468800
H3581	H358	0.151800	0.608500	0.498900
C3821	C382	0.208100	0.568600	0.472100
C3831	C383	0.207900	0.539700	0.485500
C3841	C384	0.242800	0.530400	0.513300
H3591	H359	0.239200	0.512800	0.530300
C3851	C385	0.280900	0.545500	0.516500
C3861	C386	0.280700	0.573600	0.504000
H3601	H360	0.305500	0.585500	0.511100
C3871	C387	0.246600	0.586700	0.481000
C3881	C388	0.250100	0.617400	0.464600
H3611	H361	0.223000	0.622800	0.449200
H3621	H362	0.254800	0.630900	0.489400
H3631	H363	0.275000	0.618800	0.444200
C3891	C389	0.169700	0.518800	0.480100
H3641	H364	0.177400	0.499300	0.492200
H3651	H365	0.144100	0.526800	0.495700
H3661	H366	0.162700	0.516800	0.448700
C3901	C390	0.324200	0.531700	0.538700
H3671	H367	0.318900	0.510800	0.546000
H3681	H368	0.348800	0.533100	0.518000
H3691	H369	0.331300	0.542800	0.565500
C3911	C391	0.107100	0.578200	0.339800
C3921	C392	0.116700	0.591900	0.300000
C3931	C393	0.097100	0.581900	0.261400
H3701	H370	0.103700	0.591300	0.234200
C3941	C394	0.067900	0.558200	0.262700
C3951	C395	0.058300	0.544500	0.302500
H3711	H371	0.038300	0.528200	0.303400
C3961	C396	0.077900	0.554500	0.341000
C3971	C397	0.144800	0.618500	0.301500
H3721	H372	0.138100	0.631300	0.276300
H3731	H373	0.175700	0.612500	0.300300
H3741	H374	0.139300	0.629400	0.328900
C3981	C398	0.067400	0.537600	0.380900
H3751	H375	0.055800	0.552500	0.398400
H3761	H376	0.046200	0.521200	0.375300
H3771	H377	0.093700	0.528000	0.395400
C3991	C399	0.047100	0.549100	0.217600
H3781	H378	0.027100	0.532200	0.222100
H3791	H379	0.030700	0.565900	0.205500
H3801	H380	0.070400	0.543300	0.197100
C4001	C400	0.205000	0.529700	0.377400
Cu51	Cu5	0.751300	0.500120	0.866460
N171	N17	0.983600	0.703000	0.688400
N181	N18	0.831900	0.539700	0.844400
N191	N19	0.727100	0.461200	0.785400
N201	N20	0.568900	0.299300	0.635700
C4011	C401	0.992400	0.721000	0.665400
C4021	C402	0.963900	0.678900	0.713000
C4031	C403	0.921300	0.669700	0.699100
C4041	C404	0.902600	0.647000	0.720100
H3811	H381	0.874200	0.640600	0.711000
C4051	C405	0.922600	0.632400	0.754100
C4061	C406	0.965300	0.641100	0.766700
H3821	H382	0.980000	0.630100	0.789000
C4071	C407	0.985900	0.664500	0.748000
C4081	C408	0.028700	0.675800	0.765500
C4091	C409	0.026600	0.698100	0.799600
C4101	C410	0.068600	0.707200	0.819900
H3831	H383	0.068600	0.721300	0.843100
C4111	C411	0.106300	0.695800	0.806000
C4121	C412	0.108400	0.671500	0.775300
H3841	H384	0.135300	0.662400	0.767100
C4131	C413	0.065700	0.661900	0.757500
C4141	C414	0.070200	0.634500	0.728400
H3851	H385	0.101100	0.628200	0.727600
H3861	H386	0.060400	0.639300	0.698500
H3871	H387	0.052200	0.618400	0.740200
C4151	C415	0.983200	0.710700	0.814700
H3881	H388	0.988300	0.725400	0.837900
H3891	H389	0.964700	0.694700	0.826100
H3901	H390	0.968400	0.720300	0.789800
C4161	C416	0.151600	0.705900	0.824600
H3911	H391	0.175100	0.694800	0.810000
H3921	H392	0.152500	0.702100	0.856400
H3931	H393	0.155500	0.727200	0.819200
C4171	C417	0.899200	0.684500	0.660200
C4181	C418	0.889600	0.665900	0.622400
C4191	C419	0.865100	0.678100	0.588500
H3941	H394	0.855800	0.665600	0.565100
C4201	C420	0.853400	0.708900	0.587300
C4211	C421	0.859500	0.723600	0.624400
H3951	H395	0.848700	0.743300	0.626100
C4221	C422	0.881300	0.711800	0.661700
C4231	C423	0.887200	0.732000	0.702100
H3961	H396	0.871900	0.750900	0.697200
H3971	H397	0.918600	0.735800	0.706800
H3981	H398	0.874900	0.722200	0.728100
C4241	C424	0.835200	0.722100	0.547700
H3991	H399	0.833700	0.707000	0.524500
H4001	H400	0.854000	0.738500	0.538100
H4011	H401	0.805600	0.729600	0.553900
C4251	C425	0.905100	0.633900	0.619900
H4021	H402	0.921800	0.629000	0.646500
H4031	H403	0.923800	0.631300	0.594000
H4041	H404	0.879600	0.620700	0.617600
C4261	C426	0.900900	0.607000	0.777600
C4271	C427	0.862400	0.594300	0.760100
H4051	H405	0.851800	0.600800	0.732400
C4281	C428	0.840100	0.572700	0.783000
C4291	C429	0.856500	0.561600	0.822100
C4301	C430	0.895400	0.573100	0.840800
C4311	C431	0.915300	0.596000	0.818200
C4321	C432	0.912400	0.563200	0.884200
C4331	C433	0.891400	0.571100	0.921300
C4341	C434	0.906900	0.563900	0.963200
H4061	H406	0.890400	0.569300	0.988500
C4351	C435	0.943400	0.550000	0.967200
C4361	C436	0.966800	0.541900	0.929700
H4071	H407	0.993100	0.530800	0.933500
C4371	C437	0.953500	0.549400	0.885200
C4381	C438	0.980200	0.542600	0.847800
H4081	H408	0.007400	0.532900	0.857500
H4091	H409	0.987300	0.560900	0.832000
H4101	H410	0.964100	0.529100	0.828200
C4391	C439	0.847500	0.589800	0.919100
H4111	H411	0.836800	0.593500	0.949000
H4121	H412	0.825300	0.578600	0.902600
H4131	H413	0.853200	0.608800	0.904300
C4401	C440	0.960400	0.540000	0.014100
H4141	H414	0.988600	0.529700	0.011000
H4151	H415	0.938900	0.526500	0.027500
H4161	H416	0.964100	0.557500	0.032900
C4411	C441	0.800000	0.538900	0.730700
C4421	C442	0.761200	0.526700	0.714600
H4171	H417	0.762200	0.512400	0.691600
C4431	C443	0.721100	0.535300	0.732200
C4441	C444	0.719600	0.556200	0.765800
H4181	H418	0.692200	0.562200	0.777900
C4451	C445	0.758400	0.568500	0.781900
C4461	C446	0.798500	0.559800	0.764400
C4471	C447	0.844200	0.529300	0.708900
H4191	H419	0.868700	0.539500	0.723400
H4201	H420	0.843800	0.534500	0.677600
H4211	H421	0.848000	0.507700	0.712100
C4481	C448	0.679000	0.521100	0.711500
H4221	H422	0.687600	0.507000	0.688400
H4231	H423	0.660500	0.536700	0.698700
H4241	H424	0.662400	0.510600	0.734400
C4491	C449	0.757300	0.589600	0.819100
H4251	H425	0.787400	0.596000	0.826100
H4261	H426	0.744300	0.579900	0.844900
H4271	H427	0.739700	0.607000	0.811000
C4501	C450	0.804500	0.523800	0.855800
C4511	C451	0.738000	0.477400	0.813500
C4521	C452	0.705700	0.438300	0.762000
C4531	C453	0.665000	0.428900	0.780200
C4541	C454	0.643800	0.406800	0.756900
H4281	H428	0.616400	0.399900	0.767800
C4551	C455	0.659800	0.394100	0.718700
C4561	C456	0.699900	0.404900	0.701100
H4291	H429	0.711700	0.396800	0.674800
C4571	C457	0.721600	0.427500	0.722900
C4581	C458	0.765100	0.438000	0.704100
C4591	C459	0.769200	0.451900	0.665100
C4601	C460	0.810400	0.460800	0.649000
H4301	H430	0.812200	0.472600	0.623100
C4611	C461	0.848200	0.452500	0.670500
C4621	C462	0.844800	0.436300	0.708400
H4311	H431	0.871000	0.430500	0.723100
C4631	C463	0.805900	0.428300	0.725900
C4641	C464	0.803900	0.408500	0.764300
H4321	H432	0.773100	0.405100	0.772400
H4331	H433	0.819400	0.417700	0.789000
H4341	H434	0.817800	0.389500	0.757000
C4651	C465	0.727600	0.460000	0.640200
H4351	H435	0.735500	0.469900	0.612600
H4361	H436	0.709700	0.473400	0.658100
H4371	H437	0.710900	0.441900	0.633700
C4661	C466	0.887300	0.461400	0.642600
H4381	H438	0.877100	0.473100	0.617400
H4391	H439	0.902300	0.443500	0.632000
H4401	H440	0.907700	0.473200	0.660300
C4671	C467	0.645300	0.440400	0.822900
C4681	C468	0.665800	0.432200	0.860400
C4691	C469	0.705500	0.411000	0.862400
H4411	H441	0.714600	0.408400	0.893100
H4421	H442	0.729900	0.419500	0.845500
H4431	H443	0.697300	0.391700	0.849900
C4701	C470	0.646900	0.441500	0.900100
H4441	H444	0.660800	0.436500	0.927100
C4711	C471	0.606600	0.458500	0.901100
C4721	C472	0.595200	0.467800	0.864700
H4451	H445	0.575900	0.484400	0.864500
C4731	C473	0.607900	0.456200	0.822800
C4741	C474	0.585500	0.465800	0.779400
H4461	H446	0.558800	0.477100	0.786100
H4471	H447	0.577900	0.448200	0.762200
H4481	H448	0.605700	0.478300	0.762500
C4751	C475	0.581700	0.466800	0.939700
H4491	H449	0.594900	0.457700	0.965800
H4501	H450	0.551300	0.459900	0.936500
H4511	H451	0.581900	0.488500	0.942900
C4761	C476	0.636700	0.370000	0.695200
C4771	C477	0.644400	0.361400	0.655100
H4521	H452	0.666500	0.372000	0.639400
C4781	C478	0.623800	0.338800	0.633100
C4791	C479	0.589600	0.323500	0.655000
C4801	C480	0.578400	0.331800	0.697800
C4811	C481	0.603500	0.354100	0.718800
H4531	H453	0.598200	0.358500	0.748900
C4821	C482	0.541900	0.318600	0.722100
C4831	C483	0.542100	0.289700	0.735500
C4841	C484	0.507200	0.280400	0.763300
H4541	H454	0.510800	0.262800	0.780300
C4851	C485	0.469100	0.295500	0.766500
C4861	C486	0.469300	0.323600	0.754000
H4551	H455	0.444500	0.335500	0.761100
C4871	C487	0.503400	0.336700	0.731000
C4881	C488	0.499900	0.367400	0.714600
H4561	H456	0.527000	0.372800	0.699200
H4571	H457	0.495200	0.380900	0.739400
H4581	H458	0.475000	0.368800	0.694200
C4891	C489	0.580300	0.268800	0.730100
H4591	H459	0.572600	0.249300	0.742200
H4601	H460	0.605900	0.276800	0.745700
H4611	H461	0.587300	0.266800	0.698700
C4901	C490	0.425800	0.281700	0.788700
H4621	H462	0.431100	0.260800	0.796000
H4631	H463	0.401200	0.283100	0.768000
H4641	H464	0.418700	0.292800	0.815500
C4911	C491	0.642900	0.328200	0.589800
C4921	C492	0.633300	0.341900	0.550000
C4931	C493	0.652900	0.331900	0.511400
H4651	H465	0.646300	0.341300	0.484200
C4941	C494	0.682100	0.308200	0.512700
C4951	C495	0.691700	0.294500	0.552500
H4661	H466	0.711700	0.278200	0.553400
C4961	C496	0.672100	0.304500	0.591000
C4971	C497	0.605200	0.368500	0.551500
H4671	H467	0.611900	0.381300	0.526300
H4681	H468	0.574300	0.362500	0.550300
H4691	H469	0.610700	0.379400	0.578900
C4981	C498	0.682600	0.287600	0.630900
H4701	H470	0.694200	0.302500	0.648400
H4711	H471	0.703800	0.271200	0.625300
H4721	H472	0.656300	0.278000	0.645400
C4991	C499	0.702900	0.299100	0.467600
H4731	H473	0.722900	0.282200	0.472100
H4741	H474	0.719300	0.315900	0.455500
H4751	H475	0.679600	0.293300	0.447100
C5001	C500	0.545000	0.279700	0.627400
Cu61	Cu6	0.751300	0.000120	0.366460
N211	N21	0.983600	0.203000	0.188400
N221	N22	0.831900	0.039700	0.344400
N231	N23	0.727100	0.961200	0.285400
N241	N24	0.568900	0.799300	0.135700
C5011	C501	0.992400	0.221000	0.165400
C5021	C502	0.963900	0.178900	0.213000
C5031	C503	0.921300	0.169700	0.199100
C5041	C504	0.902600	0.147000	0.220100
H4761	H476	0.874200	0.140600	0.211000
C5051	C505	0.922600	0.132400	0.254100
C5061	C506	0.965300	0.141100	0.266700
H4771	H477	0.980000	0.130100	0.289000
C5071	C507	0.985900	0.164500	0.248000
C5081	C508	0.028700	0.175800	0.265500
C5091	C509	0.026600	0.198100	0.299600
C5101	C510	0.068600	0.207200	0.319900
H4781	H478	0.068600	0.221300	0.343100
C5111	C511	0.106300	0.195800	0.306000
C5121	C512	0.108400	0.171500	0.275300
H4791	H479	0.135300	0.162400	0.267100
C5131	C513	0.065700	0.161900	0.257500
C5141	C514	0.070200	0.134500	0.228400
H4801	H480	0.101100	0.128200	0.227600
H4811	H481	0.060400	0.139300	0.198500
H4821	H482	0.052200	0.118400	0.240200
C5151	C515	0.983200	0.210700	0.314700
H4831	H483	0.988300	0.225400	0.337900
H4841	H484	0.964700	0.194700	0.326100
H4851	H485	0.968400	0.220300	0.289800
C5161	C516	0.151600	0.205900	0.324600
H4861	H486	0.175100	0.194800	0.310000
H4871	H487	0.152500	0.202100	0.356400
H4881	H488	0.155500	0.227200	0.319200
C5171	C517	0.899200	0.184500	0.160200
C5181	C518	0.889600	0.165900	0.122400
C5191	C519	0.865100	0.178100	0.088500
H4891	H489	0.855800	0.165600	0.065100
C5201	C520	0.853400	0.208900	0.087300
C5211	C521	0.859500	0.223600	0.124400
H4901	H490	0.848700	0.243300	0.126100
C5221	C522	0.881300	0.211800	0.161700
C5231	C523	0.887200	0.232000	0.202100
H4911	H491	0.871900	0.250900	0.197200
H4921	H492	0.918600	0.235800	0.206800
H4931	H493	0.874900	0.222200	0.228100
C5241	C524	0.835200	0.222100	0.047700
H4941	H494	0.833700	0.207000	0.024500
H4951	H495	0.854000	0.238500	0.038100
H4961	H496	0.805600	0.229600	0.053900
C5251	C525	0.905100	0.133900	0.119900
H4971	H497	0.921800	0.129000	0.146500
H4981	H498	0.923800	0.131300	0.094000
H4991	H499	0.879600	0.120700	0.117600
C5261	C526	0.900900	0.107000	0.277600
C5271	C527	0.862400	0.094300	0.260100
H5001	H500	0.851800	0.100800	0.232400
C5281	C528	0.840100	0.072700	0.283000
C5291	C529	0.856500	0.061600	0.322100
C5301	C530	0.895400	0.073100	0.340800
C5311	C531	0.915300	0.096000	0.318200
C5321	C532	0.912400	0.063200	0.384200
C5331	C533	0.891400	0.071100	0.421300
C5341	C534	0.906900	0.063900	0.463200
H5011	H501	0.890400	0.069300	0.488500
C5351	C535	0.943400	0.050000	0.467200
C5361	C536	0.966800	0.041900	0.429700
H5021	H502	0.993100	0.030800	0.433500
C5371	C537	0.953500	0.049400	0.385200
C5381	C538	0.980200	0.042600	0.347800
H5031	H503	0.007400	0.032900	0.357500
H5041	H504	0.987300	0.060900	0.332000
H5051	H505	0.964100	0.029100	0.328200
C5391	C539	0.847500	0.089800	0.419100
H5061	H506	0.836800	0.093500	0.449000
H5071	H507	0.825300	0.078600	0.402600
H5081	H508	0.853200	0.108800	0.404300
C5401	C540	0.960400	0.040000	0.514100
H5091	H509	0.988600	0.029700	0.511000
H5101	H510	0.938900	0.026500	0.527500
H5111	H511	0.964100	0.057500	0.532900
C5411	C541	0.800000	0.038900	0.230700
C5421	C542	0.761200	0.026700	0.214600
H5121	H512	0.762200	0.012400	0.191600
C5431	C543	0.721100	0.035300	0.232200
C5441	C544	0.719600	0.056200	0.265800
H5131	H513	0.692200	0.062200	0.277900
C5451	C545	0.758400	0.068500	0.281900
C5461	C546	0.798500	0.059800	0.264400
C5471	C547	0.844200	0.029300	0.208900
H5141	H514	0.868700	0.039500	0.223400
H5151	H515	0.843800	0.034500	0.177600
H5161	H516	0.848000	0.007700	0.212100
C5481	C548	0.679000	0.021100	0.211500
H5171	H517	0.687600	0.007000	0.188400
H5181	H518	0.660500	0.036700	0.198700
H5191	H519	0.662400	0.010600	0.234400
C5491	C549	0.757300	0.089600	0.319100
H5201	H520	0.787400	0.096000	0.326100
H5211	H521	0.744300	0.079900	0.344900
H5221	H522	0.739700	0.107000	0.311000
C5501	C550	0.804500	0.023800	0.355800
C5511	C551	0.738000	0.977400	0.313500
C5521	C552	0.705700	0.938300	0.262000
C5531	C553	0.665000	0.928900	0.280200
C5541	C554	0.643800	0.906800	0.256900
H5231	H523	0.616400	0.899900	0.267800
C5551	C555	0.659800	0.894100	0.218700
C5561	C556	0.699900	0.904900	0.201100
H5241	H524	0.711700	0.896800	0.174800
C5571	C557	0.721600	0.927500	0.222900
C5581	C558	0.765100	0.938000	0.204100
C5591	C559	0.769200	0.951900	0.165100
C5601	C560	0.810400	0.960800	0.149000
H5251	H525	0.812200	0.972600	0.123100
C5611	C561	0.848200	0.952500	0.170500
C5621	C562	0.844800	0.936300	0.208400
H5261	H526	0.871000	0.930500	0.223100
C5631	C563	0.805900	0.928300	0.225900
C5641	C564	0.803900	0.908500	0.264300
H5271	H527	0.773100	0.905100	0.272400
H5281	H528	0.819400	0.917700	0.289000
H5291	H529	0.817800	0.889500	0.257000
C5651	C565	0.727600	0.960000	0.140200
H5301	H530	0.735500	0.969900	0.112600
H5311	H531	0.709700	0.973400	0.158100
H5321	H532	0.710900	0.941900	0.133700
C5661	C566	0.887300	0.961400	0.142600
H5331	H533	0.877100	0.973100	0.117400
H5341	H534	0.902300	0.943500	0.132000
H5351	H535	0.907700	0.973200	0.160300
C5671	C567	0.645300	0.940400	0.322900
C5681	C568	0.665800	0.932200	0.360400
C5691	C569	0.705500	0.911000	0.362400
H5361	H536	0.714600	0.908400	0.393100
H5371	H537	0.729900	0.919500	0.345500
H5381	H538	0.697300	0.891700	0.349900
C5701	C570	0.646900	0.941500	0.400100
H5391	H539	0.660800	0.936500	0.427100
C5711	C571	0.606600	0.958500	0.401100
C5721	C572	0.595200	0.967800	0.364700
H5401	H540	0.575900	0.984400	0.364500
C5731	C573	0.607900	0.956200	0.322800
C5741	C574	0.585500	0.965800	0.279400
H5411	H541	0.558800	0.977100	0.286100
H5421	H542	0.577900	0.948200	0.262200
H5431	H543	0.605700	0.978300	0.262500
C5751	C575	0.581700	0.966800	0.439700
H5441	H544	0.594900	0.957700	0.465800
H5451	H545	0.551300	0.959900	0.436500
H5461	H546	0.581900	0.988500	0.442900
C5761	C576	0.636700	0.870000	0.195200
C5771	C577	0.644400	0.861400	0.155100
H5471	H547	0.666500	0.872000	0.139400
C5781	C578	0.623800	0.838800	0.133100
C5791	C579	0.589600	0.823500	0.155000
C5801	C580	0.578400	0.831800	0.197800
C5811	C581	0.603500	0.854100	0.218800
H5481	H548	0.598200	0.858500	0.248900
C5821	C582	0.541900	0.818600	0.222100
C5831	C583	0.542100	0.789700	0.235500
C5841	C584	0.507200	0.780400	0.263300
H5491	H549	0.510800	0.762800	0.280300
C5851	C585	0.469100	0.795500	0.266500
C5861	C586	0.469300	0.823600	0.254000
H5501	H550	0.444500	0.835500	0.261100
C5871	C587	0.503400	0.836700	0.231000
C5881	C588	0.499900	0.867400	0.214600
H5511	H551	0.527000	0.872800	0.199200
H5521	H552	0.495200	0.880900	0.239400
H5531	H553	0.475000	0.868800	0.194200
C5891	C589	0.580300	0.768800	0.230100
H5541	H554	0.572600	0.749300	0.242200
H5551	H555	0.605900	0.776800	0.245700
H5561	H556	0.587300	0.766800	0.198700
C5901	C590	0.425800	0.781700	0.288700
H5571	H557	0.431100	0.760800	0.296000
H5581	H558	0.401200	0.783100	0.268000
H5591	H559	0.418700	0.792800	0.315500
C5911	C591	0.642900	0.828200	0.089800
C5921	C592	0.633300	0.841900	0.050000
C5931	C593	0.652900	0.831900	0.011400
H5601	H560	0.646300	0.841300	0.984200
C5941	C594	0.682100	0.808200	0.012700
C5951	C595	0.691700	0.794500	0.052500
H5611	H561	0.711700	0.778200	0.053400
C5961	C596	0.672100	0.804500	0.091000
C5971	C597	0.605200	0.868500	0.051500
H5621	H562	0.611900	0.881300	0.026300
H5631	H563	0.574300	0.862500	0.050300
H5641	H564	0.610700	0.879400	0.078900
C5981	C598	0.682600	0.787600	0.130900
H5651	H565	0.694200	0.802500	0.148400
H5661	H566	0.703800	0.771200	0.125300
H5671	H567	0.656300	0.778000	0.145400
C5991	C599	0.702900	0.799100	0.967600
H5681	H568	0.722900	0.782200	0.972100
H5691	H569	0.719300	0.815900	0.955500
H5701	H570	0.679600	0.793300	0.947100
C6001	C600	0.545000	0.779700	0.127400
Cu71	Cu7	0.251300	0.500120	0.366460
N251	N25	0.483600	0.703000	0.188400
N261	N26	0.331900	0.539700	0.344400
N271	N27	0.227100	0.461200	0.285400
N281	N28	0.068900	0.299300	0.135700
C6011	C601	0.492400	0.721000	0.165400
C6021	C602	0.463900	0.678900	0.213000
C6031	C603	0.421300	0.669700	0.199100
C6041	C604	0.402600	0.647000	0.220100
H5711	H571	0.374200	0.640600	0.211000
C6051	C605	0.422600	0.632400	0.254100
C6061	C606	0.465300	0.641100	0.266700
H5721	H572	0.480000	0.630100	0.289000
C6071	C607	0.485900	0.664500	0.248000
C6081	C608	0.528700	0.675800	0.265500
C6091	C609	0.526600	0.698100	0.299600
C6101	C610	0.568600	0.707200	0.319900
H5731	H573	0.568600	0.721300	0.343100
C6111	C611	0.606300	0.695800	0.306000
C6121	C612	0.608400	0.671500	0.275300
H5741	H574	0.635300	0.662400	0.267100
C6131	C613	0.565700	0.661900	0.257500
C6141	C614	0.570200	0.634500	0.228400
H5751	H575	0.601100	0.628200	0.227600
H5761	H576	0.560400	0.639300	0.198500
H5771	H577	0.552200	0.618400	0.240200
C6151	C615	0.483200	0.710700	0.314700
H5781	H578	0.488300	0.725400	0.337900
H5791	H579	0.464700	0.694700	0.326100
H5801	H580	0.468400	0.720300	0.289800
C6161	C616	0.651600	0.705900	0.324600
H5811	H581	0.675100	0.694800	0.310000
H5821	H582	0.652500	0.702100	0.356400
H5831	H583	0.655500	0.727200	0.319200
C6171	C617	0.399200	0.684500	0.160200
C6181	C618	0.389600	0.665900	0.122400
C6191	C619	0.365100	0.678100	0.088500
H5841	H584	0.355800	0.665600	0.065100
C6201	C620	0.353400	0.708900	0.087300
C6211	C621	0.359500	0.723600	0.124400
H5851	H585	0.348700	0.743300	0.126100
C6221	C622	0.381300	0.711800	0.161700
C6231	C623	0.387200	0.732000	0.202100
H5861	H586	0.371900	0.750900	0.197200
H5871	H587	0.418600	0.735800	0.206800
H5881	H588	0.374900	0.722200	0.228100
C6241	C624	0.335200	0.722100	0.047700
H5891	H589	0.333700	0.707000	0.024500
H5901	H590	0.354000	0.738500	0.038100
H5911	H591	0.305600	0.729600	0.053900
C6251	C625	0.405100	0.633900	0.119900
H5921	H592	0.421800	0.629000	0.146500
H5931	H593	0.423800	0.631300	0.094000
H5941	H594	0.379600	0.620700	0.117600
C6261	C626	0.400900	0.607000	0.277600
C6271	C627	0.362400	0.594300	0.260100
H5951	H595	0.351800	0.600800	0.232400
C6281	C628	0.340100	0.572700	0.283000
C6291	C629	0.356500	0.561600	0.322100
C6301	C630	0.395400	0.573100	0.340800
C6311	C631	0.415300	0.596000	0.318200
C6321	C632	0.412400	0.563200	0.384200
C6331	C633	0.391400	0.571100	0.421300
C6341	C634	0.406900	0.563900	0.463200
H5961	H596	0.390400	0.569300	0.488500
C6351	C635	0.443400	0.550000	0.467200
C6361	C636	0.466800	0.541900	0.429700
H5971	H597	0.493100	0.530800	0.433500
C6371	C637	0.453500	0.549400	0.385200
C6381	C638	0.480200	0.542600	0.347800
H5981	H598	0.507400	0.532900	0.357500
H5991	H599	0.487300	0.560900	0.332000
H6001	H600	0.464100	0.529100	0.328200
C6391	C639	0.347500	0.589800	0.419100
H6011	H601	0.336800	0.593500	0.449000
H6021	H602	0.325300	0.578600	0.402600
H6031	H603	0.353200	0.608800	0.404300
C6401	C640	0.460400	0.540000	0.514100
H6041	H604	0.488600	0.529700	0.511000
H6051	H605	0.438900	0.526500	0.527500
H6061	H606	0.464100	0.557500	0.532900
C6411	C641	0.300000	0.538900	0.230700
C6421	C642	0.261200	0.526700	0.214600
H6071	H607	0.262200	0.512400	0.191600
C6431	C643	0.221100	0.535300	0.232200
C6441	C644	0.219600	0.556200	0.265800
H6081	H608	0.192200	0.562200	0.277900
C6451	C645	0.258400	0.568500	0.281900
C6461	C646	0.298500	0.559800	0.264400
C6471	C647	0.344200	0.529300	0.208900
H6091	H609	0.368700	0.539500	0.223400
H6101	H610	0.343800	0.534500	0.177600
H6111	H611	0.348000	0.507700	0.212100
C6481	C648	0.179000	0.521100	0.211500
H6121	H612	0.187600	0.507000	0.188400
H6131	H613	0.160500	0.536700	0.198700
H6141	H614	0.162400	0.510600	0.234400
C6491	C649	0.257300	0.589600	0.319100
H6151	H615	0.287400	0.596000	0.326100
H6161	H616	0.244300	0.579900	0.344900
H6171	H617	0.239700	0.607000	0.311000
C6501	C650	0.304500	0.523800	0.355800
C6511	C651	0.238000	0.477400	0.313500
C6521	C652	0.205700	0.438300	0.262000
C6531	C653	0.165000	0.428900	0.280200
C6541	C654	0.143800	0.406800	0.256900
H6181	H618	0.116400	0.399900	0.267800
C6551	C655	0.159800	0.394100	0.218700
C6561	C656	0.199900	0.404900	0.201100
H6191	H619	0.211700	0.396800	0.174800
C6571	C657	0.221600	0.427500	0.222900
C6581	C658	0.265100	0.438000	0.204100
C6591	C659	0.269200	0.451900	0.165100
C6601	C660	0.310400	0.460800	0.149000
H6201	H620	0.312200	0.472600	0.123100
C6611	C661	0.348200	0.452500	0.170500
C6621	C662	0.344800	0.436300	0.208400
H6211	H621	0.371000	0.430500	0.223100
C6631	C663	0.305900	0.428300	0.225900
C6641	C664	0.303900	0.408500	0.264300
H6221	H622	0.273100	0.405100	0.272400
H6231	H623	0.319400	0.417700	0.289000
H6241	H624	0.317800	0.389500	0.257000
C6651	C665	0.227600	0.460000	0.140200
H6251	H625	0.235500	0.469900	0.112600
H6261	H626	0.209700	0.473400	0.158100
H6271	H627	0.210900	0.441900	0.133700
C6661	C666	0.387300	0.461400	0.142600
H6281	H628	0.377100	0.473100	0.117400
H6291	H629	0.402300	0.443500	0.132000
H6301	H630	0.407700	0.473200	0.160300
C6671	C667	0.145300	0.440400	0.322900
C6681	C668	0.165800	0.432200	0.360400
C6691	C669	0.205500	0.411000	0.362400
H6311	H631	0.214600	0.408400	0.393100
H6321	H632	0.229900	0.419500	0.345500
H6331	H633	0.197300	0.391700	0.349900
C6701	C670	0.146900	0.441500	0.400100
H6341	H634	0.160800	0.436500	0.427100
C6711	C671	0.106600	0.458500	0.401100
C6721	C672	0.095200	0.467800	0.364700
H6351	H635	0.075900	0.484400	0.364500
C6731	C673	0.107900	0.456200	0.322800
C6741	C674	0.085500	0.465800	0.279400
H6361	H636	0.058800	0.477100	0.286100
H6371	H637	0.077900	0.448200	0.262200
H6381	H638	0.105700	0.478300	0.262500
C6751	C675	0.081700	0.466800	0.439700
H6391	H639	0.094900	0.457700	0.465800
H6401	H640	0.051300	0.459900	0.436500
H6411	H641	0.081900	0.488500	0.442900
C6761	C676	0.136700	0.370000	0.195200
C6771	C677	0.144400	0.361400	0.155100
H6421	H642	0.166500	0.372000	0.139400
C6781	C678	0.123800	0.338800	0.133100
C6791	C679	0.089600	0.323500	0.155000
C6801	C680	0.078400	0.331800	0.197800
C6811	C681	0.103500	0.354100	0.218800
H6431	H643	0.098200	0.358500	0.248900
C6821	C682	0.041900	0.318600	0.222100
C6831	C683	0.042100	0.289700	0.235500
C6841	C684	0.007200	0.280400	0.263300
H6441	H644	0.010800	0.262800	0.280300
C6851	C685	0.969100	0.295500	0.266500
C6861	C686	0.969300	0.323600	0.254000
H6451	H645	0.944500	0.335500	0.261100
C6871	C687	0.003400	0.336700	0.231000
C6881	C688	0.999900	0.367400	0.214600
H6461	H646	0.027000	0.372800	0.199200
H6471	H647	0.995200	0.380900	0.239400
H6481	H648	0.975000	0.368800	0.194200
C6891	C689	0.080300	0.268800	0.230100
H6491	H649	0.072600	0.249300	0.242200
H6501	H650	0.105900	0.276800	0.245700
H6511	H651	0.087300	0.266800	0.198700
C6901	C690	0.925800	0.281700	0.288700
H6521	H652	0.931100	0.260800	0.296000
H6531	H653	0.901200	0.283100	0.268000
H6541	H654	0.918700	0.292800	0.315500
C6911	C691	0.142900	0.328200	0.089800
C6921	C692	0.133300	0.341900	0.050000
C6931	C693	0.152900	0.331900	0.011400
H6551	H655	0.146300	0.341300	0.984200
C6941	C694	0.182100	0.308200	0.012700
C6951	C695	0.191700	0.294500	0.052500
H6561	H656	0.211700	0.278200	0.053400
C6961	C696	0.172100	0.304500	0.091000
C6971	C697	0.105200	0.368500	0.051500
H6571	H657	0.111900	0.381300	0.026300
H6581	H658	0.074300	0.362500	0.050300
H6591	H659	0.110700	0.379400	0.078900
C6981	C698	0.182600	0.287600	0.130900
H6601	H660	0.194200	0.302500	0.148400
H6611	H661	0.203800	0.271200	0.125300
H6621	H662	0.156300	0.278000	0.145400
C6991	C699	0.202900	0.299100	0.967600
H6631	H663	0.222900	0.282200	0.972100
H6641	H664	0.219300	0.315900	0.955500
H6651	H665	0.179600	0.293300	0.947100
C7001	C700	0.045000	0.279700	0.127400
Cu81	Cu8	0.251300	0.000120	0.866460
N291	N29	0.483600	0.203000	0.688400
N301	N30	0.331900	0.039700	0.844400
N311	N31	0.227100	0.961200	0.785400
N321	N32	0.068900	0.799300	0.635700
C7011	C701	0.492400	0.221000	0.665400
C7021	C702	0.463900	0.178900	0.713000
C7031	C703	0.421300	0.169700	0.699100
C7041	C704	0.402600	0.147000	0.720100
H6661	H666	0.374200	0.140600	0.711000
C7051	C705	0.422600	0.132400	0.754100
C7061	C706	0.465300	0.141100	0.766700
H6671	H667	0.480000	0.130100	0.789000
C7071	C707	0.485900	0.164500	0.748000
C7081	C708	0.528700	0.175800	0.765500
C7091	C709	0.526600	0.198100	0.799600
C7101	C710	0.568600	0.207200	0.819900
H6681	H668	0.568600	0.221300	0.843100
C7111	C711	0.606300	0.195800	0.806000
C7121	C712	0.608400	0.171500	0.775300
H6691	H669	0.635300	0.162400	0.767100
C7131	C713	0.565700	0.161900	0.757500
C7141	C714	0.570200	0.134500	0.728400
H6701	H670	0.601100	0.128200	0.727600
H6711	H671	0.560400	0.139300	0.698500
H6721	H672	0.552200	0.118400	0.740200
C7151	C715	0.483200	0.210700	0.814700
H6731	H673	0.488300	0.225400	0.837900
H6741	H674	0.464700	0.194700	0.826100
H6751	H675	0.468400	0.220300	0.789800
C7161	C716	0.651600	0.205900	0.824600
H6761	H676	0.675100	0.194800	0.810000
H6771	H677	0.652500	0.202100	0.856400
H6781	H678	0.655500	0.227200	0.819200
C7171	C717	0.399200	0.184500	0.660200
C7181	C718	0.389600	0.165900	0.622400
C7191	C719	0.365100	0.178100	0.588500
H6791	H679	0.355800	0.165600	0.565100
C7201	C720	0.353400	0.208900	0.587300
C7211	C721	0.359500	0.223600	0.624400
H6801	H680	0.348700	0.243300	0.626100
C7221	C722	0.381300	0.211800	0.661700
C7231	C723	0.387200	0.232000	0.702100
H6811	H681	0.371900	0.250900	0.697200
H6821	H682	0.418600	0.235800	0.706800
H6831	H683	0.374900	0.222200	0.728100
C7241	C724	0.335200	0.222100	0.547700
H6841	H684	0.333700	0.207000	0.524500
H6851	H685	0.354000	0.238500	0.538100
H6861	H686	0.305600	0.229600	0.553900
C7251	C725	0.405100	0.133900	0.619900
H6871	H687	0.421800	0.129000	0.646500
H6881	H688	0.423800	0.131300	0.594000
H6891	H689	0.379600	0.120700	0.617600
C7261	C726	0.400900	0.107000	0.777600
C7271	C727	0.362400	0.094300	0.760100
H6901	H690	0.351800	0.100800	0.732400
C7281	C728	0.340100	0.072700	0.783000
C7291	C729	0.356500	0.061600	0.822100
C7301	C730	0.395400	0.073100	0.840800
C7311	C731	0.415300	0.096000	0.818200
C7321	C732	0.412400	0.063200	0.884200
C7331	C733	0.391400	0.071100	0.921300
C7341	C734	0.406900	0.063900	0.963200
H6911	H691	0.390400	0.069300	0.988500
C7351	C735	0.443400	0.050000	0.967200
C7361	C736	0.466800	0.041900	0.929700
H6921	H692	0.493100	0.030800	0.933500
C7371	C737	0.453500	0.049400	0.885200
C7381	C738	0.480200	0.042600	0.847800
H6931	H693	0.507400	0.032900	0.857500
H6941	H694	0.487300	0.060900	0.832000
H6951	H695	0.464100	0.029100	0.828200
C7391	C739	0.347500	0.089800	0.919100
H6961	H696	0.336800	0.093500	0.949000
H6971	H697	0.325300	0.078600	0.902600
H6981	H698	0.353200	0.108800	0.904300
C7401	C740	0.460400	0.040000	0.014100
H6991	H699	0.488600	0.029700	0.011000
H7001	H700	0.438900	0.026500	0.027500
H7011	H701	0.464100	0.057500	0.032900
C7411	C741	0.300000	0.038900	0.730700
C7421	C742	0.261200	0.026700	0.714600
H7021	H702	0.262200	0.012400	0.691600
C7431	C743	0.221100	0.035300	0.732200
C7441	C744	0.219600	0.056200	0.765800
H7031	H703	0.192200	0.062200	0.777900
C7451	C745	0.258400	0.068500	0.781900
C7461	C746	0.298500	0.059800	0.764400
C7471	C747	0.344200	0.029300	0.708900
H7041	H704	0.368700	0.039500	0.723400
H7051	H705	0.343800	0.034500	0.677600
H7061	H706	0.348000	0.007700	0.712100
C7481	C748	0.179000	0.021100	0.711500
H7071	H707	0.187600	0.007000	0.688400
H7081	H708	0.160500	0.036700	0.698700
H7091	H709	0.162400	0.010600	0.734400
C7491	C749	0.257300	0.089600	0.819100
H7101	H710	0.287400	0.096000	0.826100
H7111	H711	0.244300	0.079900	0.844900
H7121	H712	0.239700	0.107000	0.811000
C7501	C750	0.304500	0.023800	0.855800
C7511	C751	0.238000	0.977400	0.813500
C7521	C752	0.205700	0.938300	0.762000
C7531	C753	0.165000	0.928900	0.780200
C7541	C754	0.143800	0.906800	0.756900
H7131	H713	0.116400	0.899900	0.767800
C7551	C755	0.159800	0.894100	0.718700
C7561	C756	0.199900	0.904900	0.701100
H7141	H714	0.211700	0.896800	0.674800
C7571	C757	0.221600	0.927500	0.722900
C7581	C758	0.265100	0.938000	0.704100
C7591	C759	0.269200	0.951900	0.665100
C7601	C760	0.310400	0.960800	0.649000
H7151	H715	0.312200	0.972600	0.623100
C7611	C761	0.348200	0.952500	0.670500
C7621	C762	0.344800	0.936300	0.708400
H7161	H716	0.371000	0.930500	0.723100
C7631	C763	0.305900	0.928300	0.725900
C7641	C764	0.303900	0.908500	0.764300
H7171	H717	0.273100	0.905100	0.772400
H7181	H718	0.319400	0.917700	0.789000
H7191	H719	0.317800	0.889500	0.757000
C7651	C765	0.227600	0.960000	0.640200
H7201	H720	0.235500	0.969900	0.612600
H7211	H721	0.209700	0.973400	0.658100
H7221	H722	0.210900	0.941900	0.633700
C7661	C766	0.387300	0.961400	0.642600
H7231	H723	0.377100	0.973100	0.617400
H7241	H724	0.402300	0.943500	0.632000
H7251	H725	0.407700	0.973200	0.660300
C7671	C767	0.145300	0.940400	0.822900
C7681	C768	0.165800	0.932200	0.860400
C7691	C769	0.205500	0.911000	0.862400
H7261	H726	0.214600	0.908400	0.893100
H7271	H727	0.229900	0.919500	0.845500
H7281	H728	0.197300	0.891700	0.849900
C7701	C770	0.146900	0.941500	0.900100
H7291	H729	0.160800	0.936500	0.927100
C7711	C771	0.106600	0.958500	0.901100
C7721	C772	0.095200	0.967800	0.864700
H7301	H730	0.075900	0.984400	0.864500
C7731	C773	0.107900	0.956200	0.822800
C7741	C774	0.085500	0.965800	0.779400
H7311	H731	0.058800	0.977100	0.786100
H7321	H732	0.077900	0.948200	0.762200
H7331	H733	0.105700	0.978300	0.762500
C7751	C775	0.081700	0.966800	0.939700
H7341	H734	0.094900	0.957700	0.965800
H7351	H735	0.051300	0.959900	0.936500
H7361	H736	0.081900	0.988500	0.942900
C7761	C776	0.136700	0.870000	0.695200
C7771	C777	0.144400	0.861400	0.655100
H7371	H737	0.166500	0.872000	0.639400
C7781	C778	0.123800	0.838800	0.633100
C7791	C779	0.089600	0.823500	0.655000
C7801	C780	0.078400	0.831800	0.697800
C7811	C781	0.103500	0.854100	0.718800
H7381	H738	0.098200	0.858500	0.748900
C7821	C782	0.041900	0.818600	0.722100
C7831	C783	0.042100	0.789700	0.735500
C7841	C784	0.007200	0.780400	0.763300
H7391	H739	0.010800	0.762800	0.780300
C7851	C785	0.969100	0.795500	0.766500
C7861	C786	0.969300	0.823600	0.754000
H7401	H740	0.944500	0.835500	0.761100
C7871	C787	0.003400	0.836700	0.731000
C7881	C788	0.999900	0.867400	0.714600
H7411	H741	0.027000	0.872800	0.699200
H7421	H742	0.995200	0.880900	0.739400
H7431	H743	0.975000	0.868800	0.694200
C7891	C789	0.080300	0.768800	0.730100
H7441	H744	0.072600	0.749300	0.742200
H7451	H745	0.105900	0.776800	0.745700
H7461	H746	0.087300	0.766800	0.698700
C7901	C790	0.925800	0.781700	0.788700
H7471	H747	0.931100	0.760800	0.796000
H7481	H748	0.901200	0.783100	0.768000
H7491	H749	0.918700	0.792800	0.815500
C7911	C791	0.142900	0.828200	0.589800
C7921	C792	0.133300	0.841900	0.550000
C7931	C793	0.152900	0.831900	0.511400
H7501	H750	0.146300	0.841300	0.484200
C7941	C794	0.182100	0.808200	0.512700
C7951	C795	0.191700	0.794500	0.552500
H7511	H751	0.211700	0.778200	0.553400
C7961	C796	0.172100	0.804500	0.591000
C7971	C797	0.105200	0.868500	0.551500
H7521	H752	0.111900	0.881300	0.526300
H7531	H753	0.074300	0.862500	0.550300
H7541	H754	0.110700	0.879400	0.578900
C7981	C798	0.182600	0.787600	0.630900
H7551	H755	0.194200	0.802500	0.648400
H7561	H756	0.203800	0.771200	0.625300
H7571	H757	0.156300	0.778000	0.645400
C7991	C799	0.202900	0.799100	0.467600
H7581	H758	0.222900	0.782200	0.472100
H7591	H759	0.219300	0.815900	0.455500
H7601	H760	0.179600	0.793300	0.447100
C8001	C800	0.045000	0.779700	0.627400
Cu91	Cu9	0.501300	0.749880	0.616460
N331	N33	0.733600	0.547000	0.438400
N341	N34	0.581900	0.710300	0.594400
N351	N35	0.477100	0.788800	0.535400
N361	N36	0.318900	0.950700	0.385700
C8011	C801	0.742400	0.529000	0.415400
C8021	C802	0.713900	0.571100	0.463000
C8031	C803	0.671300	0.580300	0.449100
C8041	C804	0.652600	0.603000	0.470100
H7611	H761	0.624200	0.609400	0.461000
C8051	C805	0.672600	0.617600	0.504100
C8061	C806	0.715300	0.608900	0.516700
H7621	H762	0.730000	0.619900	0.539000
C8071	C807	0.735900	0.585500	0.498000
C8081	C808	0.778700	0.574200	0.515500
C8091	C809	0.776600	0.551900	0.549600
C8101	C810	0.818600	0.542800	0.569900
H7631	H763	0.818600	0.528700	0.593100
C8111	C811	0.856300	0.554200	0.556000
C8121	C812	0.858400	0.578500	0.525300
H7641	H764	0.885300	0.587600	0.517100
C8131	C813	0.815700	0.588100	0.507500
C8141	C814	0.820200	0.615500	0.478400
H7651	H765	0.851100	0.621800	0.477600
H7661	H766	0.810400	0.610700	0.448500
H7671	H767	0.802200	0.631600	0.490200
C8151	C815	0.733200	0.539300	0.564700
H7681	H768	0.738300	0.524600	0.587900
H7691	H769	0.714700	0.555300	0.576100
H7701	H770	0.718400	0.529700	0.539800
C8161	C816	0.901600	0.544100	0.574600
H7711	H771	0.925100	0.555200	0.560000
H7721	H772	0.902500	0.547900	0.606400
H7731	H773	0.905500	0.522800	0.569200
C8171	C817	0.649200	0.565500	0.410200
C8181	C818	0.639600	0.584100	0.372400
C8191	C819	0.615100	0.571900	0.338500
H7741	H774	0.605800	0.584400	0.315100
C8201	C820	0.603400	0.541100	0.337300
C8211	C821	0.609500	0.526400	0.374400
H7751	H775	0.598700	0.506700	0.376100
C8221	C822	0.631300	0.538200	0.411700
C8231	C823	0.637200	0.518000	0.452100
H7761	H776	0.621900	0.499100	0.447200
H7771	H777	0.668600	0.514200	0.456800
H7781	H778	0.624900	0.527800	0.478100
C8241	C824	0.585200	0.527900	0.297700
H7791	H779	0.583700	0.543000	0.274500
H7801	H780	0.604000	0.511500	0.288100
H7811	H781	0.555600	0.520400	0.303900
C8251	C825	0.655100	0.616100	0.369900
H7821	H782	0.671800	0.621000	0.396500
H7831	H783	0.673800	0.618700	0.344000
H7841	H784	0.629600	0.629300	0.367600
C8261	C826	0.650900	0.643000	0.527600
C8271	C827	0.612400	0.655700	0.510100
H7851	H785	0.601800	0.649200	0.482400
C8281	C828	0.590100	0.677300	0.533000
C8291	C829	0.606500	0.688400	0.572100
C8301	C830	0.645400	0.676900	0.590800
C8311	C831	0.665300	0.654000	0.568200
C8321	C832	0.662400	0.686800	0.634200
C8331	C833	0.641400	0.678900	0.671300
C8341	C834	0.656900	0.686100	0.713200
H7861	H786	0.640400	0.680700	0.738500
C8351	C835	0.693400	0.700000	0.717200
C8361	C836	0.716800	0.708100	0.679700
H7871	H787	0.743100	0.719200	0.683500
C8371	C837	0.703500	0.700600	0.635200
C8381	C838	0.730200	0.707400	0.597800
H7881	H788	0.757400	0.717100	0.607500
H7891	H789	0.737300	0.689100	0.582000
H7901	H790	0.714100	0.720900	0.578200
C8391	C839	0.597500	0.660200	0.669100
H7911	H791	0.586800	0.656500	0.699000
H7921	H792	0.575300	0.671400	0.652600
H7931	H793	0.603200	0.641200	0.654300
C8401	C840	0.710400	0.710000	0.764100
H7941	H794	0.738600	0.720300	0.761000
H7951	H795	0.688900	0.723500	0.777500
H7961	H796	0.714100	0.692500	0.782900
C8411	C841	0.550000	0.711100	0.480700
C8421	C842	0.511200	0.723300	0.464600
H7971	H797	0.512200	0.737600	0.441600
C8431	C843	0.471100	0.714700	0.482200
C8441	C844	0.469600	0.693800	0.515800
H7981	H798	0.442200	0.687800	0.527900
C8451	C845	0.508400	0.681500	0.531900
C8461	C846	0.548500	0.690200	0.514400
C8471	C847	0.594200	0.720700	0.458900
H7991	H799	0.618700	0.710500	0.473400
H8001	H800	0.593800	0.715500	0.427600
H8011	H801	0.598000	0.742300	0.462100
C8481	C848	0.429000	0.728900	0.461500
H8021	H802	0.437600	0.743000	0.438400
H8031	H803	0.410500	0.713300	0.448700
H8041	H804	0.412400	0.739400	0.484400
C8491	C849	0.507300	0.660400	0.569100
H8051	H805	0.537400	0.654000	0.576100
H8061	H806	0.494300	0.670100	0.594900
H8071	H807	0.489700	0.643000	0.561000
C8501	C850	0.554500	0.726200	0.605800
C8511	C851	0.488000	0.772600	0.563500
C8521	C852	0.455700	0.811700	0.512000
C8531	C853	0.415000	0.821100	0.530200
C8541	C854	0.393800	0.843200	0.506900
H8081	H808	0.366400	0.850100	0.517800
C8551	C855	0.409800	0.855900	0.468700
C8561	C856	0.449900	0.845100	0.451100
H8091	H809	0.461700	0.853200	0.424800
C8571	C857	0.471600	0.822500	0.472900
C8581	C858	0.515100	0.812000	0.454100
C8591	C859	0.519200	0.798100	0.415100
C8601	C860	0.560400	0.789200	0.399000
H8101	H810	0.562200	0.777400	0.373100
C8611	C861	0.598200	0.797500	0.420500
C8621	C862	0.594800	0.813700	0.458400
H8111	H811	0.621000	0.819500	0.473100
C8631	C863	0.555900	0.821700	0.475900
C8641	C864	0.553900	0.841500	0.514300
H8121	H812	0.523100	0.844900	0.522400
H8131	H813	0.569400	0.832300	0.539000
H8141	H814	0.567800	0.860500	0.507000
C8651	C865	0.477600	0.790000	0.390200
H8151	H815	0.485500	0.780100	0.362600
H8161	H816	0.459700	0.776600	0.408100
H8171	H817	0.460900	0.808100	0.383700
C8661	C866	0.637300	0.788600	0.392600
H8181	H818	0.627100	0.776900	0.367400
H8191	H819	0.652300	0.806500	0.382000
H8201	H820	0.657700	0.776800	0.410300
C8671	C867	0.395300	0.809600	0.572900
C8681	C868	0.415800	0.817800	0.610400
C8691	C869	0.455500	0.839000	0.612400
H8211	H821	0.464600	0.841600	0.643100
H8221	H822	0.479900	0.830500	0.595500
H8231	H823	0.447300	0.858300	0.599900
C8701	C870	0.396900	0.808500	0.650100
H8241	H824	0.410800	0.813500	0.677100
C8711	C871	0.356600	0.791500	0.651100
C8721	C872	0.345200	0.782200	0.614700
H8251	H825	0.325900	0.765600	0.614500
C8731	C873	0.357900	0.793800	0.572800
C8741	C874	0.335500	0.784200	0.529400
H8261	H826	0.308800	0.772900	0.536100
H8271	H827	0.327900	0.801800	0.512200
H8281	H828	0.355700	0.771700	0.512500
C8751	C875	0.331700	0.783200	0.689700
H8291	H829	0.344900	0.792300	0.715800
H8301	H830	0.301300	0.790100	0.686500
H8311	H831	0.331900	0.761500	0.692900
C8761	C876	0.386700	0.880000	0.445200
C8771	C877	0.394400	0.888600	0.405100
H8321	H832	0.416500	0.878000	0.389400
C8781	C878	0.373800	0.911200	0.383100
C8791	C879	0.339600	0.926500	0.405000
C8801	C880	0.328400	0.918200	0.447800
C8811	C881	0.353500	0.895900	0.468800
H8331	H833	0.348200	0.891500	0.498900
C8821	C882	0.291900	0.931400	0.472100
C8831	C883	0.292100	0.960300	0.485500
C8841	C884	0.257200	0.969600	0.513300
H8341	H834	0.260800	0.987200	0.530300
C8851	C885	0.219100	0.954500	0.516500
C8861	C886	0.219300	0.926400	0.504000
H8351	H835	0.194500	0.914500	0.511100
C8871	C887	0.253400	0.913300	0.481000
C8881	C888	0.249900	0.882600	0.464600
H8361	H836	0.277000	0.877200	0.449200
H8371	H837	0.245200	0.869100	0.489400
H8381	H838	0.225000	0.881200	0.444200
C8891	C889	0.330300	0.981200	0.480100
H8391	H839	0.322600	0.000700	0.492200
H8401	H840	0.355900	0.973200	0.495700
H8411	H841	0.337300	0.983200	0.448700
C8901	C890	0.175800	0.968300	0.538700
H8421	H842	0.181100	0.989200	0.546000
H8431	H843	0.151200	0.966900	0.518000
H8441	H844	0.168700	0.957200	0.565500
C8911	C891	0.392900	0.921800	0.339800
C8921	C892	0.383300	0.908100	0.300000
C8931	C893	0.402900	0.918100	0.261400
H8451	H845	0.396300	0.908700	0.234200
C8941	C894	0.432100	0.941800	0.262700
C8951	C895	0.441700	0.955500	0.302500
H8461	H846	0.461700	0.971800	0.303400
C8961	C896	0.422100	0.945500	0.341000
C8971	C897	0.355200	0.881500	0.301500
H8471	H847	0.361900	0.868700	0.276300
H8481	H848	0.324300	0.887500	0.300300
H8491	H849	0.360700	0.870600	0.328900
C8981	C898	0.432600	0.962400	0.380900
H8501	H850	0.444200	0.947500	0.398400
H8511	H851	0.453800	0.978800	0.375300
H8521	H852	0.406300	0.972000	0.395400
C8991	C899	0.452900	0.950900	0.217600
H8531	H853	0.472900	0.967800	0.222100
H8541	H854	0.469300	0.934100	0.205500
H8551	H855	0.429600	0.956700	0.197100
C9001	C900	0.295000	0.970300	0.377400
Cu101	Cu10	0.501300	0.249880	0.116460
N371	N37	0.733600	0.047000	0.938400
N381	N38	0.581900	0.210300	0.094400
N391	N39	0.477100	0.288800	0.035400
N401	N40	0.318900	0.450700	0.885700
C9011	C901	0.742400	0.029000	0.915400
C9021	C902	0.713900	0.071100	0.963000
C9031	C903	0.671300	0.080300	0.949100
C9041	C904	0.652600	0.103000	0.970100
H8561	H856	0.624200	0.109400	0.961000
C9051	C905	0.672600	0.117600	0.004100
C9061	C906	0.715300	0.108900	0.016700
H8571	H857	0.730000	0.119900	0.039000
C9071	C907	0.735900	0.085500	0.998000
C9081	C908	0.778700	0.074200	0.015500
C9091	C909	0.776600	0.051900	0.049600
C9101	C910	0.818600	0.042800	0.069900
H8581	H858	0.818600	0.028700	0.093100
C9111	C911	0.856300	0.054200	0.056000
C9121	C912	0.858400	0.078500	0.025300
H8591	H859	0.885300	0.087600	0.017100
C9131	C913	0.815700	0.088100	0.007500
C9141	C914	0.820200	0.115500	0.978400
H8601	H860	0.851100	0.121800	0.977600
H8611	H861	0.810400	0.110700	0.948500
H8621	H862	0.802200	0.131600	0.990200
C9151	C915	0.733200	0.039300	0.064700
H8631	H863	0.738300	0.024600	0.087900
H8641	H864	0.714700	0.055300	0.076100
H8651	H865	0.718400	0.029700	0.039800
C9161	C916	0.901600	0.044100	0.074600
H8661	H866	0.925100	0.055200	0.060000
H8671	H867	0.902500	0.047900	0.106400
H8681	H868	0.905500	0.022800	0.069200
C9171	C917	0.649200	0.065500	0.910200
C9181	C918	0.639600	0.084100	0.872400
C9191	C919	0.615100	0.071900	0.838500
H8691	H869	0.605800	0.084400	0.815100
C9201	C920	0.603400	0.041100	0.837300
C9211	C921	0.609500	0.026400	0.874400
H8701	H870	0.598700	0.006700	0.876100
C9221	C922	0.631300	0.038200	0.911700
C9231	C923	0.637200	0.018000	0.952100
H8711	H871	0.621900	0.999100	0.947200
H8721	H872	0.668600	0.014200	0.956800
H8731	H873	0.624900	0.027800	0.978100
C9241	C924	0.585200	0.027900	0.797700
H8741	H874	0.583700	0.043000	0.774500
H8751	H875	0.604000	0.011500	0.788100
H8761	H876	0.555600	0.020400	0.803900
C9251	C925	0.655100	0.116100	0.869900
H8771	H877	0.671800	0.121000	0.896500
H8781	H878	0.673800	0.118700	0.844000
H8791	H879	0.629600	0.129300	0.867600
C9261	C926	0.650900	0.143000	0.027600
C9271	C927	0.612400	0.155700	0.010100
H8801	H880	0.601800	0.149200	0.982400
C9281	C928	0.590100	0.177300	0.033000
C9291	C929	0.606500	0.188400	0.072100
C9301	C930	0.645400	0.176900	0.090800
C9311	C931	0.665300	0.154000	0.068200
C9321	C932	0.662400	0.186800	0.134200
C9331	C933	0.641400	0.178900	0.171300
C9341	C934	0.656900	0.186100	0.213200
H8811	H881	0.640400	0.180700	0.238500
C9351	C935	0.693400	0.200000	0.217200
C9361	C936	0.716800	0.208100	0.179700
H8821	H882	0.743100	0.219200	0.183500
C9371	C937	0.703500	0.200600	0.135200
C9381	C938	0.730200	0.207400	0.097800
H8831	H883	0.757400	0.217100	0.107500
H8841	H884	0.737300	0.189100	0.082000
H8851	H885	0.714100	0.220900	0.078200
C9391	C939	0.597500	0.160200	0.169100
H8861	H886	0.586800	0.156500	0.199000
H8871	H887	0.575300	0.171400	0.152600
H8881	H888	0.603200	0.141200	0.154300
C9401	C940	0.710400	0.210000	0.264100
H8891	H889	0.738600	0.220300	0.261000
H8901	H890	0.688900	0.223500	0.277500
H8911	H891	0.714100	0.192500	0.282900
C9411	C941	0.550000	0.211100	0.980700
C9421	C942	0.511200	0.223300	0.964600
H8921	H892	0.512200	0.237600	0.941600
C9431	C943	0.471100	0.214700	0.982200
C9441	C944	0.469600	0.193800	0.015800
H8931	H893	0.442200	0.187800	0.027900
C9451	C945	0.508400	0.181500	0.031900
C9461	C946	0.548500	0.190200	0.014400
C9471	C947	0.594200	0.220700	0.958900
H8941	H894	0.618700	0.210500	0.973400
H8951	H895	0.593800	0.215500	0.927600
H8961	H896	0.598000	0.242300	0.962100
C9481	C948	0.429000	0.228900	0.961500
H8971	H897	0.437600	0.243000	0.938400
H8981	H898	0.410500	0.213300	0.948700
H8991	H899	0.412400	0.239400	0.984400
C9491	C949	0.507300	0.160400	0.069100
H9001	H900	0.537400	0.154000	0.076100
H9011	H901	0.494300	0.170100	0.094900
H9021	H902	0.489700	0.143000	0.061000
C9501	C950	0.554500	0.226200	0.105800
C9511	C951	0.488000	0.272600	0.063500
C9521	C952	0.455700	0.311700	0.012000
C9531	C953	0.415000	0.321100	0.030200
C9541	C954	0.393800	0.343200	0.006900
H9031	H903	0.366400	0.350100	0.017800
C9551	C955	0.409800	0.355900	0.968700
C9561	C956	0.449900	0.345100	0.951100
H9041	H904	0.461700	0.353200	0.924800
C9571	C957	0.471600	0.322500	0.972900
C9581	C958	0.515100	0.312000	0.954100
C9591	C959	0.519200	0.298100	0.915100
C9601	C960	0.560400	0.289200	0.899000
H9051	H905	0.562200	0.277400	0.873100
C9611	C961	0.598200	0.297500	0.920500
C9621	C962	0.594800	0.313700	0.958400
H9061	H906	0.621000	0.319500	0.973100
C9631	C963	0.555900	0.321700	0.975900
C9641	C964	0.553900	0.341500	0.014300
H9071	H907	0.523100	0.344900	0.022400
H9081	H908	0.569400	0.332300	0.039000
H9091	H909	0.567800	0.360500	0.007000
C9651	C965	0.477600	0.290000	0.890200
H9101	H910	0.485500	0.280100	0.862600
H9111	H911	0.459700	0.276600	0.908100
H9121	H912	0.460900	0.308100	0.883700
C9661	C966	0.637300	0.288600	0.892600
H9131	H913	0.627100	0.276900	0.867400
H9141	H914	0.652300	0.306500	0.882000
H9151	H915	0.657700	0.276800	0.910300
C9671	C967	0.395300	0.309600	0.072900
C9681	C968	0.415800	0.317800	0.110400
C9691	C969	0.455500	0.339000	0.112400
H9161	H916	0.464600	0.341600	0.143100
H9171	H917	0.479900	0.330500	0.095500
H9181	H918	0.447300	0.358300	0.099900
C9701	C970	0.396900	0.308500	0.150100
H9191	H919	0.410800	0.313500	0.177100
C9711	C971	0.356600	0.291500	0.151100
C9721	C972	0.345200	0.282200	0.114700
H9201	H920	0.325900	0.265600	0.114500
C9731	C973	0.357900	0.293800	0.072800
C9741	C974	0.335500	0.284200	0.029400
H9211	H921	0.308800	0.272900	0.036100
H9221	H922	0.327900	0.301800	0.012200
H9231	H923	0.355700	0.271700	0.012500
C9751	C975	0.331700	0.283200	0.189700
H9241	H924	0.344900	0.292300	0.215800
H9251	H925	0.301300	0.290100	0.186500
H9261	H926	0.331900	0.261500	0.192900
C9761	C976	0.386700	0.380000	0.945200
C9771	C977	0.394400	0.388600	0.905100
H9271	H927	0.416500	0.378000	0.889400
C9781	C978	0.373800	0.411200	0.883100
C9791	C979	0.339600	0.426500	0.905000
C9801	C980	0.328400	0.418200	0.947800
C9811	C981	0.353500	0.395900	0.968800
H9281	H928	0.348200	0.391500	0.998900
C9821	C982	0.291900	0.431400	0.972100
C9831	C983	0.292100	0.460300	0.985500
C9841	C984	0.257200	0.469600	0.013300
H9291	H929	0.260800	0.487200	0.030300
C9851	C985	0.219100	0.454500	0.016500
C9861	C986	0.219300	0.426400	0.004000
H9301	H930	0.194500	0.414500	0.011100
C9871	C987	0.253400	0.413300	0.981000
C9881	C988	0.249900	0.382600	0.964600
H9311	H931	0.277000	0.377200	0.949200
H9321	H932	0.245200	0.369100	0.989400
H9331	H933	0.225000	0.381200	0.944200
C9891	C989	0.330300	0.481200	0.980100
H9341	H934	0.322600	0.500700	0.992200
H9351	H935	0.355900	0.473200	0.995700
H9361	H936	0.337300	0.483200	0.948700
C9901	C990	0.175800	0.468300	0.038700
H9371	H937	0.181100	0.489200	0.046000
H9381	H938	0.151200	0.466900	0.018000
H9391	H939	0.168700	0.457200	0.065500
C9911	C991	0.392900	0.421800	0.839800
C9921	C992	0.383300	0.408100	0.800000
C9931	C993	0.402900	0.418100	0.761400
H9401	H940	0.396300	0.408700	0.734200
C9941	C994	0.432100	0.441800	0.762700
C9951	C995	0.441700	0.455500	0.802500
H9411	H941	0.461700	0.471800	0.803400
C9961	C996	0.422100	0.445500	0.841000
C9971	C997	0.355200	0.381500	0.801500
H9421	H942	0.361900	0.368700	0.776300
H9431	H943	0.324300	0.387500	0.800300
H9441	H944	0.360700	0.370600	0.828900
C9981	C998	0.432600	0.462400	0.880900
H9451	H945	0.444200	0.447500	0.898400
H9461	H946	0.453800	0.478800	0.875300
H9471	H947	0.406300	0.472000	0.895400
C9991	C999	0.452900	0.450900	0.717600
H9481	H948	0.472900	0.467800	0.722100
H9491	H949	0.469300	0.434100	0.705500
H9501	H950	0.429600	0.456700	0.697100
C10001	C1000	0.295000	0.470300	0.877400
Cu111	Cu11	0.001300	0.749880	0.116460
N411	N41	0.233600	0.547000	0.938400
N421	N42	0.081900	0.710300	0.094400
N431	N43	0.977100	0.788800	0.035400
N441	N44	0.818900	0.950700	0.885700
C10011	C1001	0.242400	0.529000	0.915400
C10021	C1002	0.213900	0.571100	0.963000
C10031	C1003	0.171300	0.580300	0.949100
C10041	C1004	0.152600	0.603000	0.970100
H9511	H951	0.124200	0.609400	0.961000
C10051	C1005	0.172600	0.617600	0.004100
C10061	C1006	0.215300	0.608900	0.016700
H9521	H952	0.230000	0.619900	0.039000
C10071	C1007	0.235900	0.585500	0.998000
C10081	C1008	0.278700	0.574200	0.015500
C10091	C1009	0.276600	0.551900	0.049600
C10101	C1010	0.318600	0.542800	0.069900
H9531	H953	0.318600	0.528700	0.093100
C10111	C1011	0.356300	0.554200	0.056000
C10121	C1012	0.358400	0.578500	0.025300
H9541	H954	0.385300	0.587600	0.017100
C10131	C1013	0.315700	0.588100	0.007500
C10141	C1014	0.320200	0.615500	0.978400
H9551	H955	0.351100	0.621800	0.977600
H9561	H956	0.310400	0.610700	0.948500
H9571	H957	0.302200	0.631600	0.990200
C10151	C1015	0.233200	0.539300	0.064700
H9581	H958	0.238300	0.524600	0.087900
H9591	H959	0.214700	0.555300	0.076100
H9601	H960	0.218400	0.529700	0.039800
C10161	C1016	0.401600	0.544100	0.074600
H9611	H961	0.425100	0.555200	0.060000
H9621	H962	0.402500	0.547900	0.106400
H9631	H963	0.405500	0.522800	0.069200
C10171	C1017	0.149200	0.565500	0.910200
C10181	C1018	0.139600	0.584100	0.872400
C10191	C1019	0.115100	0.571900	0.838500
H9641	H964	0.105800	0.584400	0.815100
C10201	C1020	0.103400	0.541100	0.837300
C10211	C1021	0.109500	0.526400	0.874400
H9651	H965	0.098700	0.506700	0.876100
C10221	C1022	0.131300	0.538200	0.911700
C10231	C1023	0.137200	0.518000	0.952100
H9661	H966	0.121900	0.499100	0.947200
H9671	H967	0.168600	0.514200	0.956800
H9681	H968	0.124900	0.527800	0.978100
C10241	C1024	0.085200	0.527900	0.797700
H9691	H969	0.083700	0.543000	0.774500
H9701	H970	0.104000	0.511500	0.788100
H9711	H971	0.055600	0.520400	0.803900
C10251	C1025	0.155100	0.616100	0.869900
H9721	H972	0.171800	0.621000	0.896500
H9731	H973	0.173800	0.618700	0.844000
H9741	H974	0.129600	0.629300	0.867600
C10261	C1026	0.150900	0.643000	0.027600
C10271	C1027	0.112400	0.655700	0.010100
H9751	H975	0.101800	0.649200	0.982400
C10281	C1028	0.090100	0.677300	0.033000
C10291	C1029	0.106500	0.688400	0.072100
C10301	C1030	0.145400	0.676900	0.090800
C10311	C1031	0.165300	0.654000	0.068200
C10321	C1032	0.162400	0.686800	0.134200
C10331	C1033	0.141400	0.678900	0.171300
C10341	C1034	0.156900	0.686100	0.213200
H9761	H976	0.140400	0.680700	0.238500
C10351	C1035	0.193400	0.700000	0.217200
C10361	C1036	0.216800	0.708100	0.179700
H9771	H977	0.243100	0.719200	0.183500
C10371	C1037	0.203500	0.700600	0.135200
C10381	C1038	0.230200	0.707400	0.097800
H9781	H978	0.257400	0.717100	0.107500
H9791	H979	0.237300	0.689100	0.082000
H9801	H980	0.214100	0.720900	0.078200
C10391	C1039	0.097500	0.660200	0.169100
H9811	H981	0.086800	0.656500	0.199000
H9821	H982	0.075300	0.671400	0.152600
H9831	H983	0.103200	0.641200	0.154300
C10401	C1040	0.210400	0.710000	0.264100
H9841	H984	0.238600	0.720300	0.261000
H9851	H985	0.188900	0.723500	0.277500
H9861	H986	0.214100	0.692500	0.282900
C10411	C1041	0.050000	0.711100	0.980700
C10421	C1042	0.011200	0.723300	0.964600
H9871	H987	0.012200	0.737600	0.941600
C10431	C1043	0.971100	0.714700	0.982200
C10441	C1044	0.969600	0.693800	0.015800
H9881	H988	0.942200	0.687800	0.027900
C10451	C1045	0.008400	0.681500	0.031900
C10461	C1046	0.048500	0.690200	0.014400
C10471	C1047	0.094200	0.720700	0.958900
H9891	H989	0.118700	0.710500	0.973400
H9901	H990	0.093800	0.715500	0.927600
H9911	H991	0.098000	0.742300	0.962100
C10481	C1048	0.929000	0.728900	0.961500
H9921	H992	0.937600	0.743000	0.938400
H9931	H993	0.910500	0.713300	0.948700
H9941	H994	0.912400	0.739400	0.984400
C10491	C1049	0.007300	0.660400	0.069100
H9951	H995	0.037400	0.654000	0.076100
H9961	H996	0.994300	0.670100	0.094900
H9971	H997	0.989700	0.643000	0.061000
C10501	C1050	0.054500	0.726200	0.105800
C10511	C1051	0.988000	0.772600	0.063500
C10521	C1052	0.955700	0.811700	0.012000
C10531	C1053	0.915000	0.821100	0.030200
C10541	C1054	0.893800	0.843200	0.006900
H9981	H998	0.866400	0.850100	0.017800
C10551	C1055	0.909800	0.855900	0.968700
C10561	C1056	0.949900	0.845100	0.951100
H9991	H999	0.961700	0.853200	0.924800
C10571	C1057	0.971600	0.822500	0.972900
C10581	C1058	0.015100	0.812000	0.954100
C10591	C1059	0.019200	0.798100	0.915100
C10601	C1060	0.060400	0.789200	0.899000
H10001	H1000	0.062200	0.777400	0.873100
C10611	C1061	0.098200	0.797500	0.920500
C10621	C1062	0.094800	0.813700	0.958400
H10011	H1001	0.121000	0.819500	0.973100
C10631	C1063	0.055900	0.821700	0.975900
C10641	C1064	0.053900	0.841500	0.014300
H10021	H1002	0.023100	0.844900	0.022400
H10031	H1003	0.069400	0.832300	0.039000
H10041	H1004	0.067800	0.860500	0.007000
C10651	C1065	0.977600	0.790000	0.890200
H10051	H1005	0.985500	0.780100	0.862600
H10061	H1006	0.959700	0.776600	0.908100
H10071	H1007	0.960900	0.808100	0.883700
C10661	C1066	0.137300	0.788600	0.892600
H10081	H1008	0.127100	0.776900	0.867400
H10091	H1009	0.152300	0.806500	0.882000
H10101	H1010	0.157700	0.776800	0.910300
C10671	C1067	0.895300	0.809600	0.072900
C10681	C1068	0.915800	0.817800	0.110400
C10691	C1069	0.955500	0.839000	0.112400
H10111	H1011	0.964600	0.841600	0.143100
H10121	H1012	0.979900	0.830500	0.095500
H10131	H1013	0.947300	0.858300	0.099900
C10701	C1070	0.896900	0.808500	0.150100
H10141	H1014	0.910800	0.813500	0.177100
C10711	C1071	0.856600	0.791500	0.151100
C10721	C1072	0.845200	0.782200	0.114700
H10151	H1015	0.825900	0.765600	0.114500
C10731	C1073	0.857900	0.793800	0.072800
C10741	C1074	0.835500	0.784200	0.029400
H10161	H1016	0.808800	0.772900	0.036100
H10171	H1017	0.827900	0.801800	0.012200
H10181	H1018	0.855700	0.771700	0.012500
C10751	C1075	0.831700	0.783200	0.189700
H10191	H1019	0.844900	0.792300	0.215800
H10201	H1020	0.801300	0.790100	0.186500
H10211	H1021	0.831900	0.761500	0.192900
C10761	C1076	0.886700	0.880000	0.945200
C10771	C1077	0.894400	0.888600	0.905100
H10221	H1022	0.916500	0.878000	0.889400
C10781	C1078	0.873800	0.911200	0.883100
C10791	C1079	0.839600	0.926500	0.905000
C10801	C1080	0.828400	0.918200	0.947800
C10811	C1081	0.853500	0.895900	0.968800
H10231	H1023	0.848200	0.891500	0.998900
C10821	C1082	0.791900	0.931400	0.972100
C10831	C1083	0.792100	0.960300	0.985500
C10841	C1084	0.757200	0.969600	0.013300
H10241	H1024	0.760800	0.987200	0.030300
C10851	C1085	0.719100	0.954500	0.016500
C10861	C1086	0.719300	0.926400	0.004000
H10251	H1025	0.694500	0.914500	0.011100
C10871	C1087	0.753400	0.913300	0.981000
C10881	C1088	0.749900	0.882600	0.964600
H10261	H1026	0.777000	0.877200	0.949200
H10271	H1027	0.745200	0.869100	0.989400
H10281	H1028	0.725000	0.881200	0.944200
C10891	C1089	0.830300	0.981200	0.980100
H10291	H1029	0.822600	0.000700	0.992200
H10301	H1030	0.855900	0.973200	0.995700
H10311	H1031	0.837300	0.983200	0.948700
C10901	C1090	0.675800	0.968300	0.038700
H10321	H1032	0.681100	0.989200	0.046000
H10331	H1033	0.651200	0.966900	0.018000
H10341	H1034	0.668700	0.957200	0.065500
C10911	C1091	0.892900	0.921800	0.839800
C10921	C1092	0.883300	0.908100	0.800000
C10931	C1093	0.902900	0.918100	0.761400
H10351	H1035	0.896300	0.908700	0.734200
C10941	C1094	0.932100	0.941800	0.762700
C10951	C1095	0.941700	0.955500	0.802500
H10361	H1036	0.961700	0.971800	0.803400
C10961	C1096	0.922100	0.945500	0.841000
C10971	C1097	0.855200	0.881500	0.801500
H10371	H1037	0.861900	0.868700	0.776300
H10381	H1038	0.824300	0.887500	0.800300
H10391	H1039	0.860700	0.870600	0.828900
C10981	C1098	0.932600	0.962400	0.880900
H10401	H1040	0.944200	0.947500	0.898400
H10411	H1041	0.953800	0.978800	0.875300
H10421	H1042	0.906300	0.972000	0.895400
C10991	C1099	0.952900	0.950900	0.717600
H10431	H1043	0.972900	0.967800	0.722100
H10441	H1044	0.969300	0.934100	0.705500
H10451	H1045	0.929600	0.956700	0.697100
C11001	C1100	0.795000	0.970300	0.877400
Cu121	Cu12	0.001300	0.249880	0.616460
N451	N45	0.233600	0.047000	0.438400
N461	N46	0.081900	0.210300	0.594400
N471	N47	0.977100	0.288800	0.535400
N481	N48	0.818900	0.450700	0.385700
C11011	C1101	0.242400	0.029000	0.415400
C11021	C1102	0.213900	0.071100	0.463000
C11031	C1103	0.171300	0.080300	0.449100
C11041	C1104	0.152600	0.103000	0.470100
H10461	H1046	0.124200	0.109400	0.461000
C11051	C1105	0.172600	0.117600	0.504100
C11061	C1106	0.215300	0.108900	0.516700
H10471	H1047	0.230000	0.119900	0.539000
C11071	C1107	0.235900	0.085500	0.498000
C11081	C1108	0.278700	0.074200	0.515500
C11091	C1109	0.276600	0.051900	0.549600
C11101	C1110	0.318600	0.042800	0.569900
H10481	H1048	0.318600	0.028700	0.593100
C11111	C1111	0.356300	0.054200	0.556000
C11121	C1112	0.358400	0.078500	0.525300
H10491	H1049	0.385300	0.087600	0.517100
C11131	C1113	0.315700	0.088100	0.507500
C11141	C1114	0.320200	0.115500	0.478400
H10501	H1050	0.351100	0.121800	0.477600
H10511	H1051	0.310400	0.110700	0.448500
H10521	H1052	0.302200	0.131600	0.490200
C11151	C1115	0.233200	0.039300	0.564700
H10531	H1053	0.238300	0.024600	0.587900
H10541	H1054	0.214700	0.055300	0.576100
H10551	H1055	0.218400	0.029700	0.539800
C11161	C1116	0.401600	0.044100	0.574600
H10561	H1056	0.425100	0.055200	0.560000
H10571	H1057	0.402500	0.047900	0.606400
H10581	H1058	0.405500	0.022800	0.569200
C11171	C1117	0.149200	0.065500	0.410200
C11181	C1118	0.139600	0.084100	0.372400
C11191	C1119	0.115100	0.071900	0.338500
H10591	H1059	0.105800	0.084400	0.315100
C11201	C1120	0.103400	0.041100	0.337300
C11211	C1121	0.109500	0.026400	0.374400
H10601	H1060	0.098700	0.006700	0.376100
C11221	C1122	0.131300	0.038200	0.411700
C11231	C1123	0.137200	0.018000	0.452100
H10611	H1061	0.121900	0.999100	0.447200
H10621	H1062	0.168600	0.014200	0.456800
H10631	H1063	0.124900	0.027800	0.478100
C11241	C1124	0.085200	0.027900	0.297700
H10641	H1064	0.083700	0.043000	0.274500
H10651	H1065	0.104000	0.011500	0.288100
H10661	H1066	0.055600	0.020400	0.303900
C11251	C1125	0.155100	0.116100	0.369900
H10671	H1067	0.171800	0.121000	0.396500
H10681	H1068	0.173800	0.118700	0.344000
H10691	H1069	0.129600	0.129300	0.367600
C11261	C1126	0.150900	0.143000	0.527600
C11271	C1127	0.112400	0.155700	0.510100
H10701	H1070	0.101800	0.149200	0.482400
C11281	C1128	0.090100	0.177300	0.533000
C11291	C1129	0.106500	0.188400	0.572100
C11301	C1130	0.145400	0.176900	0.590800
C11311	C1131	0.165300	0.154000	0.568200
C11321	C1132	0.162400	0.186800	0.634200
C11331	C1133	0.141400	0.178900	0.671300
C11341	C1134	0.156900	0.186100	0.713200
H10711	H1071	0.140400	0.180700	0.738500
C11351	C1135	0.193400	0.200000	0.717200
C11361	C1136	0.216800	0.208100	0.679700
H10721	H1072	0.243100	0.219200	0.683500
C11371	C1137	0.203500	0.200600	0.635200
C11381	C1138	0.230200	0.207400	0.597800
H10731	H1073	0.257400	0.217100	0.607500
H10741	H1074	0.237300	0.189100	0.582000
H10751	H1075	0.214100	0.220900	0.578200
C11391	C1139	0.097500	0.160200	0.669100
H10761	H1076	0.086800	0.156500	0.699000
H10771	H1077	0.075300	0.171400	0.652600
H10781	H1078	0.103200	0.141200	0.654300
C11401	C1140	0.210400	0.210000	0.764100
H10791	H1079	0.238600	0.220300	0.761000
H10801	H1080	0.188900	0.223500	0.777500
H10811	H1081	0.214100	0.192500	0.782900
C11411	C1141	0.050000	0.211100	0.480700
C11421	C1142	0.011200	0.223300	0.464600
H10821	H1082	0.012200	0.237600	0.441600
C11431	C1143	0.971100	0.214700	0.482200
C11441	C1144	0.969600	0.193800	0.515800
H10831	H1083	0.942200	0.187800	0.527900
C11451	C1145	0.008400	0.181500	0.531900
C11461	C1146	0.048500	0.190200	0.514400
C11471	C1147	0.094200	0.220700	0.458900
H10841	H1084	0.118700	0.210500	0.473400
H10851	H1085	0.093800	0.215500	0.427600
H10861	H1086	0.098000	0.242300	0.462100
C11481	C1148	0.929000	0.228900	0.461500
H10871	H1087	0.937600	0.243000	0.438400
H10881	H1088	0.910500	0.213300	0.448700
H10891	H1089	0.912400	0.239400	0.484400
C11491	C1149	0.007300	0.160400	0.569100
H10901	H1090	0.037400	0.154000	0.576100
H10911	H1091	0.994300	0.170100	0.594900
H10921	H1092	0.989700	0.143000	0.561000
C11501	C1150	0.054500	0.226200	0.605800
C11511	C1151	0.988000	0.272600	0.563500
C11521	C1152	0.955700	0.311700	0.512000
C11531	C1153	0.915000	0.321100	0.530200
C11541	C1154	0.893800	0.343200	0.506900
H10931	H1093	0.866400	0.350100	0.517800
C11551	C1155	0.909800	0.355900	0.468700
C11561	C1156	0.949900	0.345100	0.451100
H10941	H1094	0.961700	0.353200	0.424800
C11571	C1157	0.971600	0.322500	0.472900
C11581	C1158	0.015100	0.312000	0.454100
C11591	C1159	0.019200	0.298100	0.415100
C11601	C1160	0.060400	0.289200	0.399000
H10951	H1095	0.062200	0.277400	0.373100
C11611	C1161	0.098200	0.297500	0.420500
C11621	C1162	0.094800	0.313700	0.458400
H10961	H1096	0.121000	0.319500	0.473100
C11631	C1163	0.055900	0.321700	0.475900
C11641	C1164	0.053900	0.341500	0.514300
H10971	H1097	0.023100	0.344900	0.522400
H10981	H1098	0.069400	0.332300	0.539000
H10991	H1099	0.067800	0.360500	0.507000
C11651	C1165	0.977600	0.290000	0.390200
H11001	H1100	0.985500	0.280100	0.362600
H11011	H1101	0.959700	0.276600	0.408100
H11021	H1102	0.960900	0.308100	0.383700
C11661	C1166	0.137300	0.288600	0.392600
H11031	H1103	0.127100	0.276900	0.367400
H11041	H1104	0.152300	0.306500	0.382000
H11051	H1105	0.157700	0.276800	0.410300
C11671	C1167	0.895300	0.309600	0.572900
C11681	C1168	0.915800	0.317800	0.610400
C11691	C1169	0.955500	0.339000	0.612400
H11061	H1106	0.964600	0.341600	0.643100
H11071	H1107	0.979900	0.330500	0.595500
H11081	H1108	0.947300	0.358300	0.599900
C11701	C1170	0.896900	0.308500	0.650100
H11091	H1109	0.910800	0.313500	0.677100
C11711	C1171	0.856600	0.291500	0.651100
C11721	C1172	0.845200	0.282200	0.614700
H11101	H1110	0.825900	0.265600	0.614500
C11731	C1173	0.857900	0.293800	0.572800
C11741	C1174	0.835500	0.284200	0.529400
H11111	H1111	0.808800	0.272900	0.536100
H11121	H1112	0.827900	0.301800	0.512200
H11131	H1113	0.855700	0.271700	0.512500
C11751	C1175	0.831700	0.283200	0.689700
H11141	H1114	0.844900	0.292300	0.715800
H11151	H1115	0.801300	0.290100	0.686500
H11161	H1116	0.831900	0.261500	0.692900
C11761	C1176	0.886700	0.380000	0.445200
C11771	C1177	0.894400	0.388600	0.405100
H11171	H1117	0.916500	0.378000	0.389400
C11781	C1178	0.873800	0.411200	0.383100
C11791	C1179	0.839600	0.426500	0.405000
C11801	C1180	0.828400	0.418200	0.447800
C11811	C1181	0.853500	0.395900	0.468800
H11181	H1118	0.848200	0.391500	0.498900
C11821	C1182	0.791900	0.431400	0.472100
C11831	C1183	0.792100	0.460300	0.485500
C11841	C1184	0.757200	0.469600	0.513300
H11191	H1119	0.760800	0.487200	0.530300
C11851	C1185	0.719100	0.454500	0.516500
C11861	C1186	0.719300	0.426400	0.504000
H11201	H1120	0.694500	0.414500	0.511100
C11871	C1187	0.753400	0.413300	0.481000
C11881	C1188	0.749900	0.382600	0.464600
H11211	H1121	0.777000	0.377200	0.449200
H11221	H1122	0.745200	0.369100	0.489400
H11231	H1123	0.725000	0.381200	0.444200
C11891	C1189	0.830300	0.481200	0.480100
H11241	H1124	0.822600	0.500700	0.492200
H11251	H1125	0.855900	0.473200	0.495700
H11261	H1126	0.837300	0.483200	0.448700
C11901	C1190	0.675800	0.468300	0.538700
H11271	H1127	0.681100	0.489200	0.546000
H11281	H1128	0.651200	0.466900	0.518000
H11291	H1129	0.668700	0.457200	0.565500
C11911	C1191	0.892900	0.421800	0.339800
C11921	C1192	0.883300	0.408100	0.300000
C11931	C1193	0.902900	0.418100	0.261400
H11301	H1130	0.896300	0.408700	0.234200
C11941	C1194	0.932100	0.441800	0.262700
C11951	C1195	0.941700	0.455500	0.302500
H11311	H1131	0.961700	0.471800	0.303400
C11961	C1196	0.922100	0.445500	0.341000
C11971	C1197	0.855200	0.381500	0.301500
H11321	H1132	0.861900	0.368700	0.276300
H11331	H1133	0.824300	0.387500	0.300300
H11341	H1134	0.860700	0.370600	0.328900
C11981	C1198	0.932600	0.462400	0.380900
H11351	H1135	0.944200	0.447500	0.398400
H11361	H1136	0.953800	0.478800	0.375300
H11371	H1137	0.906300	0.472000	0.395400
C11991	C1199	0.952900	0.450900	0.217600
H11381	H1138	0.972900	0.467800	0.222100
H11391	H1139	0.969300	0.434100	0.205500
H11401	H1140	0.929600	0.456700	0.197100
C12001	C1200	0.795000	0.470300	0.377400
Cu131	Cu13	0.748700	0.999880	0.866460
N491	N49	0.516400	0.797000	0.688400
N501	N50	0.668100	0.960300	0.844400
N511	N51	0.772900	0.038800	0.785400
N521	N52	0.931100	0.200700	0.635700
C12011	C1201	0.507600	0.779000	0.665400
C12021	C1202	0.536100	0.821100	0.713000
C12031	C1203	0.578700	0.830300	0.699100
C12041	C1204	0.597400	0.853000	0.720100
H11411	H1141	0.625800	0.859400	0.711000
C12051	C1205	0.577400	0.867600	0.754100
C12061	C1206	0.534700	0.858900	0.766700
H11421	H1142	0.520000	0.869900	0.789000
C12071	C1207	0.514100	0.835500	0.748000
C12081	C1208	0.471300	0.824200	0.765500
C12091	C1209	0.473400	0.801900	0.799600
C12101	C1210	0.431400	0.792800	0.819900
H11431	H1143	0.431400	0.778700	0.843100
C12111	C1211	0.393700	0.804200	0.806000
C12121	C1212	0.391600	0.828500	0.775300
H11441	H1144	0.364700	0.837600	0.767100
C12131	C1213	0.434300	0.838100	0.757500
C12141	C1214	0.429800	0.865500	0.728400
H11451	H1145	0.398900	0.871800	0.727600
H11461	H1146	0.439600	0.860700	0.698500
H11471	H1147	0.447800	0.881600	0.740200
C12151	C1215	0.516800	0.789300	0.814700
H11481	H1148	0.511700	0.774600	0.837900
H11491	H1149	0.535300	0.805300	0.826100
H11501	H1150	0.531600	0.779700	0.789800
C12161	C1216	0.348400	0.794100	0.824600
H11511	H1151	0.324900	0.805200	0.810000
H11521	H1152	0.347500	0.797900	0.856400
H11531	H1153	0.344500	0.772800	0.819200
C12171	C1217	0.600800	0.815500	0.660200
C12181	C1218	0.610400	0.834100	0.622400
C12191	C1219	0.634900	0.821900	0.588500
H11541	H1154	0.644200	0.834400	0.565100
C12201	C1220	0.646600	0.791100	0.587300
C12211	C1221	0.640500	0.776400	0.624400
H11551	H1155	0.651300	0.756700	0.626100
C12221	C1222	0.618700	0.788200	0.661700
C12231	C1223	0.612800	0.768000	0.702100
H11561	H1156	0.628100	0.749100	0.697200
H11571	H1157	0.581400	0.764200	0.706800
H11581	H1158	0.625100	0.777800	0.728100
C12241	C1224	0.664800	0.777900	0.547700
H11591	H1159	0.666300	0.793000	0.524500
H11601	H1160	0.646000	0.761500	0.538100
H11611	H1161	0.694400	0.770400	0.553900
C12251	C1225	0.594900	0.866100	0.619900
H11621	H1162	0.578200	0.871000	0.646500
H11631	H1163	0.576200	0.868700	0.594000
H11641	H1164	0.620400	0.879300	0.617600
C12261	C1226	0.599100	0.893000	0.777600
C12271	C1227	0.637600	0.905700	0.760100
H11651	H1165	0.648200	0.899200	0.732400
C12281	C1228	0.659900	0.927300	0.783000
C12291	C1229	0.643500	0.938400	0.822100
C12301	C1230	0.604600	0.926900	0.840800
C12311	C1231	0.584700	0.904000	0.818200
C12321	C1232	0.587600	0.936800	0.884200
C12331	C1233	0.608600	0.928900	0.921300
C12341	C1234	0.593100	0.936100	0.963200
H11661	H1166	0.609600	0.930700	0.988500
C12351	C1235	0.556600	0.950000	0.967200
C12361	C1236	0.533200	0.958100	0.929700
H11671	H1167	0.506900	0.969200	0.933500
C12371	C1237	0.546500	0.950600	0.885200
C12381	C1238	0.519800	0.957400	0.847800
H11681	H1168	0.492600	0.967100	0.857500
H11691	H1169	0.512700	0.939100	0.832000
H11701	H1170	0.535900	0.970900	0.828200
C12391	C1239	0.652500	0.910200	0.919100
H11711	H1171	0.663200	0.906500	0.949000
H11721	H1172	0.674700	0.921400	0.902600
H11731	H1173	0.646800	0.891200	0.904300
C12401	C1240	0.539600	0.960000	0.014100
H11741	H1174	0.511400	0.970300	0.011000
H11751	H1175	0.561100	0.973500	0.027500
H11761	H1176	0.535900	0.942500	0.032900
C12411	C1241	0.700000	0.961100	0.730700
C12421	C1242	0.738800	0.973300	0.714600
H11771	H1177	0.737800	0.987600	0.691600
C12431	C1243	0.778900	0.964700	0.732200
C12441	C1244	0.780400	0.943800	0.765800
H11781	H1178	0.807800	0.937800	0.777900
C12451	C1245	0.741600	0.931500	0.781900
C12461	C1246	0.701500	0.940200	0.764400
C12471	C1247	0.655800	0.970700	0.708900
H11791	H1179	0.631300	0.960500	0.723400
H11801	H1180	0.656200	0.965500	0.677600
H11811	H1181	0.652000	0.992300	0.712100
C12481	C1248	0.821000	0.978900	0.711500
H11821	H1182	0.812400	0.993000	0.688400
H11831	H1183	0.839500	0.963300	0.698700
H11841	H1184	0.837600	0.989400	0.734400
C12491	C1249	0.742700	0.910400	0.819100
H11851	H1185	0.712600	0.904000	0.826100
H11861	H1186	0.755700	0.920100	0.844900
H11871	H1187	0.760300	0.893000	0.811000
C12501	C1250	0.695500	0.976200	0.855800
C12511	C1251	0.762000	0.022600	0.813500
C12521	C1252	0.794300	0.061700	0.762000
C12531	C1253	0.835000	0.071100	0.780200
C12541	C1254	0.856200	0.093200	0.756900
H11881	H1188	0.883600	0.100100	0.767800
C12551	C1255	0.840200	0.105900	0.718700
C12561	C1256	0.800100	0.095100	0.701100
H11891	H1189	0.788300	0.103200	0.674800
C12571	C1257	0.778400	0.072500	0.722900
C12581	C1258	0.734900	0.062000	0.704100
C12591	C1259	0.730800	0.048100	0.665100
C12601	C1260	0.689600	0.039200	0.649000
H11901	H1190	0.687800	0.027400	0.623100
C12611	C1261	0.651800	0.047500	0.670500
C12621	C1262	0.655200	0.063700	0.708400
H11911	H1191	0.629000	0.069500	0.723100
C12631	C1263	0.694100	0.071700	0.725900
C12641	C1264	0.696100	0.091500	0.764300
H11921	H1192	0.726900	0.094900	0.772400
H11931	H1193	0.680600	0.082300	0.789000
H11941	H1194	0.682200	0.110500	0.757000
C12651	C1265	0.772400	0.040000	0.640200
H11951	H1195	0.764500	0.030100	0.612600
H11961	H1196	0.790300	0.026600	0.658100
H11971	H1197	0.789100	0.058100	0.633700
C12661	C1266	0.612700	0.038600	0.642600
H11981	H1198	0.622900	0.026900	0.617400
H11991	H1199	0.597700	0.056500	0.632000
H12001	H1200	0.592300	0.026800	0.660300
C12671	C1267	0.854700	0.059600	0.822900
C12681	C1268	0.834200	0.067800	0.860400
C12691	C1269	0.794500	0.089000	0.862400
H12011	H1201	0.785400	0.091600	0.893100
H12021	H1202	0.770100	0.080500	0.845500
H12031	H1203	0.802700	0.108300	0.849900
C12701	C1270	0.853100	0.058500	0.900100
H12041	H1204	0.839200	0.063500	0.927100
C12711	C1271	0.893400	0.041500	0.901100
C12721	C1272	0.904800	0.032200	0.864700
H12051	H1205	0.924100	0.015600	0.864500
C12731	C1273	0.892100	0.043800	0.822800
C12741	C1274	0.914500	0.034200	0.779400
H12061	H1206	0.941200	0.022900	0.786100
H12071	H1207	0.922100	0.051800	0.762200
H12081	H1208	0.894300	0.021700	0.762500
C12751	C1275	0.918300	0.033200	0.939700
H12091	H1209	0.905100	0.042300	0.965800
H12101	H1210	0.948700	0.040100	0.936500
H12111	H1211	0.918100	0.011500	0.942900
C12761	C1276	0.863300	0.130000	0.695200
C12771	C1277	0.855600	0.138600	0.655100
H12121	H1212	0.833500	0.128000	0.639400
C12781	C1278	0.876200	0.161200	0.633100
C12791	C1279	0.910400	0.176500	0.655000
C12801	C1280	0.921600	0.168200	0.697800
C12811	C1281	0.896500	0.145900	0.718800
H12131	H1213	0.901800	0.141500	0.748900
C12821	C1282	0.958100	0.181400	0.722100
C12831	C1283	0.957900	0.210300	0.735500
C12841	C1284	0.992800	0.219600	0.763300
H12141	H1214	0.989200	0.237200	0.780300
C12851	C1285	0.030900	0.204500	0.766500
C12861	C1286	0.030700	0.176400	0.754000
H12151	H1215	0.055500	0.164500	0.761100
C12871	C1287	0.996600	0.163300	0.731000
C12881	C1288	0.000100	0.132600	0.714600
H12161	H1216	0.973000	0.127200	0.699200
H12171	H1217	0.004800	0.119100	0.739400
H12181	H1218	0.025000	0.131200	0.694200
C12891	C1289	0.919700	0.231200	0.730100
H12191	H1219	0.927400	0.250700	0.742200
H12201	H1220	0.894100	0.223200	0.745700
H12211	H1221	0.912700	0.233200	0.698700
C12901	C1290	0.074200	0.218300	0.788700
H12221	H1222	0.068900	0.239200	0.796000
H12231	H1223	0.098800	0.216900	0.768000
H12241	H1224	0.081300	0.207200	0.815500
C12911	C1291	0.857100	0.171800	0.589800
C12921	C1292	0.866700	0.158100	0.550000
C12931	C1293	0.847100	0.168100	0.511400
H12251	H1225	0.853700	0.158700	0.484200
C12941	C1294	0.817900	0.191800	0.512700
C12951	C1295	0.808300	0.205500	0.552500
H12261	H1226	0.788300	0.221800	0.553400
C12961	C1296	0.827900	0.195500	0.591000
C12971	C1297	0.894800	0.131500	0.551500
H12271	H1227	0.888100	0.118700	0.526300
H12281	H1228	0.925700	0.137500	0.550300
H12291	H1229	0.889300	0.120600	0.578900
C12981	C1298	0.817400	0.212400	0.630900
H12301	H1230	0.805800	0.197500	0.648400
H12311	H1231	0.796200	0.228800	0.625300
H12321	H1232	0.843700	0.222000	0.645400
C12991	C1299	0.797100	0.200900	0.467600
H12331	H1233	0.777100	0.217800	0.472100
H12341	H1234	0.780700	0.184100	0.455500
H12351	H1235	0.820400	0.206700	0.447100
C13001	C1300	0.955000	0.220300	0.627400
Cu141	Cu14	0.748700	0.499880	0.366460
N531	N53	0.516400	0.297000	0.188400
N541	N54	0.668100	0.460300	0.344400
N551	N55	0.772900	0.538800	0.285400
N561	N56	0.931100	0.700700	0.135700
C13011	C1301	0.507600	0.279000	0.165400
C13021	C1302	0.536100	0.321100	0.213000
C13031	C1303	0.578700	0.330300	0.199100
C13041	C1304	0.597400	0.353000	0.220100
H12361	H1236	0.625800	0.359400	0.211000
C13051	C1305	0.577400	0.367600	0.254100
C13061	C1306	0.534700	0.358900	0.266700
H12371	H1237	0.520000	0.369900	0.289000
C13071	C1307	0.514100	0.335500	0.248000
C13081	C1308	0.471300	0.324200	0.265500
C13091	C1309	0.473400	0.301900	0.299600
C13101	C1310	0.431400	0.292800	0.319900
H12381	H1238	0.431400	0.278700	0.343100
C13111	C1311	0.393700	0.304200	0.306000
C13121	C1312	0.391600	0.328500	0.275300
H12391	H1239	0.364700	0.337600	0.267100
C13131	C1313	0.434300	0.338100	0.257500
C13141	C1314	0.429800	0.365500	0.228400
H12401	H1240	0.398900	0.371800	0.227600
H12411	H1241	0.439600	0.360700	0.198500
H12421	H1242	0.447800	0.381600	0.240200
C13151	C1315	0.516800	0.289300	0.314700
H12431	H1243	0.511700	0.274600	0.337900
H12441	H1244	0.535300	0.305300	0.326100
H12451	H1245	0.531600	0.279700	0.289800
C13161	C1316	0.348400	0.294100	0.324600
H12461	H1246	0.324900	0.305200	0.310000
H12471	H1247	0.347500	0.297900	0.356400
H12481	H1248	0.344500	0.272800	0.319200
C13171	C1317	0.600800	0.315500	0.160200
C13181	C1318	0.610400	0.334100	0.122400
C13191	C1319	0.634900	0.321900	0.088500
H12491	H1249	0.644200	0.334400	0.065100
C13201	C1320	0.646600	0.291100	0.087300
C13211	C1321	0.640500	0.276400	0.124400
H12501	H1250	0.651300	0.256700	0.126100
C13221	C1322	0.618700	0.288200	0.161700
C13231	C1323	0.612800	0.268000	0.202100
H12511	H1251	0.628100	0.249100	0.197200
H12521	H1252	0.581400	0.264200	0.206800
H12531	H1253	0.625100	0.277800	0.228100
C13241	C1324	0.664800	0.277900	0.047700
H12541	H1254	0.666300	0.293000	0.024500
H12551	H1255	0.646000	0.261500	0.038100
H12561	H1256	0.694400	0.270400	0.053900
C13251	C1325	0.594900	0.366100	0.119900
H12571	H1257	0.578200	0.371000	0.146500
H12581	H1258	0.576200	0.368700	0.094000
H12591	H1259	0.620400	0.379300	0.117600
C13261	C1326	0.599100	0.393000	0.277600
C13271	C1327	0.637600	0.405700	0.260100
H12601	H1260	0.648200	0.399200	0.232400
C13281	C1328	0.659900	0.427300	0.283000
C13291	C1329	0.643500	0.438400	0.322100
C13301	C1330	0.604600	0.426900	0.340800
C13311	C1331	0.584700	0.404000	0.318200
C13321	C1332	0.587600	0.436800	0.384200
C13331	C1333	0.608600	0.428900	0.421300
C13341	C1334	0.593100	0.436100	0.463200
H12611	H1261	0.609600	0.430700	0.488500
C13351	C1335	0.556600	0.450000	0.467200
C13361	C1336	0.533200	0.458100	0.429700
H12621	H1262	0.506900	0.469200	0.433500
C13371	C1337	0.546500	0.450600	0.385200
C13381	C1338	0.519800	0.457400	0.347800
H12631	H1263	0.492600	0.467100	0.357500
H12641	H1264	0.512700	0.439100	0.332000
H12651	H1265	0.535900	0.470900	0.328200
C13391	C1339	0.652500	0.410200	0.419100
H12661	H1266	0.663200	0.406500	0.449000
H12671	H1267	0.674700	0.421400	0.402600
H12681	H1268	0.646800	0.391200	0.404300
C13401	C1340	0.539600	0.460000	0.514100
H12691	H1269	0.511400	0.470300	0.511000
H12701	H1270	0.561100	0.473500	0.527500
H12711	H1271	0.535900	0.442500	0.532900
C13411	C1341	0.700000	0.461100	0.230700
C13421	C1342	0.738800	0.473300	0.214600
H12721	H1272	0.737800	0.487600	0.191600
C13431	C1343	0.778900	0.464700	0.232200
C13441	C1344	0.780400	0.443800	0.265800
H12731	H1273	0.807800	0.437800	0.277900
C13451	C1345	0.741600	0.431500	0.281900
C13461	C1346	0.701500	0.440200	0.264400
C13471	C1347	0.655800	0.470700	0.208900
H12741	H1274	0.631300	0.460500	0.223400
H12751	H1275	0.656200	0.465500	0.177600
H12761	H1276	0.652000	0.492300	0.212100
C13481	C1348	0.821000	0.478900	0.211500
H12771	H1277	0.812400	0.493000	0.188400
H12781	H1278	0.839500	0.463300	0.198700
H12791	H1279	0.837600	0.489400	0.234400
C13491	C1349	0.742700	0.410400	0.319100
H12801	H1280	0.712600	0.404000	0.326100
H12811	H1281	0.755700	0.420100	0.344900
H12821	H1282	0.760300	0.393000	0.311000
C13501	C1350	0.695500	0.476200	0.355800
C13511	C1351	0.762000	0.522600	0.313500
C13521	C1352	0.794300	0.561700	0.262000
C13531	C1353	0.835000	0.571100	0.280200
C13541	C1354	0.856200	0.593200	0.256900
H12831	H1283	0.883600	0.600100	0.267800
C13551	C1355	0.840200	0.605900	0.218700
C13561	C1356	0.800100	0.595100	0.201100
H12841	H1284	0.788300	0.603200	0.174800
C13571	C1357	0.778400	0.572500	0.222900
C13581	C1358	0.734900	0.562000	0.204100
C13591	C1359	0.730800	0.548100	0.165100
C13601	C1360	0.689600	0.539200	0.149000
H12851	H1285	0.687800	0.527400	0.123100
C13611	C1361	0.651800	0.547500	0.170500
C13621	C1362	0.655200	0.563700	0.208400
H12861	H1286	0.629000	0.569500	0.223100
C13631	C1363	0.694100	0.571700	0.225900
C13641	C1364	0.696100	0.591500	0.264300
H12871	H1287	0.726900	0.594900	0.272400
H12881	H1288	0.680600	0.582300	0.289000
H12891	H1289	0.682200	0.610500	0.257000
C13651	C1365	0.772400	0.540000	0.140200
H12901	H1290	0.764500	0.530100	0.112600
H12911	H1291	0.790300	0.526600	0.158100
H12921	H1292	0.789100	0.558100	0.133700
C13661	C1366	0.612700	0.538600	0.142600
H12931	H1293	0.622900	0.526900	0.117400
H12941	H1294	0.597700	0.556500	0.132000
H12951	H1295	0.592300	0.526800	0.160300
C13671	C1367	0.854700	0.559600	0.322900
C13681	C1368	0.834200	0.567800	0.360400
C13691	C1369	0.794500	0.589000	0.362400
H12961	H1296	0.785400	0.591600	0.393100
H12971	H1297	0.770100	0.580500	0.345500
H12981	H1298	0.802700	0.608300	0.349900
C13701	C1370	0.853100	0.558500	0.400100
H12991	H1299	0.839200	0.563500	0.427100
C13711	C1371	0.893400	0.541500	0.401100
C13721	C1372	0.904800	0.532200	0.364700
H13001	H1300	0.924100	0.515600	0.364500
C13731	C1373	0.892100	0.543800	0.322800
C13741	C1374	0.914500	0.534200	0.279400
H13011	H1301	0.941200	0.522900	0.286100
H13021	H1302	0.922100	0.551800	0.262200
H13031	H1303	0.894300	0.521700	0.262500
C13751	C1375	0.918300	0.533200	0.439700
H13041	H1304	0.905100	0.542300	0.465800
H13051	H1305	0.948700	0.540100	0.436500
H13061	H1306	0.918100	0.511500	0.442900
C13761	C1376	0.863300	0.630000	0.195200
C13771	C1377	0.855600	0.638600	0.155100
H13071	H1307	0.833500	0.628000	0.139400
C13781	C1378	0.876200	0.661200	0.133100
C13791	C1379	0.910400	0.676500	0.155000
C13801	C1380	0.921600	0.668200	0.197800
C13811	C1381	0.896500	0.645900	0.218800
H13081	H1308	0.901800	0.641500	0.248900
C13821	C1382	0.958100	0.681400	0.222100
C13831	C1383	0.957900	0.710300	0.235500
C13841	C1384	0.992800	0.719600	0.263300
H13091	H1309	0.989200	0.737200	0.280300
C13851	C1385	0.030900	0.704500	0.266500
C13861	C1386	0.030700	0.676400	0.254000
H13101	H1310	0.055500	0.664500	0.261100
C13871	C1387	0.996600	0.663300	0.231000
C13881	C1388	0.000100	0.632600	0.214600
H13111	H1311	0.973000	0.627200	0.199200
H13121	H1312	0.004800	0.619100	0.239400
H13131	H1313	0.025000	0.631200	0.194200
C13891	C1389	0.919700	0.731200	0.230100
H13141	H1314	0.927400	0.750700	0.242200
H13151	H1315	0.894100	0.723200	0.245700
H13161	H1316	0.912700	0.733200	0.198700
C13901	C1390	0.074200	0.718300	0.288700
H13171	H1317	0.068900	0.739200	0.296000
H13181	H1318	0.098800	0.716900	0.268000
H13191	H1319	0.081300	0.707200	0.315500
C13911	C1391	0.857100	0.671800	0.089800
C13921	C1392	0.866700	0.658100	0.050000
C13931	C1393	0.847100	0.668100	0.011400
H13201	H1320	0.853700	0.658700	0.984200
C13941	C1394	0.817900	0.691800	0.012700
C13951	C1395	0.808300	0.705500	0.052500
H13211	H1321	0.788300	0.721800	0.053400
C13961	C1396	0.827900	0.695500	0.091000
C13971	C1397	0.894800	0.631500	0.051500
H13221	H1322	0.888100	0.618700	0.026300
H13231	H1323	0.925700	0.637500	0.050300
H13241	H1324	0.889300	0.620600	0.078900
C13981	C1398	0.817400	0.712400	0.130900
H13251	H1325	0.805800	0.697500	0.148400
H13261	H1326	0.796200	0.728800	0.125300
H13271	H1327	0.843700	0.722000	0.145400
C13991	C1399	0.797100	0.700900	0.967600
H13281	H1328	0.777100	0.717800	0.972100
H13291	H1329	0.780700	0.684100	0.955500
H13301	H1330	0.820400	0.706700	0.947100
C14001	C1400	0.955000	0.720300	0.127400
Cu151	Cu15	0.248700	0.999880	0.366460
N571	N57	0.016400	0.797000	0.188400
N581	N58	0.168100	0.960300	0.344400
N591	N59	0.272900	0.038800	0.285400
N601	N60	0.431100	0.200700	0.135700
C14011	C1401	0.007600	0.779000	0.165400
C14021	C1402	0.036100	0.821100	0.213000
C14031	C1403	0.078700	0.830300	0.199100
C14041	C1404	0.097400	0.853000	0.220100
H13311	H1331	0.125800	0.859400	0.211000
C14051	C1405	0.077400	0.867600	0.254100
C14061	C1406	0.034700	0.858900	0.266700
H13321	H1332	0.020000	0.869900	0.289000
C14071	C1407	0.014100	0.835500	0.248000
C14081	C1408	0.971300	0.824200	0.265500
C14091	C1409	0.973400	0.801900	0.299600
C14101	C1410	0.931400	0.792800	0.319900
H13331	H1333	0.931400	0.778700	0.343100
C14111	C1411	0.893700	0.804200	0.306000
C14121	C1412	0.891600	0.828500	0.275300
H13341	H1334	0.864700	0.837600	0.267100
C14131	C1413	0.934300	0.838100	0.257500
C14141	C1414	0.929800	0.865500	0.228400
H13351	H1335	0.898900	0.871800	0.227600
H13361	H1336	0.939600	0.860700	0.198500
H13371	H1337	0.947800	0.881600	0.240200
C14151	C1415	0.016800	0.789300	0.314700
H13381	H1338	0.011700	0.774600	0.337900
H13391	H1339	0.035300	0.805300	0.326100
H13401	H1340	0.031600	0.779700	0.289800
C14161	C1416	0.848400	0.794100	0.324600
H13411	H1341	0.824900	0.805200	0.310000
H13421	H1342	0.847500	0.797900	0.356400
H13431	H1343	0.844500	0.772800	0.319200
C14171	C1417	0.100800	0.815500	0.160200
C14181	C1418	0.110400	0.834100	0.122400
C14191	C1419	0.134900	0.821900	0.088500
H13441	H1344	0.144200	0.834400	0.065100
C14201	C1420	0.146600	0.791100	0.087300
C14211	C1421	0.140500	0.776400	0.124400
H13451	H1345	0.151300	0.756700	0.126100
C14221	C1422	0.118700	0.788200	0.161700
C14231	C1423	0.112800	0.768000	0.202100
H13461	H1346	0.128100	0.749100	0.197200
H13471	H1347	0.081400	0.764200	0.206800
H13481	H1348	0.125100	0.777800	0.228100
C14241	C1424	0.164800	0.777900	0.047700
H13491	H1349	0.166300	0.793000	0.024500
H13501	H1350	0.146000	0.761500	0.038100
H13511	H1351	0.194400	0.770400	0.053900
C14251	C1425	0.094900	0.866100	0.119900
H13521	H1352	0.078200	0.871000	0.146500
H13531	H1353	0.076200	0.868700	0.094000
H13541	H1354	0.120400	0.879300	0.117600
C14261	C1426	0.099100	0.893000	0.277600
C14271	C1427	0.137600	0.905700	0.260100
H13551	H1355	0.148200	0.899200	0.232400
C14281	C1428	0.159900	0.927300	0.283000
C14291	C1429	0.143500	0.938400	0.322100
C14301	C1430	0.104600	0.926900	0.340800
C14311	C1431	0.084700	0.904000	0.318200
C14321	C1432	0.087600	0.936800	0.384200
C14331	C1433	0.108600	0.928900	0.421300
C14341	C1434	0.093100	0.936100	0.463200
H13561	H1356	0.109600	0.930700	0.488500
C14351	C1435	0.056600	0.950000	0.467200
C14361	C1436	0.033200	0.958100	0.429700
H13571	H1357	0.006900	0.969200	0.433500
C14371	C1437	0.046500	0.950600	0.385200
C14381	C1438	0.019800	0.957400	0.347800
H13581	H1358	0.992600	0.967100	0.357500
H13591	H1359	0.012700	0.939100	0.332000
H13601	H1360	0.035900	0.970900	0.328200
C14391	C1439	0.152500	0.910200	0.419100
H13611	H1361	0.163200	0.906500	0.449000
H13621	H1362	0.174700	0.921400	0.402600
H13631	H1363	0.146800	0.891200	0.404300
C14401	C1440	0.039600	0.960000	0.514100
H13641	H1364	0.011400	0.970300	0.511000
H13651	H1365	0.061100	0.973500	0.527500
H13661	H1366	0.035900	0.942500	0.532900
C14411	C1441	0.200000	0.961100	0.230700
C14421	C1442	0.238800	0.973300	0.214600
H13671	H1367	0.237800	0.987600	0.191600
C14431	C1443	0.278900	0.964700	0.232200
C14441	C1444	0.280400	0.943800	0.265800
H13681	H1368	0.307800	0.937800	0.277900
C14451	C1445	0.241600	0.931500	0.281900
C14461	C1446	0.201500	0.940200	0.264400
C14471	C1447	0.155800	0.970700	0.208900
H13691	H1369	0.131300	0.960500	0.223400
H13701	H1370	0.156200	0.965500	0.177600
H13711	H1371	0.152000	0.992300	0.212100
C14481	C1448	0.321000	0.978900	0.211500
H13721	H1372	0.312400	0.993000	0.188400
H13731	H1373	0.339500	0.963300	0.198700
H13741	H1374	0.337600	0.989400	0.234400
C14491	C1449	0.242700	0.910400	0.319100
H13751	H1375	0.212600	0.904000	0.326100
H13761	H1376	0.255700	0.920100	0.344900
H13771	H1377	0.260300	0.893000	0.311000
C14501	C1450	0.195500	0.976200	0.355800
C14511	C1451	0.262000	0.022600	0.313500
C14521	C1452	0.294300	0.061700	0.262000
C14531	C1453	0.335000	0.071100	0.280200
C14541	C1454	0.356200	0.093200	0.256900
H13781	H1378	0.383600	0.100100	0.267800
C14551	C1455	0.340200	0.105900	0.218700
C14561	C1456	0.300100	0.095100	0.201100
H13791	H1379	0.288300	0.103200	0.174800
C14571	C1457	0.278400	0.072500	0.222900
C14581	C1458	0.234900	0.062000	0.204100
C14591	C1459	0.230800	0.048100	0.165100
C14601	C1460	0.189600	0.039200	0.149000
H13801	H1380	0.187800	0.027400	0.123100
C14611	C1461	0.151800	0.047500	0.170500
C14621	C1462	0.155200	0.063700	0.208400
H13811	H1381	0.129000	0.069500	0.223100
C14631	C1463	0.194100	0.071700	0.225900
C14641	C1464	0.196100	0.091500	0.264300
H13821	H1382	0.226900	0.094900	0.272400
H13831	H1383	0.180600	0.082300	0.289000
H13841	H1384	0.182200	0.110500	0.257000
C14651	C1465	0.272400	0.040000	0.140200
H13851	H1385	0.264500	0.030100	0.112600
H13861	H1386	0.290300	0.026600	0.158100
H13871	H1387	0.289100	0.058100	0.133700
C14661	C1466	0.112700	0.038600	0.142600
H13881	H1388	0.122900	0.026900	0.117400
H13891	H1389	0.097700	0.056500	0.132000
H13901	H1390	0.092300	0.026800	0.160300
C14671	C1467	0.354700	0.059600	0.322900
C14681	C1468	0.334200	0.067800	0.360400
C14691	C1469	0.294500	0.089000	0.362400
H13911	H1391	0.285400	0.091600	0.393100
H13921	H1392	0.270100	0.080500	0.345500
H13931	H1393	0.302700	0.108300	0.349900
C14701	C1470	0.353100	0.058500	0.400100
H13941	H1394	0.339200	0.063500	0.427100
C14711	C1471	0.393400	0.041500	0.401100
C14721	C1472	0.404800	0.032200	0.364700
H13951	H1395	0.424100	0.015600	0.364500
C14731	C1473	0.392100	0.043800	0.322800
C14741	C1474	0.414500	0.034200	0.279400
H13961	H1396	0.441200	0.022900	0.286100
H13971	H1397	0.422100	0.051800	0.262200
H13981	H1398	0.394300	0.021700	0.262500
C14751	C1475	0.418300	0.033200	0.439700
H13991	H1399	0.405100	0.042300	0.465800
H14001	H1400	0.448700	0.040100	0.436500
H14011	H1401	0.418100	0.011500	0.442900
C14761	C1476	0.363300	0.130000	0.195200
C14771	C1477	0.355600	0.138600	0.155100
H14021	H1402	0.333500	0.128000	0.139400
C14781	C1478	0.376200	0.161200	0.133100
C14791	C1479	0.410400	0.176500	0.155000
C14801	C1480	0.421600	0.168200	0.197800
C14811	C1481	0.396500	0.145900	0.218800
H14031	H1403	0.401800	0.141500	0.248900
C14821	C1482	0.458100	0.181400	0.222100
C14831	C1483	0.457900	0.210300	0.235500
C14841	C1484	0.492800	0.219600	0.263300
H14041	H1404	0.489200	0.237200	0.280300
C14851	C1485	0.530900	0.204500	0.266500
C14861	C1486	0.530700	0.176400	0.254000
H14051	H1405	0.555500	0.164500	0.261100
C14871	C1487	0.496600	0.163300	0.231000
C14881	C1488	0.500100	0.132600	0.214600
H14061	H1406	0.473000	0.127200	0.199200
H14071	H1407	0.504800	0.119100	0.239400
H14081	H1408	0.525000	0.131200	0.194200
C14891	C1489	0.419700	0.231200	0.230100
H14091	H1409	0.427400	0.250700	0.242200
H14101	H1410	0.394100	0.223200	0.245700
H14111	H1411	0.412700	0.233200	0.198700
C14901	C1490	0.574200	0.218300	0.288700
H14121	H1412	0.568900	0.239200	0.296000
H14131	H1413	0.598800	0.216900	0.268000
H14141	H1414	0.581300	0.207200	0.315500
C14911	C1491	0.357100	0.171800	0.089800
C14921	C1492	0.366700	0.158100	0.050000
C14931	C1493	0.347100	0.168100	0.011400
H14151	H1415	0.353700	0.158700	0.984200
C14941	C1494	0.317900	0.191800	0.012700
C14951	C1495	0.308300	0.205500	0.052500
H14161	H1416	0.288300	0.221800	0.053400
C14961	C1496	0.327900	0.195500	0.091000
C14971	C1497	0.394800	0.131500	0.051500
H14171	H1417	0.388100	0.118700	0.026300
H14181	H1418	0.425700	0.137500	0.050300
H14191	H1419	0.389300	0.120600	0.078900
C14981	C1498	0.317400	0.212400	0.130900
H14201	H1420	0.305800	0.197500	0.148400
H14211	H1421	0.296200	0.228800	0.125300
H14221	H1422	0.343700	0.222000	0.145400
C14991	C1499	0.297100	0.200900	0.967600
H14231	H1423	0.277100	0.217800	0.972100
H14241	H1424	0.280700	0.184100	0.955500
H14251	H1425	0.320400	0.206700	0.947100
C15001	C1500	0.455000	0.220300	0.127400
Cu161	Cu16	0.248700	0.499880	0.866460
N611	N61	0.016400	0.297000	0.688400
N621	N62	0.168100	0.460300	0.844400
N631	N63	0.272900	0.538800	0.785400
N641	N64	0.431100	0.700700	0.635700
C15011	C1501	0.007600	0.279000	0.665400
C15021	C1502	0.036100	0.321100	0.713000
C15031	C1503	0.078700	0.330300	0.699100
C15041	C1504	0.097400	0.353000	0.720100
H14261	H1426	0.125800	0.359400	0.711000
C15051	C1505	0.077400	0.367600	0.754100
C15061	C1506	0.034700	0.358900	0.766700
H14271	H1427	0.020000	0.369900	0.789000
C15071	C1507	0.014100	0.335500	0.748000
C15081	C1508	0.971300	0.324200	0.765500
C15091	C1509	0.973400	0.301900	0.799600
C15101	C1510	0.931400	0.292800	0.819900
H14281	H1428	0.931400	0.278700	0.843100
C15111	C1511	0.893700	0.304200	0.806000
C15121	C1512	0.891600	0.328500	0.775300
H14291	H1429	0.864700	0.337600	0.767100
C15131	C1513	0.934300	0.338100	0.757500
C15141	C1514	0.929800	0.365500	0.728400
H14301	H1430	0.898900	0.371800	0.727600
H14311	H1431	0.939600	0.360700	0.698500
H14321	H1432	0.947800	0.381600	0.740200
C15151	C1515	0.016800	0.289300	0.814700
H14331	H1433	0.011700	0.274600	0.837900
H14341	H1434	0.035300	0.305300	0.826100
H14351	H1435	0.031600	0.279700	0.789800
C15161	C1516	0.848400	0.294100	0.824600
H14361	H1436	0.824900	0.305200	0.810000
H14371	H1437	0.847500	0.297900	0.856400
H14381	H1438	0.844500	0.272800	0.819200
C15171	C1517	0.100800	0.315500	0.660200
C15181	C1518	0.110400	0.334100	0.622400
C15191	C1519	0.134900	0.321900	0.588500
H14391	H1439	0.144200	0.334400	0.565100
C15201	C1520	0.146600	0.291100	0.587300
C15211	C1521	0.140500	0.276400	0.624400
H14401	H1440	0.151300	0.256700	0.626100
C15221	C1522	0.118700	0.288200	0.661700
C15231	C1523	0.112800	0.268000	0.702100
H14411	H1441	0.128100	0.249100	0.697200
H14421	H1442	0.081400	0.264200	0.706800
H14431	H1443	0.125100	0.277800	0.728100
C15241	C1524	0.164800	0.277900	0.547700
H14441	H1444	0.166300	0.293000	0.524500
H14451	H1445	0.146000	0.261500	0.538100
H14461	H1446	0.194400	0.270400	0.553900
C15251	C1525	0.094900	0.366100	0.619900
H14471	H1447	0.078200	0.371000	0.646500
H14481	H1448	0.076200	0.368700	0.594000
H14491	H1449	0.120400	0.379300	0.617600
C15261	C1526	0.099100	0.393000	0.777600
C15271	C1527	0.137600	0.405700	0.760100
H14501	H1450	0.148200	0.399200	0.732400
C15281	C1528	0.159900	0.427300	0.783000
C15291	C1529	0.143500	0.438400	0.822100
C15301	C1530	0.104600	0.426900	0.840800
C15311	C1531	0.084700	0.404000	0.818200
C15321	C1532	0.087600	0.436800	0.884200
C15331	C1533	0.108600	0.428900	0.921300
C15341	C1534	0.093100	0.436100	0.963200
H14511	H1451	0.109600	0.430700	0.988500
C15351	C1535	0.056600	0.450000	0.967200
C15361	C1536	0.033200	0.458100	0.929700
H14521	H1452	0.006900	0.469200	0.933500
C15371	C1537	0.046500	0.450600	0.885200
C15381	C1538	0.019800	0.457400	0.847800
H14531	H1453	0.992600	0.467100	0.857500
H14541	H1454	0.012700	0.439100	0.832000
H14551	H1455	0.035900	0.470900	0.828200
C15391	C1539	0.152500	0.410200	0.919100
H14561	H1456	0.163200	0.406500	0.949000
H14571	H1457	0.174700	0.421400	0.902600
H14581	H1458	0.146800	0.391200	0.904300
C15401	C1540	0.039600	0.460000	0.014100
H14591	H1459	0.011400	0.470300	0.011000
H14601	H1460	0.061100	0.473500	0.027500
H14611	H1461	0.035900	0.442500	0.032900
C15411	C1541	0.200000	0.461100	0.730700
C15421	C1542	0.238800	0.473300	0.714600
H14621	H1462	0.237800	0.487600	0.691600
C15431	C1543	0.278900	0.464700	0.732200
C15441	C1544	0.280400	0.443800	0.765800
H14631	H1463	0.307800	0.437800	0.777900
C15451	C1545	0.241600	0.431500	0.781900
C15461	C1546	0.201500	0.440200	0.764400
C15471	C1547	0.155800	0.470700	0.708900
H14641	H1464	0.131300	0.460500	0.723400
H14651	H1465	0.156200	0.465500	0.677600
H14661	H1466	0.152000	0.492300	0.712100
C15481	C1548	0.321000	0.478900	0.711500
H14671	H1467	0.312400	0.493000	0.688400
H14681	H1468	0.339500	0.463300	0.698700
H14691	H1469	0.337600	0.489400	0.734400
C15491	C1549	0.242700	0.410400	0.819100
H14701	H1470	0.212600	0.404000	0.826100
H14711	H1471	0.255700	0.420100	0.844900
H14721	H1472	0.260300	0.393000	0.811000
C15501	C1550	0.195500	0.476200	0.855800
C15511	C1551	0.262000	0.522600	0.813500
C15521	C1552	0.294300	0.561700	0.762000
C15531	C1553	0.335000	0.571100	0.780200
C15541	C1554	0.356200	0.593200	0.756900
H14731	H1473	0.383600	0.600100	0.767800
C15551	C1555	0.340200	0.605900	0.718700
C15561	C1556	0.300100	0.595100	0.701100
H14741	H1474	0.288300	0.603200	0.674800
C15571	C1557	0.278400	0.572500	0.722900
C15581	C1558	0.234900	0.562000	0.704100
C15591	C1559	0.230800	0.548100	0.665100
C15601	C1560	0.189600	0.539200	0.649000
H14751	H1475	0.187800	0.527400	0.623100
C15611	C1561	0.151800	0.547500	0.670500
C15621	C1562	0.155200	0.563700	0.708400
H14761	H1476	0.129000	0.569500	0.723100
C15631	C1563	0.194100	0.571700	0.725900
C15641	C1564	0.196100	0.591500	0.764300
H14771	H1477	0.226900	0.594900	0.772400
H14781	H1478	0.180600	0.582300	0.789000
H14791	H1479	0.182200	0.610500	0.757000
C15651	C1565	0.272400	0.540000	0.640200
H14801	H1480	0.264500	0.530100	0.612600
H14811	H1481	0.290300	0.526600	0.658100
H14821	H1482	0.289100	0.558100	0.633700
C15661	C1566	0.112700	0.538600	0.642600
H14831	H1483	0.122900	0.526900	0.617400
H14841	H1484	0.097700	0.556500	0.632000
H14851	H1485	0.092300	0.526800	0.660300
C15671	C1567	0.354700	0.559600	0.822900
C15681	C1568	0.334200	0.567800	0.860400
C15691	C1569	0.294500	0.589000	0.862400
H14861	H1486	0.285400	0.591600	0.893100
H14871	H1487	0.270100	0.580500	0.845500
H14881	H1488	0.302700	0.608300	0.849900
C15701	C1570	0.353100	0.558500	0.900100
H14891	H1489	0.339200	0.563500	0.927100
C15711	C1571	0.393400	0.541500	0.901100
C15721	C1572	0.404800	0.532200	0.864700
H14901	H1490	0.424100	0.515600	0.864500
C15731	C1573	0.392100	0.543800	0.822800
C15741	C1574	0.414500	0.534200	0.779400
H14911	H1491	0.441200	0.522900	0.786100
H14921	H1492	0.422100	0.551800	0.762200
H14931	H1493	0.394300	0.521700	0.762500
C15751	C1575	0.418300	0.533200	0.939700
H14941	H1494	0.405100	0.542300	0.965800
H14951	H1495	0.448700	0.540100	0.936500
H14961	H1496	0.418100	0.511500	0.942900
C15761	C1576	0.363300	0.630000	0.695200
C15771	C1577	0.355600	0.638600	0.655100
H14971	H1497	0.333500	0.628000	0.639400
C15781	C1578	0.376200	0.661200	0.633100
C15791	C1579	0.410400	0.676500	0.655000
C15801	C1580	0.421600	0.668200	0.697800
C15811	C1581	0.396500	0.645900	0.718800
H14981	H1498	0.401800	0.641500	0.748900
C15821	C1582	0.458100	0.681400	0.722100
C15831	C1583	0.457900	0.710300	0.735500
C15841	C1584	0.492800	0.719600	0.763300
H14991	H1499	0.489200	0.737200	0.780300
C15851	C1585	0.530900	0.704500	0.766500
C15861	C1586	0.530700	0.676400	0.754000
H15001	H1500	0.555500	0.664500	0.761100
C15871	C1587	0.496600	0.663300	0.731000
C15881	C1588	0.500100	0.632600	0.714600
H15011	H1501	0.473000	0.627200	0.699200
H15021	H1502	0.504800	0.619100	0.739400
H15031	H1503	0.525000	0.631200	0.694200
C15891	C1589	0.419700	0.731200	0.730100
H15041	H1504	0.427400	0.750700	0.742200
H15051	H1505	0.394100	0.723200	0.745700
H15061	H1506	0.412700	0.733200	0.698700
C15901	C1590	0.574200	0.718300	0.788700
H15071	H1507	0.568900	0.739200	0.796000
H15081	H1508	0.598800	0.716900	0.768000
H15091	H1509	0.581300	0.707200	0.815500
C15911	C1591	0.357100	0.671800	0.589800
C15921	C1592	0.366700	0.658100	0.550000
C15931	C1593	0.347100	0.668100	0.511400
H15101	H1510	0.353700	0.658700	0.484200
C15941	C1594	0.317900	0.691800	0.512700
C15951	C1595	0.308300	0.705500	0.552500
H15111	H1511	0.288300	0.721800	0.553400
C15961	C1596	0.327900	0.695500	0.591000
C15971	C1597	0.394800	0.631500	0.551500
H15121	H1512	0.388100	0.618700	0.526300
H15131	H1513	0.425700	0.637500	0.550300
H15141	H1514	0.389300	0.620600	0.578900
C15981	C1598	0.317400	0.712400	0.630900
H15151	H1515	0.305800	0.697500	0.648400
H15161	H1516	0.296200	0.728800	0.625300
H15171	H1517	0.343700	0.722000	0.645400
C15991	C1599	0.297100	0.700900	0.467600
H15181	H1518	0.277100	0.717800	0.472100
H15191	H1519	0.280700	0.684100	0.455500
H15201	H1520	0.320400	0.706700	0.447100
C16001	C1600	0.455000	0.720300	0.627400
