data_HAKTAR_freeONLY_PM
_symmetry_space_group_name_H-M	'P1'
_cell_length_a	13.905000
_cell_length_b	13.905000
_cell_length_c	18.466300
_cell_angle_alpha	90.000000
_cell_angle_beta	90.000000
_cell_angle_gamma	120.000000
_symmetry_Int_Tables_number 1

loop_
_symmetry_equiv_pos_as_xyz
'x,y,z'

loop_
_atom_site_label
_atom_site_type_symbol
_atom_site_fract_x
_atom_site_fract_y
_atom_site_fract_z
O11	O1	0.863200	0.351500	0.335470
C11	C1	0.972900	0.571300	0.466800
H11	H1	0.954900	0.620400	0.444800
O21	O2	0.648500	0.511700	0.335470
C21	C2	0.428700	0.401600	0.466800
H21	H2	0.379600	0.334500	0.444800
O31	O3	0.488300	0.136800	0.335470
C31	C3	0.598400	0.027100	0.466800
H31	H3	0.665500	0.045100	0.444800
O41	O4	0.136800	0.648500	0.835470
C41	C4	0.027100	0.428700	0.966800
H41	H4	0.045100	0.379600	0.944800
O51	O5	0.351500	0.488300	0.835470
C51	C5	0.571300	0.598400	0.966800
H51	H5	0.620400	0.665500	0.944800
O61	O6	0.511700	0.863200	0.835470
C61	C6	0.401600	0.972900	0.966800
H61	H6	0.334500	0.954900	0.944800
O71	O7	0.351500	0.863200	0.664530
C71	C7	0.571300	0.972900	0.533200
H71	H7	0.620400	0.954900	0.555200
O81	O8	0.511700	0.648500	0.664530
C81	C8	0.401600	0.428700	0.533200
H81	H8	0.334500	0.379600	0.555200
O91	O9	0.136800	0.488300	0.664530
C91	C9	0.027100	0.598400	0.533200
H91	H9	0.045100	0.665500	0.555200
O101	O10	0.648500	0.136800	0.164530
C101	C10	0.428700	0.027100	0.033200
H101	H10	0.379600	0.045100	0.055200
O111	O11	0.488300	0.351500	0.164530
C111	C11	0.598400	0.571300	0.033200
H111	H11	0.665500	0.620400	0.055200
O121	O12	0.863200	0.511700	0.164530
C121	C12	0.972900	0.401600	0.033200
H121	H12	0.954900	0.334500	0.055200
O131	O13	0.136800	0.648500	0.664530
C131	C13	0.027100	0.428700	0.533200
H131	H13	0.045100	0.379600	0.555200
O141	O14	0.351500	0.488300	0.664530
C141	C14	0.571300	0.598400	0.533200
H141	H14	0.620400	0.665500	0.555200
O151	O15	0.511700	0.863200	0.664530
C151	C15	0.401600	0.972900	0.533200
H151	H15	0.334500	0.954900	0.555200
O161	O16	0.863200	0.351500	0.164530
C161	C16	0.972900	0.571300	0.033200
H161	H16	0.954900	0.620400	0.055200
O171	O17	0.648500	0.511700	0.164530
C171	C17	0.428700	0.401600	0.033200
H171	H17	0.379600	0.334500	0.055200
O181	O18	0.488300	0.136800	0.164530
C181	C18	0.598400	0.027100	0.033200
H181	H18	0.665500	0.045100	0.055200
O191	O19	0.648500	0.136800	0.335470
C191	C19	0.428700	0.027100	0.466800
H191	H19	0.379600	0.045100	0.444800
O201	O20	0.488300	0.351500	0.335470
C201	C20	0.598400	0.571300	0.466800
H201	H20	0.665500	0.620400	0.444800
O211	O21	0.863200	0.511700	0.335470
C211	C21	0.972900	0.401600	0.466800
H211	H21	0.954900	0.334500	0.444800
O221	O22	0.351500	0.863200	0.835470
C221	C22	0.571300	0.972900	0.966800
H221	H22	0.620400	0.954900	0.944800
O231	O23	0.511700	0.648500	0.835470
C231	C23	0.401600	0.428700	0.966800
H231	H23	0.334500	0.379600	0.944800
O241	O24	0.136800	0.488300	0.835470
C241	C24	0.027100	0.598400	0.966800
H241	H24	0.045100	0.665500	0.944800
In11	In1	0.750950	0.249050	0.250000
N11	N1	0.840700	0.159300	0.250000
In21	In2	0.750950	0.501900	0.250000
N21	N2	0.840700	0.681400	0.250000
In31	In3	0.498100	0.249050	0.250000
N31	N3	0.318600	0.159300	0.250000
In41	In4	0.249050	0.750950	0.750000
N41	N4	0.159300	0.840700	0.750000
In51	In5	0.249050	0.498100	0.750000
N51	N5	0.159300	0.318600	0.750000
In61	In6	0.501900	0.750950	0.750000
N61	N6	0.681400	0.840700	0.750000
O251	O25	0.666670	0.333330	0.250000
O261	O26	0.333330	0.666670	0.750000
C251	C25	0.886100	0.443050	0.362200
C261	C26	0.945800	0.472900	0.433400
C271	C27	0.556950	0.443050	0.362200
C281	C28	0.527100	0.472900	0.433400
C291	C29	0.556950	0.113900	0.362200
C301	C30	0.527100	0.054200	0.433400
C311	C31	0.113900	0.556950	0.862200
C321	C32	0.054200	0.527100	0.933400
C331	C33	0.443050	0.556950	0.862200
C341	C34	0.472900	0.527100	0.933400
C351	C35	0.443050	0.886100	0.862200
C361	C36	0.472900	0.945800	0.933400
C371	C37	0.443050	0.886100	0.637800
C381	C38	0.472900	0.945800	0.566600
C391	C39	0.443050	0.556950	0.637800
C401	C40	0.472900	0.527100	0.566600
C411	C41	0.113900	0.556950	0.637800
C421	C42	0.054200	0.527100	0.566600
C431	C43	0.556950	0.113900	0.137800
C441	C44	0.527100	0.054200	0.066600
C451	C45	0.556950	0.443050	0.137800
C461	C46	0.527100	0.472900	0.066600
C471	C47	0.886100	0.443050	0.137800
C481	C48	0.945800	0.472900	0.066600
C491	C49	0.874900	0.125100	0.306800
H251	H25	0.863000	0.137000	0.354700
N71	N7	0.927510	0.072490	0.287400
C501	C50	0.874900	0.749800	0.306800
H261	H26	0.863000	0.726000	0.354700
N81	N8	0.927510	0.855020	0.287400
C511	C51	0.250200	0.125100	0.306800
H271	H27	0.274000	0.137000	0.354700
N91	N9	0.144980	0.072490	0.287400
C521	C52	0.125100	0.874900	0.806800
H281	H28	0.137000	0.863000	0.854700
N101	N10	0.072490	0.927510	0.787400
C531	C53	0.125100	0.250200	0.806800
H291	H29	0.137000	0.274000	0.854700
N111	N11	0.072490	0.144980	0.787400
C541	C54	0.749800	0.874900	0.806800
H301	H30	0.726000	0.863000	0.854700
N121	N12	0.855020	0.927510	0.787400
C551	C55	0.125100	0.874900	0.693200
H311	H31	0.137000	0.863000	0.645300
N131	N13	0.072490	0.927510	0.712600
C561	C56	0.749800	0.874900	0.693200
H321	H32	0.726000	0.863000	0.645300
N141	N14	0.855020	0.927510	0.712600
C571	C57	0.125100	0.250200	0.693200
H331	H33	0.137000	0.274000	0.645300
N151	N15	0.072490	0.144980	0.712600
C581	C58	0.874900	0.125100	0.193200
H341	H34	0.863000	0.137000	0.145300
N161	N16	0.927510	0.072490	0.212600
C591	C59	0.250200	0.125100	0.193200
H351	H35	0.274000	0.137000	0.145300
N171	N17	0.144980	0.072490	0.212600
C601	C60	0.874900	0.749800	0.193200
H361	H36	0.863000	0.726000	0.145300
N181	N18	0.927510	0.855020	0.212600
Co11	Co1	0.000000	0.000000	0.357380
Co21	Co2	0.000000	0.000000	0.857380
Co31	Co3	0.000000	0.000000	0.642620
Co41	Co4	0.000000	0.000000	0.142620
