data_HAMREU_freeONLY_PM
_symmetry_space_group_name_H-M	'P1'
_cell_length_a	13.437700
_cell_length_b	13.437700
_cell_length_c	14.853000
_cell_angle_alpha	90.000000
_cell_angle_beta	90.000000
_cell_angle_gamma	120.000000
_symmetry_Int_Tables_number 1

loop_
_symmetry_equiv_pos_as_xyz
'x,y,z'

loop_
_atom_site_label
_atom_site_type_symbol
_atom_site_fract_x
_atom_site_fract_y
_atom_site_fract_z
Ce11	Ce1	0.666670	0.333340	0.169220
Ce21	Ce2	0.333330	0.666660	0.330780
Ce31	Ce3	0.333330	0.666660	0.830780
Ce41	Ce4	0.666670	0.333340	0.669220
Cu11	Cu1	0.500000	0.000000	0.000000
Cu21	Cu2	0.500000	0.500000	0.000000
Cu31	Cu3	0.000000	0.500000	0.000000
Cu41	Cu4	0.500000	0.000000	0.500000
Cu51	Cu5	0.000000	0.500000	0.500000
Cu61	Cu6	0.500000	0.500000	0.500000
H11	H1	0.647800	0.973900	0.922900
H21	H2	0.817300	0.136300	0.979000
H31	H3	0.744500	0.037600	0.047700
H41	H4	0.729600	0.189800	0.872800
H51	H5	0.683000	0.082000	0.810000
H61	H6	0.326100	0.352200	0.922900
H71	H7	0.319000	0.182700	0.979000
H81	H8	0.293100	0.255500	0.047700
H91	H9	0.460200	0.270400	0.872800
H101	H10	0.399000	0.317000	0.810000
H111	H11	0.026100	0.673900	0.922900
H121	H12	0.863700	0.681000	0.979000
H131	H13	0.962400	0.706900	0.047700
H141	H14	0.810200	0.539800	0.872800
H151	H15	0.918000	0.601000	0.810000
H161	H16	0.673900	0.026100	0.577100
H171	H17	0.681000	0.863700	0.521000
H181	H18	0.706900	0.962400	0.452300
H191	H19	0.539800	0.810200	0.627200
H201	H20	0.601000	0.918000	0.690000
H211	H21	0.973900	0.647800	0.577100
H221	H22	0.136300	0.817300	0.521000
H231	H23	0.037600	0.744500	0.452300
H241	H24	0.189800	0.729600	0.627200
H251	H25	0.082000	0.683000	0.690000
H261	H26	0.352200	0.326100	0.577100
H271	H27	0.182700	0.319000	0.521000
H281	H28	0.255500	0.293100	0.452300
H291	H29	0.270400	0.460200	0.627200
H301	H30	0.317000	0.399000	0.690000
H311	H31	0.352200	0.026100	0.077100
H321	H32	0.182700	0.863700	0.021000
H331	H33	0.255500	0.962400	0.952300
H341	H34	0.270400	0.810200	0.127200
H351	H35	0.317000	0.918000	0.190000
H361	H36	0.673900	0.647800	0.077100
H371	H37	0.681000	0.817300	0.021000
H381	H38	0.706900	0.744500	0.952300
H391	H39	0.539800	0.729600	0.127200
H401	H40	0.601000	0.683000	0.190000
H411	H41	0.973900	0.326100	0.077100
H421	H42	0.136300	0.319000	0.021000
H431	H43	0.037600	0.293100	0.952300
H441	H44	0.189800	0.460200	0.127200
H451	H45	0.082000	0.399000	0.190000
H461	H46	0.326100	0.973900	0.422900
H471	H47	0.319000	0.136300	0.479000
H481	H48	0.293100	0.037600	0.547700
H491	H49	0.460200	0.189800	0.372800
H501	H50	0.399000	0.082000	0.310000
H511	H51	0.026100	0.352200	0.422900
H521	H52	0.863700	0.182700	0.479000
H531	H53	0.962400	0.255500	0.547700
H541	H54	0.810200	0.270400	0.372800
H551	H55	0.918000	0.317000	0.310000
H561	H56	0.647800	0.673900	0.422900
H571	H57	0.817300	0.681000	0.479000
H581	H58	0.744500	0.706900	0.547700
H591	H59	0.729600	0.539800	0.372800
H601	H60	0.683000	0.601000	0.310000
C11	C1	0.728300	0.179800	0.067600
C21	C2	0.743800	0.095800	0.009600
C31	C3	0.665100	0.113300	0.862300
C41	C4	0.562300	0.121900	0.843000
C51	C5	0.451500	0.271700	0.067600
C61	C6	0.352000	0.256200	0.009600
C71	C7	0.448200	0.334900	0.862300
C81	C8	0.559600	0.437700	0.843000
C91	C9	0.820200	0.548500	0.067600
C101	C10	0.904200	0.648000	0.009600
C111	C11	0.886700	0.551800	0.862300
C121	C12	0.878100	0.440400	0.843000
C131	C13	0.548500	0.820200	0.432400
C141	C14	0.648000	0.904200	0.490400
C151	C15	0.551800	0.886700	0.637700
C161	C16	0.440400	0.878100	0.657000
C171	C17	0.179800	0.728300	0.432400
C181	C18	0.095800	0.743800	0.490400
C191	C19	0.113300	0.665100	0.637700
C201	C20	0.121900	0.562300	0.657000
C211	C21	0.271700	0.451500	0.432400
C221	C22	0.256200	0.352000	0.490400
C231	C23	0.334900	0.448200	0.637700
C241	C24	0.437700	0.559600	0.657000
C251	C25	0.271700	0.820200	0.932400
C261	C26	0.256200	0.904200	0.990400
C271	C27	0.334900	0.886700	0.137700
C281	C28	0.437700	0.878100	0.157000
C291	C29	0.548500	0.728300	0.932400
C301	C30	0.648000	0.743800	0.990400
C311	C31	0.551800	0.665100	0.137700
C321	C32	0.440400	0.562300	0.157000
C331	C33	0.179800	0.451500	0.932400
C341	C34	0.095800	0.352000	0.990400
C351	C35	0.113300	0.448200	0.137700
C361	C36	0.121900	0.559600	0.157000
C371	C37	0.451500	0.179800	0.567600
C381	C38	0.352000	0.095800	0.509600
C391	C39	0.448200	0.113300	0.362300
C401	C40	0.559600	0.121900	0.343000
C411	C41	0.820200	0.271700	0.567600
C421	C42	0.904200	0.256200	0.509600
C431	C43	0.886700	0.334900	0.362300
C441	C44	0.878100	0.437700	0.343000
C451	C45	0.728300	0.548500	0.567600
C461	C46	0.743800	0.648000	0.509600
C471	C47	0.665100	0.551800	0.362300
C481	C48	0.562300	0.440400	0.343000
N11	N1	0.651000	0.039800	0.942100
N21	N2	0.388800	0.349000	0.942100
N31	N3	0.960200	0.611200	0.942100
N41	N4	0.611200	0.960200	0.557900
N51	N5	0.039800	0.651000	0.557900
N61	N6	0.349000	0.388800	0.557900
N71	N7	0.349000	0.960200	0.057900
N81	N8	0.611200	0.651000	0.057900
N91	N9	0.039800	0.388800	0.057900
N101	N10	0.388800	0.039800	0.442100
N111	N11	0.960200	0.349000	0.442100
N121	N12	0.651000	0.611200	0.442100
O11	O1	0.637300	0.184600	0.057200
O21	O2	0.802700	0.240800	0.124300
O31	O3	0.563900	0.177900	0.775400
O41	O4	0.476400	0.073800	0.894600
O51	O5	0.547300	0.362700	0.057200
O61	O6	0.438100	0.197300	0.124300
O71	O7	0.614000	0.436100	0.775400
O81	O8	0.597400	0.523600	0.894600
O91	O9	0.815400	0.452700	0.057200
O101	O10	0.759200	0.561900	0.124300
O111	O11	0.822100	0.386000	0.775400
O121	O12	0.926200	0.402600	0.894600
O131	O13	0.452700	0.815400	0.442800
O141	O14	0.561900	0.759200	0.375700
O151	O15	0.386000	0.822100	0.724600
O161	O16	0.402600	0.926200	0.605400
O171	O17	0.184600	0.637300	0.442800
O181	O18	0.240800	0.802700	0.375700
O191	O19	0.177900	0.563900	0.724600
O201	O20	0.073800	0.476400	0.605400
O211	O21	0.362700	0.547300	0.442800
O221	O22	0.197300	0.438100	0.375700
O231	O23	0.436100	0.614000	0.724600
O241	O24	0.523600	0.597400	0.605400
O251	O25	0.362700	0.815400	0.942800
O261	O26	0.197300	0.759200	0.875700
O271	O27	0.436100	0.822100	0.224600
O281	O28	0.523600	0.926200	0.105400
O291	O29	0.452700	0.637300	0.942800
O301	O30	0.561900	0.802700	0.875700
O311	O31	0.386000	0.563900	0.224600
O321	O32	0.402600	0.476400	0.105400
O331	O33	0.184600	0.547300	0.942800
O341	O34	0.240800	0.438100	0.875700
O351	O35	0.177900	0.614000	0.224600
O361	O36	0.073800	0.597400	0.105400
O371	O37	0.547300	0.184600	0.557200
O381	O38	0.438100	0.240800	0.624300
O391	O39	0.614000	0.177900	0.275400
O401	O40	0.597400	0.073800	0.394600
O411	O41	0.815400	0.362700	0.557200
O421	O42	0.759200	0.197300	0.624300
O431	O43	0.822100	0.436100	0.275400
O441	O44	0.926200	0.523600	0.394600
O451	O45	0.637300	0.452700	0.557200
O461	O46	0.802700	0.561900	0.624300
O471	O47	0.563900	0.386000	0.275400
O481	O48	0.476400	0.402600	0.394600
