data_HANKUE_freeONLY_PM
_symmetry_space_group_name_H-M	'P1'
_cell_length_a	50.571100
_cell_length_b	50.571100
_cell_length_c	50.571100
_cell_angle_alpha	90.000000
_cell_angle_beta	90.000000
_cell_angle_gamma	90.000000
_symmetry_Int_Tables_number 1

loop_
_symmetry_equiv_pos_as_xyz
'x,y,z'

loop_
_atom_site_label
_atom_site_type_symbol
_atom_site_fract_x
_atom_site_fract_y
_atom_site_fract_z
O11	O1	0.893500	0.097500	0.033400
O21	O2	0.928900	0.119500	0.021500
O31	O3	0.015900	0.058500	0.090100
O41	O4	0.838720	0.105720	0.011370
O51	O5	0.844590	0.126510	0.974030
O61	O6	0.715560	0.077890	0.003220
O71	O7	0.637980	0.069840	0.039350
C11	C1	0.917000	0.102700	0.035300
C21	C2	0.933600	0.087000	0.053400
C31	C3	0.961300	0.087900	0.055800
C41	C4	0.829900	0.114700	0.989800
C51	C5	0.801400	0.110100	0.981800
C61	C6	0.783800	0.098100	0.000100
O81	O8	0.049100	0.089700	0.127800
O91	O9	0.893500	0.597500	0.533400
O101	O10	0.928900	0.619500	0.521500
O111	O11	0.015900	0.558500	0.590100
O121	O12	0.838720	0.605720	0.511370
O131	O13	0.844590	0.626510	0.474030
O141	O14	0.715560	0.577890	0.503220
O151	O15	0.637980	0.569840	0.539350
C71	C7	0.917000	0.602700	0.535300
C81	C8	0.933600	0.587000	0.553400
C91	C9	0.961300	0.587900	0.555800
C101	C10	0.829900	0.614700	0.489800
C111	C11	0.801400	0.610100	0.481800
C121	C12	0.783800	0.598100	0.500100
O161	O16	0.049100	0.589700	0.627800
O171	O17	0.393500	0.097500	0.533400
O181	O18	0.428900	0.119500	0.521500
O191	O19	0.515900	0.058500	0.590100
O201	O20	0.338720	0.105720	0.511370
O211	O21	0.344590	0.126510	0.474030
O221	O22	0.215560	0.077890	0.503220
O231	O23	0.137980	0.069840	0.539350
C131	C13	0.417000	0.102700	0.535300
C141	C14	0.433600	0.087000	0.553400
C151	C15	0.461300	0.087900	0.555800
C161	C16	0.329900	0.114700	0.489800
C171	C17	0.301400	0.110100	0.481800
C181	C18	0.283800	0.098100	0.500100
O241	O24	0.549100	0.089700	0.627800
O251	O25	0.393500	0.597500	0.033400
O261	O26	0.428900	0.619500	0.021500
O271	O27	0.515900	0.558500	0.090100
O281	O28	0.338720	0.605720	0.011370
O291	O29	0.344590	0.626510	0.974030
O301	O30	0.215560	0.577890	0.003220
O311	O31	0.137980	0.569840	0.039350
C191	C19	0.417000	0.602700	0.035300
C201	C20	0.433600	0.587000	0.053400
C211	C21	0.461300	0.587900	0.055800
C221	C22	0.329900	0.614700	0.989800
C231	C23	0.301400	0.610100	0.981800
C241	C24	0.283800	0.598100	0.000100
O321	O32	0.549100	0.589700	0.127800
O331	O33	0.856500	0.152500	0.533400
O341	O34	0.821100	0.130500	0.521500
O351	O35	0.734100	0.191500	0.590100
O361	O36	0.911280	0.144280	0.511370
O371	O37	0.905410	0.123490	0.474030
O381	O38	0.034440	0.172110	0.503220
O391	O39	0.112020	0.180160	0.539350
C251	C25	0.833000	0.147300	0.535300
C261	C26	0.816400	0.163000	0.553400
C271	C27	0.788700	0.162100	0.555800
C281	C28	0.920100	0.135300	0.489800
C291	C29	0.948600	0.139900	0.481800
C301	C30	0.966200	0.151900	0.500100
O401	O40	0.700900	0.160300	0.627800
O411	O41	0.856500	0.652500	0.033400
O421	O42	0.821100	0.630500	0.021500
O431	O43	0.734100	0.691500	0.090100
O441	O44	0.911280	0.644280	0.011370
O451	O45	0.905410	0.623490	0.974030
O461	O46	0.034440	0.672110	0.003220
O471	O47	0.112020	0.680160	0.039350
C311	C31	0.833000	0.647300	0.035300
C321	C32	0.816400	0.663000	0.053400
C331	C33	0.788700	0.662100	0.055800
C341	C34	0.920100	0.635300	0.989800
C351	C35	0.948600	0.639900	0.981800
C361	C36	0.966200	0.651900	0.000100
O481	O48	0.700900	0.660300	0.127800
O491	O49	0.356500	0.152500	0.033400
O501	O50	0.321100	0.130500	0.021500
O511	O51	0.234100	0.191500	0.090100
O521	O52	0.411280	0.144280	0.011370
O531	O53	0.405410	0.123490	0.974030
O541	O54	0.534440	0.172110	0.003220
O551	O55	0.612020	0.180160	0.039350
C371	C37	0.333000	0.147300	0.035300
C381	C38	0.316400	0.163000	0.053400
C391	C39	0.288700	0.162100	0.055800
C401	C40	0.420100	0.135300	0.989800
C411	C41	0.448600	0.139900	0.981800
C421	C42	0.466200	0.151900	0.000100
O561	O56	0.200900	0.160300	0.127800
O571	O57	0.356500	0.652500	0.533400
O581	O58	0.321100	0.630500	0.521500
O591	O59	0.234100	0.691500	0.590100
O601	O60	0.411280	0.644280	0.511370
O611	O61	0.405410	0.623490	0.474030
O621	O62	0.534440	0.672110	0.503220
O631	O63	0.612020	0.680160	0.539350
C431	C43	0.333000	0.647300	0.535300
C441	C44	0.316400	0.663000	0.553400
C451	C45	0.288700	0.662100	0.555800
C461	C46	0.420100	0.635300	0.489800
C471	C47	0.448600	0.639900	0.481800
C481	C48	0.466200	0.651900	0.500100
O641	O64	0.200900	0.660300	0.627800
O651	O65	0.356500	0.597500	0.716600
O661	O66	0.321100	0.619500	0.728500
O671	O67	0.234100	0.558500	0.659900
O681	O68	0.411280	0.605720	0.738630
O691	O69	0.405410	0.626510	0.775970
O701	O70	0.534440	0.577890	0.746780
O711	O71	0.612020	0.569840	0.710650
C491	C49	0.333000	0.602700	0.714700
C501	C50	0.316400	0.587000	0.696600
C511	C51	0.288700	0.587900	0.694200
C521	C52	0.420100	0.614700	0.760200
C531	C53	0.448600	0.610100	0.768200
C541	C54	0.466200	0.598100	0.749900
O721	O72	0.200900	0.589700	0.622200
O731	O73	0.356500	0.097500	0.216600
O741	O74	0.321100	0.119500	0.228500
O751	O75	0.234100	0.058500	0.159900
O761	O76	0.411280	0.105720	0.238630
O771	O77	0.405410	0.126510	0.275970
O781	O78	0.534440	0.077890	0.246780
O791	O79	0.612020	0.069840	0.210650
C551	C55	0.333000	0.102700	0.214700
C561	C56	0.316400	0.087000	0.196600
C571	C57	0.288700	0.087900	0.194200
C581	C58	0.420100	0.114700	0.260200
C591	C59	0.448600	0.110100	0.268200
C601	C60	0.466200	0.098100	0.249900
O801	O80	0.200900	0.089700	0.122200
O811	O81	0.856500	0.597500	0.216600
O821	O82	0.821100	0.619500	0.228500
O831	O83	0.734100	0.558500	0.159900
O841	O84	0.911280	0.605720	0.238630
O851	O85	0.905410	0.626510	0.275970
O861	O86	0.034440	0.577890	0.246780
O871	O87	0.112020	0.569840	0.210650
C611	C61	0.833000	0.602700	0.214700
C621	C62	0.816400	0.587000	0.196600
C631	C63	0.788700	0.587900	0.194200
C641	C64	0.920100	0.614700	0.260200
C651	C65	0.948600	0.610100	0.268200
C661	C66	0.966200	0.598100	0.249900
O881	O88	0.700900	0.589700	0.122200
O891	O89	0.856500	0.097500	0.716600
O901	O90	0.821100	0.119500	0.728500
O911	O91	0.734100	0.058500	0.659900
O921	O92	0.911280	0.105720	0.738630
O931	O93	0.905410	0.126510	0.775970
O941	O94	0.034440	0.077890	0.746780
O951	O95	0.112020	0.069840	0.710650
C671	C67	0.833000	0.102700	0.714700
C681	C68	0.816400	0.087000	0.696600
C691	C69	0.788700	0.087900	0.694200
C701	C70	0.920100	0.114700	0.760200
C711	C71	0.948600	0.110100	0.768200
C721	C72	0.966200	0.098100	0.749900
O961	O96	0.700900	0.089700	0.622200
O971	O97	0.393500	0.652500	0.216600
O981	O98	0.428900	0.630500	0.228500
O991	O99	0.515900	0.691500	0.159900
O1001	O100	0.338720	0.644280	0.238630
O1011	O101	0.344590	0.623490	0.275970
O1021	O102	0.215560	0.672110	0.246780
O1031	O103	0.137980	0.680160	0.210650
C731	C73	0.417000	0.647300	0.214700
C741	C74	0.433600	0.663000	0.196600
C751	C75	0.461300	0.662100	0.194200
C761	C76	0.329900	0.635300	0.260200
C771	C77	0.301400	0.639900	0.268200
C781	C78	0.283800	0.651900	0.249900
O1041	O104	0.549100	0.660300	0.122200
O1051	O105	0.393500	0.152500	0.716600
O1061	O106	0.428900	0.130500	0.728500
O1071	O107	0.515900	0.191500	0.659900
O1081	O108	0.338720	0.144280	0.738630
O1091	O109	0.344590	0.123490	0.775970
O1101	O110	0.215560	0.172110	0.746780
O1111	O111	0.137980	0.180160	0.710650
C791	C79	0.417000	0.147300	0.714700
C801	C80	0.433600	0.163000	0.696600
C811	C81	0.461300	0.162100	0.694200
C821	C82	0.329900	0.135300	0.760200
C831	C83	0.301400	0.139900	0.768200
C841	C84	0.283800	0.151900	0.749900
O1121	O112	0.549100	0.160300	0.622200
O1131	O113	0.893500	0.652500	0.716600
O1141	O114	0.928900	0.630500	0.728500
O1151	O115	0.015900	0.691500	0.659900
O1161	O116	0.838720	0.644280	0.738630
O1171	O117	0.844590	0.623490	0.775970
O1181	O118	0.715560	0.672110	0.746780
O1191	O119	0.637980	0.680160	0.710650
C851	C85	0.917000	0.647300	0.714700
C861	C86	0.933600	0.663000	0.696600
C871	C87	0.961300	0.662100	0.694200
C881	C88	0.829900	0.635300	0.760200
C891	C89	0.801400	0.639900	0.768200
C901	C90	0.783800	0.651900	0.749900
O1201	O120	0.049100	0.660300	0.622200
O1211	O121	0.893500	0.152500	0.216600
O1221	O122	0.928900	0.130500	0.228500
O1231	O123	0.015900	0.191500	0.159900
O1241	O124	0.838720	0.144280	0.238630
O1251	O125	0.844590	0.123490	0.275970
O1261	O126	0.715560	0.172110	0.246780
O1271	O127	0.637980	0.180160	0.210650
C911	C91	0.917000	0.147300	0.214700
C921	C92	0.933600	0.163000	0.196600
C931	C93	0.961300	0.162100	0.194200
C941	C94	0.829900	0.135300	0.260200
C951	C95	0.801400	0.139900	0.268200
C961	C96	0.783800	0.151900	0.249900
O1281	O128	0.049100	0.160300	0.122200
O1291	O129	0.033400	0.893500	0.097500
O1301	O130	0.021500	0.928900	0.119500
O1311	O131	0.090100	0.015900	0.058500
O1321	O132	0.011370	0.838720	0.105720
O1331	O133	0.974030	0.844590	0.126510
O1341	O134	0.003220	0.715560	0.077890
O1351	O135	0.039350	0.637980	0.069840
C971	C97	0.035300	0.917000	0.102700
C981	C98	0.053400	0.933600	0.087000
C991	C99	0.055800	0.961300	0.087900
C1001	C100	0.989800	0.829900	0.114700
C1011	C101	0.981800	0.801400	0.110100
C1021	C102	0.000100	0.783800	0.098100
O1361	O136	0.127800	0.049100	0.089700
O1371	O137	0.033400	0.393500	0.597500
O1381	O138	0.021500	0.428900	0.619500
O1391	O139	0.090100	0.515900	0.558500
O1401	O140	0.011370	0.338720	0.605720
O1411	O141	0.974030	0.344590	0.626510
O1421	O142	0.003220	0.215560	0.577890
O1431	O143	0.039350	0.137980	0.569840
C1031	C103	0.035300	0.417000	0.602700
C1041	C104	0.053400	0.433600	0.587000
C1051	C105	0.055800	0.461300	0.587900
C1061	C106	0.989800	0.329900	0.614700
C1071	C107	0.981800	0.301400	0.610100
C1081	C108	0.000100	0.283800	0.598100
O1441	O144	0.127800	0.549100	0.589700
O1451	O145	0.533400	0.893500	0.597500
O1461	O146	0.521500	0.928900	0.619500
O1471	O147	0.590100	0.015900	0.558500
O1481	O148	0.511370	0.838720	0.605720
O1491	O149	0.474030	0.844590	0.626510
O1501	O150	0.503220	0.715560	0.577890
O1511	O151	0.539350	0.637980	0.569840
C1091	C109	0.535300	0.917000	0.602700
C1101	C110	0.553400	0.933600	0.587000
C1111	C111	0.555800	0.961300	0.587900
C1121	C112	0.489800	0.829900	0.614700
C1131	C113	0.481800	0.801400	0.610100
C1141	C114	0.500100	0.783800	0.598100
O1521	O152	0.627800	0.049100	0.589700
O1531	O153	0.533400	0.393500	0.097500
O1541	O154	0.521500	0.428900	0.119500
O1551	O155	0.590100	0.515900	0.058500
O1561	O156	0.511370	0.338720	0.105720
O1571	O157	0.474030	0.344590	0.126510
O1581	O158	0.503220	0.215560	0.077890
O1591	O159	0.539350	0.137980	0.069840
C1151	C115	0.535300	0.417000	0.102700
C1161	C116	0.553400	0.433600	0.087000
C1171	C117	0.555800	0.461300	0.087900
C1181	C118	0.489800	0.329900	0.114700
C1191	C119	0.481800	0.301400	0.110100
C1201	C120	0.500100	0.283800	0.098100
O1601	O160	0.627800	0.549100	0.089700
O1611	O161	0.533400	0.856500	0.152500
O1621	O162	0.521500	0.821100	0.130500
O1631	O163	0.590100	0.734100	0.191500
O1641	O164	0.511370	0.911280	0.144280
O1651	O165	0.474030	0.905410	0.123490
O1661	O166	0.503220	0.034440	0.172110
O1671	O167	0.539350	0.112020	0.180160
C1211	C121	0.535300	0.833000	0.147300
C1221	C122	0.553400	0.816400	0.163000
C1231	C123	0.555800	0.788700	0.162100
C1241	C124	0.489800	0.920100	0.135300
C1251	C125	0.481800	0.948600	0.139900
C1261	C126	0.500100	0.966200	0.151900
O1681	O168	0.627800	0.700900	0.160300
O1691	O169	0.533400	0.356500	0.652500
O1701	O170	0.521500	0.321100	0.630500
O1711	O171	0.590100	0.234100	0.691500
O1721	O172	0.511370	0.411280	0.644280
O1731	O173	0.474030	0.405410	0.623490
O1741	O174	0.503220	0.534440	0.672110
O1751	O175	0.539350	0.612020	0.680160
C1271	C127	0.535300	0.333000	0.647300
C1281	C128	0.553400	0.316400	0.663000
C1291	C129	0.555800	0.288700	0.662100
C1301	C130	0.489800	0.420100	0.635300
C1311	C131	0.481800	0.448600	0.639900
C1321	C132	0.500100	0.466200	0.651900
O1761	O176	0.627800	0.200900	0.660300
O1771	O177	0.033400	0.856500	0.652500
O1781	O178	0.021500	0.821100	0.630500
O1791	O179	0.090100	0.734100	0.691500
O1801	O180	0.011370	0.911280	0.644280
O1811	O181	0.974030	0.905410	0.623490
O1821	O182	0.003220	0.034440	0.672110
O1831	O183	0.039350	0.112020	0.680160
C1331	C133	0.035300	0.833000	0.647300
C1341	C134	0.053400	0.816400	0.663000
C1351	C135	0.055800	0.788700	0.662100
C1361	C136	0.989800	0.920100	0.635300
C1371	C137	0.981800	0.948600	0.639900
C1381	C138	0.000100	0.966200	0.651900
O1841	O184	0.127800	0.700900	0.660300
O1851	O185	0.033400	0.356500	0.152500
O1861	O186	0.021500	0.321100	0.130500
O1871	O187	0.090100	0.234100	0.191500
O1881	O188	0.011370	0.411280	0.144280
O1891	O189	0.974030	0.405410	0.123490
O1901	O190	0.003220	0.534440	0.172110
O1911	O191	0.039350	0.612020	0.180160
C1391	C139	0.035300	0.333000	0.147300
C1401	C140	0.053400	0.316400	0.163000
C1411	C141	0.055800	0.288700	0.162100
C1421	C142	0.989800	0.420100	0.135300
C1431	C143	0.981800	0.448600	0.139900
C1441	C144	0.000100	0.466200	0.151900
O1921	O192	0.127800	0.200900	0.160300
O1931	O193	0.716600	0.356500	0.597500
O1941	O194	0.728500	0.321100	0.619500
O1951	O195	0.659900	0.234100	0.558500
O1961	O196	0.738630	0.411280	0.605720
O1971	O197	0.775970	0.405410	0.626510
O1981	O198	0.746780	0.534440	0.577890
O1991	O199	0.710650	0.612020	0.569840
C1451	C145	0.714700	0.333000	0.602700
C1461	C146	0.696600	0.316400	0.587000
C1471	C147	0.694200	0.288700	0.587900
C1481	C148	0.760200	0.420100	0.614700
C1491	C149	0.768200	0.448600	0.610100
C1501	C150	0.749900	0.466200	0.598100
O2001	O200	0.622200	0.200900	0.589700
O2011	O201	0.716600	0.856500	0.097500
O2021	O202	0.728500	0.821100	0.119500
O2031	O203	0.659900	0.734100	0.058500
O2041	O204	0.738630	0.911280	0.105720
O2051	O205	0.775970	0.905410	0.126510
O2061	O206	0.746780	0.034440	0.077890
O2071	O207	0.710650	0.112020	0.069840
C1511	C151	0.714700	0.833000	0.102700
C1521	C152	0.696600	0.816400	0.087000
C1531	C153	0.694200	0.788700	0.087900
C1541	C154	0.760200	0.920100	0.114700
C1551	C155	0.768200	0.948600	0.110100
C1561	C156	0.749900	0.966200	0.098100
O2081	O208	0.622200	0.700900	0.089700
O2091	O209	0.216600	0.356500	0.097500
O2101	O210	0.228500	0.321100	0.119500
O2111	O211	0.159900	0.234100	0.058500
O2121	O212	0.238630	0.411280	0.105720
O2131	O213	0.275970	0.405410	0.126510
O2141	O214	0.246780	0.534440	0.077890
O2151	O215	0.210650	0.612020	0.069840
C1571	C157	0.214700	0.333000	0.102700
C1581	C158	0.196600	0.316400	0.087000
C1591	C159	0.194200	0.288700	0.087900
C1601	C160	0.260200	0.420100	0.114700
C1611	C161	0.268200	0.448600	0.110100
C1621	C162	0.249900	0.466200	0.098100
O2161	O216	0.122200	0.200900	0.089700
O2171	O217	0.216600	0.856500	0.597500
O2181	O218	0.228500	0.821100	0.619500
O2191	O219	0.159900	0.734100	0.558500
O2201	O220	0.238630	0.911280	0.605720
O2211	O221	0.275970	0.905410	0.626510
O2221	O222	0.246780	0.034440	0.577890
O2231	O223	0.210650	0.112020	0.569840
C1631	C163	0.214700	0.833000	0.602700
C1641	C164	0.196600	0.816400	0.587000
C1651	C165	0.194200	0.788700	0.587900
C1661	C166	0.260200	0.920100	0.614700
C1671	C167	0.268200	0.948600	0.610100
C1681	C168	0.249900	0.966200	0.598100
O2241	O224	0.122200	0.700900	0.589700
O2251	O225	0.216600	0.393500	0.652500
O2261	O226	0.228500	0.428900	0.630500
O2271	O227	0.159900	0.515900	0.691500
O2281	O228	0.238630	0.338720	0.644280
O2291	O229	0.275970	0.344590	0.623490
O2301	O230	0.246780	0.215560	0.672110
O2311	O231	0.210650	0.137980	0.680160
C1691	C169	0.214700	0.417000	0.647300
C1701	C170	0.196600	0.433600	0.663000
C1711	C171	0.194200	0.461300	0.662100
C1721	C172	0.260200	0.329900	0.635300
C1731	C173	0.268200	0.301400	0.639900
C1741	C174	0.249900	0.283800	0.651900
O2321	O232	0.122200	0.549100	0.660300
O2331	O233	0.216600	0.893500	0.152500
O2341	O234	0.228500	0.928900	0.130500
O2351	O235	0.159900	0.015900	0.191500
O2361	O236	0.238630	0.838720	0.144280
O2371	O237	0.275970	0.844590	0.123490
O2381	O238	0.246780	0.715560	0.172110
O2391	O239	0.210650	0.637980	0.180160
C1751	C175	0.214700	0.917000	0.147300
C1761	C176	0.196600	0.933600	0.163000
C1771	C177	0.194200	0.961300	0.162100
C1781	C178	0.260200	0.829900	0.135300
C1791	C179	0.268200	0.801400	0.139900
C1801	C180	0.249900	0.783800	0.151900
O2401	O240	0.122200	0.049100	0.160300
O2411	O241	0.716600	0.393500	0.152500
O2421	O242	0.728500	0.428900	0.130500
O2431	O243	0.659900	0.515900	0.191500
O2441	O244	0.738630	0.338720	0.144280
O2451	O245	0.775970	0.344590	0.123490
O2461	O246	0.746780	0.215560	0.172110
O2471	O247	0.710650	0.137980	0.180160
C1811	C181	0.714700	0.417000	0.147300
C1821	C182	0.696600	0.433600	0.163000
C1831	C183	0.694200	0.461300	0.162100
C1841	C184	0.760200	0.329900	0.135300
C1851	C185	0.768200	0.301400	0.139900
C1861	C186	0.749900	0.283800	0.151900
O2481	O248	0.622200	0.549100	0.160300
O2491	O249	0.716600	0.893500	0.652500
O2501	O250	0.728500	0.928900	0.630500
O2511	O251	0.659900	0.015900	0.691500
O2521	O252	0.738630	0.838720	0.644280
O2531	O253	0.775970	0.844590	0.623490
O2541	O254	0.746780	0.715560	0.672110
O2551	O255	0.710650	0.637980	0.680160
C1871	C187	0.714700	0.917000	0.647300
C1881	C188	0.696600	0.933600	0.663000
C1891	C189	0.694200	0.961300	0.662100
C1901	C190	0.760200	0.829900	0.635300
C1911	C191	0.768200	0.801400	0.639900
C1921	C192	0.749900	0.783800	0.651900
O2561	O256	0.622200	0.049100	0.660300
O2571	O257	0.097500	0.033400	0.893500
O2581	O258	0.119500	0.021500	0.928900
O2591	O259	0.058500	0.090100	0.015900
O2601	O260	0.105720	0.011370	0.838720
O2611	O261	0.126510	0.974030	0.844590
O2621	O262	0.077890	0.003220	0.715560
O2631	O263	0.069840	0.039350	0.637980
C1931	C193	0.102700	0.035300	0.917000
C1941	C194	0.087000	0.053400	0.933600
C1951	C195	0.087900	0.055800	0.961300
C1961	C196	0.114700	0.989800	0.829900
C1971	C197	0.110100	0.981800	0.801400
C1981	C198	0.098100	0.000100	0.783800
O2641	O264	0.089700	0.127800	0.049100
O2651	O265	0.097500	0.533400	0.393500
O2661	O266	0.119500	0.521500	0.428900
O2671	O267	0.058500	0.590100	0.515900
O2681	O268	0.105720	0.511370	0.338720
O2691	O269	0.126510	0.474030	0.344590
O2701	O270	0.077890	0.503220	0.215560
O2711	O271	0.069840	0.539350	0.137980
C1991	C199	0.102700	0.535300	0.417000
C2001	C200	0.087000	0.553400	0.433600
C2011	C201	0.087900	0.555800	0.461300
C2021	C202	0.114700	0.489800	0.329900
C2031	C203	0.110100	0.481800	0.301400
C2041	C204	0.098100	0.500100	0.283800
O2721	O272	0.089700	0.627800	0.549100
O2731	O273	0.597500	0.033400	0.393500
O2741	O274	0.619500	0.021500	0.428900
O2751	O275	0.558500	0.090100	0.515900
O2761	O276	0.605720	0.011370	0.338720
O2771	O277	0.626510	0.974030	0.344590
O2781	O278	0.577890	0.003220	0.215560
O2791	O279	0.569840	0.039350	0.137980
C2051	C205	0.602700	0.035300	0.417000
C2061	C206	0.587000	0.053400	0.433600
C2071	C207	0.587900	0.055800	0.461300
C2081	C208	0.614700	0.989800	0.329900
C2091	C209	0.610100	0.981800	0.301400
C2101	C210	0.598100	0.000100	0.283800
O2801	O280	0.589700	0.127800	0.549100
O2811	O281	0.597500	0.533400	0.893500
O2821	O282	0.619500	0.521500	0.928900
O2831	O283	0.558500	0.590100	0.015900
O2841	O284	0.605720	0.511370	0.838720
O2851	O285	0.626510	0.474030	0.844590
O2861	O286	0.577890	0.503220	0.715560
O2871	O287	0.569840	0.539350	0.637980
C2111	C211	0.602700	0.535300	0.917000
C2121	C212	0.587000	0.553400	0.933600
C2131	C213	0.587900	0.555800	0.961300
C2141	C214	0.614700	0.489800	0.829900
C2151	C215	0.610100	0.481800	0.801400
C2161	C216	0.598100	0.500100	0.783800
O2881	O288	0.589700	0.627800	0.049100
O2891	O289	0.152500	0.533400	0.856500
O2901	O290	0.130500	0.521500	0.821100
O2911	O291	0.191500	0.590100	0.734100
O2921	O292	0.144280	0.511370	0.911280
O2931	O293	0.123490	0.474030	0.905410
O2941	O294	0.172110	0.503220	0.034440
O2951	O295	0.180160	0.539350	0.112020
C2171	C217	0.147300	0.535300	0.833000
C2181	C218	0.163000	0.553400	0.816400
C2191	C219	0.162100	0.555800	0.788700
C2201	C220	0.135300	0.489800	0.920100
C2211	C221	0.139900	0.481800	0.948600
C2221	C222	0.151900	0.500100	0.966200
O2961	O296	0.160300	0.627800	0.700900
O2971	O297	0.152500	0.033400	0.356500
O2981	O298	0.130500	0.021500	0.321100
O2991	O299	0.191500	0.090100	0.234100
O3001	O300	0.144280	0.011370	0.411280
O3011	O301	0.123490	0.974030	0.405410
O3021	O302	0.172110	0.003220	0.534440
O3031	O303	0.180160	0.039350	0.612020
C2231	C223	0.147300	0.035300	0.333000
C2241	C224	0.163000	0.053400	0.316400
C2251	C225	0.162100	0.055800	0.288700
C2261	C226	0.135300	0.989800	0.420100
C2271	C227	0.139900	0.981800	0.448600
C2281	C228	0.151900	0.000100	0.466200
O3041	O304	0.160300	0.127800	0.200900
O3051	O305	0.652500	0.533400	0.356500
O3061	O306	0.630500	0.521500	0.321100
O3071	O307	0.691500	0.590100	0.234100
O3081	O308	0.644280	0.511370	0.411280
O3091	O309	0.623490	0.474030	0.405410
O3101	O310	0.672110	0.503220	0.534440
O3111	O311	0.680160	0.539350	0.612020
C2291	C229	0.647300	0.535300	0.333000
C2301	C230	0.663000	0.553400	0.316400
C2311	C231	0.662100	0.555800	0.288700
C2321	C232	0.635300	0.489800	0.420100
C2331	C233	0.639900	0.481800	0.448600
C2341	C234	0.651900	0.500100	0.466200
O3121	O312	0.660300	0.627800	0.200900
O3131	O313	0.652500	0.033400	0.856500
O3141	O314	0.630500	0.021500	0.821100
O3151	O315	0.691500	0.090100	0.734100
O3161	O316	0.644280	0.011370	0.911280
O3171	O317	0.623490	0.974030	0.905410
O3181	O318	0.672110	0.003220	0.034440
O3191	O319	0.680160	0.039350	0.112020
C2351	C235	0.647300	0.035300	0.833000
C2361	C236	0.663000	0.053400	0.816400
C2371	C237	0.662100	0.055800	0.788700
C2381	C238	0.635300	0.989800	0.920100
C2391	C239	0.639900	0.981800	0.948600
C2401	C240	0.651900	0.000100	0.966200
O3201	O320	0.660300	0.127800	0.700900
O3211	O321	0.597500	0.716600	0.356500
O3221	O322	0.619500	0.728500	0.321100
O3231	O323	0.558500	0.659900	0.234100
O3241	O324	0.605720	0.738630	0.411280
O3251	O325	0.626510	0.775970	0.405410
O3261	O326	0.577890	0.746780	0.534440
O3271	O327	0.569840	0.710650	0.612020
C2411	C241	0.602700	0.714700	0.333000
C2421	C242	0.587000	0.696600	0.316400
C2431	C243	0.587900	0.694200	0.288700
C2441	C244	0.614700	0.760200	0.420100
C2451	C245	0.610100	0.768200	0.448600
C2461	C246	0.598100	0.749900	0.466200
O3281	O328	0.589700	0.622200	0.200900
O3291	O329	0.597500	0.216600	0.856500
O3301	O330	0.619500	0.228500	0.821100
O3311	O331	0.558500	0.159900	0.734100
O3321	O332	0.605720	0.238630	0.911280
O3331	O333	0.626510	0.275970	0.905410
O3341	O334	0.577890	0.246780	0.034440
O3351	O335	0.569840	0.210650	0.112020
C2471	C247	0.602700	0.214700	0.833000
C2481	C248	0.587000	0.196600	0.816400
C2491	C249	0.587900	0.194200	0.788700
C2501	C250	0.614700	0.260200	0.920100
C2511	C251	0.610100	0.268200	0.948600
C2521	C252	0.598100	0.249900	0.966200
O3361	O336	0.589700	0.122200	0.700900
O3371	O337	0.097500	0.716600	0.856500
O3381	O338	0.119500	0.728500	0.821100
O3391	O339	0.058500	0.659900	0.734100
O3401	O340	0.105720	0.738630	0.911280
O3411	O341	0.126510	0.775970	0.905410
O3421	O342	0.077890	0.746780	0.034440
O3431	O343	0.069840	0.710650	0.112020
C2531	C253	0.102700	0.714700	0.833000
C2541	C254	0.087000	0.696600	0.816400
C2551	C255	0.087900	0.694200	0.788700
C2561	C256	0.114700	0.760200	0.920100
C2571	C257	0.110100	0.768200	0.948600
C2581	C258	0.098100	0.749900	0.966200
O3441	O344	0.089700	0.622200	0.700900
O3451	O345	0.097500	0.216600	0.356500
O3461	O346	0.119500	0.228500	0.321100
O3471	O347	0.058500	0.159900	0.234100
O3481	O348	0.105720	0.238630	0.411280
O3491	O349	0.126510	0.275970	0.405410
O3501	O350	0.077890	0.246780	0.534440
O3511	O351	0.069840	0.210650	0.612020
C2591	C259	0.102700	0.214700	0.333000
C2601	C260	0.087000	0.196600	0.316400
C2611	C261	0.087900	0.194200	0.288700
C2621	C262	0.114700	0.260200	0.420100
C2631	C263	0.110100	0.268200	0.448600
C2641	C264	0.098100	0.249900	0.466200
O3521	O352	0.089700	0.122200	0.200900
O3531	O353	0.652500	0.216600	0.393500
O3541	O354	0.630500	0.228500	0.428900
O3551	O355	0.691500	0.159900	0.515900
O3561	O356	0.644280	0.238630	0.338720
O3571	O357	0.623490	0.275970	0.344590
O3581	O358	0.672110	0.246780	0.215560
O3591	O359	0.680160	0.210650	0.137980
C2651	C265	0.647300	0.214700	0.417000
C2661	C266	0.663000	0.196600	0.433600
C2671	C267	0.662100	0.194200	0.461300
C2681	C268	0.635300	0.260200	0.329900
C2691	C269	0.639900	0.268200	0.301400
C2701	C270	0.651900	0.249900	0.283800
O3601	O360	0.660300	0.122200	0.549100
O3611	O361	0.652500	0.716600	0.893500
O3621	O362	0.630500	0.728500	0.928900
O3631	O363	0.691500	0.659900	0.015900
O3641	O364	0.644280	0.738630	0.838720
O3651	O365	0.623490	0.775970	0.844590
O3661	O366	0.672110	0.746780	0.715560
O3671	O367	0.680160	0.710650	0.637980
C2711	C271	0.647300	0.714700	0.917000
C2721	C272	0.663000	0.696600	0.933600
C2731	C273	0.662100	0.694200	0.961300
C2741	C274	0.635300	0.760200	0.829900
C2751	C275	0.639900	0.768200	0.801400
C2761	C276	0.651900	0.749900	0.783800
O3681	O368	0.660300	0.622200	0.049100
O3691	O369	0.152500	0.216600	0.893500
O3701	O370	0.130500	0.228500	0.928900
O3711	O371	0.191500	0.159900	0.015900
O3721	O372	0.144280	0.238630	0.838720
O3731	O373	0.123490	0.275970	0.844590
O3741	O374	0.172110	0.246780	0.715560
O3751	O375	0.180160	0.210650	0.637980
C2771	C277	0.147300	0.214700	0.917000
C2781	C278	0.163000	0.196600	0.933600
C2791	C279	0.162100	0.194200	0.961300
C2801	C280	0.135300	0.260200	0.829900
C2811	C281	0.139900	0.268200	0.801400
C2821	C282	0.151900	0.249900	0.783800
O3761	O376	0.160300	0.122200	0.049100
O3771	O377	0.152500	0.716600	0.393500
O3781	O378	0.130500	0.728500	0.428900
O3791	O379	0.191500	0.659900	0.515900
O3801	O380	0.144280	0.738630	0.338720
O3811	O381	0.123490	0.775970	0.344590
O3821	O382	0.172110	0.746780	0.215560
O3831	O383	0.180160	0.710650	0.137980
C2831	C283	0.147300	0.714700	0.417000
C2841	C284	0.163000	0.696600	0.433600
C2851	C285	0.162100	0.694200	0.461300
C2861	C286	0.135300	0.760200	0.329900
C2871	C287	0.139900	0.768200	0.301400
C2881	C288	0.151900	0.749900	0.283800
O3841	O384	0.160300	0.622200	0.549100
O3851	O385	0.847500	0.143500	0.466600
O3861	O386	0.869500	0.178900	0.478500
O3871	O387	0.808500	0.265900	0.409900
O3881	O388	0.855720	0.088720	0.488630
O3891	O389	0.876510	0.094590	0.525970
O3901	O390	0.827890	0.965560	0.496780
O3911	O391	0.819840	0.887980	0.460650
C2891	C289	0.852700	0.167000	0.464700
C2901	C290	0.837000	0.183600	0.446600
C2911	C291	0.837900	0.211300	0.444200
C2921	C292	0.864700	0.079900	0.510200
C2931	C293	0.860100	0.051400	0.518200
C2941	C294	0.848100	0.033800	0.499900
O3921	O392	0.839700	0.299100	0.372200
O3931	O393	0.847500	0.643500	0.966600
O3941	O394	0.869500	0.678900	0.978500
O3951	O395	0.808500	0.765900	0.909900
O3961	O396	0.855720	0.588720	0.988630
O3971	O397	0.876510	0.594590	0.025970
O3981	O398	0.827890	0.465560	0.996780
O3991	O399	0.819840	0.387980	0.960650
C2951	C295	0.852700	0.667000	0.964700
C2961	C296	0.837000	0.683600	0.946600
C2971	C297	0.837900	0.711300	0.944200
C2981	C298	0.864700	0.579900	0.010200
C2991	C299	0.860100	0.551400	0.018200
C3001	C300	0.848100	0.533800	0.999900
O4001	O400	0.839700	0.799100	0.872200
O4011	O401	0.347500	0.143500	0.966600
O4021	O402	0.369500	0.178900	0.978500
O4031	O403	0.308500	0.265900	0.909900
O4041	O404	0.355720	0.088720	0.988630
O4051	O405	0.376510	0.094590	0.025970
O4061	O406	0.327890	0.965560	0.996780
O4071	O407	0.319840	0.887980	0.960650
C3011	C301	0.352700	0.167000	0.964700
C3021	C302	0.337000	0.183600	0.946600
C3031	C303	0.337900	0.211300	0.944200
C3041	C304	0.364700	0.079900	0.010200
C3051	C305	0.360100	0.051400	0.018200
C3061	C306	0.348100	0.033800	0.999900
O4081	O408	0.339700	0.299100	0.872200
O4091	O409	0.347500	0.643500	0.466600
O4101	O410	0.369500	0.678900	0.478500
O4111	O411	0.308500	0.765900	0.409900
O4121	O412	0.355720	0.588720	0.488630
O4131	O413	0.376510	0.594590	0.525970
O4141	O414	0.327890	0.465560	0.496780
O4151	O415	0.319840	0.387980	0.460650
C3071	C307	0.352700	0.667000	0.464700
C3081	C308	0.337000	0.683600	0.446600
C3091	C309	0.337900	0.711300	0.444200
C3101	C310	0.364700	0.579900	0.510200
C3111	C311	0.360100	0.551400	0.518200
C3121	C312	0.348100	0.533800	0.499900
O4161	O416	0.339700	0.799100	0.372200
O4171	O417	0.902500	0.106500	0.966600
O4181	O418	0.880500	0.071100	0.978500
O4191	O419	0.941500	0.984100	0.909900
O4201	O420	0.894280	0.161280	0.988630
O4211	O421	0.873490	0.155410	0.025970
O4221	O422	0.922110	0.284440	0.996780
O4231	O423	0.930160	0.362020	0.960650
C3131	C313	0.897300	0.083000	0.964700
C3141	C314	0.913000	0.066400	0.946600
C3151	C315	0.912100	0.038700	0.944200
C3161	C316	0.885300	0.170100	0.010200
C3171	C317	0.889900	0.198600	0.018200
C3181	C318	0.901900	0.216200	0.999900
O4241	O424	0.910300	0.950900	0.872200
O4251	O425	0.902500	0.606500	0.466600
O4261	O426	0.880500	0.571100	0.478500
O4271	O427	0.941500	0.484100	0.409900
O4281	O428	0.894280	0.661280	0.488630
O4291	O429	0.873490	0.655410	0.525970
O4301	O430	0.922110	0.784440	0.496780
O4311	O431	0.930160	0.862020	0.460650
C3191	C319	0.897300	0.583000	0.464700
C3201	C320	0.913000	0.566400	0.446600
C3211	C321	0.912100	0.538700	0.444200
C3221	C322	0.885300	0.670100	0.510200
C3231	C323	0.889900	0.698600	0.518200
C3241	C324	0.901900	0.716200	0.499900
O4321	O432	0.910300	0.450900	0.372200
O4331	O433	0.402500	0.106500	0.466600
O4341	O434	0.380500	0.071100	0.478500
O4351	O435	0.441500	0.984100	0.409900
O4361	O436	0.394280	0.161280	0.488630
O4371	O437	0.373490	0.155410	0.525970
O4381	O438	0.422110	0.284440	0.496780
O4391	O439	0.430160	0.362020	0.460650
C3251	C325	0.397300	0.083000	0.464700
C3261	C326	0.413000	0.066400	0.446600
C3271	C327	0.412100	0.038700	0.444200
C3281	C328	0.385300	0.170100	0.510200
C3291	C329	0.389900	0.198600	0.518200
C3301	C330	0.401900	0.216200	0.499900
O4401	O440	0.410300	0.950900	0.372200
O4411	O441	0.402500	0.606500	0.966600
O4421	O442	0.380500	0.571100	0.978500
O4431	O443	0.441500	0.484100	0.909900
O4441	O444	0.394280	0.661280	0.988630
O4451	O445	0.373490	0.655410	0.025970
O4461	O446	0.422110	0.784440	0.996780
O4471	O447	0.430160	0.862020	0.960650
C3311	C331	0.397300	0.583000	0.964700
C3321	C332	0.413000	0.566400	0.946600
C3331	C333	0.412100	0.538700	0.944200
C3341	C334	0.385300	0.670100	0.010200
C3351	C335	0.389900	0.698600	0.018200
C3361	C336	0.401900	0.716200	0.999900
O4481	O448	0.410300	0.450900	0.872200
O4491	O449	0.347500	0.606500	0.783400
O4501	O450	0.369500	0.571100	0.771500
O4511	O451	0.308500	0.484100	0.840100
O4521	O452	0.355720	0.661280	0.761370
O4531	O453	0.376510	0.655410	0.724030
O4541	O454	0.327890	0.784440	0.753220
O4551	O455	0.319840	0.862020	0.789350
C3371	C337	0.352700	0.583000	0.785300
C3381	C338	0.337000	0.566400	0.803400
C3391	C339	0.337900	0.538700	0.805800
C3401	C340	0.364700	0.670100	0.739800
C3411	C341	0.360100	0.698600	0.731800
C3421	C342	0.348100	0.716200	0.750100
O4561	O456	0.339700	0.450900	0.877800
O4571	O457	0.347500	0.106500	0.283400
O4581	O458	0.369500	0.071100	0.271500
O4591	O459	0.308500	0.984100	0.340100
O4601	O460	0.355720	0.161280	0.261370
O4611	O461	0.376510	0.155410	0.224030
O4621	O462	0.327890	0.284440	0.253220
O4631	O463	0.319840	0.362020	0.289350
C3431	C343	0.352700	0.083000	0.285300
C3441	C344	0.337000	0.066400	0.303400
C3451	C345	0.337900	0.038700	0.305800
C3461	C346	0.364700	0.170100	0.239800
C3471	C347	0.360100	0.198600	0.231800
C3481	C348	0.348100	0.216200	0.250100
O4641	O464	0.339700	0.950900	0.377800
O4651	O465	0.847500	0.606500	0.283400
O4661	O466	0.869500	0.571100	0.271500
O4671	O467	0.808500	0.484100	0.340100
O4681	O468	0.855720	0.661280	0.261370
O4691	O469	0.876510	0.655410	0.224030
O4701	O470	0.827890	0.784440	0.253220
O4711	O471	0.819840	0.862020	0.289350
C3491	C349	0.852700	0.583000	0.285300
C3501	C350	0.837000	0.566400	0.303400
C3511	C351	0.837900	0.538700	0.305800
C3521	C352	0.864700	0.670100	0.239800
C3531	C353	0.860100	0.698600	0.231800
C3541	C354	0.848100	0.716200	0.250100
O4721	O472	0.839700	0.450900	0.377800
O4731	O473	0.847500	0.106500	0.783400
O4741	O474	0.869500	0.071100	0.771500
O4751	O475	0.808500	0.984100	0.840100
O4761	O476	0.855720	0.161280	0.761370
O4771	O477	0.876510	0.155410	0.724030
O4781	O478	0.827890	0.284440	0.753220
O4791	O479	0.819840	0.362020	0.789350
C3551	C355	0.852700	0.083000	0.785300
C3561	C356	0.837000	0.066400	0.803400
C3571	C357	0.837900	0.038700	0.805800
C3581	C358	0.864700	0.170100	0.739800
C3591	C359	0.860100	0.198600	0.731800
C3601	C360	0.848100	0.216200	0.750100
O4801	O480	0.839700	0.950900	0.877800
O4811	O481	0.402500	0.643500	0.283400
O4821	O482	0.380500	0.678900	0.271500
O4831	O483	0.441500	0.765900	0.340100
O4841	O484	0.394280	0.588720	0.261370
O4851	O485	0.373490	0.594590	0.224030
O4861	O486	0.422110	0.465560	0.253220
O4871	O487	0.430160	0.387980	0.289350
C3611	C361	0.397300	0.667000	0.285300
C3621	C362	0.413000	0.683600	0.303400
C3631	C363	0.412100	0.711300	0.305800
C3641	C364	0.385300	0.579900	0.239800
C3651	C365	0.389900	0.551400	0.231800
C3661	C366	0.401900	0.533800	0.250100
O4881	O488	0.410300	0.799100	0.377800
O4891	O489	0.402500	0.143500	0.783400
O4901	O490	0.380500	0.178900	0.771500
O4911	O491	0.441500	0.265900	0.840100
O4921	O492	0.394280	0.088720	0.761370
O4931	O493	0.373490	0.094590	0.724030
O4941	O494	0.422110	0.965560	0.753220
O4951	O495	0.430160	0.887980	0.789350
C3671	C367	0.397300	0.167000	0.785300
C3681	C368	0.413000	0.183600	0.803400
C3691	C369	0.412100	0.211300	0.805800
C3701	C370	0.385300	0.079900	0.739800
C3711	C371	0.389900	0.051400	0.731800
C3721	C372	0.401900	0.033800	0.750100
O4961	O496	0.410300	0.299100	0.877800
O4971	O497	0.902500	0.643500	0.783400
O4981	O498	0.880500	0.678900	0.771500
O4991	O499	0.941500	0.765900	0.840100
O5001	O500	0.894280	0.588720	0.761370
O5011	O501	0.873490	0.594590	0.724030
O5021	O502	0.922110	0.465560	0.753220
O5031	O503	0.930160	0.387980	0.789350
C3731	C373	0.897300	0.667000	0.785300
C3741	C374	0.913000	0.683600	0.803400
C3751	C375	0.912100	0.711300	0.805800
C3761	C376	0.885300	0.579900	0.739800
C3771	C377	0.889900	0.551400	0.731800
C3781	C378	0.901900	0.533800	0.750100
O5041	O504	0.910300	0.799100	0.877800
O5051	O505	0.902500	0.143500	0.283400
O5061	O506	0.880500	0.178900	0.271500
O5071	O507	0.941500	0.265900	0.340100
O5081	O508	0.894280	0.088720	0.261370
O5091	O509	0.873490	0.094590	0.224030
O5101	O510	0.922110	0.965560	0.253220
O5111	O511	0.930160	0.887980	0.289350
C3791	C379	0.897300	0.167000	0.285300
C3801	C380	0.913000	0.183600	0.303400
C3811	C381	0.912100	0.211300	0.305800
C3821	C382	0.885300	0.079900	0.239800
C3831	C383	0.889900	0.051400	0.231800
C3841	C384	0.901900	0.033800	0.250100
O5121	O512	0.910300	0.299100	0.377800
O5131	O513	0.643500	0.283400	0.402500
O5141	O514	0.678900	0.271500	0.380500
O5151	O515	0.765900	0.340100	0.441500
O5161	O516	0.588720	0.261370	0.394280
O5171	O517	0.594590	0.224030	0.373490
O5181	O518	0.465560	0.253220	0.422110
O5191	O519	0.387980	0.289350	0.430160
C3851	C385	0.667000	0.285300	0.397300
C3861	C386	0.683600	0.303400	0.413000
C3871	C387	0.711300	0.305800	0.412100
C3881	C388	0.579900	0.239800	0.385300
C3891	C389	0.551400	0.231800	0.389900
C3901	C390	0.533800	0.250100	0.401900
O5201	O520	0.799100	0.377800	0.410300
O5211	O521	0.643500	0.783400	0.902500
O5221	O522	0.678900	0.771500	0.880500
O5231	O523	0.765900	0.840100	0.941500
O5241	O524	0.588720	0.761370	0.894280
O5251	O525	0.594590	0.724030	0.873490
O5261	O526	0.465560	0.753220	0.922110
O5271	O527	0.387980	0.789350	0.930160
C3911	C391	0.667000	0.785300	0.897300
C3921	C392	0.683600	0.803400	0.913000
C3931	C393	0.711300	0.805800	0.912100
C3941	C394	0.579900	0.739800	0.885300
C3951	C395	0.551400	0.731800	0.889900
C3961	C396	0.533800	0.750100	0.901900
O5281	O528	0.799100	0.877800	0.910300
O5291	O529	0.143500	0.283400	0.902500
O5301	O530	0.178900	0.271500	0.880500
O5311	O531	0.265900	0.340100	0.941500
O5321	O532	0.088720	0.261370	0.894280
O5331	O533	0.094590	0.224030	0.873490
O5341	O534	0.965560	0.253220	0.922110
O5351	O535	0.887980	0.289350	0.930160
C3971	C397	0.167000	0.285300	0.897300
C3981	C398	0.183600	0.303400	0.913000
C3991	C399	0.211300	0.305800	0.912100
C4001	C400	0.079900	0.239800	0.885300
C4011	C401	0.051400	0.231800	0.889900
C4021	C402	0.033800	0.250100	0.901900
O5361	O536	0.299100	0.377800	0.910300
O5371	O537	0.143500	0.783400	0.402500
O5381	O538	0.178900	0.771500	0.380500
O5391	O539	0.265900	0.840100	0.441500
O5401	O540	0.088720	0.761370	0.394280
O5411	O541	0.094590	0.724030	0.373490
O5421	O542	0.965560	0.753220	0.422110
O5431	O543	0.887980	0.789350	0.430160
C4031	C403	0.167000	0.785300	0.397300
C4041	C404	0.183600	0.803400	0.413000
C4051	C405	0.211300	0.805800	0.412100
C4061	C406	0.079900	0.739800	0.385300
C4071	C407	0.051400	0.731800	0.389900
C4081	C408	0.033800	0.750100	0.401900
O5441	O544	0.299100	0.877800	0.410300
O5451	O545	0.606500	0.783400	0.347500
O5461	O546	0.571100	0.771500	0.369500
O5471	O547	0.484100	0.840100	0.308500
O5481	O548	0.661280	0.761370	0.355720
O5491	O549	0.655410	0.724030	0.376510
O5501	O550	0.784440	0.753220	0.327890
O5511	O551	0.862020	0.789350	0.319840
C4091	C409	0.583000	0.785300	0.352700
C4101	C410	0.566400	0.803400	0.337000
C4111	C411	0.538700	0.805800	0.337900
C4121	C412	0.670100	0.739800	0.364700
C4131	C413	0.698600	0.731800	0.360100
C4141	C414	0.716200	0.750100	0.348100
O5521	O552	0.450900	0.877800	0.339700
O5531	O553	0.606500	0.283400	0.847500
O5541	O554	0.571100	0.271500	0.869500
O5551	O555	0.484100	0.340100	0.808500
O5561	O556	0.661280	0.261370	0.855720
O5571	O557	0.655410	0.224030	0.876510
O5581	O558	0.784440	0.253220	0.827890
O5591	O559	0.862020	0.289350	0.819840
C4151	C415	0.583000	0.285300	0.852700
C4161	C416	0.566400	0.303400	0.837000
C4171	C417	0.538700	0.305800	0.837900
C4181	C418	0.670100	0.239800	0.864700
C4191	C419	0.698600	0.231800	0.860100
C4201	C420	0.716200	0.250100	0.848100
O5601	O560	0.450900	0.377800	0.839700
O5611	O561	0.106500	0.783400	0.847500
O5621	O562	0.071100	0.771500	0.869500
O5631	O563	0.984100	0.840100	0.808500
O5641	O564	0.161280	0.761370	0.855720
O5651	O565	0.155410	0.724030	0.876510
O5661	O566	0.284440	0.753220	0.827890
O5671	O567	0.362020	0.789350	0.819840
C4211	C421	0.083000	0.785300	0.852700
C4221	C422	0.066400	0.803400	0.837000
C4231	C423	0.038700	0.805800	0.837900
C4241	C424	0.170100	0.739800	0.864700
C4251	C425	0.198600	0.731800	0.860100
C4261	C426	0.216200	0.750100	0.848100
O5681	O568	0.950900	0.877800	0.839700
O5691	O569	0.106500	0.283400	0.347500
O5701	O570	0.071100	0.271500	0.369500
O5711	O571	0.984100	0.340100	0.308500
O5721	O572	0.161280	0.261370	0.355720
O5731	O573	0.155410	0.224030	0.376510
O5741	O574	0.284440	0.253220	0.327890
O5751	O575	0.362020	0.289350	0.319840
C4271	C427	0.083000	0.285300	0.352700
C4281	C428	0.066400	0.303400	0.337000
C4291	C429	0.038700	0.305800	0.337900
C4301	C430	0.170100	0.239800	0.364700
C4311	C431	0.198600	0.231800	0.360100
C4321	C432	0.216200	0.250100	0.348100
O5761	O576	0.950900	0.377800	0.339700
O5771	O577	0.106500	0.966600	0.902500
O5781	O578	0.071100	0.978500	0.880500
O5791	O579	0.984100	0.909900	0.941500
O5801	O580	0.161280	0.988630	0.894280
O5811	O581	0.155410	0.025970	0.873490
O5821	O582	0.284440	0.996780	0.922110
O5831	O583	0.362020	0.960650	0.930160
C4331	C433	0.083000	0.964700	0.897300
C4341	C434	0.066400	0.946600	0.913000
C4351	C435	0.038700	0.944200	0.912100
C4361	C436	0.170100	0.010200	0.885300
C4371	C437	0.198600	0.018200	0.889900
C4381	C438	0.216200	0.999900	0.901900
O5841	O584	0.950900	0.872200	0.910300
O5851	O585	0.106500	0.466600	0.402500
O5861	O586	0.071100	0.478500	0.380500
O5871	O587	0.984100	0.409900	0.441500
O5881	O588	0.161280	0.488630	0.394280
O5891	O589	0.155410	0.525970	0.373490
O5901	O590	0.284440	0.496780	0.422110
O5911	O591	0.362020	0.460650	0.430160
C4391	C439	0.083000	0.464700	0.397300
C4401	C440	0.066400	0.446600	0.413000
C4411	C441	0.038700	0.444200	0.412100
C4421	C442	0.170100	0.510200	0.385300
C4431	C443	0.198600	0.518200	0.389900
C4441	C444	0.216200	0.499900	0.401900
O5921	O592	0.950900	0.372200	0.410300
O5931	O593	0.606500	0.966600	0.402500
O5941	O594	0.571100	0.978500	0.380500
O5951	O595	0.484100	0.909900	0.441500
O5961	O596	0.661280	0.988630	0.394280
O5971	O597	0.655410	0.025970	0.373490
O5981	O598	0.784440	0.996780	0.422110
O5991	O599	0.862020	0.960650	0.430160
C4451	C445	0.583000	0.964700	0.397300
C4461	C446	0.566400	0.946600	0.413000
C4471	C447	0.538700	0.944200	0.412100
C4481	C448	0.670100	0.010200	0.385300
C4491	C449	0.698600	0.018200	0.389900
C4501	C450	0.716200	0.999900	0.401900
O6001	O600	0.450900	0.872200	0.410300
O6011	O601	0.606500	0.466600	0.902500
O6021	O602	0.571100	0.478500	0.880500
O6031	O603	0.484100	0.409900	0.941500
O6041	O604	0.661280	0.488630	0.894280
O6051	O605	0.655410	0.525970	0.873490
O6061	O606	0.784440	0.496780	0.922110
O6071	O607	0.862020	0.460650	0.930160
C4511	C451	0.583000	0.464700	0.897300
C4521	C452	0.566400	0.446600	0.913000
C4531	C453	0.538700	0.444200	0.912100
C4541	C454	0.670100	0.510200	0.885300
C4551	C455	0.698600	0.518200	0.889900
C4561	C456	0.716200	0.499900	0.901900
O6081	O608	0.450900	0.372200	0.910300
O6091	O609	0.143500	0.466600	0.847500
O6101	O610	0.178900	0.478500	0.869500
O6111	O611	0.265900	0.409900	0.808500
O6121	O612	0.088720	0.488630	0.855720
O6131	O613	0.094590	0.525970	0.876510
O6141	O614	0.965560	0.496780	0.827890
O6151	O615	0.887980	0.460650	0.819840
C4571	C457	0.167000	0.464700	0.852700
C4581	C458	0.183600	0.446600	0.837000
C4591	C459	0.211300	0.444200	0.837900
C4601	C460	0.079900	0.510200	0.864700
C4611	C461	0.051400	0.518200	0.860100
C4621	C462	0.033800	0.499900	0.848100
O6161	O616	0.299100	0.372200	0.839700
O6171	O617	0.143500	0.966600	0.347500
O6181	O618	0.178900	0.978500	0.369500
O6191	O619	0.265900	0.909900	0.308500
O6201	O620	0.088720	0.988630	0.355720
O6211	O621	0.094590	0.025970	0.376510
O6221	O622	0.965560	0.996780	0.327890
O6231	O623	0.887980	0.960650	0.319840
C4631	C463	0.167000	0.964700	0.352700
C4641	C464	0.183600	0.946600	0.337000
C4651	C465	0.211300	0.944200	0.337900
C4661	C466	0.079900	0.010200	0.364700
C4671	C467	0.051400	0.018200	0.360100
C4681	C468	0.033800	0.999900	0.348100
O6241	O624	0.299100	0.872200	0.339700
O6251	O625	0.643500	0.466600	0.347500
O6261	O626	0.678900	0.478500	0.369500
O6271	O627	0.765900	0.409900	0.308500
O6281	O628	0.588720	0.488630	0.355720
O6291	O629	0.594590	0.525970	0.376510
O6301	O630	0.465560	0.496780	0.327890
O6311	O631	0.387980	0.460650	0.319840
C4691	C469	0.667000	0.464700	0.352700
C4701	C470	0.683600	0.446600	0.337000
C4711	C471	0.711300	0.444200	0.337900
C4721	C472	0.579900	0.510200	0.364700
C4731	C473	0.551400	0.518200	0.360100
C4741	C474	0.533800	0.499900	0.348100
O6321	O632	0.799100	0.372200	0.339700
O6331	O633	0.643500	0.966600	0.847500
O6341	O634	0.678900	0.978500	0.869500
O6351	O635	0.765900	0.909900	0.808500
O6361	O636	0.588720	0.988630	0.855720
O6371	O637	0.594590	0.025970	0.876510
O6381	O638	0.465560	0.996780	0.827890
O6391	O639	0.387980	0.960650	0.819840
C4751	C475	0.667000	0.964700	0.852700
C4761	C476	0.683600	0.946600	0.837000
C4771	C477	0.711300	0.944200	0.837900
C4781	C478	0.579900	0.010200	0.864700
C4791	C479	0.551400	0.018200	0.860100
C4801	C480	0.533800	0.999900	0.848100
O6401	O640	0.799100	0.872200	0.839700
O6411	O641	0.783400	0.347500	0.606500
O6421	O642	0.771500	0.369500	0.571100
O6431	O643	0.840100	0.308500	0.484100
O6441	O644	0.761370	0.355720	0.661280
O6451	O645	0.724030	0.376510	0.655410
O6461	O646	0.753220	0.327890	0.784440
O6471	O647	0.789350	0.319840	0.862020
C4811	C481	0.785300	0.352700	0.583000
C4821	C482	0.803400	0.337000	0.566400
C4831	C483	0.805800	0.337900	0.538700
C4841	C484	0.739800	0.364700	0.670100
C4851	C485	0.731800	0.360100	0.698600
C4861	C486	0.750100	0.348100	0.716200
O6481	O648	0.877800	0.339700	0.450900
O6491	O649	0.783400	0.847500	0.106500
O6501	O650	0.771500	0.869500	0.071100
O6511	O651	0.840100	0.808500	0.984100
O6521	O652	0.761370	0.855720	0.161280
O6531	O653	0.724030	0.876510	0.155410
O6541	O654	0.753220	0.827890	0.284440
O6551	O655	0.789350	0.819840	0.362020
C4871	C487	0.785300	0.852700	0.083000
C4881	C488	0.803400	0.837000	0.066400
C4891	C489	0.805800	0.837900	0.038700
C4901	C490	0.739800	0.864700	0.170100
C4911	C491	0.731800	0.860100	0.198600
C4921	C492	0.750100	0.848100	0.216200
O6561	O656	0.877800	0.839700	0.950900
O6571	O657	0.283400	0.347500	0.106500
O6581	O658	0.271500	0.369500	0.071100
O6591	O659	0.340100	0.308500	0.984100
O6601	O660	0.261370	0.355720	0.161280
O6611	O661	0.224030	0.376510	0.155410
O6621	O662	0.253220	0.327890	0.284440
O6631	O663	0.289350	0.319840	0.362020
C4931	C493	0.285300	0.352700	0.083000
C4941	C494	0.303400	0.337000	0.066400
C4951	C495	0.305800	0.337900	0.038700
C4961	C496	0.239800	0.364700	0.170100
C4971	C497	0.231800	0.360100	0.198600
C4981	C498	0.250100	0.348100	0.216200
O6641	O664	0.377800	0.339700	0.950900
O6651	O665	0.283400	0.847500	0.606500
O6661	O666	0.271500	0.869500	0.571100
O6671	O667	0.340100	0.808500	0.484100
O6681	O668	0.261370	0.855720	0.661280
O6691	O669	0.224030	0.876510	0.655410
O6701	O670	0.253220	0.827890	0.784440
O6711	O671	0.289350	0.819840	0.862020
C4991	C499	0.285300	0.852700	0.583000
C5001	C500	0.303400	0.837000	0.566400
C5011	C501	0.305800	0.837900	0.538700
C5021	C502	0.239800	0.864700	0.670100
C5031	C503	0.231800	0.860100	0.698600
C5041	C504	0.250100	0.848100	0.716200
O6721	O672	0.377800	0.839700	0.450900
O6731	O673	0.283400	0.402500	0.643500
O6741	O674	0.271500	0.380500	0.678900
O6751	O675	0.340100	0.441500	0.765900
O6761	O676	0.261370	0.394280	0.588720
O6771	O677	0.224030	0.373490	0.594590
O6781	O678	0.253220	0.422110	0.465560
O6791	O679	0.289350	0.430160	0.387980
C5051	C505	0.285300	0.397300	0.667000
C5061	C506	0.303400	0.413000	0.683600
C5071	C507	0.305800	0.412100	0.711300
C5081	C508	0.239800	0.385300	0.579900
C5091	C509	0.231800	0.389900	0.551400
C5101	C510	0.250100	0.401900	0.533800
O6801	O680	0.377800	0.410300	0.799100
O6811	O681	0.283400	0.902500	0.143500
O6821	O682	0.271500	0.880500	0.178900
O6831	O683	0.340100	0.941500	0.265900
O6841	O684	0.261370	0.894280	0.088720
O6851	O685	0.224030	0.873490	0.094590
O6861	O686	0.253220	0.922110	0.965560
O6871	O687	0.289350	0.930160	0.887980
C5111	C511	0.285300	0.897300	0.167000
C5121	C512	0.303400	0.913000	0.183600
C5131	C513	0.305800	0.912100	0.211300
C5141	C514	0.239800	0.885300	0.079900
C5151	C515	0.231800	0.889900	0.051400
C5161	C516	0.250100	0.901900	0.033800
O6881	O688	0.377800	0.910300	0.299100
O6891	O689	0.783400	0.402500	0.143500
O6901	O690	0.771500	0.380500	0.178900
O6911	O691	0.840100	0.441500	0.265900
O6921	O692	0.761370	0.394280	0.088720
O6931	O693	0.724030	0.373490	0.094590
O6941	O694	0.753220	0.422110	0.965560
O6951	O695	0.789350	0.430160	0.887980
C5171	C517	0.785300	0.397300	0.167000
C5181	C518	0.803400	0.413000	0.183600
C5191	C519	0.805800	0.412100	0.211300
C5201	C520	0.739800	0.385300	0.079900
C5211	C521	0.731800	0.389900	0.051400
C5221	C522	0.750100	0.401900	0.033800
O6961	O696	0.877800	0.410300	0.299100
O6971	O697	0.783400	0.902500	0.643500
O6981	O698	0.771500	0.880500	0.678900
O6991	O699	0.840100	0.941500	0.765900
O7001	O700	0.761370	0.894280	0.588720
O7011	O701	0.724030	0.873490	0.594590
O7021	O702	0.753220	0.922110	0.465560
O7031	O703	0.789350	0.930160	0.387980
C5231	C523	0.785300	0.897300	0.667000
C5241	C524	0.803400	0.913000	0.683600
C5251	C525	0.805800	0.912100	0.711300
C5261	C526	0.739800	0.885300	0.579900
C5271	C527	0.731800	0.889900	0.551400
C5281	C528	0.750100	0.901900	0.533800
O7041	O704	0.877800	0.910300	0.799100
O7051	O705	0.466600	0.847500	0.143500
O7061	O706	0.478500	0.869500	0.178900
O7071	O707	0.409900	0.808500	0.265900
O7081	O708	0.488630	0.855720	0.088720
O7091	O709	0.525970	0.876510	0.094590
O7101	O710	0.496780	0.827890	0.965560
O7111	O711	0.460650	0.819840	0.887980
C5291	C529	0.464700	0.852700	0.167000
C5301	C530	0.446600	0.837000	0.183600
C5311	C531	0.444200	0.837900	0.211300
C5321	C532	0.510200	0.864700	0.079900
C5331	C533	0.518200	0.860100	0.051400
C5341	C534	0.499900	0.848100	0.033800
O7121	O712	0.372200	0.839700	0.299100
O7131	O713	0.466600	0.347500	0.643500
O7141	O714	0.478500	0.369500	0.678900
O7151	O715	0.409900	0.308500	0.765900
O7161	O716	0.488630	0.355720	0.588720
O7171	O717	0.525970	0.376510	0.594590
O7181	O718	0.496780	0.327890	0.465560
O7191	O719	0.460650	0.319840	0.387980
C5351	C535	0.464700	0.352700	0.667000
C5361	C536	0.446600	0.337000	0.683600
C5371	C537	0.444200	0.337900	0.711300
C5381	C538	0.510200	0.364700	0.579900
C5391	C539	0.518200	0.360100	0.551400
C5401	C540	0.499900	0.348100	0.533800
O7201	O720	0.372200	0.339700	0.799100
O7211	O721	0.966600	0.847500	0.643500
O7221	O722	0.978500	0.869500	0.678900
O7231	O723	0.909900	0.808500	0.765900
O7241	O724	0.988630	0.855720	0.588720
O7251	O725	0.025970	0.876510	0.594590
O7261	O726	0.996780	0.827890	0.465560
O7271	O727	0.960650	0.819840	0.387980
C5411	C541	0.964700	0.852700	0.667000
C5421	C542	0.946600	0.837000	0.683600
C5431	C543	0.944200	0.837900	0.711300
C5441	C544	0.010200	0.864700	0.579900
C5451	C545	0.018200	0.860100	0.551400
C5461	C546	0.999900	0.848100	0.533800
O7281	O728	0.872200	0.839700	0.799100
O7291	O729	0.966600	0.347500	0.143500
O7301	O730	0.978500	0.369500	0.178900
O7311	O731	0.909900	0.308500	0.265900
O7321	O732	0.988630	0.355720	0.088720
O7331	O733	0.025970	0.376510	0.094590
O7341	O734	0.996780	0.327890	0.965560
O7351	O735	0.960650	0.319840	0.887980
C5471	C547	0.964700	0.352700	0.167000
C5481	C548	0.946600	0.337000	0.183600
C5491	C549	0.944200	0.337900	0.211300
C5501	C550	0.010200	0.364700	0.079900
C5511	C551	0.018200	0.360100	0.051400
C5521	C552	0.999900	0.348100	0.033800
O7361	O736	0.872200	0.339700	0.299100
O7371	O737	0.966600	0.902500	0.106500
O7381	O738	0.978500	0.880500	0.071100
O7391	O739	0.909900	0.941500	0.984100
O7401	O740	0.988630	0.894280	0.161280
O7411	O741	0.025970	0.873490	0.155410
O7421	O742	0.996780	0.922110	0.284440
O7431	O743	0.960650	0.930160	0.362020
C5531	C553	0.964700	0.897300	0.083000
C5541	C554	0.946600	0.913000	0.066400
C5551	C555	0.944200	0.912100	0.038700
C5561	C556	0.010200	0.885300	0.170100
C5571	C557	0.018200	0.889900	0.198600
C5581	C558	0.999900	0.901900	0.216200
O7441	O744	0.872200	0.910300	0.950900
O7451	O745	0.966600	0.402500	0.606500
O7461	O746	0.978500	0.380500	0.571100
O7471	O747	0.909900	0.441500	0.484100
O7481	O748	0.988630	0.394280	0.661280
O7491	O749	0.025970	0.373490	0.655410
O7501	O750	0.996780	0.422110	0.784440
O7511	O751	0.960650	0.430160	0.862020
C5591	C559	0.964700	0.397300	0.583000
C5601	C560	0.946600	0.413000	0.566400
C5611	C561	0.944200	0.412100	0.538700
C5621	C562	0.010200	0.385300	0.670100
C5631	C563	0.018200	0.389900	0.698600
C5641	C564	0.999900	0.401900	0.716200
O7521	O752	0.872200	0.410300	0.450900
O7531	O753	0.466600	0.902500	0.606500
O7541	O754	0.478500	0.880500	0.571100
O7551	O755	0.409900	0.941500	0.484100
O7561	O756	0.488630	0.894280	0.661280
O7571	O757	0.525970	0.873490	0.655410
O7581	O758	0.496780	0.922110	0.784440
O7591	O759	0.460650	0.930160	0.862020
C5651	C565	0.464700	0.897300	0.583000
C5661	C566	0.446600	0.913000	0.566400
C5671	C567	0.444200	0.912100	0.538700
C5681	C568	0.510200	0.885300	0.670100
C5691	C569	0.518200	0.889900	0.698600
C5701	C570	0.499900	0.901900	0.716200
O7601	O760	0.372200	0.910300	0.450900
O7611	O761	0.466600	0.402500	0.106500
O7621	O762	0.478500	0.380500	0.071100
O7631	O763	0.409900	0.441500	0.984100
O7641	O764	0.488630	0.394280	0.161280
O7651	O765	0.525970	0.373490	0.155410
O7661	O766	0.496780	0.422110	0.284440
O7671	O767	0.460650	0.430160	0.362020
C5711	C571	0.464700	0.397300	0.083000
C5721	C572	0.446600	0.413000	0.066400
C5731	C573	0.444200	0.412100	0.038700
C5741	C574	0.510200	0.385300	0.170100
C5751	C575	0.518200	0.389900	0.198600
C5761	C576	0.499900	0.401900	0.216200
O7681	O768	0.372200	0.410300	0.950900
O7691	O769	0.106500	0.902500	0.966600
O7701	O770	0.071100	0.880500	0.978500
O7711	O771	0.984100	0.941500	0.909900
O7721	O772	0.161280	0.894280	0.988630
O7731	O773	0.155410	0.873490	0.025970
O7741	O774	0.284440	0.922110	0.996780
O7751	O775	0.362020	0.930160	0.960650
C5771	C577	0.083000	0.897300	0.964700
C5781	C578	0.066400	0.913000	0.946600
C5791	C579	0.038700	0.912100	0.944200
C5801	C580	0.170100	0.885300	0.010200
C5811	C581	0.198600	0.889900	0.018200
C5821	C582	0.216200	0.901900	0.999900
O7761	O776	0.950900	0.910300	0.872200
O7771	O777	0.106500	0.402500	0.466600
O7781	O778	0.071100	0.380500	0.478500
O7791	O779	0.984100	0.441500	0.409900
O7801	O780	0.161280	0.394280	0.488630
O7811	O781	0.155410	0.373490	0.525970
O7821	O782	0.284440	0.422110	0.496780
O7831	O783	0.362020	0.430160	0.460650
C5831	C583	0.083000	0.397300	0.464700
C5841	C584	0.066400	0.413000	0.446600
C5851	C585	0.038700	0.412100	0.444200
C5861	C586	0.170100	0.385300	0.510200
C5871	C587	0.198600	0.389900	0.518200
C5881	C588	0.216200	0.401900	0.499900
O7841	O784	0.950900	0.410300	0.372200
O7851	O785	0.606500	0.902500	0.466600
O7861	O786	0.571100	0.880500	0.478500
O7871	O787	0.484100	0.941500	0.409900
O7881	O788	0.661280	0.894280	0.488630
O7891	O789	0.655410	0.873490	0.525970
O7901	O790	0.784440	0.922110	0.496780
O7911	O791	0.862020	0.930160	0.460650
C5891	C589	0.583000	0.897300	0.464700
C5901	C590	0.566400	0.913000	0.446600
C5911	C591	0.538700	0.912100	0.444200
C5921	C592	0.670100	0.885300	0.510200
C5931	C593	0.698600	0.889900	0.518200
C5941	C594	0.716200	0.901900	0.499900
O7921	O792	0.450900	0.910300	0.372200
O7931	O793	0.606500	0.402500	0.966600
O7941	O794	0.571100	0.380500	0.978500
O7951	O795	0.484100	0.441500	0.909900
O7961	O796	0.661280	0.394280	0.988630
O7971	O797	0.655410	0.373490	0.025970
O7981	O798	0.784440	0.422110	0.996780
O7991	O799	0.862020	0.430160	0.960650
C5951	C595	0.583000	0.397300	0.964700
C5961	C596	0.566400	0.413000	0.946600
C5971	C597	0.538700	0.412100	0.944200
C5981	C598	0.670100	0.385300	0.010200
C5991	C599	0.698600	0.389900	0.018200
C6001	C600	0.716200	0.401900	0.999900
O8001	O800	0.450900	0.410300	0.872200
O8011	O801	0.143500	0.847500	0.466600
O8021	O802	0.178900	0.869500	0.478500
O8031	O803	0.265900	0.808500	0.409900
O8041	O804	0.088720	0.855720	0.488630
O8051	O805	0.094590	0.876510	0.525970
O8061	O806	0.965560	0.827890	0.496780
O8071	O807	0.887980	0.819840	0.460650
C6011	C601	0.167000	0.852700	0.464700
C6021	C602	0.183600	0.837000	0.446600
C6031	C603	0.211300	0.837900	0.444200
C6041	C604	0.079900	0.864700	0.510200
C6051	C605	0.051400	0.860100	0.518200
C6061	C606	0.033800	0.848100	0.499900
O8081	O808	0.299100	0.839700	0.372200
O8091	O809	0.143500	0.347500	0.966600
O8101	O810	0.178900	0.369500	0.978500
O8111	O811	0.265900	0.308500	0.909900
O8121	O812	0.088720	0.355720	0.988630
O8131	O813	0.094590	0.376510	0.025970
O8141	O814	0.965560	0.327890	0.996780
O8151	O815	0.887980	0.319840	0.960650
C6071	C607	0.167000	0.352700	0.964700
C6081	C608	0.183600	0.337000	0.946600
C6091	C609	0.211300	0.337900	0.944200
C6101	C610	0.079900	0.364700	0.010200
C6111	C611	0.051400	0.360100	0.018200
C6121	C612	0.033800	0.348100	0.999900
O8161	O816	0.299100	0.339700	0.872200
O8171	O817	0.643500	0.847500	0.966600
O8181	O818	0.678900	0.869500	0.978500
O8191	O819	0.765900	0.808500	0.909900
O8201	O820	0.588720	0.855720	0.988630
O8211	O821	0.594590	0.876510	0.025970
O8221	O822	0.465560	0.827890	0.996780
O8231	O823	0.387980	0.819840	0.960650
C6131	C613	0.667000	0.852700	0.964700
C6141	C614	0.683600	0.837000	0.946600
C6151	C615	0.711300	0.837900	0.944200
C6161	C616	0.579900	0.864700	0.010200
C6171	C617	0.551400	0.860100	0.018200
C6181	C618	0.533800	0.848100	0.999900
O8241	O824	0.799100	0.839700	0.872200
O8251	O825	0.643500	0.347500	0.466600
O8261	O826	0.678900	0.369500	0.478500
O8271	O827	0.765900	0.308500	0.409900
O8281	O828	0.588720	0.355720	0.488630
O8291	O829	0.594590	0.376510	0.525970
O8301	O830	0.465560	0.327890	0.496780
O8311	O831	0.387980	0.319840	0.460650
C6191	C619	0.667000	0.352700	0.464700
C6201	C620	0.683600	0.337000	0.446600
C6211	C621	0.711300	0.337900	0.444200
C6221	C622	0.579900	0.364700	0.510200
C6231	C623	0.551400	0.360100	0.518200
C6241	C624	0.533800	0.348100	0.499900
O8321	O832	0.799100	0.339700	0.372200
O8331	O833	0.643500	0.402500	0.283400
O8341	O834	0.678900	0.380500	0.271500
O8351	O835	0.765900	0.441500	0.340100
O8361	O836	0.588720	0.394280	0.261370
O8371	O837	0.594590	0.373490	0.224030
O8381	O838	0.465560	0.422110	0.253220
O8391	O839	0.387980	0.430160	0.289350
C6251	C625	0.667000	0.397300	0.285300
C6261	C626	0.683600	0.413000	0.303400
C6271	C627	0.711300	0.412100	0.305800
C6281	C628	0.579900	0.385300	0.239800
C6291	C629	0.551400	0.389900	0.231800
C6301	C630	0.533800	0.401900	0.250100
O8401	O840	0.799100	0.410300	0.377800
O8411	O841	0.643500	0.902500	0.783400
O8421	O842	0.678900	0.880500	0.771500
O8431	O843	0.765900	0.941500	0.840100
O8441	O844	0.588720	0.894280	0.761370
O8451	O845	0.594590	0.873490	0.724030
O8461	O846	0.465560	0.922110	0.753220
O8471	O847	0.387980	0.930160	0.789350
C6311	C631	0.667000	0.897300	0.785300
C6321	C632	0.683600	0.913000	0.803400
C6331	C633	0.711300	0.912100	0.805800
C6341	C634	0.579900	0.885300	0.739800
C6351	C635	0.551400	0.889900	0.731800
C6361	C636	0.533800	0.901900	0.750100
O8481	O848	0.799100	0.910300	0.877800
O8491	O849	0.143500	0.402500	0.783400
O8501	O850	0.178900	0.380500	0.771500
O8511	O851	0.265900	0.441500	0.840100
O8521	O852	0.088720	0.394280	0.761370
O8531	O853	0.094590	0.373490	0.724030
O8541	O854	0.965560	0.422110	0.753220
O8551	O855	0.887980	0.430160	0.789350
C6371	C637	0.167000	0.397300	0.785300
C6381	C638	0.183600	0.413000	0.803400
C6391	C639	0.211300	0.412100	0.805800
C6401	C640	0.079900	0.385300	0.739800
C6411	C641	0.051400	0.389900	0.731800
C6421	C642	0.033800	0.401900	0.750100
O8561	O856	0.299100	0.410300	0.877800
O8571	O857	0.143500	0.902500	0.283400
O8581	O858	0.178900	0.880500	0.271500
O8591	O859	0.265900	0.941500	0.340100
O8601	O860	0.088720	0.894280	0.261370
O8611	O861	0.094590	0.873490	0.224030
O8621	O862	0.965560	0.922110	0.253220
O8631	O863	0.887980	0.930160	0.289350
C6431	C643	0.167000	0.897300	0.285300
C6441	C644	0.183600	0.913000	0.303400
C6451	C645	0.211300	0.912100	0.305800
C6461	C646	0.079900	0.885300	0.239800
C6471	C647	0.051400	0.889900	0.231800
C6481	C648	0.033800	0.901900	0.250100
O8641	O864	0.299100	0.910300	0.377800
O8651	O865	0.606500	0.347500	0.783400
O8661	O866	0.571100	0.369500	0.771500
O8671	O867	0.484100	0.308500	0.840100
O8681	O868	0.661280	0.355720	0.761370
O8691	O869	0.655410	0.376510	0.724030
O8701	O870	0.784440	0.327890	0.753220
O8711	O871	0.862020	0.319840	0.789350
C6491	C649	0.583000	0.352700	0.785300
C6501	C650	0.566400	0.337000	0.803400
C6511	C651	0.538700	0.337900	0.805800
C6521	C652	0.670100	0.364700	0.739800
C6531	C653	0.698600	0.360100	0.731800
C6541	C654	0.716200	0.348100	0.750100
O8721	O872	0.450900	0.339700	0.877800
O8731	O873	0.606500	0.847500	0.283400
O8741	O874	0.571100	0.869500	0.271500
O8751	O875	0.484100	0.808500	0.340100
O8761	O876	0.661280	0.855720	0.261370
O8771	O877	0.655410	0.876510	0.224030
O8781	O878	0.784440	0.827890	0.253220
O8791	O879	0.862020	0.819840	0.289350
C6551	C655	0.583000	0.852700	0.285300
C6561	C656	0.566400	0.837000	0.303400
C6571	C657	0.538700	0.837900	0.305800
C6581	C658	0.670100	0.864700	0.239800
C6591	C659	0.698600	0.860100	0.231800
C6601	C660	0.716200	0.848100	0.250100
O8801	O880	0.450900	0.839700	0.377800
O8811	O881	0.106500	0.347500	0.283400
O8821	O882	0.071100	0.369500	0.271500
O8831	O883	0.984100	0.308500	0.340100
O8841	O884	0.161280	0.355720	0.261370
O8851	O885	0.155410	0.376510	0.224030
O8861	O886	0.284440	0.327890	0.253220
O8871	O887	0.362020	0.319840	0.289350
C6611	C661	0.083000	0.352700	0.285300
C6621	C662	0.066400	0.337000	0.303400
C6631	C663	0.038700	0.337900	0.305800
C6641	C664	0.170100	0.364700	0.239800
C6651	C665	0.198600	0.360100	0.231800
C6661	C666	0.216200	0.348100	0.250100
O8881	O888	0.950900	0.339700	0.377800
O8891	O889	0.106500	0.847500	0.783400
O8901	O890	0.071100	0.869500	0.771500
O8911	O891	0.984100	0.808500	0.840100
O8921	O892	0.161280	0.855720	0.761370
O8931	O893	0.155410	0.876510	0.724030
O8941	O894	0.284440	0.827890	0.753220
O8951	O895	0.362020	0.819840	0.789350
C6671	C667	0.083000	0.852700	0.785300
C6681	C668	0.066400	0.837000	0.803400
C6691	C669	0.038700	0.837900	0.805800
C6701	C670	0.170100	0.864700	0.739800
C6711	C671	0.198600	0.860100	0.731800
C6721	C672	0.216200	0.848100	0.750100
O8961	O896	0.950900	0.839700	0.877800
O8971	O897	0.966600	0.106500	0.902500
O8981	O898	0.978500	0.071100	0.880500
O8991	O899	0.909900	0.984100	0.941500
O9001	O900	0.988630	0.161280	0.894280
O9011	O901	0.025970	0.155410	0.873490
O9021	O902	0.996780	0.284440	0.922110
O9031	O903	0.960650	0.362020	0.930160
C6731	C673	0.964700	0.083000	0.897300
C6741	C674	0.946600	0.066400	0.913000
C6751	C675	0.944200	0.038700	0.912100
C6761	C676	0.010200	0.170100	0.885300
C6771	C677	0.018200	0.198600	0.889900
C6781	C678	0.999900	0.216200	0.901900
O9041	O904	0.872200	0.950900	0.910300
O9051	O905	0.966600	0.606500	0.402500
O9061	O906	0.978500	0.571100	0.380500
O9071	O907	0.909900	0.484100	0.441500
O9081	O908	0.988630	0.661280	0.394280
O9091	O909	0.025970	0.655410	0.373490
O9101	O910	0.996780	0.784440	0.422110
O9111	O911	0.960650	0.862020	0.430160
C6791	C679	0.964700	0.583000	0.397300
C6801	C680	0.946600	0.566400	0.413000
C6811	C681	0.944200	0.538700	0.412100
C6821	C682	0.010200	0.670100	0.385300
C6831	C683	0.018200	0.698600	0.389900
C6841	C684	0.999900	0.716200	0.401900
O9121	O912	0.872200	0.450900	0.410300
O9131	O913	0.466600	0.106500	0.402500
O9141	O914	0.478500	0.071100	0.380500
O9151	O915	0.409900	0.984100	0.441500
O9161	O916	0.488630	0.161280	0.394280
O9171	O917	0.525970	0.155410	0.373490
O9181	O918	0.496780	0.284440	0.422110
O9191	O919	0.460650	0.362020	0.430160
C6851	C685	0.464700	0.083000	0.397300
C6861	C686	0.446600	0.066400	0.413000
C6871	C687	0.444200	0.038700	0.412100
C6881	C688	0.510200	0.170100	0.385300
C6891	C689	0.518200	0.198600	0.389900
C6901	C690	0.499900	0.216200	0.401900
O9201	O920	0.372200	0.950900	0.410300
O9211	O921	0.466600	0.606500	0.902500
O9221	O922	0.478500	0.571100	0.880500
O9231	O923	0.409900	0.484100	0.941500
O9241	O924	0.488630	0.661280	0.894280
O9251	O925	0.525970	0.655410	0.873490
O9261	O926	0.496780	0.784440	0.922110
O9271	O927	0.460650	0.862020	0.930160
C6911	C691	0.464700	0.583000	0.897300
C6921	C692	0.446600	0.566400	0.913000
C6931	C693	0.444200	0.538700	0.912100
C6941	C694	0.510200	0.670100	0.885300
C6951	C695	0.518200	0.698600	0.889900
C6961	C696	0.499900	0.716200	0.901900
O9281	O928	0.372200	0.450900	0.910300
O9291	O929	0.466600	0.143500	0.847500
O9301	O930	0.478500	0.178900	0.869500
O9311	O931	0.409900	0.265900	0.808500
O9321	O932	0.488630	0.088720	0.855720
O9331	O933	0.525970	0.094590	0.876510
O9341	O934	0.496780	0.965560	0.827890
O9351	O935	0.460650	0.887980	0.819840
C6971	C697	0.464700	0.167000	0.852700
C6981	C698	0.446600	0.183600	0.837000
C6991	C699	0.444200	0.211300	0.837900
C7001	C700	0.510200	0.079900	0.864700
C7011	C701	0.518200	0.051400	0.860100
C7021	C702	0.499900	0.033800	0.848100
O9361	O936	0.372200	0.299100	0.839700
O9371	O937	0.466600	0.643500	0.347500
O9381	O938	0.478500	0.678900	0.369500
O9391	O939	0.409900	0.765900	0.308500
O9401	O940	0.488630	0.588720	0.355720
O9411	O941	0.525970	0.594590	0.376510
O9421	O942	0.496780	0.465560	0.327890
O9431	O943	0.460650	0.387980	0.319840
C7031	C703	0.464700	0.667000	0.352700
C7041	C704	0.446600	0.683600	0.337000
C7051	C705	0.444200	0.711300	0.337900
C7061	C706	0.510200	0.579900	0.364700
C7071	C707	0.518200	0.551400	0.360100
C7081	C708	0.499900	0.533800	0.348100
O9441	O944	0.372200	0.799100	0.339700
O9451	O945	0.966600	0.143500	0.347500
O9461	O946	0.978500	0.178900	0.369500
O9471	O947	0.909900	0.265900	0.308500
O9481	O948	0.988630	0.088720	0.355720
O9491	O949	0.025970	0.094590	0.376510
O9501	O950	0.996780	0.965560	0.327890
O9511	O951	0.960650	0.887980	0.319840
C7091	C709	0.964700	0.167000	0.352700
C7101	C710	0.946600	0.183600	0.337000
C7111	C711	0.944200	0.211300	0.337900
C7121	C712	0.010200	0.079900	0.364700
C7131	C713	0.018200	0.051400	0.360100
C7141	C714	0.999900	0.033800	0.348100
O9521	O952	0.872200	0.299100	0.339700
O9531	O953	0.966600	0.643500	0.847500
O9541	O954	0.978500	0.678900	0.869500
O9551	O955	0.909900	0.765900	0.808500
O9561	O956	0.988630	0.588720	0.855720
O9571	O957	0.025970	0.594590	0.876510
O9581	O958	0.996780	0.465560	0.827890
O9591	O959	0.960650	0.387980	0.819840
C7151	C715	0.964700	0.667000	0.852700
C7161	C716	0.946600	0.683600	0.837000
C7171	C717	0.944200	0.711300	0.837900
C7181	C718	0.010200	0.579900	0.864700
C7191	C719	0.018200	0.551400	0.860100
C7201	C720	0.999900	0.533800	0.848100
O9601	O960	0.872200	0.799100	0.839700
O9611	O961	0.283400	0.643500	0.402500
O9621	O962	0.271500	0.678900	0.380500
O9631	O963	0.340100	0.765900	0.441500
O9641	O964	0.261370	0.588720	0.394280
O9651	O965	0.224030	0.594590	0.373490
O9661	O966	0.253220	0.465560	0.422110
O9671	O967	0.289350	0.387980	0.430160
C7211	C721	0.285300	0.667000	0.397300
C7221	C722	0.303400	0.683600	0.413000
C7231	C723	0.305800	0.711300	0.412100
C7241	C724	0.239800	0.579900	0.385300
C7251	C725	0.231800	0.551400	0.389900
C7261	C726	0.250100	0.533800	0.401900
O9681	O968	0.377800	0.799100	0.410300
O9691	O969	0.283400	0.143500	0.902500
O9701	O970	0.271500	0.178900	0.880500
O9711	O971	0.340100	0.265900	0.941500
O9721	O972	0.261370	0.088720	0.894280
O9731	O973	0.224030	0.094590	0.873490
O9741	O974	0.253220	0.965560	0.922110
O9751	O975	0.289350	0.887980	0.930160
C7271	C727	0.285300	0.167000	0.897300
C7281	C728	0.303400	0.183600	0.913000
C7291	C729	0.305800	0.211300	0.912100
C7301	C730	0.239800	0.079900	0.885300
C7311	C731	0.231800	0.051400	0.889900
C7321	C732	0.250100	0.033800	0.901900
O9761	O976	0.377800	0.299100	0.910300
O9771	O977	0.783400	0.643500	0.902500
O9781	O978	0.771500	0.678900	0.880500
O9791	O979	0.840100	0.765900	0.941500
O9801	O980	0.761370	0.588720	0.894280
O9811	O981	0.724030	0.594590	0.873490
O9821	O982	0.753220	0.465560	0.922110
O9831	O983	0.789350	0.387980	0.930160
C7331	C733	0.785300	0.667000	0.897300
C7341	C734	0.803400	0.683600	0.913000
C7351	C735	0.805800	0.711300	0.912100
C7361	C736	0.739800	0.579900	0.885300
C7371	C737	0.731800	0.551400	0.889900
C7381	C738	0.750100	0.533800	0.901900
O9841	O984	0.877800	0.799100	0.910300
O9851	O985	0.783400	0.143500	0.402500
O9861	O986	0.771500	0.178900	0.380500
O9871	O987	0.840100	0.265900	0.441500
O9881	O988	0.761370	0.088720	0.394280
O9891	O989	0.724030	0.094590	0.373490
O9901	O990	0.753220	0.965560	0.422110
O9911	O991	0.789350	0.887980	0.430160
C7391	C739	0.785300	0.167000	0.397300
C7401	C740	0.803400	0.183600	0.413000
C7411	C741	0.805800	0.211300	0.412100
C7421	C742	0.739800	0.079900	0.385300
C7431	C743	0.731800	0.051400	0.389900
C7441	C744	0.750100	0.033800	0.401900
O9921	O992	0.877800	0.299100	0.410300
O9931	O993	0.783400	0.606500	0.347500
O9941	O994	0.771500	0.571100	0.369500
O9951	O995	0.840100	0.484100	0.308500
O9961	O996	0.761370	0.661280	0.355720
O9971	O997	0.724030	0.655410	0.376510
O9981	O998	0.753220	0.784440	0.327890
O9991	O999	0.789350	0.862020	0.319840
C7451	C745	0.785300	0.583000	0.352700
C7461	C746	0.803400	0.566400	0.337000
C7471	C747	0.805800	0.538700	0.337900
C7481	C748	0.739800	0.670100	0.364700
C7491	C749	0.731800	0.698600	0.360100
C7501	C750	0.750100	0.716200	0.348100
O10001	O1000	0.877800	0.450900	0.339700
O10011	O1001	0.783400	0.106500	0.847500
O10021	O1002	0.771500	0.071100	0.869500
O10031	O1003	0.840100	0.984100	0.808500
O10041	O1004	0.761370	0.161280	0.855720
O10051	O1005	0.724030	0.155410	0.876510
O10061	O1006	0.753220	0.284440	0.827890
O10071	O1007	0.789350	0.362020	0.819840
C7511	C751	0.785300	0.083000	0.852700
C7521	C752	0.803400	0.066400	0.837000
C7531	C753	0.805800	0.038700	0.837900
C7541	C754	0.739800	0.170100	0.864700
C7551	C755	0.731800	0.198600	0.860100
C7561	C756	0.750100	0.216200	0.848100
O10081	O1008	0.877800	0.950900	0.839700
O10091	O1009	0.283400	0.606500	0.847500
O10101	O1010	0.271500	0.571100	0.869500
O10111	O1011	0.340100	0.484100	0.808500
O10121	O1012	0.261370	0.661280	0.855720
O10131	O1013	0.224030	0.655410	0.876510
O10141	O1014	0.253220	0.784440	0.827890
O10151	O1015	0.289350	0.862020	0.819840
C7571	C757	0.285300	0.583000	0.852700
C7581	C758	0.303400	0.566400	0.837000
C7591	C759	0.305800	0.538700	0.837900
C7601	C760	0.239800	0.670100	0.864700
C7611	C761	0.231800	0.698600	0.860100
C7621	C762	0.250100	0.716200	0.848100
O10161	O1016	0.377800	0.450900	0.839700
O10171	O1017	0.283400	0.106500	0.347500
O10181	O1018	0.271500	0.071100	0.369500
O10191	O1019	0.340100	0.984100	0.308500
O10201	O1020	0.261370	0.161280	0.355720
O10211	O1021	0.224030	0.155410	0.376510
O10221	O1022	0.253220	0.284440	0.327890
O10231	O1023	0.289350	0.362020	0.319840
C7631	C763	0.285300	0.083000	0.352700
C7641	C764	0.303400	0.066400	0.337000
C7651	C765	0.305800	0.038700	0.337900
C7661	C766	0.239800	0.170100	0.364700
C7671	C767	0.231800	0.198600	0.360100
C7681	C768	0.250100	0.216200	0.348100
O10241	O1024	0.377800	0.950900	0.339700
O10251	O1025	0.902500	0.966600	0.106500
O10261	O1026	0.880500	0.978500	0.071100
O10271	O1027	0.941500	0.909900	0.984100
O10281	O1028	0.894280	0.988630	0.161280
O10291	O1029	0.873490	0.025970	0.155410
O10301	O1030	0.922110	0.996780	0.284440
O10311	O1031	0.930160	0.960650	0.362020
C7691	C769	0.897300	0.964700	0.083000
C7701	C770	0.913000	0.946600	0.066400
C7711	C771	0.912100	0.944200	0.038700
C7721	C772	0.885300	0.010200	0.170100
C7731	C773	0.889900	0.018200	0.198600
C7741	C774	0.901900	0.999900	0.216200
O10321	O1032	0.910300	0.872200	0.950900
O10331	O1033	0.902500	0.466600	0.606500
O10341	O1034	0.880500	0.478500	0.571100
O10351	O1035	0.941500	0.409900	0.484100
O10361	O1036	0.894280	0.488630	0.661280
O10371	O1037	0.873490	0.525970	0.655410
O10381	O1038	0.922110	0.496780	0.784440
O10391	O1039	0.930160	0.460650	0.862020
C7751	C775	0.897300	0.464700	0.583000
C7761	C776	0.913000	0.446600	0.566400
C7771	C777	0.912100	0.444200	0.538700
C7781	C778	0.885300	0.510200	0.670100
C7791	C779	0.889900	0.518200	0.698600
C7801	C780	0.901900	0.499900	0.716200
O10401	O1040	0.910300	0.372200	0.450900
O10411	O1041	0.402500	0.966600	0.606500
O10421	O1042	0.380500	0.978500	0.571100
O10431	O1043	0.441500	0.909900	0.484100
O10441	O1044	0.394280	0.988630	0.661280
O10451	O1045	0.373490	0.025970	0.655410
O10461	O1046	0.422110	0.996780	0.784440
O10471	O1047	0.430160	0.960650	0.862020
C7811	C781	0.397300	0.964700	0.583000
C7821	C782	0.413000	0.946600	0.566400
C7831	C783	0.412100	0.944200	0.538700
C7841	C784	0.385300	0.010200	0.670100
C7851	C785	0.389900	0.018200	0.698600
C7861	C786	0.401900	0.999900	0.716200
O10481	O1048	0.410300	0.872200	0.450900
O10491	O1049	0.402500	0.466600	0.106500
O10501	O1050	0.380500	0.478500	0.071100
O10511	O1051	0.441500	0.409900	0.984100
O10521	O1052	0.394280	0.488630	0.161280
O10531	O1053	0.373490	0.525970	0.155410
O10541	O1054	0.422110	0.496780	0.284440
O10551	O1055	0.430160	0.460650	0.362020
C7871	C787	0.397300	0.464700	0.083000
C7881	C788	0.413000	0.446600	0.066400
C7891	C789	0.412100	0.444200	0.038700
C7901	C790	0.385300	0.510200	0.170100
C7911	C791	0.389900	0.518200	0.198600
C7921	C792	0.401900	0.499900	0.216200
O10561	O1056	0.410300	0.372200	0.950900
O10571	O1057	0.847500	0.466600	0.143500
O10581	O1058	0.869500	0.478500	0.178900
O10591	O1059	0.808500	0.409900	0.265900
O10601	O1060	0.855720	0.488630	0.088720
O10611	O1061	0.876510	0.525970	0.094590
O10621	O1062	0.827890	0.496780	0.965560
O10631	O1063	0.819840	0.460650	0.887980
C7931	C793	0.852700	0.464700	0.167000
C7941	C794	0.837000	0.446600	0.183600
C7951	C795	0.837900	0.444200	0.211300
C7961	C796	0.864700	0.510200	0.079900
C7971	C797	0.860100	0.518200	0.051400
C7981	C798	0.848100	0.499900	0.033800
O10641	O1064	0.839700	0.372200	0.299100
O10651	O1065	0.847500	0.966600	0.643500
O10661	O1066	0.869500	0.978500	0.678900
O10671	O1067	0.808500	0.909900	0.765900
O10681	O1068	0.855720	0.988630	0.588720
O10691	O1069	0.876510	0.025970	0.594590
O10701	O1070	0.827890	0.996780	0.465560
O10711	O1071	0.819840	0.960650	0.387980
C7991	C799	0.852700	0.964700	0.667000
C8001	C800	0.837000	0.946600	0.683600
C8011	C801	0.837900	0.944200	0.711300
C8021	C802	0.864700	0.010200	0.579900
C8031	C803	0.860100	0.018200	0.551400
C8041	C804	0.848100	0.999900	0.533800
O10721	O1072	0.839700	0.872200	0.799100
O10731	O1073	0.347500	0.466600	0.643500
O10741	O1074	0.369500	0.478500	0.678900
O10751	O1075	0.308500	0.409900	0.765900
O10761	O1076	0.355720	0.488630	0.588720
O10771	O1077	0.376510	0.525970	0.594590
O10781	O1078	0.327890	0.496780	0.465560
O10791	O1079	0.319840	0.460650	0.387980
C8051	C805	0.352700	0.464700	0.667000
C8061	C806	0.337000	0.446600	0.683600
C8071	C807	0.337900	0.444200	0.711300
C8081	C808	0.364700	0.510200	0.579900
C8091	C809	0.360100	0.518200	0.551400
C8101	C810	0.348100	0.499900	0.533800
O10801	O1080	0.339700	0.372200	0.799100
O10811	O1081	0.347500	0.966600	0.143500
O10821	O1082	0.369500	0.978500	0.178900
O10831	O1083	0.308500	0.909900	0.265900
O10841	O1084	0.355720	0.988630	0.088720
O10851	O1085	0.376510	0.025970	0.094590
O10861	O1086	0.327890	0.996780	0.965560
O10871	O1087	0.319840	0.960650	0.887980
C8111	C811	0.352700	0.964700	0.167000
C8121	C812	0.337000	0.946600	0.183600
C8131	C813	0.337900	0.944200	0.211300
C8141	C814	0.364700	0.010200	0.079900
C8151	C815	0.360100	0.018200	0.051400
C8161	C816	0.348100	0.999900	0.033800
O10881	O1088	0.339700	0.872200	0.299100
O10891	O1089	0.402500	0.283400	0.643500
O10901	O1090	0.380500	0.271500	0.678900
O10911	O1091	0.441500	0.340100	0.765900
O10921	O1092	0.394280	0.261370	0.588720
O10931	O1093	0.373490	0.224030	0.594590
O10941	O1094	0.422110	0.253220	0.465560
O10951	O1095	0.430160	0.289350	0.387980
C8171	C817	0.397300	0.285300	0.667000
C8181	C818	0.413000	0.303400	0.683600
C8191	C819	0.412100	0.305800	0.711300
C8201	C820	0.385300	0.239800	0.579900
C8211	C821	0.389900	0.231800	0.551400
C8221	C822	0.401900	0.250100	0.533800
O10961	O1096	0.410300	0.377800	0.799100
O10971	O1097	0.402500	0.783400	0.143500
O10981	O1098	0.380500	0.771500	0.178900
O10991	O1099	0.441500	0.840100	0.265900
O11001	O1100	0.394280	0.761370	0.088720
O11011	O1101	0.373490	0.724030	0.094590
O11021	O1102	0.422110	0.753220	0.965560
O11031	O1103	0.430160	0.789350	0.887980
C8231	C823	0.397300	0.785300	0.167000
C8241	C824	0.413000	0.803400	0.183600
C8251	C825	0.412100	0.805800	0.211300
C8261	C826	0.385300	0.739800	0.079900
C8271	C827	0.389900	0.731800	0.051400
C8281	C828	0.401900	0.750100	0.033800
O11041	O1104	0.410300	0.877800	0.299100
O11051	O1105	0.902500	0.283400	0.143500
O11061	O1106	0.880500	0.271500	0.178900
O11071	O1107	0.941500	0.340100	0.265900
O11081	O1108	0.894280	0.261370	0.088720
O11091	O1109	0.873490	0.224030	0.094590
O11101	O1110	0.922110	0.253220	0.965560
O11111	O1111	0.930160	0.289350	0.887980
C8291	C829	0.897300	0.285300	0.167000
C8301	C830	0.913000	0.303400	0.183600
C8311	C831	0.912100	0.305800	0.211300
C8321	C832	0.885300	0.239800	0.079900
C8331	C833	0.889900	0.231800	0.051400
C8341	C834	0.901900	0.250100	0.033800
O11121	O1112	0.910300	0.377800	0.299100
O11131	O1113	0.902500	0.783400	0.643500
O11141	O1114	0.880500	0.771500	0.678900
O11151	O1115	0.941500	0.840100	0.765900
O11161	O1116	0.894280	0.761370	0.588720
O11171	O1117	0.873490	0.724030	0.594590
O11181	O1118	0.922110	0.753220	0.465560
O11191	O1119	0.930160	0.789350	0.387980
C8351	C835	0.897300	0.785300	0.667000
C8361	C836	0.913000	0.803400	0.683600
C8371	C837	0.912100	0.805800	0.711300
C8381	C838	0.885300	0.739800	0.579900
C8391	C839	0.889900	0.731800	0.551400
C8401	C840	0.901900	0.750100	0.533800
O11201	O1120	0.910300	0.877800	0.799100
O11211	O1121	0.347500	0.783400	0.606500
O11221	O1122	0.369500	0.771500	0.571100
O11231	O1123	0.308500	0.840100	0.484100
O11241	O1124	0.355720	0.761370	0.661280
O11251	O1125	0.376510	0.724030	0.655410
O11261	O1126	0.327890	0.753220	0.784440
O11271	O1127	0.319840	0.789350	0.862020
C8411	C841	0.352700	0.785300	0.583000
C8421	C842	0.337000	0.803400	0.566400
C8431	C843	0.337900	0.805800	0.538700
C8441	C844	0.364700	0.739800	0.670100
C8451	C845	0.360100	0.731800	0.698600
C8461	C846	0.348100	0.750100	0.716200
O11281	O1128	0.339700	0.877800	0.450900
O11291	O1129	0.347500	0.283400	0.106500
O11301	O1130	0.369500	0.271500	0.071100
O11311	O1131	0.308500	0.340100	0.984100
O11321	O1132	0.355720	0.261370	0.161280
O11331	O1133	0.376510	0.224030	0.155410
O11341	O1134	0.327890	0.253220	0.284440
O11351	O1135	0.319840	0.289350	0.362020
C8471	C847	0.352700	0.285300	0.083000
C8481	C848	0.337000	0.303400	0.066400
C8491	C849	0.337900	0.305800	0.038700
C8501	C850	0.364700	0.239800	0.170100
C8511	C851	0.360100	0.231800	0.198600
C8521	C852	0.348100	0.250100	0.216200
O11361	O1136	0.339700	0.377800	0.950900
O11371	O1137	0.847500	0.783400	0.106500
O11381	O1138	0.869500	0.771500	0.071100
O11391	O1139	0.808500	0.840100	0.984100
O11401	O1140	0.855720	0.761370	0.161280
O11411	O1141	0.876510	0.724030	0.155410
O11421	O1142	0.827890	0.753220	0.284440
O11431	O1143	0.819840	0.789350	0.362020
C8531	C853	0.852700	0.785300	0.083000
C8541	C854	0.837000	0.803400	0.066400
C8551	C855	0.837900	0.805800	0.038700
C8561	C856	0.864700	0.739800	0.170100
C8571	C857	0.860100	0.731800	0.198600
C8581	C858	0.848100	0.750100	0.216200
O11441	O1144	0.839700	0.877800	0.950900
O11451	O1145	0.847500	0.283400	0.606500
O11461	O1146	0.869500	0.271500	0.571100
O11471	O1147	0.808500	0.340100	0.484100
O11481	O1148	0.855720	0.261370	0.661280
O11491	O1149	0.876510	0.224030	0.655410
O11501	O1150	0.827890	0.253220	0.784440
O11511	O1151	0.819840	0.289350	0.862020
C8591	C859	0.852700	0.285300	0.583000
C8601	C860	0.837000	0.303400	0.566400
C8611	C861	0.837900	0.305800	0.538700
C8621	C862	0.864700	0.239800	0.670100
C8631	C863	0.860100	0.231800	0.698600
C8641	C864	0.848100	0.250100	0.716200
O11521	O1152	0.839700	0.377800	0.450900
O11531	O1153	0.152500	0.856500	0.533400
O11541	O1154	0.130500	0.821100	0.521500
O11551	O1155	0.191500	0.734100	0.590100
O11561	O1156	0.144280	0.911280	0.511370
O11571	O1157	0.123490	0.905410	0.474030
O11581	O1158	0.172110	0.034440	0.503220
O11591	O1159	0.180160	0.112020	0.539350
C8651	C865	0.147300	0.833000	0.535300
C8661	C866	0.163000	0.816400	0.553400
C8671	C867	0.162100	0.788700	0.555800
C8681	C868	0.135300	0.920100	0.489800
C8691	C869	0.139900	0.948600	0.481800
C8701	C870	0.151900	0.966200	0.500100
O11601	O1160	0.160300	0.700900	0.627800
O11611	O1161	0.152500	0.356500	0.033400
O11621	O1162	0.130500	0.321100	0.021500
O11631	O1163	0.191500	0.234100	0.090100
O11641	O1164	0.144280	0.411280	0.011370
O11651	O1165	0.123490	0.405410	0.974030
O11661	O1166	0.172110	0.534440	0.003220
O11671	O1167	0.180160	0.612020	0.039350
C8711	C871	0.147300	0.333000	0.035300
C8721	C872	0.163000	0.316400	0.053400
C8731	C873	0.162100	0.288700	0.055800
C8741	C874	0.135300	0.420100	0.989800
C8751	C875	0.139900	0.448600	0.981800
C8761	C876	0.151900	0.466200	0.000100
O11681	O1168	0.160300	0.200900	0.127800
O11691	O1169	0.652500	0.856500	0.033400
O11701	O1170	0.630500	0.821100	0.021500
O11711	O1171	0.691500	0.734100	0.090100
O11721	O1172	0.644280	0.911280	0.011370
O11731	O1173	0.623490	0.905410	0.974030
O11741	O1174	0.672110	0.034440	0.003220
O11751	O1175	0.680160	0.112020	0.039350
C8771	C877	0.647300	0.833000	0.035300
C8781	C878	0.663000	0.816400	0.053400
C8791	C879	0.662100	0.788700	0.055800
C8801	C880	0.635300	0.920100	0.989800
C8811	C881	0.639900	0.948600	0.981800
C8821	C882	0.651900	0.966200	0.000100
O11761	O1176	0.660300	0.700900	0.127800
O11771	O1177	0.652500	0.356500	0.533400
O11781	O1178	0.630500	0.321100	0.521500
O11791	O1179	0.691500	0.234100	0.590100
O11801	O1180	0.644280	0.411280	0.511370
O11811	O1181	0.623490	0.405410	0.474030
O11821	O1182	0.672110	0.534440	0.503220
O11831	O1183	0.680160	0.612020	0.539350
C8831	C883	0.647300	0.333000	0.535300
C8841	C884	0.663000	0.316400	0.553400
C8851	C885	0.662100	0.288700	0.555800
C8861	C886	0.635300	0.420100	0.489800
C8871	C887	0.639900	0.448600	0.481800
C8881	C888	0.651900	0.466200	0.500100
O11841	O1184	0.660300	0.200900	0.627800
O11851	O1185	0.097500	0.893500	0.033400
O11861	O1186	0.119500	0.928900	0.021500
O11871	O1187	0.058500	0.015900	0.090100
O11881	O1188	0.105720	0.838720	0.011370
O11891	O1189	0.126510	0.844590	0.974030
O11901	O1190	0.077890	0.715560	0.003220
O11911	O1191	0.069840	0.637980	0.039350
C8891	C889	0.102700	0.917000	0.035300
C8901	C890	0.087000	0.933600	0.053400
C8911	C891	0.087900	0.961300	0.055800
C8921	C892	0.114700	0.829900	0.989800
C8931	C893	0.110100	0.801400	0.981800
C8941	C894	0.098100	0.783800	0.000100
O11921	O1192	0.089700	0.049100	0.127800
O11931	O1193	0.097500	0.393500	0.533400
O11941	O1194	0.119500	0.428900	0.521500
O11951	O1195	0.058500	0.515900	0.590100
O11961	O1196	0.105720	0.338720	0.511370
O11971	O1197	0.126510	0.344590	0.474030
O11981	O1198	0.077890	0.215560	0.503220
O11991	O1199	0.069840	0.137980	0.539350
C8951	C895	0.102700	0.417000	0.535300
C8961	C896	0.087000	0.433600	0.553400
C8971	C897	0.087900	0.461300	0.555800
C8981	C898	0.114700	0.329900	0.489800
C8991	C899	0.110100	0.301400	0.481800
C9001	C900	0.098100	0.283800	0.500100
O12001	O1200	0.089700	0.549100	0.627800
O12011	O1201	0.597500	0.893500	0.533400
O12021	O1202	0.619500	0.928900	0.521500
O12031	O1203	0.558500	0.015900	0.590100
O12041	O1204	0.605720	0.838720	0.511370
O12051	O1205	0.626510	0.844590	0.474030
O12061	O1206	0.577890	0.715560	0.503220
O12071	O1207	0.569840	0.637980	0.539350
C9011	C901	0.602700	0.917000	0.535300
C9021	C902	0.587000	0.933600	0.553400
C9031	C903	0.587900	0.961300	0.555800
C9041	C904	0.614700	0.829900	0.489800
C9051	C905	0.610100	0.801400	0.481800
C9061	C906	0.598100	0.783800	0.500100
O12081	O1208	0.589700	0.049100	0.627800
O12091	O1209	0.597500	0.393500	0.033400
O12101	O1210	0.619500	0.428900	0.021500
O12111	O1211	0.558500	0.515900	0.090100
O12121	O1212	0.605720	0.338720	0.011370
O12131	O1213	0.626510	0.344590	0.974030
O12141	O1214	0.577890	0.215560	0.003220
O12151	O1215	0.569840	0.137980	0.039350
C9071	C907	0.602700	0.417000	0.035300
C9081	C908	0.587000	0.433600	0.053400
C9091	C909	0.587900	0.461300	0.055800
C9101	C910	0.614700	0.329900	0.989800
C9111	C911	0.610100	0.301400	0.981800
C9121	C912	0.598100	0.283800	0.000100
O12161	O1216	0.589700	0.549100	0.127800
O12171	O1217	0.652500	0.393500	0.216600
O12181	O1218	0.630500	0.428900	0.228500
O12191	O1219	0.691500	0.515900	0.159900
O12201	O1220	0.644280	0.338720	0.238630
O12211	O1221	0.623490	0.344590	0.275970
O12221	O1222	0.672110	0.215560	0.246780
O12231	O1223	0.680160	0.137980	0.210650
C9131	C913	0.647300	0.417000	0.214700
C9141	C914	0.663000	0.433600	0.196600
C9151	C915	0.662100	0.461300	0.194200
C9161	C916	0.635300	0.329900	0.260200
C9171	C917	0.639900	0.301400	0.268200
C9181	C918	0.651900	0.283800	0.249900
O12241	O1224	0.660300	0.549100	0.122200
O12251	O1225	0.652500	0.893500	0.716600
O12261	O1226	0.630500	0.928900	0.728500
O12271	O1227	0.691500	0.015900	0.659900
O12281	O1228	0.644280	0.838720	0.738630
O12291	O1229	0.623490	0.844590	0.775970
O12301	O1230	0.672110	0.715560	0.746780
O12311	O1231	0.680160	0.637980	0.710650
C9191	C919	0.647300	0.917000	0.714700
C9201	C920	0.663000	0.933600	0.696600
C9211	C921	0.662100	0.961300	0.694200
C9221	C922	0.635300	0.829900	0.760200
C9231	C923	0.639900	0.801400	0.768200
C9241	C924	0.651900	0.783800	0.749900
O12321	O1232	0.660300	0.049100	0.622200
O12331	O1233	0.152500	0.393500	0.716600
O12341	O1234	0.130500	0.428900	0.728500
O12351	O1235	0.191500	0.515900	0.659900
O12361	O1236	0.144280	0.338720	0.738630
O12371	O1237	0.123490	0.344590	0.775970
O12381	O1238	0.172110	0.215560	0.746780
O12391	O1239	0.180160	0.137980	0.710650
C9251	C925	0.147300	0.417000	0.714700
C9261	C926	0.163000	0.433600	0.696600
C9271	C927	0.162100	0.461300	0.694200
C9281	C928	0.135300	0.329900	0.760200
C9291	C929	0.139900	0.301400	0.768200
C9301	C930	0.151900	0.283800	0.749900
O12401	O1240	0.160300	0.549100	0.622200
O12411	O1241	0.152500	0.893500	0.216600
O12421	O1242	0.130500	0.928900	0.228500
O12431	O1243	0.191500	0.015900	0.159900
O12441	O1244	0.144280	0.838720	0.238630
O12451	O1245	0.123490	0.844590	0.275970
O12461	O1246	0.172110	0.715560	0.246780
O12471	O1247	0.180160	0.637980	0.210650
C9311	C931	0.147300	0.917000	0.214700
C9321	C932	0.163000	0.933600	0.196600
C9331	C933	0.162100	0.961300	0.194200
C9341	C934	0.135300	0.829900	0.260200
C9351	C935	0.139900	0.801400	0.268200
C9361	C936	0.151900	0.783800	0.249900
O12481	O1248	0.160300	0.049100	0.122200
O12491	O1249	0.597500	0.356500	0.716600
O12501	O1250	0.619500	0.321100	0.728500
O12511	O1251	0.558500	0.234100	0.659900
O12521	O1252	0.605720	0.411280	0.738630
O12531	O1253	0.626510	0.405410	0.775970
O12541	O1254	0.577890	0.534440	0.746780
O12551	O1255	0.569840	0.612020	0.710650
C9371	C937	0.602700	0.333000	0.714700
C9381	C938	0.587000	0.316400	0.696600
C9391	C939	0.587900	0.288700	0.694200
C9401	C940	0.614700	0.420100	0.760200
C9411	C941	0.610100	0.448600	0.768200
C9421	C942	0.598100	0.466200	0.749900
O12561	O1256	0.589700	0.200900	0.622200
O12571	O1257	0.597500	0.856500	0.216600
O12581	O1258	0.619500	0.821100	0.228500
O12591	O1259	0.558500	0.734100	0.159900
O12601	O1260	0.605720	0.911280	0.238630
O12611	O1261	0.626510	0.905410	0.275970
O12621	O1262	0.577890	0.034440	0.246780
O12631	O1263	0.569840	0.112020	0.210650
C9431	C943	0.602700	0.833000	0.214700
C9441	C944	0.587000	0.816400	0.196600
C9451	C945	0.587900	0.788700	0.194200
C9461	C946	0.614700	0.920100	0.260200
C9471	C947	0.610100	0.948600	0.268200
C9481	C948	0.598100	0.966200	0.249900
O12641	O1264	0.589700	0.700900	0.122200
O12651	O1265	0.097500	0.356500	0.216600
O12661	O1266	0.119500	0.321100	0.228500
O12671	O1267	0.058500	0.234100	0.159900
O12681	O1268	0.105720	0.411280	0.238630
O12691	O1269	0.126510	0.405410	0.275970
O12701	O1270	0.077890	0.534440	0.246780
O12711	O1271	0.069840	0.612020	0.210650
C9491	C949	0.102700	0.333000	0.214700
C9501	C950	0.087000	0.316400	0.196600
C9511	C951	0.087900	0.288700	0.194200
C9521	C952	0.114700	0.420100	0.260200
C9531	C953	0.110100	0.448600	0.268200
C9541	C954	0.098100	0.466200	0.249900
O12721	O1272	0.089700	0.200900	0.122200
O12731	O1273	0.097500	0.856500	0.716600
O12741	O1274	0.119500	0.821100	0.728500
O12751	O1275	0.058500	0.734100	0.659900
O12761	O1276	0.105720	0.911280	0.738630
O12771	O1277	0.126510	0.905410	0.775970
O12781	O1278	0.077890	0.034440	0.746780
O12791	O1279	0.069840	0.112020	0.710650
C9551	C955	0.102700	0.833000	0.714700
C9561	C956	0.087000	0.816400	0.696600
C9571	C957	0.087900	0.788700	0.694200
C9581	C958	0.114700	0.920100	0.760200
C9591	C959	0.110100	0.948600	0.768200
C9601	C960	0.098100	0.966200	0.749900
O12801	O1280	0.089700	0.700900	0.622200
O12811	O1281	0.356500	0.716600	0.597500
O12821	O1282	0.321100	0.728500	0.619500
O12831	O1283	0.234100	0.659900	0.558500
O12841	O1284	0.411280	0.738630	0.605720
O12851	O1285	0.405410	0.775970	0.626510
O12861	O1286	0.534440	0.746780	0.577890
O12871	O1287	0.612020	0.710650	0.569840
C9611	C961	0.333000	0.714700	0.602700
C9621	C962	0.316400	0.696600	0.587000
C9631	C963	0.288700	0.694200	0.587900
C9641	C964	0.420100	0.760200	0.614700
C9651	C965	0.448600	0.768200	0.610100
C9661	C966	0.466200	0.749900	0.598100
O12881	O1288	0.200900	0.622200	0.589700
O12891	O1289	0.356500	0.216600	0.097500
O12901	O1290	0.321100	0.228500	0.119500
O12911	O1291	0.234100	0.159900	0.058500
O12921	O1292	0.411280	0.238630	0.105720
O12931	O1293	0.405410	0.275970	0.126510
O12941	O1294	0.534440	0.246780	0.077890
O12951	O1295	0.612020	0.210650	0.069840
C9671	C967	0.333000	0.214700	0.102700
C9681	C968	0.316400	0.196600	0.087000
C9691	C969	0.288700	0.194200	0.087900
C9701	C970	0.420100	0.260200	0.114700
C9711	C971	0.448600	0.268200	0.110100
C9721	C972	0.466200	0.249900	0.098100
O12961	O1296	0.200900	0.122200	0.089700
O12971	O1297	0.856500	0.716600	0.097500
O12981	O1298	0.821100	0.728500	0.119500
O12991	O1299	0.734100	0.659900	0.058500
O13001	O1300	0.911280	0.738630	0.105720
O13011	O1301	0.905410	0.775970	0.126510
O13021	O1302	0.034440	0.746780	0.077890
O13031	O1303	0.112020	0.710650	0.069840
C9731	C973	0.833000	0.714700	0.102700
C9741	C974	0.816400	0.696600	0.087000
C9751	C975	0.788700	0.694200	0.087900
C9761	C976	0.920100	0.760200	0.114700
C9771	C977	0.948600	0.768200	0.110100
C9781	C978	0.966200	0.749900	0.098100
O13041	O1304	0.700900	0.622200	0.089700
O13051	O1305	0.856500	0.216600	0.597500
O13061	O1306	0.821100	0.228500	0.619500
O13071	O1307	0.734100	0.159900	0.558500
O13081	O1308	0.911280	0.238630	0.605720
O13091	O1309	0.905410	0.275970	0.626510
O13101	O1310	0.034440	0.246780	0.577890
O13111	O1311	0.112020	0.210650	0.569840
C9791	C979	0.833000	0.214700	0.602700
C9801	C980	0.816400	0.196600	0.587000
C9811	C981	0.788700	0.194200	0.587900
C9821	C982	0.920100	0.260200	0.614700
C9831	C983	0.948600	0.268200	0.610100
C9841	C984	0.966200	0.249900	0.598100
O13121	O1312	0.700900	0.122200	0.589700
O13131	O1313	0.393500	0.216600	0.652500
O13141	O1314	0.428900	0.228500	0.630500
O13151	O1315	0.515900	0.159900	0.691500
O13161	O1316	0.338720	0.238630	0.644280
O13171	O1317	0.344590	0.275970	0.623490
O13181	O1318	0.215560	0.246780	0.672110
O13191	O1319	0.137980	0.210650	0.680160
C9851	C985	0.417000	0.214700	0.647300
C9861	C986	0.433600	0.196600	0.663000
C9871	C987	0.461300	0.194200	0.662100
C9881	C988	0.329900	0.260200	0.635300
C9891	C989	0.301400	0.268200	0.639900
C9901	C990	0.283800	0.249900	0.651900
O13201	O1320	0.549100	0.122200	0.660300
O13211	O1321	0.393500	0.716600	0.152500
O13221	O1322	0.428900	0.728500	0.130500
O13231	O1323	0.515900	0.659900	0.191500
O13241	O1324	0.338720	0.738630	0.144280
O13251	O1325	0.344590	0.775970	0.123490
O13261	O1326	0.215560	0.746780	0.172110
O13271	O1327	0.137980	0.710650	0.180160
C9911	C991	0.417000	0.714700	0.147300
C9921	C992	0.433600	0.696600	0.163000
C9931	C993	0.461300	0.694200	0.162100
C9941	C994	0.329900	0.760200	0.135300
C9951	C995	0.301400	0.768200	0.139900
C9961	C996	0.283800	0.749900	0.151900
O13281	O1328	0.549100	0.622200	0.160300
O13291	O1329	0.893500	0.216600	0.152500
O13301	O1330	0.928900	0.228500	0.130500
O13311	O1331	0.015900	0.159900	0.191500
O13321	O1332	0.838720	0.238630	0.144280
O13331	O1333	0.844590	0.275970	0.123490
O13341	O1334	0.715560	0.246780	0.172110
O13351	O1335	0.637980	0.210650	0.180160
C9971	C997	0.917000	0.214700	0.147300
C9981	C998	0.933600	0.196600	0.163000
C9991	C999	0.961300	0.194200	0.162100
C10001	C1000	0.829900	0.260200	0.135300
C10011	C1001	0.801400	0.268200	0.139900
C10021	C1002	0.783800	0.249900	0.151900
O13361	O1336	0.049100	0.122200	0.160300
O13371	O1337	0.893500	0.716600	0.652500
O13381	O1338	0.928900	0.728500	0.630500
O13391	O1339	0.015900	0.659900	0.691500
O13401	O1340	0.838720	0.738630	0.644280
O13411	O1341	0.844590	0.775970	0.623490
O13421	O1342	0.715560	0.746780	0.672110
O13431	O1343	0.637980	0.710650	0.680160
C10031	C1003	0.917000	0.714700	0.647300
C10041	C1004	0.933600	0.696600	0.663000
C10051	C1005	0.961300	0.694200	0.662100
C10061	C1006	0.829900	0.760200	0.635300
C10071	C1007	0.801400	0.768200	0.639900
C10081	C1008	0.783800	0.749900	0.651900
O13441	O1344	0.049100	0.622200	0.660300
O13451	O1345	0.893500	0.033400	0.097500
O13461	O1346	0.928900	0.021500	0.119500
O13471	O1347	0.015900	0.090100	0.058500
O13481	O1348	0.838720	0.011370	0.105720
O13491	O1349	0.844590	0.974030	0.126510
O13501	O1350	0.715560	0.003220	0.077890
O13511	O1351	0.637980	0.039350	0.069840
C10091	C1009	0.917000	0.035300	0.102700
C10101	C1010	0.933600	0.053400	0.087000
C10111	C1011	0.961300	0.055800	0.087900
C10121	C1012	0.829900	0.989800	0.114700
C10131	C1013	0.801400	0.981800	0.110100
C10141	C1014	0.783800	0.000100	0.098100
O13521	O1352	0.049100	0.127800	0.089700
O13531	O1353	0.893500	0.533400	0.597500
O13541	O1354	0.928900	0.521500	0.619500
O13551	O1355	0.015900	0.590100	0.558500
O13561	O1356	0.838720	0.511370	0.605720
O13571	O1357	0.844590	0.474030	0.626510
O13581	O1358	0.715560	0.503220	0.577890
O13591	O1359	0.637980	0.539350	0.569840
C10151	C1015	0.917000	0.535300	0.602700
C10161	C1016	0.933600	0.553400	0.587000
C10171	C1017	0.961300	0.555800	0.587900
C10181	C1018	0.829900	0.489800	0.614700
C10191	C1019	0.801400	0.481800	0.610100
C10201	C1020	0.783800	0.500100	0.598100
O13601	O1360	0.049100	0.627800	0.589700
O13611	O1361	0.393500	0.033400	0.597500
O13621	O1362	0.428900	0.021500	0.619500
O13631	O1363	0.515900	0.090100	0.558500
O13641	O1364	0.338720	0.011370	0.605720
O13651	O1365	0.344590	0.974030	0.626510
O13661	O1366	0.215560	0.003220	0.577890
O13671	O1367	0.137980	0.039350	0.569840
C10211	C1021	0.417000	0.035300	0.602700
C10221	C1022	0.433600	0.053400	0.587000
C10231	C1023	0.461300	0.055800	0.587900
C10241	C1024	0.329900	0.989800	0.614700
C10251	C1025	0.301400	0.981800	0.610100
C10261	C1026	0.283800	0.000100	0.598100
O13681	O1368	0.549100	0.127800	0.589700
O13691	O1369	0.393500	0.533400	0.097500
O13701	O1370	0.428900	0.521500	0.119500
O13711	O1371	0.515900	0.590100	0.058500
O13721	O1372	0.338720	0.511370	0.105720
O13731	O1373	0.344590	0.474030	0.126510
O13741	O1374	0.215560	0.503220	0.077890
O13751	O1375	0.137980	0.539350	0.069840
C10271	C1027	0.417000	0.535300	0.102700
C10281	C1028	0.433600	0.553400	0.087000
C10291	C1029	0.461300	0.555800	0.087900
C10301	C1030	0.329900	0.489800	0.114700
C10311	C1031	0.301400	0.481800	0.110100
C10321	C1032	0.283800	0.500100	0.098100
O13761	O1376	0.549100	0.627800	0.089700
O13771	O1377	0.856500	0.533400	0.152500
O13781	O1378	0.821100	0.521500	0.130500
O13791	O1379	0.734100	0.590100	0.191500
O13801	O1380	0.911280	0.511370	0.144280
O13811	O1381	0.905410	0.474030	0.123490
O13821	O1382	0.034440	0.503220	0.172110
O13831	O1383	0.112020	0.539350	0.180160
C10331	C1033	0.833000	0.535300	0.147300
C10341	C1034	0.816400	0.553400	0.163000
C10351	C1035	0.788700	0.555800	0.162100
C10361	C1036	0.920100	0.489800	0.135300
C10371	C1037	0.948600	0.481800	0.139900
C10381	C1038	0.966200	0.500100	0.151900
O13841	O1384	0.700900	0.627800	0.160300
O13851	O1385	0.856500	0.033400	0.652500
O13861	O1386	0.821100	0.021500	0.630500
O13871	O1387	0.734100	0.090100	0.691500
O13881	O1388	0.911280	0.011370	0.644280
O13891	O1389	0.905410	0.974030	0.623490
O13901	O1390	0.034440	0.003220	0.672110
O13911	O1391	0.112020	0.039350	0.680160
C10391	C1039	0.833000	0.035300	0.647300
C10401	C1040	0.816400	0.053400	0.663000
C10411	C1041	0.788700	0.055800	0.662100
C10421	C1042	0.920100	0.989800	0.635300
C10431	C1043	0.948600	0.981800	0.639900
C10441	C1044	0.966200	0.000100	0.651900
O13921	O1392	0.700900	0.127800	0.660300
O13931	O1393	0.356500	0.533400	0.652500
O13941	O1394	0.321100	0.521500	0.630500
O13951	O1395	0.234100	0.590100	0.691500
O13961	O1396	0.411280	0.511370	0.644280
O13971	O1397	0.405410	0.474030	0.623490
O13981	O1398	0.534440	0.503220	0.672110
O13991	O1399	0.612020	0.539350	0.680160
C10451	C1045	0.333000	0.535300	0.647300
C10461	C1046	0.316400	0.553400	0.663000
C10471	C1047	0.288700	0.555800	0.662100
C10481	C1048	0.420100	0.489800	0.635300
C10491	C1049	0.448600	0.481800	0.639900
C10501	C1050	0.466200	0.500100	0.651900
O14001	O1400	0.200900	0.627800	0.660300
O14011	O1401	0.356500	0.033400	0.152500
O14021	O1402	0.321100	0.021500	0.130500
O14031	O1403	0.234100	0.090100	0.191500
O14041	O1404	0.411280	0.011370	0.144280
O14051	O1405	0.405410	0.974030	0.123490
O14061	O1406	0.534440	0.003220	0.172110
O14071	O1407	0.612020	0.039350	0.180160
C10511	C1051	0.333000	0.035300	0.147300
C10521	C1052	0.316400	0.053400	0.163000
C10531	C1053	0.288700	0.055800	0.162100
C10541	C1054	0.420100	0.989800	0.135300
C10551	C1055	0.448600	0.981800	0.139900
C10561	C1056	0.466200	0.000100	0.151900
O14081	O1408	0.200900	0.127800	0.160300
O14091	O1409	0.216600	0.652500	0.393500
O14101	O1410	0.228500	0.630500	0.428900
O14111	O1411	0.159900	0.691500	0.515900
O14121	O1412	0.238630	0.644280	0.338720
O14131	O1413	0.275970	0.623490	0.344590
O14141	O1414	0.246780	0.672110	0.215560
O14151	O1415	0.210650	0.680160	0.137980
C10571	C1057	0.214700	0.647300	0.417000
C10581	C1058	0.196600	0.663000	0.433600
C10591	C1059	0.194200	0.662100	0.461300
C10601	C1060	0.260200	0.635300	0.329900
C10611	C1061	0.268200	0.639900	0.301400
C10621	C1062	0.249900	0.651900	0.283800
O14161	O1416	0.122200	0.660300	0.549100
O14171	O1417	0.216600	0.152500	0.893500
O14181	O1418	0.228500	0.130500	0.928900
O14191	O1419	0.159900	0.191500	0.015900
O14201	O1420	0.238630	0.144280	0.838720
O14211	O1421	0.275970	0.123490	0.844590
O14221	O1422	0.246780	0.172110	0.715560
O14231	O1423	0.210650	0.180160	0.637980
C10631	C1063	0.214700	0.147300	0.917000
C10641	C1064	0.196600	0.163000	0.933600
C10651	C1065	0.194200	0.162100	0.961300
C10661	C1066	0.260200	0.135300	0.829900
C10671	C1067	0.268200	0.139900	0.801400
C10681	C1068	0.249900	0.151900	0.783800
O14241	O1424	0.122200	0.160300	0.049100
O14251	O1425	0.716600	0.652500	0.893500
O14261	O1426	0.728500	0.630500	0.928900
O14271	O1427	0.659900	0.691500	0.015900
O14281	O1428	0.738630	0.644280	0.838720
O14291	O1429	0.775970	0.623490	0.844590
O14301	O1430	0.746780	0.672110	0.715560
O14311	O1431	0.710650	0.680160	0.637980
C10691	C1069	0.714700	0.647300	0.917000
C10701	C1070	0.696600	0.663000	0.933600
C10711	C1071	0.694200	0.662100	0.961300
C10721	C1072	0.760200	0.635300	0.829900
C10731	C1073	0.768200	0.639900	0.801400
C10741	C1074	0.749900	0.651900	0.783800
O14321	O1432	0.622200	0.660300	0.049100
O14331	O1433	0.716600	0.152500	0.393500
O14341	O1434	0.728500	0.130500	0.428900
O14351	O1435	0.659900	0.191500	0.515900
O14361	O1436	0.738630	0.144280	0.338720
O14371	O1437	0.775970	0.123490	0.344590
O14381	O1438	0.746780	0.172110	0.215560
O14391	O1439	0.710650	0.180160	0.137980
C10751	C1075	0.714700	0.147300	0.417000
C10761	C1076	0.696600	0.163000	0.433600
C10771	C1077	0.694200	0.162100	0.461300
C10781	C1078	0.760200	0.135300	0.329900
C10791	C1079	0.768200	0.139900	0.301400
C10801	C1080	0.749900	0.151900	0.283800
O14401	O1440	0.622200	0.160300	0.549100
O14411	O1441	0.716600	0.597500	0.356500
O14421	O1442	0.728500	0.619500	0.321100
O14431	O1443	0.659900	0.558500	0.234100
O14441	O1444	0.738630	0.605720	0.411280
O14451	O1445	0.775970	0.626510	0.405410
O14461	O1446	0.746780	0.577890	0.534440
O14471	O1447	0.710650	0.569840	0.612020
C10811	C1081	0.714700	0.602700	0.333000
C10821	C1082	0.696600	0.587000	0.316400
C10831	C1083	0.694200	0.587900	0.288700
C10841	C1084	0.760200	0.614700	0.420100
C10851	C1085	0.768200	0.610100	0.448600
C10861	C1086	0.749900	0.598100	0.466200
O14481	O1448	0.622200	0.589700	0.200900
O14491	O1449	0.716600	0.097500	0.856500
O14501	O1450	0.728500	0.119500	0.821100
O14511	O1451	0.659900	0.058500	0.734100
O14521	O1452	0.738630	0.105720	0.911280
O14531	O1453	0.775970	0.126510	0.905410
O14541	O1454	0.746780	0.077890	0.034440
O14551	O1455	0.710650	0.069840	0.112020
C10871	C1087	0.714700	0.102700	0.833000
C10881	C1088	0.696600	0.087000	0.816400
C10891	C1089	0.694200	0.087900	0.788700
C10901	C1090	0.760200	0.114700	0.920100
C10911	C1091	0.768200	0.110100	0.948600
C10921	C1092	0.749900	0.098100	0.966200
O14561	O1456	0.622200	0.089700	0.700900
O14571	O1457	0.216600	0.597500	0.856500
O14581	O1458	0.228500	0.619500	0.821100
O14591	O1459	0.159900	0.558500	0.734100
O14601	O1460	0.238630	0.605720	0.911280
O14611	O1461	0.275970	0.626510	0.905410
O14621	O1462	0.246780	0.577890	0.034440
O14631	O1463	0.210650	0.569840	0.112020
C10931	C1093	0.214700	0.602700	0.833000
C10941	C1094	0.196600	0.587000	0.816400
C10951	C1095	0.194200	0.587900	0.788700
C10961	C1096	0.260200	0.614700	0.920100
C10971	C1097	0.268200	0.610100	0.948600
C10981	C1098	0.249900	0.598100	0.966200
O14641	O1464	0.122200	0.589700	0.700900
O14651	O1465	0.216600	0.097500	0.356500
O14661	O1466	0.228500	0.119500	0.321100
O14671	O1467	0.159900	0.058500	0.234100
O14681	O1468	0.238630	0.105720	0.411280
O14691	O1469	0.275970	0.126510	0.405410
O14701	O1470	0.246780	0.077890	0.534440
O14711	O1471	0.210650	0.069840	0.612020
C10991	C1099	0.214700	0.102700	0.333000
C11001	C1100	0.196600	0.087000	0.316400
C11011	C1101	0.194200	0.087900	0.288700
C11021	C1102	0.260200	0.114700	0.420100
C11031	C1103	0.268200	0.110100	0.448600
C11041	C1104	0.249900	0.098100	0.466200
O14721	O1472	0.122200	0.089700	0.200900
O14731	O1473	0.533400	0.152500	0.856500
O14741	O1474	0.521500	0.130500	0.821100
O14751	O1475	0.590100	0.191500	0.734100
O14761	O1476	0.511370	0.144280	0.911280
O14771	O1477	0.474030	0.123490	0.905410
O14781	O1478	0.503220	0.172110	0.034440
O14791	O1479	0.539350	0.180160	0.112020
C11051	C1105	0.535300	0.147300	0.833000
C11061	C1106	0.553400	0.163000	0.816400
C11071	C1107	0.555800	0.162100	0.788700
C11081	C1108	0.489800	0.135300	0.920100
C11091	C1109	0.481800	0.139900	0.948600
C11101	C1110	0.500100	0.151900	0.966200
O14801	O1480	0.627800	0.160300	0.700900
O14811	O1481	0.533400	0.652500	0.356500
O14821	O1482	0.521500	0.630500	0.321100
O14831	O1483	0.590100	0.691500	0.234100
O14841	O1484	0.511370	0.644280	0.411280
O14851	O1485	0.474030	0.623490	0.405410
O14861	O1486	0.503220	0.672110	0.534440
O14871	O1487	0.539350	0.680160	0.612020
C11111	C1111	0.535300	0.647300	0.333000
C11121	C1112	0.553400	0.663000	0.316400
C11131	C1113	0.555800	0.662100	0.288700
C11141	C1114	0.489800	0.635300	0.420100
C11151	C1115	0.481800	0.639900	0.448600
C11161	C1116	0.500100	0.651900	0.466200
O14881	O1488	0.627800	0.660300	0.200900
O14891	O1489	0.033400	0.152500	0.356500
O14901	O1490	0.021500	0.130500	0.321100
O14911	O1491	0.090100	0.191500	0.234100
O14921	O1492	0.011370	0.144280	0.411280
O14931	O1493	0.974030	0.123490	0.405410
O14941	O1494	0.003220	0.172110	0.534440
O14951	O1495	0.039350	0.180160	0.612020
C11171	C1117	0.035300	0.147300	0.333000
C11181	C1118	0.053400	0.163000	0.316400
C11191	C1119	0.055800	0.162100	0.288700
C11201	C1120	0.989800	0.135300	0.420100
C11211	C1121	0.981800	0.139900	0.448600
C11221	C1122	0.000100	0.151900	0.466200
O14961	O1496	0.127800	0.160300	0.200900
O14971	O1497	0.033400	0.652500	0.856500
O14981	O1498	0.021500	0.630500	0.821100
O14991	O1499	0.090100	0.691500	0.734100
O15001	O1500	0.011370	0.644280	0.911280
O15011	O1501	0.974030	0.623490	0.905410
O15021	O1502	0.003220	0.672110	0.034440
O15031	O1503	0.039350	0.680160	0.112020
C11231	C1123	0.035300	0.647300	0.833000
C11241	C1124	0.053400	0.663000	0.816400
C11251	C1125	0.055800	0.662100	0.788700
C11261	C1126	0.989800	0.635300	0.920100
C11271	C1127	0.981800	0.639900	0.948600
C11281	C1128	0.000100	0.651900	0.966200
O15041	O1504	0.127800	0.660300	0.700900
O15051	O1505	0.033400	0.097500	0.893500
O15061	O1506	0.021500	0.119500	0.928900
O15071	O1507	0.090100	0.058500	0.015900
O15081	O1508	0.011370	0.105720	0.838720
O15091	O1509	0.974030	0.126510	0.844590
O15101	O1510	0.003220	0.077890	0.715560
O15111	O1511	0.039350	0.069840	0.637980
C11291	C1129	0.035300	0.102700	0.917000
C11301	C1130	0.053400	0.087000	0.933600
C11311	C1131	0.055800	0.087900	0.961300
C11321	C1132	0.989800	0.114700	0.829900
C11331	C1133	0.981800	0.110100	0.801400
C11341	C1134	0.000100	0.098100	0.783800
O15121	O1512	0.127800	0.089700	0.049100
O15131	O1513	0.033400	0.597500	0.393500
O15141	O1514	0.021500	0.619500	0.428900
O15151	O1515	0.090100	0.558500	0.515900
O15161	O1516	0.011370	0.605720	0.338720
O15171	O1517	0.974030	0.626510	0.344590
O15181	O1518	0.003220	0.577890	0.215560
O15191	O1519	0.039350	0.569840	0.137980
C11351	C1135	0.035300	0.602700	0.417000
C11361	C1136	0.053400	0.587000	0.433600
C11371	C1137	0.055800	0.587900	0.461300
C11381	C1138	0.989800	0.614700	0.329900
C11391	C1139	0.981800	0.610100	0.301400
C11401	C1140	0.000100	0.598100	0.283800
O15201	O1520	0.127800	0.589700	0.549100
O15211	O1521	0.533400	0.097500	0.393500
O15221	O1522	0.521500	0.119500	0.428900
O15231	O1523	0.590100	0.058500	0.515900
O15241	O1524	0.511370	0.105720	0.338720
O15251	O1525	0.474030	0.126510	0.344590
O15261	O1526	0.503220	0.077890	0.215560
O15271	O1527	0.539350	0.069840	0.137980
C11411	C1141	0.535300	0.102700	0.417000
C11421	C1142	0.553400	0.087000	0.433600
C11431	C1143	0.555800	0.087900	0.461300
C11441	C1144	0.489800	0.114700	0.329900
C11451	C1145	0.481800	0.110100	0.301400
C11461	C1146	0.500100	0.098100	0.283800
O15281	O1528	0.627800	0.089700	0.549100
O15291	O1529	0.533400	0.597500	0.893500
O15301	O1530	0.521500	0.619500	0.928900
O15311	O1531	0.590100	0.558500	0.015900
O15321	O1532	0.511370	0.605720	0.838720
O15331	O1533	0.474030	0.626510	0.844590
O15341	O1534	0.503220	0.577890	0.715560
O15351	O1535	0.539350	0.569840	0.637980
C11471	C1147	0.535300	0.602700	0.917000
C11481	C1148	0.553400	0.587000	0.933600
C11491	C1149	0.555800	0.587900	0.961300
C11501	C1150	0.489800	0.614700	0.829900
C11511	C1151	0.481800	0.610100	0.801400
C11521	C1152	0.500100	0.598100	0.783800
O15361	O1536	0.627800	0.589700	0.049100
In11	In1	0.879720	0.120280	0.000000
In21	In2	0.879720	0.620280	0.500000
In31	In3	0.379720	0.120280	0.500000
In41	In4	0.379720	0.620280	0.000000
In51	In5	0.870280	0.129720	0.500000
In61	In6	0.870280	0.629720	0.000000
In71	In7	0.370280	0.129720	0.000000
In81	In8	0.370280	0.629720	0.500000
In91	In9	0.370280	0.620280	0.750000
In101	In10	0.370280	0.120280	0.250000
In111	In11	0.870280	0.620280	0.250000
In121	In12	0.870280	0.120280	0.750000
In131	In13	0.379720	0.629720	0.250000
In141	In14	0.379720	0.129720	0.750000
In151	In15	0.879720	0.629720	0.750000
In161	In16	0.879720	0.129720	0.250000
In171	In17	0.000000	0.879720	0.120280
In181	In18	0.000000	0.379720	0.620280
In191	In19	0.500000	0.879720	0.620280
In201	In20	0.500000	0.379720	0.120280
In211	In21	0.500000	0.870280	0.129720
In221	In22	0.500000	0.370280	0.629720
In231	In23	0.000000	0.870280	0.629720
In241	In24	0.000000	0.370280	0.129720
In251	In25	0.750000	0.370280	0.620280
In261	In26	0.750000	0.870280	0.120280
In271	In27	0.250000	0.370280	0.120280
In281	In28	0.250000	0.870280	0.620280
In291	In29	0.250000	0.379720	0.629720
In301	In30	0.250000	0.879720	0.129720
In311	In31	0.750000	0.379720	0.129720
In321	In32	0.750000	0.879720	0.629720
In331	In33	0.120280	0.000000	0.879720
In341	In34	0.120280	0.500000	0.379720
In351	In35	0.620280	0.000000	0.379720
In361	In36	0.620280	0.500000	0.879720
In371	In37	0.129720	0.500000	0.870280
In381	In38	0.129720	0.000000	0.370280
In391	In39	0.629720	0.500000	0.370280
In401	In40	0.629720	0.000000	0.870280
In411	In41	0.620280	0.750000	0.370280
In421	In42	0.620280	0.250000	0.870280
In431	In43	0.120280	0.750000	0.870280
In441	In44	0.120280	0.250000	0.370280
In451	In45	0.629720	0.250000	0.379720
In461	In46	0.629720	0.750000	0.879720
In471	In47	0.129720	0.250000	0.879720
In481	In48	0.129720	0.750000	0.379720
In491	In49	0.120280	0.879720	0.000000
In501	In50	0.120280	0.379720	0.500000
In511	In51	0.620280	0.879720	0.500000
In521	In52	0.620280	0.379720	0.000000
In531	In53	0.129720	0.870280	0.500000
In541	In54	0.129720	0.370280	0.000000
In551	In55	0.629720	0.870280	0.000000
In561	In56	0.629720	0.370280	0.500000
In571	In57	0.629720	0.379720	0.250000
In581	In58	0.629720	0.879720	0.750000
In591	In59	0.129720	0.379720	0.750000
In601	In60	0.129720	0.879720	0.250000
In611	In61	0.620280	0.370280	0.750000
In621	In62	0.620280	0.870280	0.250000
In631	In63	0.120280	0.370280	0.250000
In641	In64	0.120280	0.870280	0.750000
In651	In65	0.000000	0.120280	0.879720
In661	In66	0.000000	0.620280	0.379720
In671	In67	0.500000	0.120280	0.379720
In681	In68	0.500000	0.620280	0.879720
In691	In69	0.500000	0.129720	0.870280
In701	In70	0.500000	0.629720	0.370280
In711	In71	0.000000	0.129720	0.370280
In721	In72	0.000000	0.629720	0.870280
In731	In73	0.250000	0.629720	0.379720
In741	In74	0.250000	0.129720	0.879720
In751	In75	0.750000	0.629720	0.879720
In761	In76	0.750000	0.129720	0.379720
In771	In77	0.750000	0.620280	0.370280
In781	In78	0.750000	0.120280	0.870280
In791	In79	0.250000	0.620280	0.870280
In801	In80	0.250000	0.120280	0.370280
In811	In81	0.879720	0.000000	0.120280
In821	In82	0.879720	0.500000	0.620280
In831	In83	0.379720	0.000000	0.620280
In841	In84	0.379720	0.500000	0.120280
In851	In85	0.870280	0.500000	0.129720
In861	In86	0.870280	0.000000	0.629720
In871	In87	0.370280	0.500000	0.629720
In881	In88	0.370280	0.000000	0.129720
In891	In89	0.379720	0.250000	0.629720
In901	In90	0.379720	0.750000	0.129720
In911	In91	0.879720	0.250000	0.129720
In921	In92	0.879720	0.750000	0.629720
In931	In93	0.370280	0.750000	0.620280
In941	In94	0.370280	0.250000	0.120280
In951	In95	0.870280	0.750000	0.120280
In961	In96	0.870280	0.250000	0.620280
Cd11	Cd1	0.677900	0.072100	0.022350
O15371	O1537	0.660420	0.089580	0.983900
Cd21	Cd2	0.677900	0.572100	0.522350
O15381	O1538	0.660420	0.589580	0.483900
Cd31	Cd3	0.072100	0.177900	0.522350
O15391	O1539	0.089580	0.160420	0.483900
Cd41	Cd4	0.572100	0.177900	0.022350
O15401	O1540	0.589580	0.160420	0.983900
Cd51	Cd5	0.572100	0.677900	0.522350
O15411	O1541	0.589580	0.660420	0.483900
Cd61	Cd6	0.572100	0.572100	0.727650
O15421	O1542	0.589580	0.589580	0.766100
Cd71	Cd7	0.572100	0.072100	0.227650
O15431	O1543	0.589580	0.089580	0.266100
Cd81	Cd8	0.072100	0.572100	0.227650
O15441	O1544	0.089580	0.589580	0.266100
Cd91	Cd9	0.072100	0.072100	0.727650
O15451	O1545	0.089580	0.089580	0.766100
Cd101	Cd10	0.177900	0.677900	0.227650
O15461	O1546	0.160420	0.660420	0.266100
Cd111	Cd11	0.177900	0.177900	0.727650
O15471	O1547	0.160420	0.160420	0.766100
Cd121	Cd12	0.022350	0.677900	0.072100
O15481	O1548	0.983900	0.660420	0.089580
Cd131	Cd13	0.022350	0.177900	0.572100
O15491	O1549	0.983900	0.160420	0.589580
Cd141	Cd14	0.522350	0.677900	0.572100
O15501	O1550	0.483900	0.660420	0.589580
Cd151	Cd15	0.522350	0.072100	0.177900
O15511	O1551	0.483900	0.089580	0.160420
Cd161	Cd16	0.522350	0.572100	0.677900
O15521	O1552	0.483900	0.589580	0.660420
Cd171	Cd17	0.727650	0.572100	0.572100
O15531	O1553	0.766100	0.589580	0.589580
Cd181	Cd18	0.727650	0.072100	0.072100
O15541	O1554	0.766100	0.089580	0.089580
Cd191	Cd19	0.227650	0.572100	0.072100
O15551	O1555	0.266100	0.589580	0.089580
Cd201	Cd20	0.227650	0.072100	0.572100
O15561	O1556	0.266100	0.089580	0.589580
Cd211	Cd21	0.227650	0.177900	0.677900
O15571	O1557	0.266100	0.160420	0.660420
Cd221	Cd22	0.727650	0.177900	0.177900
O15581	O1558	0.766100	0.160420	0.160420
Cd231	Cd23	0.072100	0.022350	0.677900
O15591	O1559	0.089580	0.983900	0.660420
Cd241	Cd24	0.572100	0.022350	0.177900
O15601	O1560	0.589580	0.983900	0.160420
Cd251	Cd25	0.572100	0.522350	0.677900
O15611	O1561	0.589580	0.483900	0.660420
Cd261	Cd26	0.177900	0.522350	0.072100
O15621	O1562	0.160420	0.483900	0.089580
Cd271	Cd27	0.177900	0.022350	0.572100
O15631	O1563	0.160420	0.983900	0.589580
Cd281	Cd28	0.677900	0.522350	0.572100
O15641	O1564	0.660420	0.483900	0.589580
Cd291	Cd29	0.572100	0.727650	0.572100
O15651	O1565	0.589580	0.766100	0.589580
Cd301	Cd30	0.572100	0.227650	0.072100
O15661	O1566	0.589580	0.266100	0.089580
Cd311	Cd31	0.072100	0.727650	0.072100
O15671	O1567	0.089580	0.766100	0.089580
Cd321	Cd32	0.072100	0.227650	0.572100
O15681	O1568	0.089580	0.266100	0.589580
Cd331	Cd33	0.677900	0.227650	0.177900
O15691	O1569	0.660420	0.266100	0.160420
Cd341	Cd34	0.677900	0.727650	0.677900
O15701	O1570	0.660420	0.766100	0.660420
Cd351	Cd35	0.177900	0.727650	0.177900
O15711	O1571	0.160420	0.766100	0.160420
Cd361	Cd36	0.822100	0.927900	0.477650
O15721	O1572	0.839580	0.910420	0.516100
Cd371	Cd37	0.822100	0.427900	0.977650
O15731	O1573	0.839580	0.410420	0.016100
Cd381	Cd38	0.927900	0.322100	0.977650
O15741	O1574	0.910420	0.339580	0.016100
Cd391	Cd39	0.427900	0.322100	0.477650
O15751	O1575	0.410420	0.339580	0.516100
Cd401	Cd40	0.322100	0.822100	0.772350
O15761	O1576	0.339580	0.839580	0.733900
Cd411	Cd41	0.322100	0.322100	0.272350
O15771	O1577	0.339580	0.339580	0.233900
Cd421	Cd42	0.427900	0.427900	0.272350
O15781	O1578	0.410420	0.410420	0.233900
Cd431	Cd43	0.427900	0.927900	0.772350
O15791	O1579	0.410420	0.910420	0.733900
Cd441	Cd44	0.927900	0.427900	0.772350
O15801	O1580	0.910420	0.410420	0.733900
Cd451	Cd45	0.927900	0.927900	0.272350
O15811	O1581	0.910420	0.910420	0.233900
Cd461	Cd46	0.427900	0.272350	0.427900
O15821	O1582	0.410420	0.233900	0.410420
Cd471	Cd47	0.427900	0.772350	0.927900
O15831	O1583	0.410420	0.733900	0.910420
Cd481	Cd48	0.927900	0.272350	0.927900
O15841	O1584	0.910420	0.233900	0.910420
Cd491	Cd49	0.927900	0.772350	0.427900
O15851	O1585	0.910420	0.733900	0.410420
Cd501	Cd50	0.822100	0.772350	0.322100
O15861	O1586	0.839580	0.733900	0.339580
Cd511	Cd51	0.822100	0.272350	0.822100
O15871	O1587	0.839580	0.233900	0.839580
Cd521	Cd52	0.322100	0.272350	0.322100
O15881	O1588	0.339580	0.233900	0.339580
Cd531	Cd53	0.322100	0.977650	0.927900
O15891	O1589	0.339580	0.016100	0.910420
Cd541	Cd54	0.322100	0.477650	0.427900
O15901	O1590	0.339580	0.516100	0.410420
Cd551	Cd55	0.927900	0.477650	0.822100
O15911	O1591	0.910420	0.516100	0.839580
Cd561	Cd56	0.427900	0.477650	0.322100
O15921	O1592	0.410420	0.516100	0.339580
Cd571	Cd57	0.772350	0.322100	0.822100
O15931	O1593	0.733900	0.339580	0.839580
Cd581	Cd58	0.272350	0.322100	0.322100
O15941	O1594	0.233900	0.339580	0.339580
Cd591	Cd59	0.272350	0.427900	0.427900
O15951	O1595	0.233900	0.410420	0.410420
Cd601	Cd60	0.272350	0.927900	0.927900
O15961	O1596	0.233900	0.910420	0.910420
Cd611	Cd61	0.772350	0.427900	0.927900
O15971	O1597	0.733900	0.410420	0.910420
Cd621	Cd62	0.772350	0.927900	0.427900
O15981	O1598	0.733900	0.910420	0.410420
Cd631	Cd63	0.477650	0.822100	0.927900
O15991	O1599	0.516100	0.839580	0.910420
Cd641	Cd64	0.477650	0.322100	0.427900
O16001	O1600	0.516100	0.339580	0.410420
Cd651	Cd65	0.977650	0.927900	0.322100
O16011	O1601	0.016100	0.910420	0.339580
Cd661	Cd66	0.977650	0.427900	0.822100
O16021	O1602	0.016100	0.410420	0.839580
Cd671	Cd67	0.322100	0.927900	0.977650
O16031	O1603	0.339580	0.910420	0.016100
Cd681	Cd68	0.322100	0.427900	0.477650
O16041	O1604	0.339580	0.410420	0.516100
Cd691	Cd69	0.927900	0.822100	0.477650
O16051	O1605	0.910420	0.839580	0.516100
Cd701	Cd70	0.427900	0.822100	0.977650
O16061	O1606	0.410420	0.839580	0.016100
Cd711	Cd71	0.822100	0.322100	0.772350
O16071	O1607	0.839580	0.339580	0.733900
Cd721	Cd72	0.822100	0.822100	0.272350
O16081	O1608	0.839580	0.839580	0.233900
Cd731	Cd73	0.977650	0.322100	0.927900
O16091	O1609	0.016100	0.339580	0.910420
Cd741	Cd74	0.977650	0.822100	0.427900
O16101	O1610	0.016100	0.839580	0.410420
Cd751	Cd75	0.477650	0.927900	0.822100
O16111	O1611	0.516100	0.910420	0.839580
Cd761	Cd76	0.477650	0.427900	0.322100
O16121	O1612	0.516100	0.410420	0.339580
Cd771	Cd77	0.772350	0.822100	0.322100
O16131	O1613	0.733900	0.839580	0.339580
Cd781	Cd78	0.272350	0.822100	0.822100
O16141	O1614	0.233900	0.839580	0.839580
Cd791	Cd79	0.927900	0.977650	0.322100
O16151	O1615	0.910420	0.016100	0.339580
Cd801	Cd80	0.427900	0.977650	0.822100
O16161	O1616	0.410420	0.016100	0.839580
Cd811	Cd81	0.822100	0.477650	0.927900
O16171	O1617	0.839580	0.516100	0.910420
Cd821	Cd82	0.822100	0.977650	0.427900
O16181	O1618	0.839580	0.016100	0.410420
Cd831	Cd83	0.322100	0.772350	0.822100
O16191	O1619	0.339580	0.733900	0.839580
Cd841	Cd84	0.177900	0.072100	0.522350
O16201	O1620	0.160420	0.089580	0.483900
Cd851	Cd85	0.177900	0.572100	0.022350
O16211	O1621	0.160420	0.589580	0.983900
Cd861	Cd86	0.072100	0.677900	0.022350
O16221	O1622	0.089580	0.660420	0.983900
Cd871	Cd87	0.677900	0.177900	0.227650
O16231	O1623	0.660420	0.160420	0.266100
Cd881	Cd88	0.677900	0.677900	0.727650
O16241	O1624	0.660420	0.660420	0.766100
Cd891	Cd89	0.177900	0.227650	0.677900
O16251	O1625	0.160420	0.266100	0.660420
Cd901	Cd90	0.677900	0.022350	0.072100
O16261	O1626	0.660420	0.983900	0.089580
Cd911	Cd91	0.072100	0.522350	0.177900
O16271	O1627	0.089580	0.483900	0.160420
Cd921	Cd92	0.227650	0.677900	0.177900
O16281	O1628	0.266100	0.660420	0.160420
Cd931	Cd93	0.727650	0.677900	0.677900
O16291	O1629	0.766100	0.660420	0.660420
Cd941	Cd94	0.522350	0.177900	0.072100
O16301	O1630	0.483900	0.160420	0.089580
Cd951	Cd95	0.022350	0.072100	0.677900
O16311	O1631	0.983900	0.089580	0.660420
Cd961	Cd96	0.022350	0.572100	0.177900
O16321	O1632	0.983900	0.589580	0.160420
Cd971	Cd97	0.055760	0.055760	0.106670
O16331	O1633	0.042200	0.042200	0.142900
Cd981	Cd98	0.055760	0.555760	0.606670
O16341	O1634	0.042200	0.542200	0.642900
Cd991	Cd99	0.555760	0.055760	0.606670
O16351	O1635	0.542200	0.042200	0.642900
Cd1001	Cd100	0.555760	0.555760	0.106670
O16361	O1636	0.542200	0.542200	0.142900
Cd1011	Cd101	0.694240	0.194240	0.606670
O16371	O1637	0.707800	0.207800	0.642900
Cd1021	Cd102	0.694240	0.694240	0.106670
O16381	O1638	0.707800	0.707800	0.142900
Cd1031	Cd103	0.194240	0.555760	0.643330
O16391	O1639	0.207800	0.542200	0.607100
Cd1041	Cd104	0.194240	0.055760	0.143330
O16401	O1640	0.207800	0.042200	0.107100
Cd1051	Cd105	0.555760	0.694240	0.143330
O16411	O1641	0.542200	0.707800	0.107100
Cd1061	Cd106	0.055760	0.694240	0.643330
O16421	O1642	0.042200	0.707800	0.607100
Cd1071	Cd107	0.106670	0.055760	0.055760
O16431	O1643	0.142900	0.042200	0.042200
Cd1081	Cd108	0.106670	0.555760	0.555760
O16441	O1644	0.142900	0.542200	0.542200
Cd1091	Cd109	0.606670	0.055760	0.555760
O16451	O1645	0.642900	0.042200	0.542200
Cd1101	Cd110	0.606670	0.555760	0.055760
O16461	O1646	0.642900	0.542200	0.042200
Cd1111	Cd111	0.606670	0.694240	0.194240
O16471	O1647	0.642900	0.707800	0.207800
Cd1121	Cd112	0.106670	0.694240	0.694240
O16481	O1648	0.142900	0.707800	0.707800
Cd1131	Cd113	0.643330	0.194240	0.555760
O16491	O1649	0.607100	0.207800	0.542200
Cd1141	Cd114	0.643330	0.694240	0.055760
O16501	O1650	0.607100	0.707800	0.042200
Cd1151	Cd115	0.143330	0.555760	0.694240
O16511	O1651	0.107100	0.542200	0.707800
Cd1161	Cd116	0.143330	0.055760	0.194240
O16521	O1652	0.107100	0.042200	0.207800
Cd1171	Cd117	0.055760	0.106670	0.055760
O16531	O1653	0.042200	0.142900	0.042200
Cd1181	Cd118	0.055760	0.606670	0.555760
O16541	O1654	0.042200	0.642900	0.542200
Cd1191	Cd119	0.555760	0.106670	0.555760
O16551	O1655	0.542200	0.142900	0.542200
Cd1201	Cd120	0.555760	0.606670	0.055760
O16561	O1656	0.542200	0.642900	0.042200
Cd1211	Cd121	0.194240	0.606670	0.694240
O16571	O1657	0.207800	0.642900	0.707800
Cd1221	Cd122	0.194240	0.106670	0.194240
O16581	O1658	0.207800	0.142900	0.207800
Cd1231	Cd123	0.555760	0.643330	0.194240
O16591	O1659	0.542200	0.607100	0.207800
Cd1241	Cd124	0.055760	0.643330	0.694240
O16601	O1660	0.042200	0.607100	0.707800
Cd1251	Cd125	0.694240	0.143330	0.555760
O16611	O1661	0.707800	0.107100	0.542200
Cd1261	Cd126	0.694240	0.643330	0.055760
O16621	O1662	0.707800	0.607100	0.042200
Cd1271	Cd127	0.805760	0.305760	0.393330
O16631	O1663	0.792200	0.292200	0.357100
Cd1281	Cd128	0.805760	0.805760	0.893330
O16641	O1664	0.792200	0.792200	0.857100
Cd1291	Cd129	0.944240	0.944240	0.893330
O16651	O1665	0.957800	0.957800	0.857100
Cd1301	Cd130	0.944240	0.444240	0.393330
O16661	O1666	0.957800	0.457800	0.357100
Cd1311	Cd131	0.444240	0.944240	0.393330
O16671	O1667	0.457800	0.957800	0.357100
Cd1321	Cd132	0.444240	0.444240	0.893330
O16681	O1668	0.457800	0.457800	0.857100
Cd1331	Cd133	0.305760	0.444240	0.856670
O16691	O1669	0.292200	0.457800	0.892900
Cd1341	Cd134	0.305760	0.944240	0.356670
O16701	O1670	0.292200	0.957800	0.392900
Cd1351	Cd135	0.444240	0.805760	0.356670
O16711	O1671	0.457800	0.792200	0.392900
Cd1361	Cd136	0.944240	0.805760	0.856670
O16721	O1672	0.957800	0.792200	0.892900
Cd1371	Cd137	0.805760	0.356670	0.444240
O16731	O1673	0.792200	0.392900	0.457800
Cd1381	Cd138	0.805760	0.856670	0.944240
O16741	O1674	0.792200	0.892900	0.957800
Cd1391	Cd139	0.444240	0.856670	0.305760
O16751	O1675	0.457800	0.892900	0.292200
Cd1401	Cd140	0.944240	0.856670	0.805760
O16761	O1676	0.957800	0.892900	0.792200
Cd1411	Cd141	0.944240	0.893330	0.944240
O16771	O1677	0.957800	0.857100	0.957800
Cd1421	Cd142	0.944240	0.393330	0.444240
O16781	O1678	0.957800	0.357100	0.457800
Cd1431	Cd143	0.444240	0.893330	0.444240
O16791	O1679	0.457800	0.857100	0.457800
Cd1441	Cd144	0.444240	0.393330	0.944240
O16801	O1680	0.457800	0.357100	0.957800
Cd1451	Cd145	0.305760	0.393330	0.805760
O16811	O1681	0.292200	0.357100	0.792200
Cd1461	Cd146	0.305760	0.893330	0.305760
O16821	O1682	0.292200	0.857100	0.292200
Cd1471	Cd147	0.856670	0.305760	0.444240
O16831	O1683	0.892900	0.292200	0.457800
Cd1481	Cd148	0.856670	0.805760	0.944240
O16841	O1684	0.892900	0.792200	0.957800
Cd1491	Cd149	0.356670	0.444240	0.805760
O16851	O1685	0.392900	0.457800	0.792200
Cd1501	Cd150	0.356670	0.944240	0.305760
O16861	O1686	0.392900	0.957800	0.292200
Cd1511	Cd151	0.393330	0.805760	0.305760
O16871	O1687	0.357100	0.792200	0.292200
Cd1521	Cd152	0.893330	0.805760	0.805760
O16881	O1688	0.857100	0.792200	0.792200
Cd1531	Cd153	0.893330	0.944240	0.944240
O16891	O1689	0.857100	0.957800	0.957800
Cd1541	Cd154	0.893330	0.444240	0.444240
O16901	O1690	0.857100	0.457800	0.457800
Cd1551	Cd155	0.393330	0.944240	0.444240
O16911	O1691	0.357100	0.957800	0.457800
Cd1561	Cd156	0.393330	0.444240	0.944240
O16921	O1692	0.357100	0.457800	0.957800
Cd1571	Cd157	0.305760	0.805760	0.393330
O16931	O1693	0.292200	0.792200	0.357100
Cd1581	Cd158	0.305760	0.305760	0.893330
O16941	O1694	0.292200	0.292200	0.857100
Cd1591	Cd159	0.805760	0.444240	0.356670
O16951	O1695	0.792200	0.457800	0.392900
Cd1601	Cd160	0.805760	0.944240	0.856670
O16961	O1696	0.792200	0.957800	0.892900
Cd1611	Cd161	0.444240	0.305760	0.856670
O16971	O1697	0.457800	0.292200	0.892900
Cd1621	Cd162	0.944240	0.305760	0.356670
O16981	O1698	0.957800	0.292200	0.392900
Cd1631	Cd163	0.393330	0.305760	0.805760
O16991	O1699	0.357100	0.292200	0.792200
Cd1641	Cd164	0.893330	0.305760	0.305760
O17001	O1700	0.857100	0.292200	0.292200
Cd1651	Cd165	0.356670	0.805760	0.444240
O17011	O1701	0.392900	0.792200	0.457800
Cd1661	Cd166	0.356670	0.305760	0.944240
O17021	O1702	0.392900	0.292200	0.957800
Cd1671	Cd167	0.856670	0.444240	0.305760
O17031	O1703	0.892900	0.457800	0.292200
Cd1681	Cd168	0.856670	0.944240	0.805760
O17041	O1704	0.892900	0.957800	0.792200
Cd1691	Cd169	0.805760	0.393330	0.305760
O17051	O1705	0.792200	0.357100	0.292200
Cd1701	Cd170	0.805760	0.893330	0.805760
O17061	O1706	0.792200	0.857100	0.792200
Cd1711	Cd171	0.444240	0.356670	0.805760
O17071	O1707	0.457800	0.392900	0.792200
Cd1721	Cd172	0.944240	0.356670	0.305760
O17081	O1708	0.957800	0.392900	0.292200
Cd1731	Cd173	0.305760	0.856670	0.444240
O17091	O1709	0.292200	0.892900	0.457800
Cd1741	Cd174	0.305760	0.356670	0.944240
O17101	O1710	0.292200	0.392900	0.957800
Cd1751	Cd175	0.194240	0.694240	0.606670
O17111	O1711	0.207800	0.707800	0.642900
Cd1761	Cd176	0.194240	0.194240	0.106670
O17121	O1712	0.207800	0.207800	0.142900
Cd1771	Cd177	0.694240	0.555760	0.143330
O17131	O1713	0.707800	0.542200	0.107100
Cd1781	Cd178	0.694240	0.055760	0.643330
O17141	O1714	0.707800	0.042200	0.607100
Cd1791	Cd179	0.555760	0.194240	0.643330
O17151	O1715	0.542200	0.207800	0.607100
Cd1801	Cd180	0.055760	0.194240	0.143330
O17161	O1716	0.042200	0.207800	0.107100
Cd1811	Cd181	0.194240	0.643330	0.555760
O17171	O1717	0.207800	0.607100	0.542200
Cd1821	Cd182	0.194240	0.143330	0.055760
O17181	O1718	0.207800	0.107100	0.042200
Cd1831	Cd183	0.555760	0.143330	0.694240
O17191	O1719	0.542200	0.107100	0.707800
Cd1841	Cd184	0.055760	0.143330	0.194240
O17201	O1720	0.042200	0.107100	0.207800
Cd1851	Cd185	0.694240	0.606670	0.194240
O17211	O1721	0.707800	0.642900	0.207800
Cd1861	Cd186	0.694240	0.106670	0.694240
O17221	O1722	0.707800	0.142900	0.707800
Cd1871	Cd187	0.143330	0.694240	0.555760
O17231	O1723	0.107100	0.707800	0.542200
Cd1881	Cd188	0.143330	0.194240	0.055760
O17241	O1724	0.107100	0.207800	0.042200
Cd1891	Cd189	0.643330	0.555760	0.194240
O17251	O1725	0.607100	0.542200	0.207800
Cd1901	Cd190	0.643330	0.055760	0.694240
O17261	O1726	0.607100	0.042200	0.707800
Cd1911	Cd191	0.606670	0.194240	0.694240
O17271	O1727	0.642900	0.207800	0.707800
Cd1921	Cd192	0.106670	0.194240	0.194240
O17281	O1728	0.142900	0.207800	0.207800
O17291	O1729	0.695040	0.054960	0.054960
O17301	O1730	0.054960	0.195040	0.554960
O17311	O1731	0.554960	0.554960	0.695040
O17321	O1732	0.195040	0.695040	0.195040
O17331	O1733	0.054960	0.695040	0.054960
O17341	O1734	0.554960	0.054960	0.195040
O17351	O1735	0.695040	0.554960	0.554960
O17361	O1736	0.195040	0.195040	0.695040
O17371	O1737	0.054960	0.054960	0.695040
O17381	O1738	0.195040	0.554960	0.054960
O17391	O1739	0.554960	0.695040	0.554960
O17401	O1740	0.695040	0.195040	0.195040
O17411	O1741	0.695040	0.695040	0.695040
O17421	O1742	0.804960	0.945040	0.445040
O17431	O1743	0.945040	0.304960	0.945040
O17441	O1744	0.304960	0.804960	0.804960
O17451	O1745	0.304960	0.304960	0.304960
O17461	O1746	0.445040	0.445040	0.304960
O17471	O1747	0.445040	0.304960	0.445040
O17481	O1748	0.804960	0.804960	0.304960
O17491	O1749	0.304960	0.945040	0.945040
O17501	O1750	0.945040	0.445040	0.804960
O17511	O1751	0.804960	0.304960	0.804960
O17521	O1752	0.304960	0.445040	0.445040
O17531	O1753	0.445040	0.804960	0.945040
O17541	O1754	0.945040	0.945040	0.304960
O17551	O1755	0.945040	0.804960	0.445040
O17561	O1756	0.445040	0.945040	0.804960
O17571	O1757	0.804960	0.445040	0.945040
O17581	O1758	0.195040	0.054960	0.554960
O17591	O1759	0.054960	0.554960	0.195040
O17601	O1760	0.554960	0.195040	0.054960
O17611	O1761	0.074400	0.074400	0.074400
O17621	O1762	0.074400	0.574400	0.574400
O17631	O1763	0.574400	0.074400	0.574400
O17641	O1764	0.574400	0.574400	0.074400
O17651	O1765	0.675600	0.175600	0.574400
O17661	O1766	0.675600	0.675600	0.074400
O17671	O1767	0.175600	0.574400	0.675600
O17681	O1768	0.175600	0.074400	0.175600
O17691	O1769	0.574400	0.675600	0.175600
O17701	O1770	0.074400	0.675600	0.675600
O17711	O1771	0.675600	0.074400	0.675600
O17721	O1772	0.824400	0.324400	0.425600
O17731	O1773	0.824400	0.824400	0.925600
O17741	O1774	0.925600	0.925600	0.925600
O17751	O1775	0.925600	0.425600	0.425600
O17761	O1776	0.425600	0.925600	0.425600
O17771	O1777	0.425600	0.425600	0.925600
O17781	O1778	0.324400	0.425600	0.824400
O17791	O1779	0.324400	0.925600	0.324400
O17801	O1780	0.425600	0.824400	0.324400
O17811	O1781	0.925600	0.824400	0.824400
O17821	O1782	0.925600	0.324400	0.324400
O17831	O1783	0.824400	0.925600	0.824400
O17841	O1784	0.324400	0.824400	0.425600
O17851	O1785	0.324400	0.324400	0.925600
O17861	O1786	0.824400	0.425600	0.324400
O17871	O1787	0.425600	0.324400	0.824400
O17881	O1788	0.175600	0.675600	0.574400
O17891	O1789	0.175600	0.175600	0.074400
O17901	O1790	0.675600	0.574400	0.175600
O17911	O1791	0.574400	0.175600	0.675600
O17921	O1792	0.074400	0.175600	0.175600
C11531	C1153	0.919600	0.070700	0.070700
C11541	C1154	0.975100	0.072600	0.072600
C11551	C1155	0.003100	0.070600	0.070600
C11561	C1156	0.628400	0.058700	0.058700
C11571	C1157	0.604000	0.069100	0.069100
C11581	C1158	0.919600	0.570700	0.570700
C11591	C1159	0.975100	0.572600	0.572600
C11601	C1160	0.003100	0.570600	0.570600
C11611	C1161	0.628400	0.558700	0.558700
C11621	C1162	0.604000	0.569100	0.569100
C11631	C1163	0.419600	0.070700	0.570700
C11641	C1164	0.475100	0.072600	0.572600
C11651	C1165	0.503100	0.070600	0.570600
C11661	C1166	0.128400	0.058700	0.558700
C11671	C1167	0.104000	0.069100	0.569100
C11681	C1168	0.419600	0.570700	0.070700
C11691	C1169	0.475100	0.572600	0.072600
C11701	C1170	0.503100	0.570600	0.070600
C11711	C1171	0.128400	0.558700	0.058700
C11721	C1172	0.104000	0.569100	0.069100
C11731	C1173	0.830400	0.179300	0.570700
C11741	C1174	0.774900	0.177400	0.572600
C11751	C1175	0.746900	0.179400	0.570600
C11761	C1176	0.121600	0.191300	0.558700
C11771	C1177	0.146000	0.180900	0.569100
C11781	C1178	0.830400	0.679300	0.070700
C11791	C1179	0.774900	0.677400	0.072600
C11801	C1180	0.746900	0.679400	0.070600
C11811	C1181	0.121600	0.691300	0.058700
C11821	C1182	0.146000	0.680900	0.069100
C11831	C1183	0.330400	0.570700	0.679300
C11841	C1184	0.274900	0.572600	0.677400
C11851	C1185	0.246900	0.570600	0.679400
C11861	C1186	0.621600	0.558700	0.691300
C11871	C1187	0.646000	0.569100	0.680900
C11881	C1188	0.330400	0.070700	0.179300
C11891	C1189	0.274900	0.072600	0.177400
C11901	C1190	0.246900	0.070600	0.179400
C11911	C1191	0.621600	0.058700	0.191300
C11921	C1192	0.646000	0.069100	0.180900
C11931	C1193	0.419600	0.679300	0.179300
C11941	C1194	0.475100	0.677400	0.177400
C11951	C1195	0.503100	0.679400	0.179400
C11961	C1196	0.128400	0.691300	0.191300
C11971	C1197	0.104000	0.680900	0.180900
C11981	C1198	0.919600	0.679300	0.679300
C11991	C1199	0.975100	0.677400	0.677400
C12001	C1200	0.003100	0.679400	0.679400
C12011	C1201	0.628400	0.691300	0.691300
C12021	C1202	0.604000	0.680900	0.680900
C12031	C1203	0.919600	0.179300	0.179300
C12041	C1204	0.975100	0.177400	0.177400
C12051	C1205	0.003100	0.179400	0.179400
C12061	C1206	0.628400	0.191300	0.191300
C12071	C1207	0.604000	0.180900	0.180900
C12081	C1208	0.070700	0.919600	0.070700
C12091	C1209	0.072600	0.975100	0.072600
C12101	C1210	0.070600	0.003100	0.070600
C12111	C1211	0.058700	0.628400	0.058700
C12121	C1212	0.069100	0.604000	0.069100
C12131	C1213	0.070700	0.419600	0.570700
C12141	C1214	0.072600	0.475100	0.572600
C12151	C1215	0.070600	0.503100	0.570600
C12161	C1216	0.058700	0.128400	0.558700
C12171	C1217	0.069100	0.104000	0.569100
C12181	C1218	0.570700	0.919600	0.570700
C12191	C1219	0.572600	0.975100	0.572600
C12201	C1220	0.570600	0.003100	0.570600
C12211	C1221	0.558700	0.628400	0.558700
C12221	C1222	0.569100	0.604000	0.569100
C12231	C1223	0.570700	0.419600	0.070700
C12241	C1224	0.572600	0.475100	0.072600
C12251	C1225	0.570600	0.503100	0.070600
C12261	C1226	0.558700	0.128400	0.058700
C12271	C1227	0.569100	0.104000	0.069100
C12281	C1228	0.570700	0.830400	0.179300
C12291	C1229	0.572600	0.774900	0.177400
C12301	C1230	0.570600	0.746900	0.179400
C12311	C1231	0.558700	0.121600	0.191300
C12321	C1232	0.569100	0.146000	0.180900
C12331	C1233	0.070700	0.830400	0.679300
C12341	C1234	0.072600	0.774900	0.677400
C12351	C1235	0.070600	0.746900	0.679400
C12361	C1236	0.058700	0.121600	0.691300
C12371	C1237	0.069100	0.146000	0.680900
C12381	C1238	0.679300	0.330400	0.570700
C12391	C1239	0.677400	0.274900	0.572600
C12401	C1240	0.679400	0.246900	0.570600
C12411	C1241	0.691300	0.621600	0.558700
C12421	C1242	0.680900	0.646000	0.569100
C12431	C1243	0.679300	0.830400	0.070700
C12441	C1244	0.677400	0.774900	0.072600
C12451	C1245	0.679400	0.746900	0.070600
C12461	C1246	0.691300	0.121600	0.058700
C12471	C1247	0.680900	0.146000	0.069100
C12481	C1248	0.179300	0.419600	0.679300
C12491	C1249	0.177400	0.475100	0.677400
C12501	C1250	0.179400	0.503100	0.679400
C12511	C1251	0.191300	0.128400	0.691300
C12521	C1252	0.180900	0.104000	0.680900
C12531	C1253	0.179300	0.919600	0.179300
C12541	C1254	0.177400	0.975100	0.177400
C12551	C1255	0.179400	0.003100	0.179400
C12561	C1256	0.191300	0.628400	0.191300
C12571	C1257	0.180900	0.604000	0.180900
C12581	C1258	0.070700	0.070700	0.919600
C12591	C1259	0.072600	0.072600	0.975100
C12601	C1260	0.070600	0.070600	0.003100
C12611	C1261	0.058700	0.058700	0.628400
C12621	C1262	0.069100	0.069100	0.604000
C12631	C1263	0.070700	0.570700	0.419600
C12641	C1264	0.072600	0.572600	0.475100
C12651	C1265	0.070600	0.570600	0.503100
C12661	C1266	0.058700	0.558700	0.128400
C12671	C1267	0.069100	0.569100	0.104000
C12681	C1268	0.570700	0.070700	0.419600
C12691	C1269	0.572600	0.072600	0.475100
C12701	C1270	0.570600	0.070600	0.503100
C12711	C1271	0.558700	0.058700	0.128400
C12721	C1272	0.569100	0.069100	0.104000
C12731	C1273	0.570700	0.570700	0.919600
C12741	C1274	0.572600	0.572600	0.975100
C12751	C1275	0.570600	0.570600	0.003100
C12761	C1276	0.558700	0.558700	0.628400
C12771	C1277	0.569100	0.569100	0.604000
C12781	C1278	0.179300	0.570700	0.830400
C12791	C1279	0.177400	0.572600	0.774900
C12801	C1280	0.179400	0.570600	0.746900
C12811	C1281	0.191300	0.558700	0.121600
C12821	C1282	0.180900	0.569100	0.146000
C12831	C1283	0.179300	0.070700	0.330400
C12841	C1284	0.177400	0.072600	0.274900
C12851	C1285	0.179400	0.070600	0.246900
C12861	C1286	0.191300	0.058700	0.621600
C12871	C1287	0.180900	0.069100	0.646000
C12881	C1288	0.570700	0.679300	0.330400
C12891	C1289	0.572600	0.677400	0.274900
C12901	C1290	0.570600	0.679400	0.246900
C12911	C1291	0.558700	0.691300	0.621600
C12921	C1292	0.569100	0.680900	0.646000
C12931	C1293	0.070700	0.679300	0.830400
C12941	C1294	0.072600	0.677400	0.774900
C12951	C1295	0.070600	0.679400	0.746900
C12961	C1296	0.058700	0.691300	0.121600
C12971	C1297	0.069100	0.680900	0.146000
C12981	C1298	0.679300	0.179300	0.419600
C12991	C1299	0.677400	0.177400	0.475100
C13001	C1300	0.679400	0.179400	0.503100
C13011	C1301	0.691300	0.191300	0.128400
C13021	C1302	0.680900	0.180900	0.104000
C13031	C1303	0.679300	0.679300	0.919600
C13041	C1304	0.677400	0.677400	0.975100
C13051	C1305	0.679400	0.679400	0.003100
C13061	C1306	0.691300	0.691300	0.628400
C13071	C1307	0.680900	0.680900	0.604000
C13081	C1308	0.179300	0.179300	0.919600
C13091	C1309	0.177400	0.177400	0.975100
C13101	C1310	0.179400	0.179400	0.003100
C13111	C1311	0.191300	0.191300	0.628400
C13121	C1312	0.180900	0.180900	0.604000
C13131	C1313	0.820700	0.169600	0.429300
C13141	C1314	0.822600	0.225100	0.427400
C13151	C1315	0.820600	0.253100	0.429400
C13161	C1316	0.808700	0.878400	0.441300
C13171	C1317	0.819100	0.854000	0.430900
C13181	C1318	0.820700	0.669600	0.929300
C13191	C1319	0.822600	0.725100	0.927400
C13201	C1320	0.820600	0.753100	0.929400
C13211	C1321	0.808700	0.378400	0.941300
C13221	C1322	0.819100	0.354000	0.930900
C13231	C1323	0.929300	0.080400	0.929300
C13241	C1324	0.927400	0.024900	0.927400
C13251	C1325	0.929400	0.996900	0.929400
C13261	C1326	0.941300	0.371600	0.941300
C13271	C1327	0.930900	0.396000	0.930900
C13281	C1328	0.929300	0.580400	0.429300
C13291	C1329	0.927400	0.524900	0.427400
C13301	C1330	0.929400	0.496900	0.429400
C13311	C1331	0.941300	0.871600	0.441300
C13321	C1332	0.930900	0.896000	0.430900
C13331	C1333	0.429300	0.080400	0.429300
C13341	C1334	0.427400	0.024900	0.427400
C13351	C1335	0.429400	0.996900	0.429400
C13361	C1336	0.441300	0.371600	0.441300
C13371	C1337	0.430900	0.396000	0.430900
C13381	C1338	0.429300	0.580400	0.929300
C13391	C1339	0.427400	0.524900	0.927400
C13401	C1340	0.429400	0.496900	0.929400
C13411	C1341	0.441300	0.871600	0.941300
C13421	C1342	0.430900	0.896000	0.930900
C13431	C1343	0.320700	0.580400	0.820700
C13441	C1344	0.322600	0.524900	0.822600
C13451	C1345	0.320600	0.496900	0.820600
C13461	C1346	0.308700	0.871600	0.808700
C13471	C1347	0.319100	0.896000	0.819100
C13481	C1348	0.320700	0.080400	0.320700
C13491	C1349	0.322600	0.024900	0.322600
C13501	C1350	0.320600	0.996900	0.320600
C13511	C1351	0.308700	0.371600	0.308700
C13521	C1352	0.319100	0.396000	0.319100
C13531	C1353	0.429300	0.669600	0.320700
C13541	C1354	0.427400	0.725100	0.322600
C13551	C1355	0.429400	0.753100	0.320600
C13561	C1356	0.441300	0.378400	0.308700
C13571	C1357	0.430900	0.354000	0.319100
C13581	C1358	0.929300	0.669600	0.820700
C13591	C1359	0.927400	0.725100	0.822600
C13601	C1360	0.929400	0.753100	0.820600
C13611	C1361	0.941300	0.378400	0.808700
C13621	C1362	0.930900	0.354000	0.819100
C13631	C1363	0.669600	0.320700	0.429300
C13641	C1364	0.725100	0.322600	0.427400
C13651	C1365	0.753100	0.320600	0.429400
C13661	C1366	0.378400	0.308700	0.441300
C13671	C1367	0.354000	0.319100	0.430900
C13681	C1368	0.669600	0.820700	0.929300
C13691	C1369	0.725100	0.822600	0.927400
C13701	C1370	0.753100	0.820600	0.929400
C13711	C1371	0.378400	0.808700	0.941300
C13721	C1372	0.354000	0.819100	0.930900
C13731	C1373	0.580400	0.820700	0.320700
C13741	C1374	0.524900	0.822600	0.322600
C13751	C1375	0.496900	0.820600	0.320600
C13761	C1376	0.871600	0.808700	0.308700
C13771	C1377	0.896000	0.819100	0.319100
C13781	C1378	0.080400	0.820700	0.820700
C13791	C1379	0.024900	0.822600	0.822600
C13801	C1380	0.996900	0.820600	0.820600
C13811	C1381	0.371600	0.808700	0.808700
C13821	C1382	0.396000	0.819100	0.819100
C13831	C1383	0.080400	0.320700	0.320700
C13841	C1384	0.024900	0.322600	0.322600
C13851	C1385	0.996900	0.320600	0.320600
C13861	C1386	0.371600	0.308700	0.308700
C13871	C1387	0.396000	0.319100	0.319100
C13881	C1388	0.080400	0.929300	0.929300
C13891	C1389	0.024900	0.927400	0.927400
C13901	C1390	0.996900	0.929400	0.929400
C13911	C1391	0.371600	0.941300	0.941300
C13921	C1392	0.396000	0.930900	0.930900
C13931	C1393	0.080400	0.429300	0.429300
C13941	C1394	0.024900	0.427400	0.427400
C13951	C1395	0.996900	0.429400	0.429400
C13961	C1396	0.371600	0.441300	0.441300
C13971	C1397	0.396000	0.430900	0.430900
C13981	C1398	0.580400	0.929300	0.429300
C13991	C1399	0.524900	0.927400	0.427400
C14001	C1400	0.496900	0.929400	0.429400
C14011	C1401	0.871600	0.941300	0.441300
C14021	C1402	0.896000	0.930900	0.430900
C14031	C1403	0.580400	0.429300	0.929300
C14041	C1404	0.524900	0.427400	0.927400
C14051	C1405	0.496900	0.429400	0.929400
C14061	C1406	0.871600	0.441300	0.941300
C14071	C1407	0.896000	0.430900	0.930900
C14081	C1408	0.169600	0.429300	0.820700
C14091	C1409	0.225100	0.427400	0.822600
C14101	C1410	0.253100	0.429400	0.820600
C14111	C1411	0.878400	0.441300	0.808700
C14121	C1412	0.854000	0.430900	0.819100
C14131	C1413	0.169600	0.929300	0.320700
C14141	C1414	0.225100	0.927400	0.322600
C14151	C1415	0.253100	0.929400	0.320600
C14161	C1416	0.878400	0.941300	0.308700
C14171	C1417	0.854000	0.930900	0.319100
C14181	C1418	0.820700	0.320700	0.580400
C14191	C1419	0.822600	0.322600	0.524900
C14201	C1420	0.820600	0.320600	0.496900
C14211	C1421	0.808700	0.308700	0.871600
C14221	C1422	0.819100	0.319100	0.896000
C14231	C1423	0.820700	0.820700	0.080400
C14241	C1424	0.822600	0.822600	0.024900
C14251	C1425	0.820600	0.820600	0.996900
C14261	C1426	0.808700	0.808700	0.371600
C14271	C1427	0.819100	0.819100	0.396000
C14281	C1428	0.320700	0.320700	0.080400
C14291	C1429	0.322600	0.322600	0.024900
C14301	C1430	0.320600	0.320600	0.996900
C14311	C1431	0.308700	0.308700	0.371600
C14321	C1432	0.319100	0.319100	0.396000
C14331	C1433	0.320700	0.429300	0.669600
C14341	C1434	0.322600	0.427400	0.725100
C14351	C1435	0.320600	0.429400	0.753100
C14361	C1436	0.308700	0.441300	0.378400
C14371	C1437	0.319100	0.430900	0.354000
C14381	C1438	0.320700	0.929300	0.169600
C14391	C1439	0.322600	0.927400	0.225100
C14401	C1440	0.320600	0.929400	0.253100
C14411	C1441	0.308700	0.941300	0.878400
C14421	C1442	0.319100	0.930900	0.854000
C14431	C1443	0.429300	0.820700	0.169600
C14441	C1444	0.427400	0.822600	0.225100
C14451	C1445	0.429400	0.820600	0.253100
C14461	C1446	0.441300	0.808700	0.878400
C14471	C1447	0.430900	0.819100	0.854000
C14481	C1448	0.929300	0.820700	0.669600
C14491	C1449	0.927400	0.822600	0.725100
C14501	C1450	0.929400	0.820600	0.753100
C14511	C1451	0.941300	0.808700	0.378400
C14521	C1452	0.930900	0.819100	0.354000
C14531	C1453	0.929300	0.929300	0.080400
C14541	C1454	0.927400	0.927400	0.024900
C14551	C1455	0.929400	0.929400	0.996900
C14561	C1456	0.941300	0.941300	0.371600
C14571	C1457	0.930900	0.930900	0.396000
C14581	C1458	0.929300	0.429300	0.580400
C14591	C1459	0.927400	0.427400	0.524900
C14601	C1460	0.929400	0.429400	0.496900
C14611	C1461	0.941300	0.441300	0.871600
C14621	C1462	0.930900	0.430900	0.896000
C14631	C1463	0.429300	0.929300	0.580400
C14641	C1464	0.427400	0.927400	0.524900
C14651	C1465	0.429400	0.929400	0.496900
C14661	C1466	0.441300	0.941300	0.871600
C14671	C1467	0.430900	0.930900	0.896000
C14681	C1468	0.429300	0.429300	0.080400
C14691	C1469	0.427400	0.427400	0.024900
C14701	C1470	0.429400	0.429400	0.996900
C14711	C1471	0.441300	0.441300	0.371600
C14721	C1472	0.430900	0.430900	0.396000
C14731	C1473	0.169600	0.820700	0.429300
C14741	C1474	0.225100	0.822600	0.427400
C14751	C1475	0.253100	0.820600	0.429400
C14761	C1476	0.878400	0.808700	0.441300
C14771	C1477	0.854000	0.819100	0.430900
C14781	C1478	0.169600	0.320700	0.929300
C14791	C1479	0.225100	0.322600	0.927400
C14801	C1480	0.253100	0.320600	0.929400
C14811	C1481	0.878400	0.308700	0.941300
C14821	C1482	0.854000	0.319100	0.930900
C14831	C1483	0.669600	0.429300	0.320700
C14841	C1484	0.725100	0.427400	0.322600
C14851	C1485	0.753100	0.429400	0.320600
C14861	C1486	0.378400	0.441300	0.308700
C14871	C1487	0.354000	0.430900	0.319100
C14881	C1488	0.669600	0.929300	0.820700
C14891	C1489	0.725100	0.927400	0.822600
C14901	C1490	0.753100	0.929400	0.820600
C14911	C1491	0.378400	0.941300	0.808700
C14921	C1492	0.354000	0.930900	0.819100
C14931	C1493	0.580400	0.320700	0.820700
C14941	C1494	0.524900	0.322600	0.822600
C14951	C1495	0.496900	0.320600	0.820600
C14961	C1496	0.871600	0.308700	0.808700
C14971	C1497	0.896000	0.319100	0.819100
C14981	C1498	0.429300	0.169600	0.820700
C14991	C1499	0.427400	0.225100	0.822600
C15001	C1500	0.429400	0.253100	0.820600
C15011	C1501	0.441300	0.878400	0.808700
C15021	C1502	0.430900	0.854000	0.819100
C15031	C1503	0.929300	0.169600	0.320700
C15041	C1504	0.927400	0.225100	0.322600
C15051	C1505	0.929400	0.253100	0.320600
C15061	C1506	0.941300	0.878400	0.308700
C15071	C1507	0.930900	0.854000	0.319100
C15081	C1508	0.320700	0.669600	0.429300
C15091	C1509	0.322600	0.725100	0.427400
C15101	C1510	0.320600	0.753100	0.429400
C15111	C1511	0.308700	0.378400	0.441300
C15121	C1512	0.319100	0.354000	0.430900
C15131	C1513	0.320700	0.169600	0.929300
C15141	C1514	0.322600	0.225100	0.927400
C15151	C1515	0.320600	0.253100	0.929400
C15161	C1516	0.308700	0.878400	0.941300
C15171	C1517	0.319100	0.854000	0.930900
C15181	C1518	0.820700	0.580400	0.320700
C15191	C1519	0.822600	0.524900	0.322600
C15201	C1520	0.820600	0.496900	0.320600
C15211	C1521	0.808700	0.871600	0.308700
C15221	C1522	0.819100	0.896000	0.319100
C15231	C1523	0.820700	0.080400	0.820700
C15241	C1524	0.822600	0.024900	0.822600
C15251	C1525	0.820600	0.996900	0.820600
C15261	C1526	0.808700	0.371600	0.808700
C15271	C1527	0.819100	0.396000	0.819100
C15281	C1528	0.820700	0.429300	0.169600
C15291	C1529	0.822600	0.427400	0.225100
C15301	C1530	0.820600	0.429400	0.253100
C15311	C1531	0.808700	0.441300	0.878400
C15321	C1532	0.819100	0.430900	0.854000
C15331	C1533	0.820700	0.929300	0.669600
C15341	C1534	0.822600	0.927400	0.725100
C15351	C1535	0.820600	0.929400	0.753100
C15361	C1536	0.808700	0.941300	0.378400
C15371	C1537	0.819100	0.930900	0.354000
C15381	C1538	0.429300	0.320700	0.669600
C15391	C1539	0.427400	0.322600	0.725100
C15401	C1540	0.429400	0.320600	0.753100
C15411	C1541	0.441300	0.308700	0.378400
C15421	C1542	0.430900	0.319100	0.354000
C15431	C1543	0.929300	0.320700	0.169600
C15441	C1544	0.927400	0.322600	0.225100
C15451	C1545	0.929400	0.320600	0.253100
C15461	C1546	0.941300	0.308700	0.878400
C15471	C1547	0.930900	0.319100	0.854000
C15481	C1548	0.320700	0.820700	0.580400
C15491	C1549	0.322600	0.822600	0.524900
C15501	C1550	0.320600	0.820600	0.496900
C15511	C1551	0.308700	0.808700	0.871600
C15521	C1552	0.319100	0.819100	0.896000
C15531	C1553	0.179300	0.830400	0.570700
C15541	C1554	0.177400	0.774900	0.572600
C15551	C1555	0.179400	0.746900	0.570600
C15561	C1556	0.191300	0.121600	0.558700
C15571	C1557	0.180900	0.146000	0.569100
C15581	C1558	0.179300	0.330400	0.070700
C15591	C1559	0.177400	0.274900	0.072600
C15601	C1560	0.179400	0.246900	0.070600
C15611	C1561	0.191300	0.621600	0.058700
C15621	C1562	0.180900	0.646000	0.069100
C15631	C1563	0.679300	0.419600	0.179300
C15641	C1564	0.677400	0.475100	0.177400
C15651	C1565	0.679400	0.503100	0.179400
C15661	C1566	0.691300	0.128400	0.191300
C15671	C1567	0.680900	0.104000	0.180900
C15681	C1568	0.679300	0.919600	0.679300
C15691	C1569	0.677400	0.975100	0.677400
C15701	C1570	0.679400	0.003100	0.679400
C15711	C1571	0.691300	0.628400	0.691300
C15721	C1572	0.680900	0.604000	0.680900
C15731	C1573	0.570700	0.330400	0.679300
C15741	C1574	0.572600	0.274900	0.677400
C15751	C1575	0.570600	0.246900	0.679400
C15761	C1576	0.558700	0.621600	0.691300
C15771	C1577	0.569100	0.646000	0.680900
C15781	C1578	0.070700	0.330400	0.179300
C15791	C1579	0.072600	0.274900	0.177400
C15801	C1580	0.070600	0.246900	0.179400
C15811	C1581	0.058700	0.621600	0.191300
C15821	C1582	0.069100	0.646000	0.180900
C15831	C1583	0.330400	0.679300	0.570700
C15841	C1584	0.274900	0.677400	0.572600
C15851	C1585	0.246900	0.679400	0.570600
C15861	C1586	0.621600	0.691300	0.558700
C15871	C1587	0.646000	0.680900	0.569100
C15881	C1588	0.330400	0.179300	0.070700
C15891	C1589	0.274900	0.177400	0.072600
C15901	C1590	0.246900	0.179400	0.070600
C15911	C1591	0.621600	0.191300	0.058700
C15921	C1592	0.646000	0.180900	0.069100
C15931	C1593	0.419600	0.179300	0.679300
C15941	C1594	0.475100	0.177400	0.677400
C15951	C1595	0.503100	0.179400	0.679400
C15961	C1596	0.128400	0.191300	0.691300
C15971	C1597	0.104000	0.180900	0.680900
C15981	C1598	0.830400	0.570700	0.179300
C15991	C1599	0.774900	0.572600	0.177400
C16001	C1600	0.746900	0.570600	0.179400
C16011	C1601	0.121600	0.558700	0.191300
C16021	C1602	0.146000	0.569100	0.180900
C16031	C1603	0.830400	0.070700	0.679300
C16041	C1604	0.774900	0.072600	0.677400
C16051	C1605	0.746900	0.070600	0.679400
C16061	C1606	0.121600	0.058700	0.691300
C16071	C1607	0.146000	0.069100	0.680900
C16081	C1608	0.179300	0.679300	0.419600
C16091	C1609	0.177400	0.677400	0.475100
C16101	C1610	0.179400	0.679400	0.503100
C16111	C1611	0.191300	0.691300	0.128400
C16121	C1612	0.180900	0.680900	0.104000
C16131	C1613	0.679300	0.570700	0.330400
C16141	C1614	0.677400	0.572600	0.274900
C16151	C1615	0.679400	0.570600	0.246900
C16161	C1616	0.691300	0.558700	0.621600
C16171	C1617	0.680900	0.569100	0.646000
C16181	C1618	0.679300	0.070700	0.830400
C16191	C1619	0.677400	0.072600	0.774900
C16201	C1620	0.679400	0.070600	0.746900
C16211	C1621	0.691300	0.058700	0.121600
C16221	C1622	0.680900	0.069100	0.146000
C16231	C1623	0.570700	0.179300	0.830400
C16241	C1624	0.572600	0.177400	0.774900
C16251	C1625	0.570600	0.179400	0.746900
C16261	C1626	0.558700	0.191300	0.121600
C16271	C1627	0.569100	0.180900	0.146000
C16281	C1628	0.070700	0.179300	0.330400
C16291	C1629	0.072600	0.177400	0.274900
C16301	C1630	0.070600	0.179400	0.246900
C16311	C1631	0.058700	0.191300	0.621600
C16321	C1632	0.069100	0.180900	0.646000
C16331	C1633	0.793200	0.114200	0.956800
C16341	C1634	0.758800	0.092900	0.991200
C16351	C1635	0.738600	0.080500	0.011400
C16361	C1636	0.293200	0.114200	0.456800
C16371	C1637	0.258800	0.092900	0.491200
C16381	C1638	0.238600	0.080500	0.511400
C16391	C1639	0.956800	0.135800	0.456800
C16401	C1640	0.991200	0.157100	0.491200
C16411	C1641	0.011400	0.169500	0.511400
C16421	C1642	0.956800	0.635800	0.956800
C16431	C1643	0.991200	0.657100	0.991200
C16441	C1644	0.011400	0.669500	0.011400
C16451	C1645	0.456800	0.614200	0.793200
C16461	C1646	0.491200	0.592900	0.758800
C16471	C1647	0.511400	0.580500	0.738600
C16481	C1648	0.456800	0.114200	0.293200
C16491	C1649	0.491200	0.092900	0.258800
C16501	C1650	0.511400	0.080500	0.238600
C16511	C1651	0.293200	0.635800	0.293200
C16521	C1652	0.258800	0.657100	0.258800
C16531	C1653	0.238600	0.669500	0.238600
C16541	C1654	0.293200	0.135800	0.793200
C16551	C1655	0.258800	0.157100	0.758800
C16561	C1656	0.238600	0.169500	0.738600
C16571	C1657	0.793200	0.635800	0.793200
C16581	C1658	0.758800	0.657100	0.758800
C16591	C1659	0.738600	0.669500	0.738600
C16601	C1660	0.793200	0.135800	0.293200
C16611	C1661	0.758800	0.157100	0.258800
C16621	C1662	0.738600	0.169500	0.238600
C16631	C1663	0.956800	0.793200	0.114200
C16641	C1664	0.991200	0.758800	0.092900
C16651	C1665	0.011400	0.738600	0.080500
C16661	C1666	0.956800	0.293200	0.614200
C16671	C1667	0.991200	0.258800	0.592900
C16681	C1668	0.011400	0.238600	0.580500
C16691	C1669	0.456800	0.956800	0.135800
C16701	C1670	0.491200	0.991200	0.157100
C16711	C1671	0.511400	0.011400	0.169500
C16721	C1672	0.456800	0.456800	0.635800
C16731	C1673	0.491200	0.491200	0.657100
C16741	C1674	0.511400	0.511400	0.669500
C16751	C1675	0.956800	0.956800	0.635800
C16761	C1676	0.991200	0.991200	0.657100
C16771	C1677	0.011400	0.011400	0.669500
C16781	C1678	0.793200	0.456800	0.614200
C16791	C1679	0.758800	0.491200	0.592900
C16801	C1680	0.738600	0.511400	0.580500
C16811	C1681	0.293200	0.456800	0.114200
C16821	C1682	0.258800	0.491200	0.092900
C16831	C1683	0.238600	0.511400	0.080500
C16841	C1684	0.293200	0.293200	0.635800
C16851	C1685	0.258800	0.258800	0.657100
C16861	C1686	0.238600	0.238600	0.669500
C16871	C1687	0.293200	0.793200	0.135800
C16881	C1688	0.258800	0.758800	0.157100
C16891	C1689	0.238600	0.738600	0.169500
C16901	C1690	0.793200	0.293200	0.135800
C16911	C1691	0.758800	0.258800	0.157100
C16921	C1692	0.738600	0.238600	0.169500
C16931	C1693	0.793200	0.793200	0.635800
C16941	C1694	0.758800	0.758800	0.657100
C16951	C1695	0.738600	0.738600	0.669500
C16961	C1696	0.114200	0.956800	0.793200
C16971	C1697	0.092900	0.991200	0.758800
C16981	C1698	0.080500	0.011400	0.738600
C16991	C1699	0.114200	0.456800	0.293200
C17001	C1700	0.092900	0.491200	0.258800
C17011	C1701	0.080500	0.511400	0.238600
C17021	C1702	0.135800	0.456800	0.956800
C17031	C1703	0.157100	0.491200	0.991200
C17041	C1704	0.169500	0.511400	0.011400
C17051	C1705	0.635800	0.456800	0.456800
C17061	C1706	0.657100	0.491200	0.491200
C17071	C1707	0.669500	0.511400	0.511400
C17081	C1708	0.635800	0.956800	0.956800
C17091	C1709	0.657100	0.991200	0.991200
C17101	C1710	0.669500	0.011400	0.011400
C17111	C1711	0.614200	0.793200	0.456800
C17121	C1712	0.592900	0.758800	0.491200
C17131	C1713	0.580500	0.738600	0.511400
C17141	C1714	0.614200	0.293200	0.956800
C17151	C1715	0.592900	0.258800	0.991200
C17161	C1716	0.580500	0.238600	0.011400
C17171	C1717	0.635800	0.293200	0.293200
C17181	C1718	0.657100	0.258800	0.258800
C17191	C1719	0.669500	0.238600	0.238600
C17201	C1720	0.635800	0.793200	0.793200
C17211	C1721	0.657100	0.758800	0.758800
C17221	C1722	0.669500	0.738600	0.738600
C17231	C1723	0.135800	0.293200	0.793200
C17241	C1724	0.157100	0.258800	0.758800
C17251	C1725	0.169500	0.238600	0.738600
C17261	C1726	0.135800	0.793200	0.293200
C17271	C1727	0.157100	0.758800	0.258800
C17281	C1728	0.169500	0.738600	0.238600
C17291	C1729	0.864200	0.043200	0.543200
C17301	C1730	0.842900	0.008800	0.508800
C17311	C1731	0.830500	0.988600	0.488600
C17321	C1732	0.364200	0.043200	0.043200
C17331	C1733	0.342900	0.008800	0.008800
C17341	C1734	0.330500	0.988600	0.988600
C17351	C1735	0.364200	0.543200	0.543200
C17361	C1736	0.342900	0.508800	0.508800
C17371	C1737	0.330500	0.488600	0.488600
C17381	C1738	0.885800	0.206800	0.043200
C17391	C1739	0.907100	0.241200	0.008800
C17401	C1740	0.919500	0.261400	0.988600
C17411	C1741	0.885800	0.706800	0.543200
C17421	C1742	0.907100	0.741200	0.508800
C17431	C1743	0.919500	0.761400	0.488600
C17441	C1744	0.385800	0.206800	0.543200
C17451	C1745	0.407100	0.241200	0.508800
C17461	C1746	0.419500	0.261400	0.488600
C17471	C1747	0.364200	0.706800	0.706800
C17481	C1748	0.342900	0.741200	0.741200
C17491	C1749	0.330500	0.761400	0.761400
C17501	C1750	0.364200	0.206800	0.206800
C17511	C1751	0.342900	0.241200	0.241200
C17521	C1752	0.330500	0.261400	0.261400
C17531	C1753	0.864200	0.706800	0.206800
C17541	C1754	0.842900	0.741200	0.241200
C17551	C1755	0.830500	0.761400	0.261400
C17561	C1756	0.864200	0.206800	0.706800
C17571	C1757	0.842900	0.241200	0.741200
C17581	C1758	0.830500	0.261400	0.761400
C17591	C1759	0.385800	0.543200	0.206800
C17601	C1760	0.407100	0.508800	0.241200
C17611	C1761	0.419500	0.488600	0.261400
C17621	C1762	0.385800	0.043200	0.706800
C17631	C1763	0.407100	0.008800	0.741200
C17641	C1764	0.419500	0.988600	0.761400
C17651	C1765	0.543200	0.206800	0.385800
C17661	C1766	0.508800	0.241200	0.407100
C17671	C1767	0.488600	0.261400	0.419500
C17681	C1768	0.543200	0.706800	0.885800
C17691	C1769	0.508800	0.741200	0.907100
C17701	C1770	0.488600	0.761400	0.919500
C17711	C1771	0.706800	0.706800	0.364200
C17721	C1772	0.741200	0.741200	0.342900
C17731	C1773	0.761400	0.761400	0.330500
C17741	C1774	0.706800	0.206800	0.864200
C17751	C1775	0.741200	0.241200	0.842900
C17761	C1776	0.761400	0.261400	0.830500
C17771	C1777	0.206800	0.706800	0.864200
C17781	C1778	0.241200	0.741200	0.842900
C17791	C1779	0.261400	0.761400	0.830500
C17801	C1780	0.206800	0.206800	0.364200
C17811	C1781	0.241200	0.241200	0.342900
C17821	C1782	0.261400	0.261400	0.330500
C17831	C1783	0.206800	0.043200	0.885800
C17841	C1784	0.241200	0.008800	0.907100
C17851	C1785	0.261400	0.988600	0.919500
C17861	C1786	0.206800	0.543200	0.385800
C17871	C1787	0.241200	0.508800	0.407100
C17881	C1788	0.261400	0.488600	0.419500
C17891	C1789	0.706800	0.043200	0.385800
C17901	C1790	0.741200	0.008800	0.407100
C17911	C1791	0.761400	0.988600	0.419500
C17921	C1792	0.043200	0.543200	0.864200
C17931	C1793	0.008800	0.508800	0.842900
C17941	C1794	0.988600	0.488600	0.830500
C17951	C1795	0.043200	0.043200	0.364200
C17961	C1796	0.008800	0.008800	0.342900
C17971	C1797	0.988600	0.988600	0.330500
C17981	C1798	0.543200	0.543200	0.364200
C17991	C1799	0.508800	0.508800	0.342900
C18001	C1800	0.488600	0.488600	0.330500
C18011	C1801	0.706800	0.364200	0.706800
C18021	C1802	0.741200	0.342900	0.741200
C18031	C1803	0.761400	0.330500	0.761400
C18041	C1804	0.706800	0.864200	0.206800
C18051	C1805	0.741200	0.842900	0.241200
C18061	C1806	0.761400	0.830500	0.261400
C18071	C1807	0.206800	0.364200	0.206800
C18081	C1808	0.241200	0.342900	0.241200
C18091	C1809	0.261400	0.330500	0.261400
C18101	C1810	0.206800	0.864200	0.706800
C18111	C1811	0.241200	0.842900	0.741200
C18121	C1812	0.261400	0.830500	0.761400
C18131	C1813	0.206800	0.385800	0.543200
C18141	C1814	0.241200	0.407100	0.508800
C18151	C1815	0.261400	0.419500	0.488600
C18161	C1816	0.706800	0.385800	0.043200
C18171	C1817	0.741200	0.407100	0.008800
C18181	C1818	0.761400	0.419500	0.988600
C18191	C1819	0.543200	0.864200	0.043200
C18201	C1820	0.508800	0.842900	0.008800
C18211	C1821	0.488600	0.830500	0.988600
C18221	C1822	0.543200	0.364200	0.543200
C18231	C1823	0.508800	0.342900	0.508800
C18241	C1824	0.488600	0.330500	0.488600
C18251	C1825	0.043200	0.885800	0.206800
C18261	C1826	0.008800	0.907100	0.241200
C18271	C1827	0.988600	0.919500	0.261400
C18281	C1828	0.043200	0.385800	0.706800
C18291	C1829	0.008800	0.407100	0.741200
C18301	C1830	0.988600	0.419500	0.761400
C18311	C1831	0.543200	0.385800	0.206800
C18321	C1832	0.508800	0.407100	0.241200
C18331	C1833	0.488600	0.419500	0.261400
C18341	C1834	0.206800	0.885800	0.043200
C18351	C1835	0.241200	0.907100	0.008800
C18361	C1836	0.261400	0.919500	0.988600
C18371	C1837	0.706800	0.885800	0.543200
C18381	C1838	0.741200	0.907100	0.508800
C18391	C1839	0.761400	0.919500	0.488600
C18401	C1840	0.043200	0.864200	0.543200
C18411	C1841	0.008800	0.842900	0.508800
C18421	C1842	0.988600	0.830500	0.488600
C18431	C1843	0.043200	0.364200	0.043200
C18441	C1844	0.008800	0.342900	0.008800
C18451	C1845	0.988600	0.330500	0.988600
C18461	C1846	0.543200	0.885800	0.706800
C18471	C1847	0.508800	0.907100	0.741200
C18481	C1848	0.488600	0.919500	0.761400
C18491	C1849	0.043200	0.206800	0.885800
C18501	C1850	0.008800	0.241200	0.907100
C18511	C1851	0.988600	0.261400	0.919500
C18521	C1852	0.043200	0.706800	0.385800
C18531	C1853	0.008800	0.741200	0.407100
C18541	C1854	0.988600	0.761400	0.419500
C18551	C1855	0.543200	0.043200	0.864200
C18561	C1856	0.508800	0.008800	0.842900
C18571	C1857	0.488600	0.988600	0.830500
C18581	C1858	0.706800	0.543200	0.885800
C18591	C1859	0.741200	0.508800	0.907100
C18601	C1860	0.761400	0.488600	0.919500
C18611	C1861	0.885800	0.043200	0.206800
C18621	C1862	0.907100	0.008800	0.241200
C18631	C1863	0.919500	0.988600	0.261400
C18641	C1864	0.885800	0.543200	0.706800
C18651	C1865	0.907100	0.508800	0.741200
C18661	C1866	0.919500	0.488600	0.761400
C18671	C1867	0.864200	0.543200	0.043200
C18681	C1868	0.842900	0.508800	0.008800
C18691	C1869	0.830500	0.488600	0.988600
C18701	C1870	0.385800	0.706800	0.043200
C18711	C1871	0.407100	0.741200	0.008800
C18721	C1872	0.419500	0.761400	0.988600
C18731	C1873	0.135800	0.956800	0.456800
C18741	C1874	0.157100	0.991200	0.491200
C18751	C1875	0.169500	0.011400	0.511400
C18761	C1876	0.114200	0.793200	0.956800
C18771	C1877	0.092900	0.758800	0.991200
C18781	C1878	0.080500	0.738600	0.011400
C18791	C1879	0.114200	0.293200	0.456800
C18801	C1880	0.092900	0.258800	0.491200
C18811	C1881	0.080500	0.238600	0.511400
C18821	C1882	0.614200	0.456800	0.793200
C18831	C1883	0.592900	0.491200	0.758800
C18841	C1884	0.580500	0.511400	0.738600
C18851	C1885	0.614200	0.956800	0.293200
C18861	C1886	0.592900	0.991200	0.258800
C18871	C1887	0.580500	0.011400	0.238600
C18881	C1888	0.456800	0.793200	0.614200
C18891	C1889	0.491200	0.758800	0.592900
C18901	C1890	0.511400	0.738600	0.580500
C18911	C1891	0.456800	0.293200	0.114200
C18921	C1892	0.491200	0.258800	0.092900
C18931	C1893	0.511400	0.238600	0.080500
C18941	C1894	0.793200	0.956800	0.114200
C18951	C1895	0.758800	0.991200	0.092900
C18961	C1896	0.738600	0.011400	0.080500
C18971	C1897	0.293200	0.956800	0.614200
C18981	C1898	0.258800	0.991200	0.592900
C18991	C1899	0.238600	0.011400	0.580500
C19001	C1900	0.956800	0.456800	0.135800
C19011	C1901	0.991200	0.491200	0.157100
C19021	C1902	0.011400	0.511400	0.169500
C19031	C1903	0.793200	0.614200	0.456800
C19041	C1904	0.758800	0.592900	0.491200
C19051	C1905	0.738600	0.580500	0.511400
C19061	C1906	0.293200	0.614200	0.956800
C19071	C1907	0.258800	0.592900	0.991200
C19081	C1908	0.238600	0.580500	0.011400
C19091	C1909	0.456800	0.135800	0.956800
C19101	C1910	0.491200	0.157100	0.991200
C19111	C1911	0.511400	0.169500	0.011400
C19121	C1912	0.456800	0.635800	0.456800
C19131	C1913	0.491200	0.657100	0.491200
C19141	C1914	0.511400	0.669500	0.511400
C19151	C1915	0.956800	0.114200	0.793200
C19161	C1916	0.991200	0.092900	0.758800
C19171	C1917	0.011400	0.080500	0.738600
C19181	C1918	0.956800	0.614200	0.293200
C19191	C1919	0.991200	0.592900	0.258800
C19201	C1920	0.011400	0.580500	0.238600
C19211	C1921	0.592700	0.092700	0.058900
C19221	C1922	0.592700	0.592700	0.558900
C19231	C1923	0.157300	0.157300	0.558900
C19241	C1924	0.157300	0.657300	0.058900
C19251	C1925	0.657300	0.157300	0.058900
C19261	C1926	0.657300	0.657300	0.558900
C19271	C1927	0.657300	0.592700	0.691100
C19281	C1928	0.157300	0.592700	0.191100
C19291	C1929	0.092700	0.657300	0.191100
C19301	C1930	0.092700	0.157300	0.691100
C19311	C1931	0.058900	0.592700	0.092700
C19321	C1932	0.558900	0.592700	0.592700
C19331	C1933	0.558900	0.157300	0.157300
C19341	C1934	0.558900	0.657300	0.657300
C19351	C1935	0.058900	0.157300	0.657300
C19361	C1936	0.058900	0.657300	0.157300
C19371	C1937	0.691100	0.657300	0.592700
C19381	C1938	0.691100	0.157300	0.092700
C19391	C1939	0.191100	0.092700	0.657300
C19401	C1940	0.191100	0.592700	0.157300
C19411	C1941	0.092700	0.058900	0.592700
C19421	C1942	0.092700	0.558900	0.092700
C19431	C1943	0.157300	0.558900	0.157300
C19441	C1944	0.157300	0.058900	0.657300
C19451	C1945	0.657300	0.558900	0.657300
C19461	C1946	0.657300	0.058900	0.157300
C19471	C1947	0.592700	0.691100	0.657300
C19481	C1948	0.592700	0.191100	0.157300
C19491	C1949	0.657300	0.191100	0.092700
C19501	C1950	0.157300	0.191100	0.592700
C19511	C1951	0.842700	0.842700	0.441100
C19521	C1952	0.842700	0.342700	0.941100
C19531	C1953	0.342700	0.842700	0.941100
C19541	C1954	0.342700	0.342700	0.441100
C19551	C1955	0.907300	0.407300	0.941100
C19561	C1956	0.907300	0.907300	0.441100
C19571	C1957	0.342700	0.907300	0.808900
C19581	C1958	0.842700	0.907300	0.308900
C19591	C1959	0.407300	0.342700	0.308900
C19601	C1960	0.407300	0.842700	0.808900
C19611	C1961	0.342700	0.308900	0.407300
C19621	C1962	0.842700	0.308900	0.907300
C19631	C1963	0.907300	0.808900	0.342700
C19641	C1964	0.907300	0.308900	0.842700
C19651	C1965	0.407300	0.941100	0.907300
C19661	C1966	0.407300	0.441100	0.407300
C19671	C1967	0.842700	0.441100	0.842700
C19681	C1968	0.842700	0.941100	0.342700
C19691	C1969	0.342700	0.441100	0.342700
C19701	C1970	0.342700	0.941100	0.842700
C19711	C1971	0.808900	0.342700	0.907300
C19721	C1972	0.808900	0.842700	0.407300
C19731	C1973	0.308900	0.407300	0.342700
C19741	C1974	0.308900	0.907300	0.842700
C19751	C1975	0.441100	0.842700	0.842700
C19761	C1976	0.441100	0.342700	0.342700
C19771	C1977	0.941100	0.842700	0.342700
C19781	C1978	0.941100	0.342700	0.842700
C19791	C1979	0.941100	0.907300	0.407300
C19801	C1980	0.441100	0.907300	0.907300
C19811	C1981	0.407300	0.907300	0.941100
C19821	C1982	0.407300	0.407300	0.441100
C19831	C1983	0.342700	0.407300	0.308900
C19841	C1984	0.842700	0.407300	0.808900
C19851	C1985	0.907300	0.342700	0.808900
C19861	C1986	0.907300	0.842700	0.308900
C19871	C1987	0.941100	0.407300	0.907300
C19881	C1988	0.441100	0.407300	0.407300
C19891	C1989	0.308900	0.342700	0.407300
C19901	C1990	0.308900	0.842700	0.907300
C19911	C1991	0.808900	0.907300	0.342700
C19921	C1992	0.808900	0.407300	0.842700
C19931	C1993	0.907300	0.941100	0.407300
C19941	C1994	0.907300	0.441100	0.907300
C19951	C1995	0.407300	0.308900	0.342700
C19961	C1996	0.407300	0.808900	0.842700
C19971	C1997	0.342700	0.808900	0.907300
C19981	C1998	0.842700	0.808900	0.407300
C19991	C1999	0.092700	0.592700	0.058900
C20001	C2000	0.092700	0.092700	0.558900
C20011	C2001	0.657300	0.092700	0.191100
C20021	C2002	0.157300	0.092700	0.691100
C20031	C2003	0.592700	0.657300	0.691100
C20041	C2004	0.592700	0.157300	0.191100
C20051	C2005	0.657300	0.691100	0.592700
C20061	C2006	0.157300	0.691100	0.092700
C20071	C2007	0.092700	0.191100	0.657300
C20081	C2008	0.092700	0.691100	0.157300
C20091	C2009	0.592700	0.058900	0.092700
C20101	C2010	0.592700	0.558900	0.592700
C20111	C2011	0.191100	0.657300	0.092700
C20121	C2012	0.191100	0.157300	0.592700
C20131	C2013	0.691100	0.592700	0.657300
C20141	C2014	0.691100	0.092700	0.157300
C20151	C2015	0.058900	0.092700	0.592700
C20161	C2016	0.558900	0.092700	0.092700
