data_HAPBIM_freeONLY_PM
_symmetry_space_group_name_H-M	'P1'
_cell_length_a	26.733000
_cell_length_b	26.733000
_cell_length_c	65.261000
_cell_angle_alpha	90.000000
_cell_angle_beta	90.000000
_cell_angle_gamma	120.000000
_symmetry_Int_Tables_number 1

loop_
_symmetry_equiv_pos_as_xyz
'x,y,z'

loop_
_atom_site_label
_atom_site_type_symbol
_atom_site_fract_x
_atom_site_fract_y
_atom_site_fract_z
I11	I1	0.442860	0.698390	0.980080
Cu11	Cu1	0.353260	0.621470	0.001540
N11	N1	0.376300	0.568200	0.016060
C11	C1	0.430600	0.587500	0.022600
C21	C2	0.336000	0.517400	0.022510
C31	C3	0.283700	0.668100	0.928780
H11	H1	0.460600	0.623800	0.017800
C41	C4	0.444000	0.557100	0.035780
C51	C5	0.346200	0.484300	0.035940
H21	H2	0.297800	0.502800	0.017600
H31	H3	0.285400	0.702900	0.933500
C61	C6	0.401900	0.504400	0.042980
C71	C7	0.505500	0.581200	0.043110
H41	H4	0.315500	0.447900	0.040400
H51	H5	0.410600	0.482700	0.052400
O11	O1	0.543500	0.623900	0.032750
O21	O2	0.515090	0.558400	0.057980
Ti11	Ti1	0.632880	0.667840	0.036330
Ti21	Ti2	0.596470	0.579530	0.072730
O31	O3	0.624800	0.592800	0.043220
O41	O4	0.637700	0.670300	0.009520
O51	O5	0.629200	0.738000	0.042960
O61	O6	0.612850	0.660110	0.065900
O71	O7	0.716000	0.706800	0.040030
O81	O8	0.562740	0.586230	0.098430
O91	O9	0.565700	0.503040	0.074190
C81	C8	0.637000	0.554200	0.031060
C91	C9	0.628800	0.663200	0.987320
Ti31	Ti3	0.602930	0.722190	0.072800
C101	C10	0.641200	0.786900	0.030630
P11	P1	0.567560	0.635070	0.111700
C111	C11	0.518300	0.449000	0.076900
C121	C12	0.693700	0.570900	0.029700
C131	C13	0.583100	0.509000	0.021500
C141	C14	0.687700	0.694400	0.978200
C151	C15	0.579100	0.638400	0.979700
O101	O10	0.570000	0.684180	0.099060
O111	O11	0.545700	0.735600	0.068640
C161	C16	0.694700	0.832600	0.031200
C171	C17	0.591400	0.772900	0.017300
C181	C18	0.503400	0.604200	0.126410
C191	C19	0.530600	0.405600	0.069700
C201	C20	0.492000	0.436700	0.096000
C211	C21	0.487600	0.723900	0.071000
C221	C22	0.503300	0.613600	0.145800
C231	C23	0.452900	0.561500	0.118200
C241	C24	0.486800	0.766000	0.085000
C251	C25	0.447400	0.663000	0.075900
H61	H6	0.539300	0.636500	0.152500
C261	C26	0.452300	0.591400	0.157400
C271	C27	0.400100	0.538600	0.128600
H71	H7	0.453700	0.547000	0.105000
H81	H8	0.453600	0.606200	0.170800
C281	C28	0.407500	0.554300	0.150800
H91	H9	0.381300	0.497200	0.127700
H101	H10	0.375700	0.534200	0.159900
I21	I2	0.109520	0.031720	0.313410
Cu21	Cu2	0.019930	0.954800	0.334870
N21	N2	0.042970	0.901530	0.349390
C291	C29	0.097270	0.920830	0.355930
C301	C30	0.002670	0.850730	0.355840
C311	C31	0.950370	0.001430	0.262110
H111	H11	0.127270	0.957130	0.351130
C321	C32	0.110670	0.890430	0.369110
C331	C33	0.012870	0.817630	0.369270
H121	H12	0.964470	0.836130	0.350930
H131	H13	0.952070	0.036230	0.266830
C341	C34	0.068570	0.837730	0.376310
C351	C35	0.172170	0.914530	0.376440
H141	H14	0.982170	0.781230	0.373730
H151	H15	0.077270	0.816030	0.385730
O121	O12	0.210170	0.957230	0.366080
O131	O13	0.181760	0.891730	0.391310
Ti41	Ti4	0.299550	0.001170	0.369670
Ti51	Ti5	0.263140	0.912860	0.406060
O141	O14	0.291470	0.926130	0.376550
O151	O15	0.304370	0.003630	0.342850
O161	O16	0.295870	0.071330	0.376290
O171	O17	0.279520	0.993440	0.399230
O181	O18	0.382670	0.040130	0.373360
O191	O19	0.229410	0.919560	0.431760
O201	O20	0.232370	0.836370	0.407520
C361	C36	0.303670	0.887530	0.364390
C371	C37	0.295470	0.996530	0.320650
Ti61	Ti6	0.269600	0.055520	0.406140
C381	C38	0.307870	0.120230	0.363960
P21	P2	0.234230	0.968400	0.445030
C391	C39	0.184970	0.782330	0.410230
C401	C40	0.360370	0.904230	0.363030
C411	C41	0.249770	0.842330	0.354830
C421	C42	0.354370	0.027730	0.311530
C431	C43	0.245770	0.971730	0.313030
O211	O21	0.236670	0.017510	0.432390
O221	O22	0.212370	0.068930	0.401970
C441	C44	0.361370	0.165930	0.364530
C451	C45	0.258070	0.106230	0.350630
C461	C46	0.170070	0.937530	0.459740
C471	C47	0.197270	0.738930	0.403030
C481	C48	0.158670	0.770030	0.429330
C491	C49	0.154270	0.057230	0.404330
C501	C50	0.169970	0.946930	0.479130
C511	C51	0.119570	0.894830	0.451530
C521	C52	0.153470	0.099330	0.418330
C531	C53	0.114070	0.996330	0.409230
H161	H16	0.205970	0.969830	0.485830
C541	C54	0.118970	0.924730	0.490730
C551	C55	0.066770	0.871930	0.461930
H171	H17	0.120370	0.880330	0.438330
H181	H18	0.120270	0.939530	0.504130
C561	C56	0.074170	0.887630	0.484130
H191	H19	0.047970	0.830530	0.461030
H201	H20	0.042370	0.867530	0.493230
I31	I3	0.776190	0.365060	0.646740
Cu31	Cu3	0.686590	0.288140	0.668200
N31	N3	0.709630	0.234870	0.682730
C571	C57	0.763930	0.254170	0.689270
C581	C58	0.669330	0.184070	0.689180
C591	C59	0.617030	0.334770	0.595450
H211	H21	0.793930	0.290470	0.684470
C601	C60	0.777330	0.223770	0.702450
C611	C61	0.679530	0.150970	0.702610
H221	H22	0.631130	0.169470	0.684270
H231	H23	0.618730	0.369570	0.600170
C621	C62	0.735230	0.171070	0.709650
C631	C63	0.838830	0.247870	0.709780
H241	H24	0.648830	0.114570	0.707070
H251	H25	0.743930	0.149370	0.719070
O231	O23	0.876830	0.290570	0.699420
O241	O24	0.848420	0.225070	0.724650
Ti71	Ti7	0.966210	0.334510	0.703000
Ti81	Ti8	0.929800	0.246200	0.739400
O251	O25	0.958130	0.259470	0.709890
O261	O26	0.971030	0.336970	0.676190
O271	O27	0.962530	0.404670	0.709630
O281	O28	0.946180	0.326780	0.732570
O291	O29	0.049330	0.373470	0.706700
O301	O30	0.896070	0.252900	0.765100
O311	O31	0.899030	0.169710	0.740860
C641	C64	0.970330	0.220870	0.697730
C651	C65	0.962130	0.329870	0.653990
Ti91	Ti9	0.936260	0.388860	0.739470
C661	C66	0.974530	0.453570	0.697300
P31	P3	0.900890	0.301740	0.778370
C671	C67	0.851630	0.115670	0.743570
C681	C68	0.027030	0.237570	0.696370
C691	C69	0.916430	0.175670	0.688170
C701	C70	0.021030	0.361070	0.644870
C711	C71	0.912430	0.305070	0.646370
O321	O32	0.903330	0.350850	0.765730
O331	O33	0.879030	0.402270	0.735310
C721	C72	0.028030	0.499270	0.697870
C731	C73	0.924730	0.439570	0.683970
C741	C74	0.836730	0.270870	0.793080
C751	C75	0.863930	0.072270	0.736370
C761	C76	0.825330	0.103370	0.762670
C771	C77	0.820930	0.390570	0.737670
C781	C78	0.836630	0.280270	0.812470
C791	C79	0.786230	0.228170	0.784870
C801	C80	0.820130	0.432670	0.751670
C811	C81	0.780730	0.329670	0.742570
H261	H26	0.872630	0.303170	0.819170
C821	C82	0.785630	0.258070	0.824070
C831	C83	0.733430	0.205270	0.795270
H271	H27	0.787030	0.213670	0.771670
H281	H28	0.786930	0.272870	0.837470
C841	C84	0.740830	0.220970	0.817470
H291	H29	0.714630	0.163870	0.794370
H301	H30	0.709030	0.200870	0.826570
I41	I4	0.301610	0.744470	0.980080
Cu41	Cu4	0.378530	0.731790	0.001540
N41	N4	0.431800	0.808100	0.016060
C851	C85	0.412500	0.843100	0.022600
C861	C86	0.482600	0.818600	0.022510
C871	C87	0.331900	0.615600	0.928780
H311	H31	0.376200	0.836800	0.017800
C881	C88	0.442900	0.886900	0.035780
C891	C89	0.515700	0.861900	0.035940
H321	H32	0.497200	0.795000	0.017600
H331	H33	0.297100	0.582500	0.933500
C901	C90	0.495600	0.897500	0.042980
C911	C91	0.418800	0.924300	0.043110
H341	H34	0.552100	0.867600	0.040400
H351	H35	0.517300	0.927900	0.052400
O341	O34	0.376100	0.919600	0.032750
O351	O35	0.441600	0.956690	0.057980
Ti101	Ti10	0.332160	0.965040	0.036330
Ti111	Ti11	0.420470	0.016940	0.072730
O361	O36	0.407200	0.032000	0.043220
O371	O37	0.329700	0.967400	0.009520
O381	O38	0.262000	0.891200	0.042960
O391	O39	0.339890	0.952740	0.065900
O401	O40	0.293200	0.009200	0.040030
O411	O41	0.413770	0.976510	0.098430
O421	O42	0.496960	0.062660	0.074190
C921	C92	0.445800	0.082800	0.031060
C931	C93	0.336800	0.965600	0.987320
Ti121	Ti12	0.277810	0.880740	0.072800
C941	C94	0.213100	0.854300	0.030630
P41	P4	0.364930	0.932490	0.111700
C951	C95	0.551000	0.069300	0.076900
C961	C96	0.429100	0.122800	0.029700
C971	C97	0.491000	0.074100	0.021500
C981	C98	0.305600	0.993300	0.978200
C991	C99	0.361600	0.940700	0.979700
O431	O43	0.315820	0.885820	0.099060
O441	O44	0.264400	0.810100	0.068640
C1001	C100	0.167400	0.862100	0.031200
C1011	C101	0.227100	0.818500	0.017300
C1021	C102	0.395800	0.899200	0.126410
C1031	C103	0.594400	0.125000	0.069700
C1041	C104	0.563300	0.055300	0.096000
C1051	C105	0.276100	0.763700	0.071000
C1061	C106	0.386400	0.889700	0.145800
C1071	C107	0.438500	0.891400	0.118200
C1081	C108	0.234000	0.720800	0.085000
C1091	C109	0.337000	0.784400	0.075900
H361	H36	0.363500	0.902800	0.152500
C1101	C110	0.408600	0.860900	0.157400
C1111	C111	0.461400	0.861500	0.128600
H371	H37	0.453000	0.906700	0.105000
H381	H38	0.393800	0.847400	0.170800
C1121	C112	0.445700	0.853200	0.150800
H391	H39	0.502800	0.884100	0.127700
H401	H40	0.465800	0.841500	0.159900
I51	I5	0.968280	0.077800	0.313410
Cu51	Cu5	0.045200	0.065120	0.334870
N51	N5	0.098470	0.141430	0.349390
C1131	C113	0.079170	0.176430	0.355930
C1141	C114	0.149270	0.151930	0.355840
C1151	C115	0.998570	0.948930	0.262110
H411	H41	0.042870	0.170130	0.351130
C1161	C116	0.109570	0.220230	0.369110
C1171	C117	0.182370	0.195230	0.369270
H421	H42	0.163870	0.128330	0.350930
H431	H43	0.963770	0.915830	0.266830
C1181	C118	0.162270	0.230830	0.376310
C1191	C119	0.085470	0.257630	0.376440
H441	H44	0.218770	0.200930	0.373730
H451	H45	0.183970	0.261230	0.385730
O451	O45	0.042770	0.252930	0.366080
O461	O46	0.108270	0.290020	0.391310
Ti131	Ti13	0.998830	0.298370	0.369670
Ti141	Ti14	0.087140	0.350270	0.406060
O471	O47	0.073870	0.365330	0.376550
O481	O48	0.996370	0.300730	0.342850
O491	O49	0.928670	0.224530	0.376290
O501	O50	0.006560	0.286070	0.399230
O511	O51	0.959870	0.342530	0.373360
O521	O52	0.080440	0.309840	0.431760
O531	O53	0.163630	0.395990	0.407520
C1201	C120	0.112470	0.416130	0.364390
C1211	C121	0.003470	0.298930	0.320650
Ti151	Ti15	0.944480	0.214070	0.406140
C1221	C122	0.879770	0.187630	0.363960
P51	P5	0.031600	0.265820	0.445030
C1231	C123	0.217670	0.402630	0.410230
C1241	C124	0.095770	0.456130	0.363030
C1251	C125	0.157670	0.407430	0.354830
C1261	C126	0.972270	0.326630	0.311530
C1271	C127	0.028270	0.274030	0.313030
O541	O54	0.982490	0.219150	0.432390
O551	O55	0.931070	0.143430	0.401970
C1281	C128	0.834070	0.195430	0.364530
C1291	C129	0.893770	0.151830	0.350630
C1301	C130	0.062470	0.232530	0.459740
C1311	C131	0.261070	0.458330	0.403030
C1321	C132	0.229970	0.388630	0.429330
C1331	C133	0.942770	0.097030	0.404330
C1341	C134	0.053070	0.223030	0.479130
C1351	C135	0.105170	0.224730	0.451530
C1361	C136	0.900670	0.054130	0.418330
C1371	C137	0.003670	0.117730	0.409230
H461	H46	0.030170	0.236130	0.485830
C1381	C138	0.075270	0.194230	0.490730
C1391	C139	0.128070	0.194830	0.461930
H471	H47	0.119670	0.240030	0.438330
H481	H48	0.060470	0.180730	0.504130
C1401	C140	0.112370	0.186530	0.484130
H491	H49	0.169470	0.217430	0.461030
H501	H50	0.132470	0.174830	0.493230
I61	I6	0.634940	0.411130	0.646740
Cu61	Cu6	0.711860	0.398460	0.668200
N61	N6	0.765130	0.474770	0.682730
C1411	C141	0.745830	0.509770	0.689270
C1421	C142	0.815930	0.485270	0.689180
C1431	C143	0.665230	0.282270	0.595450
H511	H51	0.709530	0.503470	0.684470
C1441	C144	0.776230	0.553570	0.702450
C1451	C145	0.849030	0.528570	0.702610
H521	H52	0.830530	0.461670	0.684270
H531	H53	0.630430	0.249170	0.600170
C1461	C146	0.828930	0.564170	0.709650
C1471	C147	0.752130	0.590970	0.709780
H541	H54	0.885430	0.534270	0.707070
H551	H55	0.850630	0.594570	0.719070
O561	O56	0.709430	0.586270	0.699420
O571	O57	0.774930	0.623360	0.724650
Ti161	Ti16	0.665490	0.631710	0.703000
Ti171	Ti17	0.753800	0.683610	0.739400
O581	O58	0.740530	0.698670	0.709890
O591	O59	0.663030	0.634070	0.676190
O601	O60	0.595330	0.557870	0.709630
O611	O61	0.673220	0.619410	0.732570
O621	O62	0.626530	0.675870	0.706700
O631	O63	0.747100	0.643180	0.765100
O641	O64	0.830290	0.729330	0.740860
C1481	C148	0.779130	0.749470	0.697730
C1491	C149	0.670130	0.632270	0.653990
Ti181	Ti18	0.611140	0.547410	0.739470
C1501	C150	0.546430	0.520970	0.697300
P61	P6	0.698260	0.599160	0.778370
C1511	C151	0.884330	0.735970	0.743570
C1521	C152	0.762430	0.789470	0.696370
C1531	C153	0.824330	0.740770	0.688170
C1541	C154	0.638930	0.659970	0.644870
C1551	C155	0.694930	0.607370	0.646370
O651	O65	0.649150	0.552490	0.765730
O661	O66	0.597730	0.476770	0.735310
C1561	C156	0.500730	0.528770	0.697870
C1571	C157	0.560430	0.485170	0.683970
C1581	C158	0.729130	0.565870	0.793080
C1591	C159	0.927730	0.791670	0.736370
C1601	C160	0.896630	0.721970	0.762670
C1611	C161	0.609430	0.430370	0.737670
C1621	C162	0.719730	0.556370	0.812470
C1631	C163	0.771830	0.558070	0.784870
C1641	C164	0.567330	0.387470	0.751670
C1651	C165	0.670330	0.451070	0.742570
H561	H56	0.696830	0.569470	0.819170
C1661	C166	0.741930	0.527570	0.824070
C1671	C167	0.794730	0.528170	0.795270
H571	H57	0.786330	0.573370	0.771670
H581	H58	0.727130	0.514070	0.837470
C1681	C168	0.779030	0.519870	0.817470
H591	H59	0.836130	0.550770	0.794370
H601	H60	0.799130	0.508170	0.826570
I71	I7	0.255530	0.557140	0.980080
Cu71	Cu7	0.268210	0.646740	0.001540
N71	N7	0.191900	0.623700	0.016060
C1691	C169	0.156900	0.569400	0.022600
C1701	C170	0.181400	0.664000	0.022510
C1711	C171	0.384400	0.716300	0.928780
H611	H61	0.163200	0.539400	0.017800
C1721	C172	0.113100	0.556000	0.035780
C1731	C173	0.138100	0.653800	0.035940
H621	H62	0.205000	0.702200	0.017600
H631	H63	0.417500	0.714600	0.933500
C1741	C174	0.102500	0.598100	0.042980
C1751	C175	0.075700	0.494500	0.043110
H641	H64	0.132400	0.684500	0.040400
H651	H65	0.072100	0.589400	0.052400
O671	O67	0.080400	0.456500	0.032750
O681	O68	0.043310	0.484910	0.057980
Ti191	Ti19	0.034960	0.367120	0.036330
Ti201	Ti20	0.983060	0.403530	0.072730
O691	O69	0.968000	0.375200	0.043220
O701	O70	0.032600	0.362300	0.009520
O711	O71	0.108800	0.370800	0.042960
O721	O72	0.047260	0.387150	0.065900
O731	O73	0.990800	0.284000	0.040030
O741	O74	0.023490	0.437260	0.098430
O751	O75	0.937340	0.434300	0.074190
C1761	C176	0.917200	0.363000	0.031060
C1771	C177	0.034400	0.371200	0.987320
Ti211	Ti21	0.119260	0.397070	0.072800
C1781	C178	0.145700	0.358800	0.030630
P71	P7	0.067510	0.432440	0.111700
C1791	C179	0.930700	0.481700	0.076900
C1801	C180	0.877200	0.306300	0.029700
C1811	C181	0.925900	0.416900	0.021500
C1821	C182	0.006700	0.312300	0.978200
C1831	C183	0.059300	0.420900	0.979700
O761	O76	0.114180	0.430000	0.099060
O771	O77	0.189900	0.454300	0.068640
C1841	C184	0.137900	0.305300	0.031200
C1851	C185	0.181500	0.408600	0.017300
C1861	C186	0.100800	0.496600	0.126410
C1871	C187	0.875000	0.469400	0.069700
C1881	C188	0.944700	0.508000	0.096000
C1891	C189	0.236300	0.512400	0.071000
C1901	C190	0.110300	0.496700	0.145800
C1911	C191	0.108600	0.547100	0.118200
C1921	C192	0.279200	0.513200	0.085000
C1931	C193	0.215600	0.552600	0.075900
H661	H66	0.097200	0.460700	0.152500
C1941	C194	0.139100	0.547700	0.157400
C1951	C195	0.138500	0.599900	0.128600
H671	H67	0.093300	0.546300	0.105000
H681	H68	0.152600	0.546400	0.170800
C1961	C196	0.146800	0.592500	0.150800
H691	H69	0.115900	0.618700	0.127700
H701	H70	0.158500	0.624300	0.159900
I81	I8	0.922200	0.890480	0.313410
Cu81	Cu8	0.934880	0.980070	0.334870
N81	N8	0.858570	0.957030	0.349390
C1971	C197	0.823570	0.902730	0.355930
C1981	C198	0.848070	0.997330	0.355840
C1991	C199	0.051070	0.049630	0.262110
H711	H71	0.829870	0.872730	0.351130
C2001	C200	0.779770	0.889330	0.369110
C2011	C201	0.804770	0.987130	0.369270
H721	H72	0.871670	0.035530	0.350930
H731	H73	0.084170	0.047930	0.266830
C2021	C202	0.769170	0.931430	0.376310
C2031	C203	0.742370	0.827830	0.376440
H741	H74	0.799070	0.017830	0.373730
H751	H75	0.738770	0.922730	0.385730
O781	O78	0.747070	0.789830	0.366080
O791	O79	0.709980	0.818240	0.391310
Ti221	Ti22	0.701630	0.700450	0.369670
Ti231	Ti23	0.649730	0.736860	0.406060
O801	O80	0.634670	0.708530	0.376550
O811	O81	0.699270	0.695630	0.342850
O821	O82	0.775470	0.704130	0.376290
O831	O83	0.713930	0.720480	0.399230
O841	O84	0.657470	0.617330	0.373360
O851	O85	0.690160	0.770590	0.431760
O861	O86	0.604010	0.767630	0.407520
C2041	C204	0.583870	0.696330	0.364390
C2051	C205	0.701070	0.704530	0.320650
Ti241	Ti24	0.785930	0.730400	0.406140
C2061	C206	0.812370	0.692130	0.363960
P81	P8	0.734180	0.765770	0.445030
C2071	C207	0.597370	0.815030	0.410230
C2081	C208	0.543870	0.639630	0.363030
C2091	C209	0.592570	0.750230	0.354830
C2101	C210	0.673370	0.645630	0.311530
C2111	C211	0.725970	0.754230	0.313030
O871	O87	0.780850	0.763330	0.432390
O881	O88	0.856570	0.787630	0.401970
C2121	C212	0.804570	0.638630	0.364530
C2131	C213	0.848170	0.741930	0.350630
C2141	C214	0.767470	0.829930	0.459740
C2151	C215	0.541670	0.802730	0.403030
C2161	C216	0.611370	0.841330	0.429330
C2171	C217	0.902970	0.845730	0.404330
C2181	C218	0.776970	0.830030	0.479130
C2191	C219	0.775270	0.880430	0.451530
C2201	C220	0.945870	0.846530	0.418330
C2211	C221	0.882270	0.885930	0.409230
H761	H76	0.763870	0.794030	0.485830
C2221	C222	0.805770	0.881030	0.490730
C2231	C223	0.805170	0.933230	0.461930
H771	H77	0.759970	0.879630	0.438330
H781	H78	0.819270	0.879730	0.504130
C2241	C224	0.813470	0.925830	0.484130
H791	H79	0.782570	0.952030	0.461030
H801	H80	0.825170	0.957630	0.493230
I91	I9	0.588870	0.223810	0.646740
Cu91	Cu9	0.601540	0.313410	0.668200
N91	N9	0.525230	0.290370	0.682730
C2251	C225	0.490230	0.236070	0.689270
C2261	C226	0.514730	0.330670	0.689180
C2271	C227	0.717730	0.382970	0.595450
H811	H81	0.496530	0.206070	0.684470
C2281	C228	0.446430	0.222670	0.702450
C2291	C229	0.471430	0.320470	0.702610
H821	H82	0.538330	0.368870	0.684270
H831	H83	0.750830	0.381270	0.600170
C2301	C230	0.435830	0.264770	0.709650
C2311	C231	0.409030	0.161170	0.709780
H841	H84	0.465730	0.351170	0.707070
H851	H85	0.405430	0.256070	0.719070
O891	O89	0.413730	0.123170	0.699420
O901	O90	0.376640	0.151580	0.724650
Ti251	Ti25	0.368290	0.033790	0.703000
Ti261	Ti26	0.316390	0.070200	0.739400
O911	O91	0.301330	0.041870	0.709890
O921	O92	0.365930	0.028970	0.676190
O931	O93	0.442130	0.037470	0.709630
O941	O94	0.380590	0.053820	0.732570
O951	O95	0.324130	0.950670	0.706700
O961	O96	0.356820	0.103930	0.765100
O971	O97	0.270670	0.100970	0.740860
C2321	C232	0.250530	0.029670	0.697730
C2331	C233	0.367730	0.037870	0.653990
Ti271	Ti27	0.452590	0.063740	0.739470
C2341	C234	0.479030	0.025470	0.697300
P91	P9	0.400840	0.099110	0.778370
C2351	C235	0.264030	0.148370	0.743570
C2361	C236	0.210530	0.972970	0.696370
C2371	C237	0.259230	0.083570	0.688170
C2381	C238	0.340030	0.978970	0.644870
C2391	C239	0.392630	0.087570	0.646370
O981	O98	0.447510	0.096670	0.765730
O991	O99	0.523230	0.120970	0.735310
C2401	C240	0.471230	0.971970	0.697870
C2411	C241	0.514830	0.075270	0.683970
C2421	C242	0.434130	0.163270	0.793080
C2431	C243	0.208330	0.136070	0.736370
C2441	C244	0.278030	0.174670	0.762670
C2451	C245	0.569630	0.179070	0.737670
C2461	C246	0.443630	0.163370	0.812470
C2471	C247	0.441930	0.213770	0.784870
C2481	C248	0.612530	0.179870	0.751670
C2491	C249	0.548930	0.219270	0.742570
H861	H86	0.430530	0.127370	0.819170
C2501	C250	0.472430	0.214370	0.824070
C2511	C251	0.471830	0.266570	0.795270
H871	H87	0.426630	0.212970	0.771670
H881	H88	0.485930	0.213070	0.837470
C2521	C252	0.480130	0.259170	0.817470
H891	H89	0.449230	0.285370	0.794370
H901	H90	0.491830	0.290970	0.826570
I101	I10	0.698390	0.442860	0.519920
Cu101	Cu10	0.621470	0.353260	0.498460
N101	N10	0.568200	0.376300	0.483940
C2531	C253	0.587500	0.430600	0.477400
C2541	C254	0.517400	0.336000	0.477490
C2551	C255	0.668100	0.283700	0.571220
H911	H91	0.623800	0.460600	0.482200
C2561	C256	0.557100	0.444000	0.464220
C2571	C257	0.484300	0.346200	0.464060
H921	H92	0.502800	0.297800	0.482400
H931	H93	0.702900	0.285400	0.566500
C2581	C258	0.504400	0.401900	0.457020
C2591	C259	0.581200	0.505500	0.456890
H941	H94	0.447900	0.315500	0.459600
H951	H95	0.482700	0.410600	0.447600
O1001	O100	0.623900	0.543500	0.467250
O1011	O101	0.558400	0.515090	0.442020
Ti281	Ti28	0.667840	0.632880	0.463670
Ti291	Ti29	0.579530	0.596470	0.427270
O1021	O102	0.592800	0.624800	0.456780
O1031	O103	0.670300	0.637700	0.490480
O1041	O104	0.738000	0.629200	0.457040
O1051	O105	0.660110	0.612850	0.434100
O1061	O106	0.706800	0.716000	0.459970
O1071	O107	0.586230	0.562740	0.401570
O1081	O108	0.503040	0.565700	0.425810
C2601	C260	0.554200	0.637000	0.468940
C2611	C261	0.663200	0.628800	0.512680
Ti301	Ti30	0.722190	0.602930	0.427200
C2621	C262	0.786900	0.641200	0.469370
P101	P10	0.635070	0.567560	0.388300
C2631	C263	0.449000	0.518300	0.423100
C2641	C264	0.570900	0.693700	0.470300
C2651	C265	0.509000	0.583100	0.478500
C2661	C266	0.694400	0.687700	0.521800
C2671	C267	0.638400	0.579100	0.520300
O1091	O109	0.684180	0.570000	0.400940
O1101	O110	0.735600	0.545700	0.431360
C2681	C268	0.832600	0.694700	0.468800
C2691	C269	0.772900	0.591400	0.482700
C2701	C270	0.604200	0.503400	0.373590
C2711	C271	0.405600	0.530600	0.430300
C2721	C272	0.436700	0.492000	0.404000
C2731	C273	0.723900	0.487600	0.429000
C2741	C274	0.613600	0.503300	0.354200
C2751	C275	0.561500	0.452900	0.381800
C2761	C276	0.766000	0.486800	0.415000
C2771	C277	0.663000	0.447400	0.424100
H961	H96	0.636500	0.539300	0.347500
C2781	C278	0.591400	0.452300	0.342600
C2791	C279	0.538600	0.400100	0.371400
H971	H97	0.547000	0.453700	0.395000
H981	H98	0.606200	0.453600	0.329200
C2801	C280	0.554300	0.407500	0.349200
H991	H99	0.497200	0.381300	0.372300
H1001	H100	0.534200	0.375700	0.340100
I111	I11	0.365060	0.776190	0.853260
Cu111	Cu11	0.288140	0.686590	0.831800
N111	N11	0.234870	0.709630	0.817270
C2811	C281	0.254170	0.763930	0.810730
C2821	C282	0.184070	0.669330	0.810820
C2831	C283	0.334770	0.617030	0.904550
H1011	H101	0.290470	0.793930	0.815530
C2841	C284	0.223770	0.777330	0.797550
C2851	C285	0.150970	0.679530	0.797390
H1021	H102	0.169470	0.631130	0.815730
H1031	H103	0.369570	0.618730	0.899830
C2861	C286	0.171070	0.735230	0.790350
C2871	C287	0.247870	0.838830	0.790220
H1041	H104	0.114570	0.648830	0.792930
H1051	H105	0.149370	0.743930	0.780930
O1111	O111	0.290570	0.876830	0.800580
O1121	O112	0.225070	0.848420	0.775350
Ti311	Ti31	0.334510	0.966210	0.797000
Ti321	Ti32	0.246200	0.929800	0.760600
O1131	O113	0.259470	0.958130	0.790110
O1141	O114	0.336970	0.971030	0.823810
O1151	O115	0.404670	0.962530	0.790370
O1161	O116	0.326780	0.946180	0.767430
O1171	O117	0.373470	0.049330	0.793300
O1181	O118	0.252900	0.896070	0.734900
O1191	O119	0.169710	0.899030	0.759140
C2881	C288	0.220870	0.970330	0.802270
C2891	C289	0.329870	0.962130	0.846010
Ti331	Ti33	0.388860	0.936260	0.760530
C2901	C290	0.453570	0.974530	0.802700
P111	P11	0.301740	0.900890	0.721630
C2911	C291	0.115670	0.851630	0.756430
C2921	C292	0.237570	0.027030	0.803630
C2931	C293	0.175670	0.916430	0.811830
C2941	C294	0.361070	0.021030	0.855130
C2951	C295	0.305070	0.912430	0.853630
O1201	O120	0.350850	0.903330	0.734270
O1211	O121	0.402270	0.879030	0.764690
C2961	C296	0.499270	0.028030	0.802130
C2971	C297	0.439570	0.924730	0.816030
C2981	C298	0.270870	0.836730	0.706920
C2991	C299	0.072270	0.863930	0.763630
C3001	C300	0.103370	0.825330	0.737330
C3011	C301	0.390570	0.820930	0.762330
C3021	C302	0.280270	0.836630	0.687530
C3031	C303	0.228170	0.786230	0.715130
C3041	C304	0.432670	0.820130	0.748330
C3051	C305	0.329670	0.780730	0.757430
H1061	H106	0.303170	0.872630	0.680830
C3061	C306	0.258070	0.785630	0.675930
C3071	C307	0.205270	0.733430	0.704730
H1071	H107	0.213670	0.787030	0.728330
H1081	H108	0.272870	0.786930	0.662530
C3081	C308	0.220970	0.740830	0.682530
H1091	H109	0.163870	0.714630	0.705630
H1101	H110	0.200870	0.709030	0.673430
I121	I12	0.031720	0.109520	0.186590
Cu121	Cu12	0.954800	0.019930	0.165130
N121	N12	0.901530	0.042970	0.150610
C3091	C309	0.920830	0.097270	0.144070
C3101	C310	0.850730	0.002670	0.144160
C3111	C311	0.001430	0.950370	0.237890
H1111	H111	0.957130	0.127270	0.148870
C3121	C312	0.890430	0.110670	0.130890
C3131	C313	0.817630	0.012870	0.130730
H1121	H112	0.836130	0.964470	0.149070
H1131	H113	0.036230	0.952070	0.233170
C3141	C314	0.837730	0.068570	0.123690
C3151	C315	0.914530	0.172170	0.123560
H1141	H114	0.781230	0.982170	0.126270
H1151	H115	0.816030	0.077270	0.114270
O1221	O122	0.957230	0.210170	0.133920
O1231	O123	0.891730	0.181760	0.108690
Ti341	Ti34	0.001170	0.299550	0.130330
Ti351	Ti35	0.912860	0.263140	0.093940
O1241	O124	0.926130	0.291470	0.123450
O1251	O125	0.003630	0.304370	0.157150
O1261	O126	0.071330	0.295870	0.123710
O1271	O127	0.993440	0.279520	0.100770
O1281	O128	0.040130	0.382670	0.126640
O1291	O129	0.919560	0.229410	0.068240
O1301	O130	0.836370	0.232370	0.092480
C3161	C316	0.887530	0.303670	0.135610
C3171	C317	0.996530	0.295470	0.179350
Ti361	Ti36	0.055520	0.269600	0.093860
C3181	C318	0.120230	0.307870	0.136040
P121	P12	0.968400	0.234230	0.054970
C3191	C319	0.782330	0.184970	0.089770
C3201	C320	0.904230	0.360370	0.136970
C3211	C321	0.842330	0.249770	0.145170
C3221	C322	0.027730	0.354370	0.188470
C3231	C323	0.971730	0.245770	0.186970
O1311	O131	0.017510	0.236670	0.067610
O1321	O132	0.068930	0.212370	0.098030
C3241	C324	0.165930	0.361370	0.135470
C3251	C325	0.106230	0.258070	0.149370
C3261	C326	0.937530	0.170070	0.040260
C3271	C327	0.738930	0.197270	0.096970
C3281	C328	0.770030	0.158670	0.070670
C3291	C329	0.057230	0.154270	0.095670
C3301	C330	0.946930	0.169970	0.020870
C3311	C331	0.894830	0.119570	0.048470
C3321	C332	0.099330	0.153470	0.081670
C3331	C333	0.996330	0.114070	0.090770
H1161	H116	0.969830	0.205970	0.014170
C3341	C334	0.924730	0.118970	0.009270
C3351	C335	0.871930	0.066770	0.038070
H1171	H117	0.880330	0.120370	0.061670
H1181	H118	0.939530	0.120270	0.995870
C3361	C336	0.887630	0.074170	0.015870
H1191	H119	0.830530	0.047970	0.038970
H1201	H120	0.867530	0.042370	0.006770
I131	I13	0.744470	0.301610	0.519920
Cu131	Cu13	0.731790	0.378530	0.498460
N131	N13	0.808100	0.431800	0.483940
C3371	C337	0.843100	0.412500	0.477400
C3381	C338	0.818600	0.482600	0.477490
C3391	C339	0.615600	0.331900	0.571220
H1211	H121	0.836800	0.376200	0.482200
C3401	C340	0.886900	0.442900	0.464220
C3411	C341	0.861900	0.515700	0.464060
H1221	H122	0.795000	0.497200	0.482400
H1231	H123	0.582500	0.297100	0.566500
C3421	C342	0.897500	0.495600	0.457020
C3431	C343	0.924300	0.418800	0.456890
H1241	H124	0.867600	0.552100	0.459600
H1251	H125	0.927900	0.517300	0.447600
O1331	O133	0.919600	0.376100	0.467250
O1341	O134	0.956690	0.441600	0.442020
Ti371	Ti37	0.965040	0.332160	0.463670
Ti381	Ti38	0.016940	0.420470	0.427270
O1351	O135	0.032000	0.407200	0.456780
O1361	O136	0.967400	0.329700	0.490480
O1371	O137	0.891200	0.262000	0.457040
O1381	O138	0.952740	0.339890	0.434100
O1391	O139	0.009200	0.293200	0.459970
O1401	O140	0.976510	0.413770	0.401570
O1411	O141	0.062660	0.496960	0.425810
C3441	C344	0.082800	0.445800	0.468940
C3451	C345	0.965600	0.336800	0.512680
Ti391	Ti39	0.880740	0.277810	0.427200
C3461	C346	0.854300	0.213100	0.469370
P131	P13	0.932490	0.364930	0.388300
C3471	C347	0.069300	0.551000	0.423100
C3481	C348	0.122800	0.429100	0.470300
C3491	C349	0.074100	0.491000	0.478500
C3501	C350	0.993300	0.305600	0.521800
C3511	C351	0.940700	0.361600	0.520300
O1421	O142	0.885820	0.315820	0.400940
O1431	O143	0.810100	0.264400	0.431360
C3521	C352	0.862100	0.167400	0.468800
C3531	C353	0.818500	0.227100	0.482700
C3541	C354	0.899200	0.395800	0.373590
C3551	C355	0.125000	0.594400	0.430300
C3561	C356	0.055300	0.563300	0.404000
C3571	C357	0.763700	0.276100	0.429000
C3581	C358	0.889700	0.386400	0.354200
C3591	C359	0.891400	0.438500	0.381800
C3601	C360	0.720800	0.234000	0.415000
C3611	C361	0.784400	0.337000	0.424100
H1261	H126	0.902800	0.363500	0.347500
C3621	C362	0.860900	0.408600	0.342600
C3631	C363	0.861500	0.461400	0.371400
H1271	H127	0.906700	0.453000	0.395000
H1281	H128	0.847400	0.393800	0.329200
C3641	C364	0.853200	0.445700	0.349200
H1291	H129	0.884100	0.502800	0.372300
H1301	H130	0.841500	0.465800	0.340100
I141	I14	0.411130	0.634940	0.853260
Cu141	Cu14	0.398460	0.711860	0.831800
N141	N14	0.474770	0.765130	0.817270
C3651	C365	0.509770	0.745830	0.810730
C3661	C366	0.485270	0.815930	0.810820
C3671	C367	0.282270	0.665230	0.904550
H1311	H131	0.503470	0.709530	0.815530
C3681	C368	0.553570	0.776230	0.797550
C3691	C369	0.528570	0.849030	0.797390
H1321	H132	0.461670	0.830530	0.815730
H1331	H133	0.249170	0.630430	0.899830
C3701	C370	0.564170	0.828930	0.790350
C3711	C371	0.590970	0.752130	0.790220
H1341	H134	0.534270	0.885430	0.792930
H1351	H135	0.594570	0.850630	0.780930
O1441	O144	0.586270	0.709430	0.800580
O1451	O145	0.623360	0.774930	0.775350
Ti401	Ti40	0.631710	0.665490	0.797000
Ti411	Ti41	0.683610	0.753800	0.760600
O1461	O146	0.698670	0.740530	0.790110
O1471	O147	0.634070	0.663030	0.823810
O1481	O148	0.557870	0.595330	0.790370
O1491	O149	0.619410	0.673220	0.767430
O1501	O150	0.675870	0.626530	0.793300
O1511	O151	0.643180	0.747100	0.734900
O1521	O152	0.729330	0.830290	0.759140
C3721	C372	0.749470	0.779130	0.802270
C3731	C373	0.632270	0.670130	0.846010
Ti421	Ti42	0.547410	0.611140	0.760530
C3741	C374	0.520970	0.546430	0.802700
P141	P14	0.599160	0.698260	0.721630
C3751	C375	0.735970	0.884330	0.756430
C3761	C376	0.789470	0.762430	0.803630
C3771	C377	0.740770	0.824330	0.811830
C3781	C378	0.659970	0.638930	0.855130
C3791	C379	0.607370	0.694930	0.853630
O1531	O153	0.552490	0.649150	0.734270
O1541	O154	0.476770	0.597730	0.764690
C3801	C380	0.528770	0.500730	0.802130
C3811	C381	0.485170	0.560430	0.816030
C3821	C382	0.565870	0.729130	0.706920
C3831	C383	0.791670	0.927730	0.763630
C3841	C384	0.721970	0.896630	0.737330
C3851	C385	0.430370	0.609430	0.762330
C3861	C386	0.556370	0.719730	0.687530
C3871	C387	0.558070	0.771830	0.715130
C3881	C388	0.387470	0.567330	0.748330
C3891	C389	0.451070	0.670330	0.757430
H1361	H136	0.569470	0.696830	0.680830
C3901	C390	0.527570	0.741930	0.675930
C3911	C391	0.528170	0.794730	0.704730
H1371	H137	0.573370	0.786330	0.728330
H1381	H138	0.514070	0.727130	0.662530
C3921	C392	0.519870	0.779030	0.682530
H1391	H139	0.550770	0.836130	0.705630
H1401	H140	0.508170	0.799130	0.673430
I151	I15	0.077800	0.968280	0.186590
Cu151	Cu15	0.065120	0.045200	0.165130
N151	N15	0.141430	0.098470	0.150610
C3931	C393	0.176430	0.079170	0.144070
C3941	C394	0.151930	0.149270	0.144160
C3951	C395	0.948930	0.998570	0.237890
H1411	H141	0.170130	0.042870	0.148870
C3961	C396	0.220230	0.109570	0.130890
C3971	C397	0.195230	0.182370	0.130730
H1421	H142	0.128330	0.163870	0.149070
H1431	H143	0.915830	0.963770	0.233170
C3981	C398	0.230830	0.162270	0.123690
C3991	C399	0.257630	0.085470	0.123560
H1441	H144	0.200930	0.218770	0.126270
H1451	H145	0.261230	0.183970	0.114270
O1551	O155	0.252930	0.042770	0.133920
O1561	O156	0.290020	0.108270	0.108690
Ti431	Ti43	0.298370	0.998830	0.130330
Ti441	Ti44	0.350270	0.087140	0.093940
O1571	O157	0.365330	0.073870	0.123450
O1581	O158	0.300730	0.996370	0.157150
O1591	O159	0.224530	0.928670	0.123710
O1601	O160	0.286070	0.006560	0.100770
O1611	O161	0.342530	0.959870	0.126640
O1621	O162	0.309840	0.080440	0.068240
O1631	O163	0.395990	0.163630	0.092480
C4001	C400	0.416130	0.112470	0.135610
C4011	C401	0.298930	0.003470	0.179350
Ti451	Ti45	0.214070	0.944480	0.093860
C4021	C402	0.187630	0.879770	0.136040
P151	P15	0.265820	0.031600	0.054970
C4031	C403	0.402630	0.217670	0.089770
C4041	C404	0.456130	0.095770	0.136970
C4051	C405	0.407430	0.157670	0.145170
C4061	C406	0.326630	0.972270	0.188470
C4071	C407	0.274030	0.028270	0.186970
O1641	O164	0.219150	0.982490	0.067610
O1651	O165	0.143430	0.931070	0.098030
C4081	C408	0.195430	0.834070	0.135470
C4091	C409	0.151830	0.893770	0.149370
C4101	C410	0.232530	0.062470	0.040260
C4111	C411	0.458330	0.261070	0.096970
C4121	C412	0.388630	0.229970	0.070670
C4131	C413	0.097030	0.942770	0.095670
C4141	C414	0.223030	0.053070	0.020870
C4151	C415	0.224730	0.105170	0.048470
C4161	C416	0.054130	0.900670	0.081670
C4171	C417	0.117730	0.003670	0.090770
H1461	H146	0.236130	0.030170	0.014170
C4181	C418	0.194230	0.075270	0.009270
C4191	C419	0.194830	0.128070	0.038070
H1471	H147	0.240030	0.119670	0.061670
H1481	H148	0.180730	0.060470	0.995870
C4201	C420	0.186530	0.112370	0.015870
H1491	H149	0.217430	0.169470	0.038970
H1501	H150	0.174830	0.132470	0.006770
I161	I16	0.557140	0.255530	0.519920
Cu161	Cu16	0.646740	0.268210	0.498460
N161	N16	0.623700	0.191900	0.483940
C4211	C421	0.569400	0.156900	0.477400
C4221	C422	0.664000	0.181400	0.477490
C4231	C423	0.716300	0.384400	0.571220
H1511	H151	0.539400	0.163200	0.482200
C4241	C424	0.556000	0.113100	0.464220
C4251	C425	0.653800	0.138100	0.464060
H1521	H152	0.702200	0.205000	0.482400
H1531	H153	0.714600	0.417500	0.566500
C4261	C426	0.598100	0.102500	0.457020
C4271	C427	0.494500	0.075700	0.456890
H1541	H154	0.684500	0.132400	0.459600
H1551	H155	0.589400	0.072100	0.447600
O1661	O166	0.456500	0.080400	0.467250
O1671	O167	0.484910	0.043310	0.442020
Ti461	Ti46	0.367120	0.034960	0.463670
Ti471	Ti47	0.403530	0.983060	0.427270
O1681	O168	0.375200	0.968000	0.456780
O1691	O169	0.362300	0.032600	0.490480
O1701	O170	0.370800	0.108800	0.457040
O1711	O171	0.387150	0.047260	0.434100
O1721	O172	0.284000	0.990800	0.459970
O1731	O173	0.437260	0.023490	0.401570
O1741	O174	0.434300	0.937340	0.425810
C4281	C428	0.363000	0.917200	0.468940
C4291	C429	0.371200	0.034400	0.512680
Ti481	Ti48	0.397070	0.119260	0.427200
C4301	C430	0.358800	0.145700	0.469370
P161	P16	0.432440	0.067510	0.388300
C4311	C431	0.481700	0.930700	0.423100
C4321	C432	0.306300	0.877200	0.470300
C4331	C433	0.416900	0.925900	0.478500
C4341	C434	0.312300	0.006700	0.521800
C4351	C435	0.420900	0.059300	0.520300
O1751	O175	0.430000	0.114180	0.400940
O1761	O176	0.454300	0.189900	0.431360
C4361	C436	0.305300	0.137900	0.468800
C4371	C437	0.408600	0.181500	0.482700
C4381	C438	0.496600	0.100800	0.373590
C4391	C439	0.469400	0.875000	0.430300
C4401	C440	0.508000	0.944700	0.404000
C4411	C441	0.512400	0.236300	0.429000
C4421	C442	0.496700	0.110300	0.354200
C4431	C443	0.547100	0.108600	0.381800
C4441	C444	0.513200	0.279200	0.415000
C4451	C445	0.552600	0.215600	0.424100
H1561	H156	0.460700	0.097200	0.347500
C4461	C446	0.547700	0.139100	0.342600
C4471	C447	0.599900	0.138500	0.371400
H1571	H157	0.546300	0.093300	0.395000
H1581	H158	0.546400	0.152600	0.329200
C4481	C448	0.592500	0.146800	0.349200
H1591	H159	0.618700	0.115900	0.372300
H1601	H160	0.624300	0.158500	0.340100
I171	I17	0.223810	0.588870	0.853260
Cu171	Cu17	0.313410	0.601540	0.831800
N171	N17	0.290370	0.525230	0.817270
C4491	C449	0.236070	0.490230	0.810730
C4501	C450	0.330670	0.514730	0.810820
C4511	C451	0.382970	0.717730	0.904550
H1611	H161	0.206070	0.496530	0.815530
C4521	C452	0.222670	0.446430	0.797550
C4531	C453	0.320470	0.471430	0.797390
H1621	H162	0.368870	0.538330	0.815730
H1631	H163	0.381270	0.750830	0.899830
C4541	C454	0.264770	0.435830	0.790350
C4551	C455	0.161170	0.409030	0.790220
H1641	H164	0.351170	0.465730	0.792930
H1651	H165	0.256070	0.405430	0.780930
O1771	O177	0.123170	0.413730	0.800580
O1781	O178	0.151580	0.376640	0.775350
Ti491	Ti49	0.033790	0.368290	0.797000
Ti501	Ti50	0.070200	0.316390	0.760600
O1791	O179	0.041870	0.301330	0.790110
O1801	O180	0.028970	0.365930	0.823810
O1811	O181	0.037470	0.442130	0.790370
O1821	O182	0.053820	0.380590	0.767430
O1831	O183	0.950670	0.324130	0.793300
O1841	O184	0.103930	0.356820	0.734900
O1851	O185	0.100970	0.270670	0.759140
C4561	C456	0.029670	0.250530	0.802270
C4571	C457	0.037870	0.367730	0.846010
Ti511	Ti51	0.063740	0.452590	0.760530
C4581	C458	0.025470	0.479030	0.802700
P171	P17	0.099110	0.400840	0.721630
C4591	C459	0.148370	0.264030	0.756430
C4601	C460	0.972970	0.210530	0.803630
C4611	C461	0.083570	0.259230	0.811830
C4621	C462	0.978970	0.340030	0.855130
C4631	C463	0.087570	0.392630	0.853630
O1861	O186	0.096670	0.447510	0.734270
O1871	O187	0.120970	0.523230	0.764690
C4641	C464	0.971970	0.471230	0.802130
C4651	C465	0.075270	0.514830	0.816030
C4661	C466	0.163270	0.434130	0.706920
C4671	C467	0.136070	0.208330	0.763630
C4681	C468	0.174670	0.278030	0.737330
C4691	C469	0.179070	0.569630	0.762330
C4701	C470	0.163370	0.443630	0.687530
C4711	C471	0.213770	0.441930	0.715130
C4721	C472	0.179870	0.612530	0.748330
C4731	C473	0.219270	0.548930	0.757430
H1661	H166	0.127370	0.430530	0.680830
C4741	C474	0.214370	0.472430	0.675930
C4751	C475	0.266570	0.471830	0.704730
H1671	H167	0.212970	0.426630	0.728330
H1681	H168	0.213070	0.485930	0.662530
C4761	C476	0.259170	0.480130	0.682530
H1691	H169	0.285370	0.449230	0.705630
H1701	H170	0.290970	0.491830	0.673430
I181	I18	0.890480	0.922200	0.186590
Cu181	Cu18	0.980070	0.934880	0.165130
N181	N18	0.957030	0.858570	0.150610
C4771	C477	0.902730	0.823570	0.144070
C4781	C478	0.997330	0.848070	0.144160
C4791	C479	0.049630	0.051070	0.237890
H1711	H171	0.872730	0.829870	0.148870
C4801	C480	0.889330	0.779770	0.130890
C4811	C481	0.987130	0.804770	0.130730
H1721	H172	0.035530	0.871670	0.149070
H1731	H173	0.047930	0.084170	0.233170
C4821	C482	0.931430	0.769170	0.123690
C4831	C483	0.827830	0.742370	0.123560
H1741	H174	0.017830	0.799070	0.126270
H1751	H175	0.922730	0.738770	0.114270
O1881	O188	0.789830	0.747070	0.133920
O1891	O189	0.818240	0.709980	0.108690
Ti521	Ti52	0.700450	0.701630	0.130330
Ti531	Ti53	0.736860	0.649730	0.093940
O1901	O190	0.708530	0.634670	0.123450
O1911	O191	0.695630	0.699270	0.157150
O1921	O192	0.704130	0.775470	0.123710
O1931	O193	0.720480	0.713930	0.100770
O1941	O194	0.617330	0.657470	0.126640
O1951	O195	0.770590	0.690160	0.068240
O1961	O196	0.767630	0.604010	0.092480
C4841	C484	0.696330	0.583870	0.135610
C4851	C485	0.704530	0.701070	0.179350
Ti541	Ti54	0.730400	0.785930	0.093860
C4861	C486	0.692130	0.812370	0.136040
P181	P18	0.765770	0.734180	0.054970
C4871	C487	0.815030	0.597370	0.089770
C4881	C488	0.639630	0.543870	0.136970
C4891	C489	0.750230	0.592570	0.145170
C4901	C490	0.645630	0.673370	0.188470
C4911	C491	0.754230	0.725970	0.186970
O1971	O197	0.763330	0.780850	0.067610
O1981	O198	0.787630	0.856570	0.098030
C4921	C492	0.638630	0.804570	0.135470
C4931	C493	0.741930	0.848170	0.149370
C4941	C494	0.829930	0.767470	0.040260
C4951	C495	0.802730	0.541670	0.096970
C4961	C496	0.841330	0.611370	0.070670
C4971	C497	0.845730	0.902970	0.095670
C4981	C498	0.830030	0.776970	0.020870
C4991	C499	0.880430	0.775270	0.048470
C5001	C500	0.846530	0.945870	0.081670
C5011	C501	0.885930	0.882270	0.090770
H1761	H176	0.794030	0.763870	0.014170
C5021	C502	0.881030	0.805770	0.009270
C5031	C503	0.933230	0.805170	0.038070
H1771	H177	0.879630	0.759970	0.061670
H1781	H178	0.879730	0.819270	0.995870
C5041	C504	0.925830	0.813470	0.015870
H1791	H179	0.952030	0.782570	0.038970
H1801	H180	0.957630	0.825170	0.006770
Cu191	Cu19	0.333330	0.666670	0.968560
I191	I19	0.333330	0.666670	0.035840
N191	N19	0.333330	0.666670	0.936470
Cu201	Cu20	0.000000	0.000000	0.301890
I201	I20	0.000000	0.000000	0.369170
N201	N20	0.000000	0.000000	0.269800
Cu211	Cu21	0.666670	0.333330	0.635230
I211	I21	0.666670	0.333330	0.702500
N211	N21	0.666670	0.333330	0.603140
Cu221	Cu22	0.666670	0.333330	0.531440
I221	I22	0.666670	0.333330	0.464160
N221	N22	0.666670	0.333330	0.563530
Cu231	Cu23	0.333330	0.666670	0.864770
I231	I23	0.333330	0.666670	0.797500
N231	N23	0.333330	0.666670	0.896860
Cu241	Cu24	0.000000	0.000000	0.198110
I241	I24	0.000000	0.000000	0.130830
N241	N24	0.000000	0.000000	0.230200
O1991	O199	0.666670	0.602380	0.083330
O2001	O200	0.666670	0.783580	0.083330
O2011	O201	0.397620	0.064280	0.083330
O2021	O202	0.216420	0.883080	0.083330
O2031	O203	0.935720	0.333330	0.083330
O2041	O204	0.116920	0.333330	0.083330
O2051	O205	0.602380	0.666670	0.416670
O2061	O206	0.783580	0.666670	0.416670
O2071	O207	0.269050	0.000000	0.750000
O2081	O208	0.450250	0.000000	0.750000
O2091	O209	0.064280	0.397620	0.416670
O2101	O210	0.883080	0.216420	0.416670
O2111	O211	0.730950	0.730950	0.750000
O2121	O212	0.549750	0.549750	0.750000
O2131	O213	0.333330	0.935720	0.416670
O2141	O214	0.333330	0.116920	0.416670
O2151	O215	0.000000	0.269050	0.750000
O2161	O216	0.000000	0.450250	0.750000
I251	I25	0.557140	0.301610	0.019920
Cu251	Cu25	0.646740	0.378530	0.998470
N251	N25	0.623700	0.431800	0.983940
C5051	C505	0.569400	0.412500	0.977400
C5061	C506	0.664000	0.482600	0.977490
C5071	C507	0.716300	0.331900	0.071220
H1811	H181	0.539400	0.376200	0.982200
C5081	C508	0.556000	0.442900	0.964220
C5091	C509	0.653800	0.515700	0.964060
H1821	H182	0.702200	0.497200	0.982400
H1831	H183	0.714600	0.297100	0.066500
C5101	C510	0.598100	0.495600	0.957020
C5111	C511	0.494500	0.418800	0.956890
H1841	H184	0.684500	0.552100	0.959600
H1851	H185	0.589400	0.517300	0.947600
O2171	O217	0.456500	0.376100	0.967250
O2181	O218	0.484910	0.441600	0.942020
Ti551	Ti55	0.367120	0.332160	0.963670
Ti561	Ti56	0.403530	0.420470	0.927270
O2191	O219	0.375200	0.407200	0.956780
O2201	O220	0.362300	0.329700	0.990480
O2211	O221	0.370800	0.262000	0.957040
O2221	O222	0.387150	0.339890	0.934100
O2231	O223	0.284000	0.293200	0.959970
O2241	O224	0.437260	0.413770	0.901570
O2251	O225	0.434300	0.496960	0.925810
C5121	C512	0.363000	0.445800	0.968940
C5131	C513	0.371200	0.336800	0.012680
Ti571	Ti57	0.397070	0.277810	0.927200
C5141	C514	0.358800	0.213100	0.969370
P191	P19	0.432440	0.364930	0.888300
C5151	C515	0.481700	0.551000	0.923100
C5161	C516	0.306300	0.429100	0.970300
C5171	C517	0.416900	0.491000	0.978500
C5181	C518	0.312300	0.305600	0.021800
C5191	C519	0.420900	0.361600	0.020300
O2261	O226	0.430000	0.315820	0.900940
O2271	O227	0.454300	0.264400	0.931360
C5201	C520	0.305300	0.167400	0.968800
C5211	C521	0.408600	0.227100	0.982700
C5221	C522	0.496600	0.395800	0.873590
C5231	C523	0.469400	0.594400	0.930300
C5241	C524	0.508000	0.563300	0.904000
C5251	C525	0.512400	0.276100	0.929000
C5261	C526	0.496700	0.386400	0.854200
C5271	C527	0.547100	0.438500	0.881800
C5281	C528	0.513200	0.234000	0.915000
C5291	C529	0.552600	0.337000	0.924100
H1861	H186	0.460700	0.363500	0.847500
C5301	C530	0.547700	0.408600	0.842600
C5311	C531	0.599900	0.461400	0.871400
H1871	H187	0.546300	0.453000	0.895000
H1881	H188	0.546400	0.393800	0.829200
C5321	C532	0.592500	0.445700	0.849200
H1891	H189	0.618700	0.502800	0.872300
H1901	H190	0.624300	0.465800	0.840100
I261	I26	0.223810	0.634940	0.353260
Cu261	Cu26	0.313410	0.711860	0.331800
N261	N26	0.290370	0.765130	0.317270
C5331	C533	0.236070	0.745830	0.310730
C5341	C534	0.330670	0.815930	0.310820
C5351	C535	0.382970	0.665230	0.404550
H1911	H191	0.206070	0.709530	0.315530
C5361	C536	0.222670	0.776230	0.297550
C5371	C537	0.320470	0.849030	0.297390
H1921	H192	0.368870	0.830530	0.315730
H1931	H193	0.381270	0.630430	0.399830
C5381	C538	0.264770	0.828930	0.290350
C5391	C539	0.161170	0.752130	0.290220
H1941	H194	0.351170	0.885430	0.292930
H1951	H195	0.256070	0.850630	0.280930
O2281	O228	0.123170	0.709430	0.300580
O2291	O229	0.151580	0.774930	0.275350
Ti581	Ti58	0.033790	0.665490	0.297000
Ti591	Ti59	0.070200	0.753800	0.260600
O2301	O230	0.041870	0.740530	0.290110
O2311	O231	0.028970	0.663030	0.323810
O2321	O232	0.037470	0.595330	0.290370
O2331	O233	0.053820	0.673220	0.267430
O2341	O234	0.950670	0.626530	0.293300
O2351	O235	0.103930	0.747100	0.234900
O2361	O236	0.100970	0.830290	0.259140
C5401	C540	0.029670	0.779130	0.302270
C5411	C541	0.037870	0.670130	0.346010
Ti601	Ti60	0.063740	0.611140	0.260530
C5421	C542	0.025470	0.546430	0.302700
P201	P20	0.099110	0.698260	0.221630
C5431	C543	0.148370	0.884330	0.256430
C5441	C544	0.972970	0.762430	0.303630
C5451	C545	0.083570	0.824330	0.311830
C5461	C546	0.978970	0.638930	0.355130
C5471	C547	0.087570	0.694930	0.353630
O2371	O237	0.096670	0.649150	0.234270
O2381	O238	0.120970	0.597730	0.264690
C5481	C548	0.971970	0.500730	0.302130
C5491	C549	0.075270	0.560430	0.316030
C5501	C550	0.163270	0.729130	0.206920
C5511	C551	0.136070	0.927730	0.263630
C5521	C552	0.174670	0.896630	0.237330
C5531	C553	0.179070	0.609430	0.262330
C5541	C554	0.163370	0.719730	0.187530
C5551	C555	0.213770	0.771830	0.215130
C5561	C556	0.179870	0.567330	0.248330
C5571	C557	0.219270	0.670330	0.257430
H1961	H196	0.127370	0.696830	0.180830
C5581	C558	0.214370	0.741930	0.175930
C5591	C559	0.266570	0.794730	0.204730
H1971	H197	0.212970	0.786330	0.228330
H1981	H198	0.213070	0.727130	0.162530
C5601	C560	0.259170	0.779030	0.182530
H1991	H199	0.285370	0.836130	0.205630
H2001	H200	0.290970	0.799130	0.173430
I271	I27	0.890480	0.968280	0.686590
Cu271	Cu27	0.980070	0.045200	0.665130
N271	N27	0.957030	0.098470	0.650610
C5611	C561	0.902730	0.079170	0.644070
C5621	C562	0.997330	0.149270	0.644160
C5631	C563	0.049630	0.998570	0.737890
H2011	H201	0.872730	0.042870	0.648870
C5641	C564	0.889330	0.109570	0.630890
C5651	C565	0.987130	0.182370	0.630730
H2021	H202	0.035530	0.163870	0.649070
H2031	H203	0.047930	0.963770	0.733170
C5661	C566	0.931430	0.162270	0.623690
C5671	C567	0.827830	0.085470	0.623560
H2041	H204	0.017830	0.218770	0.626270
H2051	H205	0.922730	0.183970	0.614270
O2391	O239	0.789830	0.042770	0.633920
O2401	O240	0.818240	0.108270	0.608690
Ti611	Ti61	0.700450	0.998830	0.630330
Ti621	Ti62	0.736860	0.087140	0.593940
O2411	O241	0.708530	0.073870	0.623450
O2421	O242	0.695630	0.996370	0.657150
O2431	O243	0.704130	0.928670	0.623710
O2441	O244	0.720480	0.006560	0.600770
O2451	O245	0.617330	0.959870	0.626640
O2461	O246	0.770590	0.080440	0.568240
O2471	O247	0.767630	0.163630	0.592480
C5681	C568	0.696330	0.112470	0.635610
C5691	C569	0.704530	0.003470	0.679350
Ti631	Ti63	0.730400	0.944480	0.593860
C5701	C570	0.692130	0.879770	0.636040
P211	P21	0.765770	0.031600	0.554970
C5711	C571	0.815030	0.217670	0.589770
C5721	C572	0.639630	0.095770	0.636970
C5731	C573	0.750230	0.157670	0.645170
C5741	C574	0.645630	0.972270	0.688470
C5751	C575	0.754230	0.028270	0.686970
O2481	O248	0.763330	0.982490	0.567610
O2491	O249	0.787630	0.931070	0.598030
C5761	C576	0.638630	0.834070	0.635470
C5771	C577	0.741930	0.893770	0.649370
C5781	C578	0.829930	0.062470	0.540260
C5791	C579	0.802730	0.261070	0.596970
C5801	C580	0.841330	0.229970	0.570670
C5811	C581	0.845730	0.942770	0.595670
C5821	C582	0.830030	0.053070	0.520870
C5831	C583	0.880430	0.105170	0.548470
C5841	C584	0.846530	0.900670	0.581670
C5851	C585	0.885930	0.003670	0.590770
H2061	H206	0.794030	0.030170	0.514170
C5861	C586	0.881030	0.075270	0.509270
C5871	C587	0.933230	0.128070	0.538070
H2071	H207	0.879630	0.119670	0.561670
H2081	H208	0.879730	0.060470	0.495870
C5881	C588	0.925830	0.112370	0.515870
H2091	H209	0.952030	0.169470	0.538970
H2101	H210	0.957630	0.132470	0.506770
I281	I28	0.698390	0.255530	0.019920
Cu281	Cu28	0.621470	0.268210	0.998470
N281	N28	0.568200	0.191900	0.983940
C5891	C589	0.587500	0.156900	0.977400
C5901	C590	0.517400	0.181400	0.977490
C5911	C591	0.668100	0.384400	0.071220
H2111	H211	0.623800	0.163200	0.982200
C5921	C592	0.557100	0.113100	0.964220
C5931	C593	0.484300	0.138100	0.964060
H2121	H212	0.502800	0.205000	0.982400
H2131	H213	0.702900	0.417500	0.066500
C5941	C594	0.504400	0.102500	0.957020
C5951	C595	0.581200	0.075700	0.956890
H2141	H214	0.447900	0.132400	0.959600
H2151	H215	0.482700	0.072100	0.947600
O2501	O250	0.623900	0.080400	0.967250
O2511	O251	0.558400	0.043310	0.942020
Ti641	Ti64	0.667840	0.034960	0.963670
Ti651	Ti65	0.579530	0.983060	0.927270
O2521	O252	0.592800	0.968000	0.956780
O2531	O253	0.670300	0.032600	0.990480
O2541	O254	0.738000	0.108800	0.957040
O2551	O255	0.660110	0.047260	0.934100
O2561	O256	0.706800	0.990800	0.959970
O2571	O257	0.586230	0.023490	0.901570
O2581	O258	0.503040	0.937340	0.925810
C5961	C596	0.554200	0.917200	0.968940
C5971	C597	0.663200	0.034400	0.012680
Ti661	Ti66	0.722190	0.119260	0.927200
C5981	C598	0.786900	0.145700	0.969370
P221	P22	0.635070	0.067510	0.888300
C5991	C599	0.449000	0.930700	0.923100
C6001	C600	0.570900	0.877200	0.970300
C6011	C601	0.509000	0.925900	0.978500
C6021	C602	0.694400	0.006700	0.021800
C6031	C603	0.638400	0.059300	0.020300
O2591	O259	0.684180	0.114180	0.900940
O2601	O260	0.735600	0.189900	0.931360
C6041	C604	0.832600	0.137900	0.968800
C6051	C605	0.772900	0.181500	0.982700
C6061	C606	0.604200	0.100800	0.873590
C6071	C607	0.405600	0.875000	0.930300
C6081	C608	0.436700	0.944700	0.904000
C6091	C609	0.723900	0.236300	0.929000
C6101	C610	0.613600	0.110300	0.854200
C6111	C611	0.561500	0.108600	0.881800
C6121	C612	0.766000	0.279200	0.915000
C6131	C613	0.663000	0.215600	0.924100
H2161	H216	0.636500	0.097200	0.847500
C6141	C614	0.591400	0.139100	0.842600
C6151	C615	0.538600	0.138500	0.871400
H2171	H217	0.547000	0.093300	0.895000
H2181	H218	0.606200	0.152600	0.829200
C6161	C616	0.554300	0.146800	0.849200
H2191	H219	0.497200	0.115900	0.872300
H2201	H220	0.534200	0.158500	0.840100
I291	I29	0.365060	0.588870	0.353260
Cu291	Cu29	0.288140	0.601540	0.331800
N291	N29	0.234870	0.525230	0.317270
C6171	C617	0.254170	0.490230	0.310730
C6181	C618	0.184070	0.514730	0.310820
C6191	C619	0.334770	0.717730	0.404550
H2211	H221	0.290470	0.496530	0.315530
C6201	C620	0.223770	0.446430	0.297550
C6211	C621	0.150970	0.471430	0.297390
H2221	H222	0.169470	0.538330	0.315730
H2231	H223	0.369570	0.750830	0.399830
C6221	C622	0.171070	0.435830	0.290350
C6231	C623	0.247870	0.409030	0.290220
H2241	H224	0.114570	0.465730	0.292930
H2251	H225	0.149370	0.405430	0.280930
O2611	O261	0.290570	0.413730	0.300580
O2621	O262	0.225070	0.376640	0.275350
Ti671	Ti67	0.334510	0.368290	0.297000
Ti681	Ti68	0.246200	0.316390	0.260600
O2631	O263	0.259470	0.301330	0.290110
O2641	O264	0.336970	0.365930	0.323810
O2651	O265	0.404670	0.442130	0.290370
O2661	O266	0.326780	0.380590	0.267430
O2671	O267	0.373470	0.324130	0.293300
O2681	O268	0.252900	0.356820	0.234900
O2691	O269	0.169710	0.270670	0.259140
C6241	C624	0.220870	0.250530	0.302270
C6251	C625	0.329870	0.367730	0.346010
Ti691	Ti69	0.388860	0.452590	0.260530
C6261	C626	0.453570	0.479030	0.302700
P231	P23	0.301740	0.400840	0.221630
C6271	C627	0.115670	0.264030	0.256430
C6281	C628	0.237570	0.210530	0.303630
C6291	C629	0.175670	0.259230	0.311830
C6301	C630	0.361070	0.340030	0.355130
C6311	C631	0.305070	0.392630	0.353630
O2701	O270	0.350850	0.447510	0.234270
O2711	O271	0.402270	0.523230	0.264690
C6321	C632	0.499270	0.471230	0.302130
C6331	C633	0.439570	0.514830	0.316030
C6341	C634	0.270870	0.434130	0.206920
C6351	C635	0.072270	0.208330	0.263630
C6361	C636	0.103370	0.278030	0.237330
C6371	C637	0.390570	0.569630	0.262330
C6381	C638	0.280270	0.443630	0.187530
C6391	C639	0.228170	0.441930	0.215130
C6401	C640	0.432670	0.612530	0.248330
C6411	C641	0.329670	0.548930	0.257430
H2261	H226	0.303170	0.430530	0.180830
C6421	C642	0.258070	0.472430	0.175930
C6431	C643	0.205270	0.471830	0.204730
H2271	H227	0.213670	0.426630	0.228330
H2281	H228	0.272870	0.485930	0.162530
C6441	C644	0.220970	0.480130	0.182530
H2291	H229	0.163870	0.449230	0.205630
H2301	H230	0.200870	0.491830	0.173430
I301	I30	0.031720	0.922200	0.686590
Cu301	Cu30	0.954800	0.934880	0.665130
N301	N30	0.901530	0.858570	0.650610
C6451	C645	0.920830	0.823570	0.644070
C6461	C646	0.850730	0.848070	0.644160
C6471	C647	0.001430	0.051070	0.737890
H2311	H231	0.957130	0.829870	0.648870
C6481	C648	0.890430	0.779770	0.630890
C6491	C649	0.817630	0.804770	0.630730
H2321	H232	0.836130	0.871670	0.649070
H2331	H233	0.036230	0.084170	0.733170
C6501	C650	0.837730	0.769170	0.623690
C6511	C651	0.914530	0.742370	0.623560
H2341	H234	0.781230	0.799070	0.626270
H2351	H235	0.816030	0.738770	0.614270
O2721	O272	0.957230	0.747070	0.633920
O2731	O273	0.891730	0.709980	0.608690
Ti701	Ti70	0.001170	0.701630	0.630330
Ti711	Ti71	0.912860	0.649730	0.593940
O2741	O274	0.926130	0.634670	0.623450
O2751	O275	0.003630	0.699270	0.657150
O2761	O276	0.071330	0.775470	0.623710
O2771	O277	0.993440	0.713930	0.600770
O2781	O278	0.040130	0.657470	0.626640
O2791	O279	0.919560	0.690160	0.568240
O2801	O280	0.836370	0.604010	0.592480
C6521	C652	0.887530	0.583870	0.635610
C6531	C653	0.996530	0.701070	0.679350
Ti721	Ti72	0.055520	0.785930	0.593860
C6541	C654	0.120230	0.812370	0.636040
P241	P24	0.968400	0.734180	0.554970
C6551	C655	0.782330	0.597370	0.589770
C6561	C656	0.904230	0.543870	0.636970
C6571	C657	0.842330	0.592570	0.645170
C6581	C658	0.027730	0.673370	0.688470
C6591	C659	0.971730	0.725970	0.686970
O2811	O281	0.017510	0.780850	0.567610
O2821	O282	0.068930	0.856570	0.598030
C6601	C660	0.165930	0.804570	0.635470
C6611	C661	0.106230	0.848170	0.649370
C6621	C662	0.937530	0.767470	0.540260
C6631	C663	0.738930	0.541670	0.596970
C6641	C664	0.770030	0.611370	0.570670
C6651	C665	0.057230	0.902970	0.595670
C6661	C666	0.946930	0.776970	0.520870
C6671	C667	0.894830	0.775270	0.548470
C6681	C668	0.099330	0.945870	0.581670
C6691	C669	0.996330	0.882270	0.590770
H2361	H236	0.969830	0.763870	0.514170
C6701	C670	0.924730	0.805770	0.509270
C6711	C671	0.871930	0.805170	0.538070
H2371	H237	0.880330	0.759970	0.561670
H2381	H238	0.939530	0.819270	0.495870
C6721	C672	0.887630	0.813470	0.515870
H2391	H239	0.830530	0.782570	0.538970
H2401	H240	0.867530	0.825170	0.506770
I311	I31	0.744470	0.442860	0.019920
Cu311	Cu31	0.731790	0.353260	0.998470
N311	N31	0.808100	0.376300	0.983940
C6731	C673	0.843100	0.430600	0.977400
C6741	C674	0.818600	0.336000	0.977490
C6751	C675	0.615600	0.283700	0.071220
H2411	H241	0.836800	0.460600	0.982200
C6761	C676	0.886900	0.444000	0.964220
C6771	C677	0.861900	0.346200	0.964060
H2421	H242	0.795000	0.297800	0.982400
H2431	H243	0.582500	0.285400	0.066500
C6781	C678	0.897500	0.401900	0.957020
C6791	C679	0.924300	0.505500	0.956890
H2441	H244	0.867600	0.315500	0.959600
H2451	H245	0.927900	0.410600	0.947600
O2831	O283	0.919600	0.543500	0.967250
O2841	O284	0.956690	0.515090	0.942020
Ti731	Ti73	0.965040	0.632880	0.963670
Ti741	Ti74	0.016940	0.596470	0.927270
O2851	O285	0.032000	0.624800	0.956780
O2861	O286	0.967400	0.637700	0.990480
O2871	O287	0.891200	0.629200	0.957040
O2881	O288	0.952740	0.612850	0.934100
O2891	O289	0.009200	0.716000	0.959970
O2901	O290	0.976510	0.562740	0.901570
O2911	O291	0.062660	0.565700	0.925810
C6801	C680	0.082800	0.637000	0.968940
C6811	C681	0.965600	0.628800	0.012680
Ti751	Ti75	0.880740	0.602930	0.927200
C6821	C682	0.854300	0.641200	0.969370
P251	P25	0.932490	0.567560	0.888300
C6831	C683	0.069300	0.518300	0.923100
C6841	C684	0.122800	0.693700	0.970300
C6851	C685	0.074100	0.583100	0.978500
C6861	C686	0.993300	0.687700	0.021800
C6871	C687	0.940700	0.579100	0.020300
O2921	O292	0.885820	0.570000	0.900940
O2931	O293	0.810100	0.545700	0.931360
C6881	C688	0.862100	0.694700	0.968800
C6891	C689	0.818500	0.591400	0.982700
C6901	C690	0.899200	0.503400	0.873590
C6911	C691	0.125000	0.530600	0.930300
C6921	C692	0.055300	0.492000	0.904000
C6931	C693	0.763700	0.487600	0.929000
C6941	C694	0.889700	0.503300	0.854200
C6951	C695	0.891400	0.452900	0.881800
C6961	C696	0.720800	0.486800	0.915000
C6971	C697	0.784400	0.447400	0.924100
H2461	H246	0.902800	0.539300	0.847500
C6981	C698	0.860900	0.452300	0.842600
C6991	C699	0.861500	0.400100	0.871400
H2471	H247	0.906700	0.453700	0.895000
H2481	H248	0.847400	0.453600	0.829200
C7001	C700	0.853200	0.407500	0.849200
H2491	H249	0.884100	0.381300	0.872300
H2501	H250	0.841500	0.375700	0.840100
I321	I32	0.411130	0.776190	0.353260
Cu321	Cu32	0.398460	0.686590	0.331800
N321	N32	0.474770	0.709630	0.317270
C7011	C701	0.509770	0.763930	0.310730
C7021	C702	0.485270	0.669330	0.310820
C7031	C703	0.282270	0.617030	0.404550
H2511	H251	0.503470	0.793930	0.315530
C7041	C704	0.553570	0.777330	0.297550
C7051	C705	0.528570	0.679530	0.297390
H2521	H252	0.461670	0.631130	0.315730
H2531	H253	0.249170	0.618730	0.399830
C7061	C706	0.564170	0.735230	0.290350
C7071	C707	0.590970	0.838830	0.290220
H2541	H254	0.534270	0.648830	0.292930
H2551	H255	0.594570	0.743930	0.280930
O2941	O294	0.586270	0.876830	0.300580
O2951	O295	0.623360	0.848420	0.275350
Ti761	Ti76	0.631710	0.966210	0.297000
Ti771	Ti77	0.683610	0.929800	0.260600
O2961	O296	0.698670	0.958130	0.290110
O2971	O297	0.634070	0.971030	0.323810
O2981	O298	0.557870	0.962530	0.290370
O2991	O299	0.619410	0.946180	0.267430
O3001	O300	0.675870	0.049330	0.293300
O3011	O301	0.643180	0.896070	0.234900
O3021	O302	0.729330	0.899030	0.259140
C7081	C708	0.749470	0.970330	0.302270
C7091	C709	0.632270	0.962130	0.346010
Ti781	Ti78	0.547410	0.936260	0.260530
C7101	C710	0.520970	0.974530	0.302700
P261	P26	0.599160	0.900890	0.221630
C7111	C711	0.735970	0.851630	0.256430
C7121	C712	0.789470	0.027030	0.303630
C7131	C713	0.740770	0.916430	0.311830
C7141	C714	0.659970	0.021030	0.355130
C7151	C715	0.607370	0.912430	0.353630
O3031	O303	0.552490	0.903330	0.234270
O3041	O304	0.476770	0.879030	0.264690
C7161	C716	0.528770	0.028030	0.302130
C7171	C717	0.485170	0.924730	0.316030
C7181	C718	0.565870	0.836730	0.206920
C7191	C719	0.791670	0.863930	0.263630
C7201	C720	0.721970	0.825330	0.237330
C7211	C721	0.430370	0.820930	0.262330
C7221	C722	0.556370	0.836630	0.187530
C7231	C723	0.558070	0.786230	0.215130
C7241	C724	0.387470	0.820130	0.248330
C7251	C725	0.451070	0.780730	0.257430
H2561	H256	0.569470	0.872630	0.180830
C7261	C726	0.527570	0.785630	0.175930
C7271	C727	0.528170	0.733430	0.204730
H2571	H257	0.573370	0.787030	0.228330
H2581	H258	0.514070	0.786930	0.162530
C7281	C728	0.519870	0.740830	0.182530
H2591	H259	0.550770	0.714630	0.205630
H2601	H260	0.508170	0.709030	0.173430
I331	I33	0.077800	0.109520	0.686590
Cu331	Cu33	0.065120	0.019930	0.665130
N331	N33	0.141430	0.042970	0.650610
C7291	C729	0.176430	0.097270	0.644070
C7301	C730	0.151930	0.002670	0.644160
C7311	C731	0.948930	0.950370	0.737890
H2611	H261	0.170130	0.127270	0.648870
C7321	C732	0.220230	0.110670	0.630890
C7331	C733	0.195230	0.012870	0.630730
H2621	H262	0.128330	0.964470	0.649070
H2631	H263	0.915830	0.952070	0.733170
C7341	C734	0.230830	0.068570	0.623690
C7351	C735	0.257630	0.172170	0.623560
H2641	H264	0.200930	0.982170	0.626270
H2651	H265	0.261230	0.077270	0.614270
O3051	O305	0.252930	0.210170	0.633920
O3061	O306	0.290020	0.181760	0.608690
Ti791	Ti79	0.298370	0.299550	0.630330
Ti801	Ti80	0.350270	0.263140	0.593940
O3071	O307	0.365330	0.291470	0.623450
O3081	O308	0.300730	0.304370	0.657150
O3091	O309	0.224530	0.295870	0.623710
O3101	O310	0.286070	0.279520	0.600770
O3111	O311	0.342530	0.382670	0.626640
O3121	O312	0.309840	0.229410	0.568240
O3131	O313	0.395990	0.232370	0.592480
C7361	C736	0.416130	0.303670	0.635610
C7371	C737	0.298930	0.295470	0.679350
Ti811	Ti81	0.214070	0.269600	0.593860
C7381	C738	0.187630	0.307870	0.636040
P271	P27	0.265820	0.234230	0.554970
C7391	C739	0.402630	0.184970	0.589770
C7401	C740	0.456130	0.360370	0.636970
C7411	C741	0.407430	0.249770	0.645170
C7421	C742	0.326630	0.354370	0.688470
C7431	C743	0.274030	0.245770	0.686970
O3141	O314	0.219150	0.236670	0.567610
O3151	O315	0.143430	0.212370	0.598030
C7441	C744	0.195430	0.361370	0.635470
C7451	C745	0.151830	0.258070	0.649370
C7461	C746	0.232530	0.170070	0.540260
C7471	C747	0.458330	0.197270	0.596970
C7481	C748	0.388630	0.158670	0.570670
C7491	C749	0.097030	0.154270	0.595670
C7501	C750	0.223030	0.169970	0.520870
C7511	C751	0.224730	0.119570	0.548470
C7521	C752	0.054130	0.153470	0.581670
C7531	C753	0.117730	0.114070	0.590770
H2661	H266	0.236130	0.205970	0.514170
C7541	C754	0.194230	0.118970	0.509270
C7551	C755	0.194830	0.066770	0.538070
H2671	H267	0.240030	0.120370	0.561670
H2681	H268	0.180730	0.120270	0.495870
C7561	C756	0.186530	0.074170	0.515870
H2691	H269	0.217430	0.047970	0.538970
H2701	H270	0.174830	0.042370	0.506770
I341	I34	0.301610	0.557140	0.480080
Cu341	Cu34	0.378530	0.646740	0.501540
N341	N34	0.431800	0.623700	0.516060
C7571	C757	0.412500	0.569400	0.522600
C7581	C758	0.482600	0.664000	0.522510
C7591	C759	0.331900	0.716300	0.428780
H2711	H271	0.376200	0.539400	0.517800
C7601	C760	0.442900	0.556000	0.535780
C7611	C761	0.515700	0.653800	0.535940
H2721	H272	0.497200	0.702200	0.517600
H2731	H273	0.297100	0.714600	0.433500
C7621	C762	0.495600	0.598100	0.542980
C7631	C763	0.418800	0.494500	0.543110
H2741	H274	0.552100	0.684500	0.540400
H2751	H275	0.517300	0.589400	0.552400
O3161	O316	0.376100	0.456500	0.532750
O3171	O317	0.441600	0.484910	0.557980
Ti821	Ti82	0.332160	0.367120	0.536330
Ti831	Ti83	0.420470	0.403530	0.572730
O3181	O318	0.407200	0.375200	0.543220
O3191	O319	0.329700	0.362300	0.509520
O3201	O320	0.262000	0.370800	0.542960
O3211	O321	0.339890	0.387150	0.565900
O3221	O322	0.293200	0.284000	0.540030
O3231	O323	0.413770	0.437260	0.598430
O3241	O324	0.496960	0.434300	0.574190
C7641	C764	0.445800	0.363000	0.531060
C7651	C765	0.336800	0.371200	0.487320
Ti841	Ti84	0.277810	0.397070	0.572800
C7661	C766	0.213100	0.358800	0.530630
P281	P28	0.364930	0.432440	0.611700
C7671	C767	0.551000	0.481700	0.576900
C7681	C768	0.429100	0.306300	0.529700
C7691	C769	0.491000	0.416900	0.521500
C7701	C770	0.305600	0.312300	0.478200
C7711	C771	0.361600	0.420900	0.479700
O3251	O325	0.315820	0.430000	0.599060
O3261	O326	0.264400	0.454300	0.568640
C7721	C772	0.167400	0.305300	0.531200
C7731	C773	0.227100	0.408600	0.517300
C7741	C774	0.395800	0.496600	0.626410
C7751	C775	0.594400	0.469400	0.569700
C7761	C776	0.563300	0.508000	0.596000
C7771	C777	0.276100	0.512400	0.571000
C7781	C778	0.386400	0.496700	0.645800
C7791	C779	0.438500	0.547100	0.618200
C7801	C780	0.234000	0.513200	0.585000
C7811	C781	0.337000	0.552600	0.575900
H2761	H276	0.363500	0.460700	0.652500
C7821	C782	0.408600	0.547700	0.657400
C7831	C783	0.461400	0.599900	0.628600
H2771	H277	0.453000	0.546300	0.605000
H2781	H278	0.393800	0.546400	0.670800
C7841	C784	0.445700	0.592500	0.650800
H2791	H279	0.502800	0.618700	0.627700
H2801	H280	0.465800	0.624300	0.659900
I351	I35	0.968280	0.890480	0.813410
Cu351	Cu35	0.045200	0.980070	0.834870
N351	N35	0.098470	0.957030	0.849390
C7851	C785	0.079170	0.902730	0.855930
C7861	C786	0.149270	0.997330	0.855840
C7871	C787	0.998570	0.049630	0.762110
H2811	H281	0.042870	0.872730	0.851130
C7881	C788	0.109570	0.889330	0.869110
C7891	C789	0.182370	0.987130	0.869270
H2821	H282	0.163870	0.035530	0.850930
H2831	H283	0.963770	0.047930	0.766830
C7901	C790	0.162270	0.931430	0.876310
C7911	C791	0.085470	0.827830	0.876440
H2841	H284	0.218770	0.017830	0.873730
H2851	H285	0.183970	0.922730	0.885730
O3271	O327	0.042770	0.789830	0.866080
O3281	O328	0.108270	0.818240	0.891310
Ti851	Ti85	0.998830	0.700450	0.869670
Ti861	Ti86	0.087140	0.736860	0.906060
O3291	O329	0.073870	0.708530	0.876550
O3301	O330	0.996370	0.695630	0.842850
O3311	O331	0.928670	0.704130	0.876290
O3321	O332	0.006560	0.720480	0.899230
O3331	O333	0.959870	0.617330	0.873360
O3341	O334	0.080440	0.770590	0.931760
O3351	O335	0.163630	0.767630	0.907520
C7921	C792	0.112470	0.696330	0.864390
C7931	C793	0.003470	0.704530	0.820650
Ti871	Ti87	0.944480	0.730400	0.906140
C7941	C794	0.879770	0.692130	0.863960
P291	P29	0.031600	0.765770	0.945030
C7951	C795	0.217670	0.815030	0.910230
C7961	C796	0.095770	0.639630	0.863030
C7971	C797	0.157670	0.750230	0.854830
C7981	C798	0.972270	0.645630	0.811530
C7991	C799	0.028270	0.754230	0.813030
O3361	O336	0.982490	0.763330	0.932390
O3371	O337	0.931070	0.787630	0.901970
C8001	C800	0.834070	0.638630	0.864530
C8011	C801	0.893770	0.741930	0.850630
C8021	C802	0.062470	0.829930	0.959740
C8031	C803	0.261070	0.802730	0.903030
C8041	C804	0.229970	0.841330	0.929330
C8051	C805	0.942770	0.845730	0.904330
C8061	C806	0.053070	0.830030	0.979130
C8071	C807	0.105170	0.880430	0.951530
C8081	C808	0.900670	0.846530	0.918330
C8091	C809	0.003670	0.885930	0.909230
H2861	H286	0.030170	0.794030	0.985830
C8101	C810	0.075270	0.881030	0.990730
C8111	C811	0.128070	0.933230	0.961930
H2871	H287	0.119670	0.879630	0.938330
H2881	H288	0.060470	0.879730	0.004130
C8121	C812	0.112370	0.925830	0.984130
H2891	H289	0.169470	0.952030	0.961030
H2901	H290	0.132470	0.957630	0.993230
I361	I36	0.634940	0.223810	0.146740
Cu361	Cu36	0.711860	0.313410	0.168200
N361	N36	0.765130	0.290370	0.182730
C8131	C813	0.745830	0.236070	0.189270
C8141	C814	0.815930	0.330670	0.189180
C8151	C815	0.665230	0.382970	0.095450
H2911	H291	0.709530	0.206070	0.184470
C8161	C816	0.776230	0.222670	0.202450
C8171	C817	0.849030	0.320470	0.202610
H2921	H292	0.830530	0.368870	0.184270
H2931	H293	0.630430	0.381270	0.100170
C8181	C818	0.828930	0.264770	0.209650
C8191	C819	0.752130	0.161170	0.209780
H2941	H294	0.885430	0.351170	0.207070
H2951	H295	0.850630	0.256070	0.219070
O3381	O338	0.709430	0.123170	0.199420
O3391	O339	0.774930	0.151580	0.224650
Ti881	Ti88	0.665490	0.033790	0.203000
Ti891	Ti89	0.753800	0.070200	0.239400
O3401	O340	0.740530	0.041870	0.209890
O3411	O341	0.663030	0.028970	0.176190
O3421	O342	0.595330	0.037470	0.209630
O3431	O343	0.673220	0.053820	0.232570
O3441	O344	0.626530	0.950670	0.206700
O3451	O345	0.747100	0.103930	0.265100
O3461	O346	0.830290	0.100970	0.240860
C8201	C820	0.779130	0.029670	0.197730
C8211	C821	0.670130	0.037870	0.153990
Ti901	Ti90	0.611140	0.063740	0.239470
C8221	C822	0.546430	0.025470	0.197300
P301	P30	0.698260	0.099110	0.278370
C8231	C823	0.884330	0.148370	0.243570
C8241	C824	0.762430	0.972970	0.196370
C8251	C825	0.824330	0.083570	0.188170
C8261	C826	0.638930	0.978970	0.144870
C8271	C827	0.694930	0.087570	0.146370
O3471	O347	0.649150	0.096670	0.265730
O3481	O348	0.597730	0.120970	0.235310
C8281	C828	0.500730	0.971970	0.197870
C8291	C829	0.560430	0.075270	0.183970
C8301	C830	0.729130	0.163270	0.293080
C8311	C831	0.927730	0.136070	0.236370
C8321	C832	0.896630	0.174670	0.262670
C8331	C833	0.609430	0.179070	0.237670
C8341	C834	0.719730	0.163370	0.312470
C8351	C835	0.771830	0.213770	0.284870
C8361	C836	0.567330	0.179870	0.251670
C8371	C837	0.670330	0.219270	0.242570
H2961	H296	0.696830	0.127370	0.319170
C8381	C838	0.741930	0.214370	0.324070
C8391	C839	0.794730	0.266570	0.295270
H2971	H297	0.786330	0.212970	0.271670
H2981	H298	0.727130	0.213070	0.337470
C8401	C840	0.779030	0.259170	0.317470
H2991	H299	0.836130	0.285370	0.294370
H3001	H300	0.799130	0.290970	0.326570
I371	I37	0.255530	0.698390	0.480080
Cu371	Cu37	0.268210	0.621470	0.501540
N371	N37	0.191900	0.568200	0.516060
C8411	C841	0.156900	0.587500	0.522600
C8421	C842	0.181400	0.517400	0.522510
C8431	C843	0.384400	0.668100	0.428780
H3011	H301	0.163200	0.623800	0.517800
C8441	C844	0.113100	0.557100	0.535780
C8451	C845	0.138100	0.484300	0.535940
H3021	H302	0.205000	0.502800	0.517600
H3031	H303	0.417500	0.702900	0.433500
C8461	C846	0.102500	0.504400	0.542980
C8471	C847	0.075700	0.581200	0.543110
H3041	H304	0.132400	0.447900	0.540400
H3051	H305	0.072100	0.482700	0.552400
O3491	O349	0.080400	0.623900	0.532750
O3501	O350	0.043310	0.558400	0.557980
Ti911	Ti91	0.034960	0.667840	0.536330
Ti921	Ti92	0.983060	0.579530	0.572730
O3511	O351	0.968000	0.592800	0.543220
O3521	O352	0.032600	0.670300	0.509520
O3531	O353	0.108800	0.738000	0.542960
O3541	O354	0.047260	0.660110	0.565900
O3551	O355	0.990800	0.706800	0.540030
O3561	O356	0.023490	0.586230	0.598430
O3571	O357	0.937340	0.503040	0.574190
C8481	C848	0.917200	0.554200	0.531060
C8491	C849	0.034400	0.663200	0.487320
Ti931	Ti93	0.119260	0.722190	0.572800
C8501	C850	0.145700	0.786900	0.530630
P311	P31	0.067510	0.635070	0.611700
C8511	C851	0.930700	0.449000	0.576900
C8521	C852	0.877200	0.570900	0.529700
C8531	C853	0.925900	0.509000	0.521500
C8541	C854	0.006700	0.694400	0.478200
C8551	C855	0.059300	0.638400	0.479700
O3581	O358	0.114180	0.684180	0.599060
O3591	O359	0.189900	0.735600	0.568640
C8561	C856	0.137900	0.832600	0.531200
C8571	C857	0.181500	0.772900	0.517300
C8581	C858	0.100800	0.604200	0.626410
C8591	C859	0.875000	0.405600	0.569700
C8601	C860	0.944700	0.436700	0.596000
C8611	C861	0.236300	0.723900	0.571000
C8621	C862	0.110300	0.613600	0.645800
C8631	C863	0.108600	0.561500	0.618200
C8641	C864	0.279200	0.766000	0.585000
C8651	C865	0.215600	0.663000	0.575900
H3061	H306	0.097200	0.636500	0.652500
C8661	C866	0.139100	0.591400	0.657400
C8671	C867	0.138500	0.538600	0.628600
H3071	H307	0.093300	0.547000	0.605000
H3081	H308	0.152600	0.606200	0.670800
C8681	C868	0.146800	0.554300	0.650800
H3091	H309	0.115900	0.497200	0.627700
H3101	H310	0.158500	0.534200	0.659900
I381	I38	0.922200	0.031720	0.813410
Cu381	Cu38	0.934880	0.954800	0.834870
N381	N38	0.858570	0.901530	0.849390
C8691	C869	0.823570	0.920830	0.855930
C8701	C870	0.848070	0.850730	0.855840
C8711	C871	0.051070	0.001430	0.762110
H3111	H311	0.829870	0.957130	0.851130
C8721	C872	0.779770	0.890430	0.869110
C8731	C873	0.804770	0.817630	0.869270
H3121	H312	0.871670	0.836130	0.850930
H3131	H313	0.084170	0.036230	0.766830
C8741	C874	0.769170	0.837730	0.876310
C8751	C875	0.742370	0.914530	0.876440
H3141	H314	0.799070	0.781230	0.873730
H3151	H315	0.738770	0.816030	0.885730
O3601	O360	0.747070	0.957230	0.866080
O3611	O361	0.709980	0.891730	0.891310
Ti941	Ti94	0.701630	0.001170	0.869670
Ti951	Ti95	0.649730	0.912860	0.906060
O3621	O362	0.634670	0.926130	0.876550
O3631	O363	0.699270	0.003630	0.842850
O3641	O364	0.775470	0.071330	0.876290
O3651	O365	0.713930	0.993440	0.899230
O3661	O366	0.657470	0.040130	0.873360
O3671	O367	0.690160	0.919560	0.931760
O3681	O368	0.604010	0.836370	0.907520
C8761	C876	0.583870	0.887530	0.864390
C8771	C877	0.701070	0.996530	0.820650
Ti961	Ti96	0.785930	0.055520	0.906140
C8781	C878	0.812370	0.120230	0.863960
P321	P32	0.734180	0.968400	0.945030
C8791	C879	0.597370	0.782330	0.910230
C8801	C880	0.543870	0.904230	0.863030
C8811	C881	0.592570	0.842330	0.854830
C8821	C882	0.673370	0.027730	0.811530
C8831	C883	0.725970	0.971730	0.813030
O3691	O369	0.780850	0.017510	0.932390
O3701	O370	0.856570	0.068930	0.901970
C8841	C884	0.804570	0.165930	0.864530
C8851	C885	0.848170	0.106230	0.850630
C8861	C886	0.767470	0.937530	0.959740
C8871	C887	0.541670	0.738930	0.903030
C8881	C888	0.611370	0.770030	0.929330
C8891	C889	0.902970	0.057230	0.904330
C8901	C890	0.776970	0.946930	0.979130
C8911	C891	0.775270	0.894830	0.951530
C8921	C892	0.945870	0.099330	0.918330
C8931	C893	0.882270	0.996330	0.909230
H3161	H316	0.763870	0.969830	0.985830
C8941	C894	0.805770	0.924730	0.990730
C8951	C895	0.805170	0.871930	0.961930
H3171	H317	0.759970	0.880330	0.938330
H3181	H318	0.819270	0.939530	0.004130
C8961	C896	0.813470	0.887630	0.984130
H3191	H319	0.782570	0.830530	0.961030
H3201	H320	0.825170	0.867530	0.993230
I391	I39	0.588870	0.365060	0.146740
Cu391	Cu39	0.601540	0.288140	0.168200
N391	N39	0.525230	0.234870	0.182730
C8971	C897	0.490230	0.254170	0.189270
C8981	C898	0.514730	0.184070	0.189180
C8991	C899	0.717730	0.334770	0.095450
H3211	H321	0.496530	0.290470	0.184470
C9001	C900	0.446430	0.223770	0.202450
C9011	C901	0.471430	0.150970	0.202610
H3221	H322	0.538330	0.169470	0.184270
H3231	H323	0.750830	0.369570	0.100170
C9021	C902	0.435830	0.171070	0.209650
C9031	C903	0.409030	0.247870	0.209780
H3241	H324	0.465730	0.114570	0.207070
H3251	H325	0.405430	0.149370	0.219070
O3711	O371	0.413730	0.290570	0.199420
O3721	O372	0.376640	0.225070	0.224650
Ti971	Ti97	0.368290	0.334510	0.203000
Ti981	Ti98	0.316390	0.246200	0.239400
O3731	O373	0.301330	0.259470	0.209890
O3741	O374	0.365930	0.336970	0.176190
O3751	O375	0.442130	0.404670	0.209630
O3761	O376	0.380590	0.326780	0.232570
O3771	O377	0.324130	0.373470	0.206700
O3781	O378	0.356820	0.252900	0.265100
O3791	O379	0.270670	0.169710	0.240860
C9041	C904	0.250530	0.220870	0.197730
C9051	C905	0.367730	0.329870	0.153990
Ti991	Ti99	0.452590	0.388860	0.239470
C9061	C906	0.479030	0.453570	0.197300
P331	P33	0.400840	0.301740	0.278370
C9071	C907	0.264030	0.115670	0.243570
C9081	C908	0.210530	0.237570	0.196370
C9091	C909	0.259230	0.175670	0.188170
C9101	C910	0.340030	0.361070	0.144870
C9111	C911	0.392630	0.305070	0.146370
O3801	O380	0.447510	0.350850	0.265730
O3811	O381	0.523230	0.402270	0.235310
C9121	C912	0.471230	0.499270	0.197870
C9131	C913	0.514830	0.439570	0.183970
C9141	C914	0.434130	0.270870	0.293080
C9151	C915	0.208330	0.072270	0.236370
C9161	C916	0.278030	0.103370	0.262670
C9171	C917	0.569630	0.390570	0.237670
C9181	C918	0.443630	0.280270	0.312470
C9191	C919	0.441930	0.228170	0.284870
C9201	C920	0.612530	0.432670	0.251670
C9211	C921	0.548930	0.329670	0.242570
H3261	H326	0.430530	0.303170	0.319170
C9221	C922	0.472430	0.258070	0.324070
C9231	C923	0.471830	0.205270	0.295270
H3271	H327	0.426630	0.213670	0.271670
H3281	H328	0.485930	0.272870	0.337470
C9241	C924	0.480130	0.220970	0.317470
H3291	H329	0.449230	0.163870	0.294370
H3301	H330	0.491830	0.200870	0.326570
I401	I40	0.442860	0.744470	0.480080
Cu401	Cu40	0.353260	0.731790	0.501540
N401	N40	0.376300	0.808100	0.516060
C9251	C925	0.430600	0.843100	0.522600
C9261	C926	0.336000	0.818600	0.522510
C9271	C927	0.283700	0.615600	0.428780
H3311	H331	0.460600	0.836800	0.517800
C9281	C928	0.444000	0.886900	0.535780
C9291	C929	0.346200	0.861900	0.535940
H3321	H332	0.297800	0.795000	0.517600
H3331	H333	0.285400	0.582500	0.433500
C9301	C930	0.401900	0.897500	0.542980
C9311	C931	0.505500	0.924300	0.543110
H3341	H334	0.315500	0.867600	0.540400
H3351	H335	0.410600	0.927900	0.552400
O3821	O382	0.543500	0.919600	0.532750
O3831	O383	0.515090	0.956690	0.557980
Ti1001	Ti100	0.632880	0.965040	0.536330
Ti1011	Ti101	0.596470	0.016940	0.572730
O3841	O384	0.624800	0.032000	0.543220
O3851	O385	0.637700	0.967400	0.509520
O3861	O386	0.629200	0.891200	0.542960
O3871	O387	0.612850	0.952740	0.565900
O3881	O388	0.716000	0.009200	0.540030
O3891	O389	0.562740	0.976510	0.598430
O3901	O390	0.565700	0.062660	0.574190
C9321	C932	0.637000	0.082800	0.531060
C9331	C933	0.628800	0.965600	0.487320
Ti1021	Ti102	0.602930	0.880740	0.572800
C9341	C934	0.641200	0.854300	0.530630
P341	P34	0.567560	0.932490	0.611700
C9351	C935	0.518300	0.069300	0.576900
C9361	C936	0.693700	0.122800	0.529700
C9371	C937	0.583100	0.074100	0.521500
C9381	C938	0.687700	0.993300	0.478200
C9391	C939	0.579100	0.940700	0.479700
O3911	O391	0.570000	0.885820	0.599060
O3921	O392	0.545700	0.810100	0.568640
C9401	C940	0.694700	0.862100	0.531200
C9411	C941	0.591400	0.818500	0.517300
C9421	C942	0.503400	0.899200	0.626410
C9431	C943	0.530600	0.125000	0.569700
C9441	C944	0.492000	0.055300	0.596000
C9451	C945	0.487600	0.763700	0.571000
C9461	C946	0.503300	0.889700	0.645800
C9471	C947	0.452900	0.891400	0.618200
C9481	C948	0.486800	0.720800	0.585000
C9491	C949	0.447400	0.784400	0.575900
H3361	H336	0.539300	0.902800	0.652500
C9501	C950	0.452300	0.860900	0.657400
C9511	C951	0.400100	0.861500	0.628600
H3371	H337	0.453700	0.906700	0.605000
H3381	H338	0.453600	0.847400	0.670800
C9521	C952	0.407500	0.853200	0.650800
H3391	H339	0.381300	0.884100	0.627700
H3401	H340	0.375700	0.841500	0.659900
I411	I41	0.109520	0.077800	0.813410
Cu411	Cu41	0.019930	0.065120	0.834870
N411	N41	0.042970	0.141430	0.849390
C9531	C953	0.097270	0.176430	0.855930
C9541	C954	0.002670	0.151930	0.855840
C9551	C955	0.950370	0.948930	0.762110
H3411	H341	0.127270	0.170130	0.851130
C9561	C956	0.110670	0.220230	0.869110
C9571	C957	0.012870	0.195230	0.869270
H3421	H342	0.964470	0.128330	0.850930
H3431	H343	0.952070	0.915830	0.766830
C9581	C958	0.068570	0.230830	0.876310
C9591	C959	0.172170	0.257630	0.876440
H3441	H344	0.982170	0.200930	0.873730
H3451	H345	0.077270	0.261230	0.885730
O3931	O393	0.210170	0.252930	0.866080
O3941	O394	0.181760	0.290020	0.891310
Ti1031	Ti103	0.299550	0.298370	0.869670
Ti1041	Ti104	0.263140	0.350270	0.906060
O3951	O395	0.291470	0.365330	0.876550
O3961	O396	0.304370	0.300730	0.842850
O3971	O397	0.295870	0.224530	0.876290
O3981	O398	0.279520	0.286070	0.899230
O3991	O399	0.382670	0.342530	0.873360
O4001	O400	0.229410	0.309840	0.931760
O4011	O401	0.232370	0.395990	0.907520
C9601	C960	0.303670	0.416130	0.864390
C9611	C961	0.295470	0.298930	0.820650
Ti1051	Ti105	0.269600	0.214070	0.906140
C9621	C962	0.307870	0.187630	0.863960
P351	P35	0.234230	0.265820	0.945030
C9631	C963	0.184970	0.402630	0.910230
C9641	C964	0.360370	0.456130	0.863030
C9651	C965	0.249770	0.407430	0.854830
C9661	C966	0.354370	0.326630	0.811530
C9671	C967	0.245770	0.274030	0.813030
O4021	O402	0.236670	0.219150	0.932390
O4031	O403	0.212370	0.143430	0.901970
C9681	C968	0.361370	0.195430	0.864530
C9691	C969	0.258070	0.151830	0.850630
C9701	C970	0.170070	0.232530	0.959740
C9711	C971	0.197270	0.458330	0.903030
C9721	C972	0.158670	0.388630	0.929330
C9731	C973	0.154270	0.097030	0.904330
C9741	C974	0.169970	0.223030	0.979130
C9751	C975	0.119570	0.224730	0.951530
C9761	C976	0.153470	0.054130	0.918330
C9771	C977	0.114070	0.117730	0.909230
H3461	H346	0.205970	0.236130	0.985830
C9781	C978	0.118970	0.194230	0.990730
C9791	C979	0.066770	0.194830	0.961930
H3471	H347	0.120370	0.240030	0.938330
H3481	H348	0.120270	0.180730	0.004130
C9801	C980	0.074170	0.186530	0.984130
H3491	H349	0.047970	0.217430	0.961030
H3501	H350	0.042370	0.174830	0.993230
I421	I42	0.776190	0.411130	0.146740
Cu421	Cu42	0.686590	0.398460	0.168200
N421	N42	0.709630	0.474770	0.182730
C9811	C981	0.763930	0.509770	0.189270
C9821	C982	0.669330	0.485270	0.189180
C9831	C983	0.617030	0.282270	0.095450
H3511	H351	0.793930	0.503470	0.184470
C9841	C984	0.777330	0.553570	0.202450
C9851	C985	0.679530	0.528570	0.202610
H3521	H352	0.631130	0.461670	0.184270
H3531	H353	0.618730	0.249170	0.100170
C9861	C986	0.735230	0.564170	0.209650
C9871	C987	0.838830	0.590970	0.209780
H3541	H354	0.648830	0.534270	0.207070
H3551	H355	0.743930	0.594570	0.219070
O4041	O404	0.876830	0.586270	0.199420
O4051	O405	0.848420	0.623360	0.224650
Ti1061	Ti106	0.966210	0.631710	0.203000
Ti1071	Ti107	0.929800	0.683610	0.239400
O4061	O406	0.958130	0.698670	0.209890
O4071	O407	0.971030	0.634070	0.176190
O4081	O408	0.962530	0.557870	0.209630
O4091	O409	0.946180	0.619410	0.232570
O4101	O410	0.049330	0.675870	0.206700
O4111	O411	0.896070	0.643180	0.265100
O4121	O412	0.899030	0.729330	0.240860
C9881	C988	0.970330	0.749470	0.197730
C9891	C989	0.962130	0.632270	0.153990
Ti1081	Ti108	0.936260	0.547410	0.239470
C9901	C990	0.974530	0.520970	0.197300
P361	P36	0.900890	0.599160	0.278370
C9911	C991	0.851630	0.735970	0.243570
C9921	C992	0.027030	0.789470	0.196370
C9931	C993	0.916430	0.740770	0.188170
C9941	C994	0.021030	0.659970	0.144870
C9951	C995	0.912430	0.607370	0.146370
O4131	O413	0.903330	0.552490	0.265730
O4141	O414	0.879030	0.476770	0.235310
C9961	C996	0.028030	0.528770	0.197870
C9971	C997	0.924730	0.485170	0.183970
C9981	C998	0.836730	0.565870	0.293080
C9991	C999	0.863930	0.791670	0.236370
C10001	C1000	0.825330	0.721970	0.262670
C10011	C1001	0.820930	0.430370	0.237670
C10021	C1002	0.836630	0.556370	0.312470
C10031	C1003	0.786230	0.558070	0.284870
C10041	C1004	0.820130	0.387470	0.251670
C10051	C1005	0.780730	0.451070	0.242570
H3561	H356	0.872630	0.569470	0.319170
C10061	C1006	0.785630	0.527570	0.324070
C10071	C1007	0.733430	0.528170	0.295270
H3571	H357	0.787030	0.573370	0.271670
H3581	H358	0.786930	0.514070	0.337470
C10081	C1008	0.740830	0.519870	0.317470
H3591	H359	0.714630	0.550770	0.294370
H3601	H360	0.709030	0.508170	0.326570
Cu431	Cu43	0.666670	0.333330	0.031440
I431	I43	0.666670	0.333330	0.964160
N431	N43	0.666670	0.333330	0.063530
Cu441	Cu44	0.333330	0.666670	0.364770
I441	I44	0.333330	0.666670	0.297500
N441	N44	0.333330	0.666670	0.396860
Cu451	Cu45	0.000000	0.000000	0.698110
I451	I45	0.000000	0.000000	0.630830
N451	N45	0.000000	0.000000	0.730200
Cu461	Cu46	0.333330	0.666670	0.468560
I461	I46	0.333330	0.666670	0.535840
N461	N46	0.333330	0.666670	0.436470
Cu471	Cu47	0.000000	0.000000	0.801890
I471	I47	0.000000	0.000000	0.869170
N471	N47	0.000000	0.000000	0.769800
Cu481	Cu48	0.666670	0.333330	0.135230
I481	I48	0.666670	0.333330	0.202500
N481	N48	0.666670	0.333330	0.103140
O4151	O415	0.333330	0.397620	0.916670
O4161	O416	0.333330	0.216420	0.916670
O4171	O417	0.000000	0.730950	0.250000
O4181	O418	0.000000	0.549750	0.250000
O4191	O419	0.602380	0.935720	0.916670
O4201	O420	0.783580	0.116920	0.916670
O4211	O421	0.269050	0.269050	0.250000
O4221	O422	0.450250	0.450250	0.250000
O4231	O423	0.064280	0.666670	0.916670
O4241	O424	0.883080	0.666670	0.916670
O4251	O425	0.730950	0.000000	0.250000
O4261	O426	0.549750	0.000000	0.250000
O4271	O427	0.397620	0.333330	0.583330
O4281	O428	0.216420	0.333330	0.583330
O4291	O429	0.935720	0.602380	0.583330
O4301	O430	0.116920	0.783580	0.583330
O4311	O431	0.666670	0.064280	0.583330
O4321	O432	0.666670	0.883080	0.583330
