data_HAPHUD_freeONLY_PM
_symmetry_space_group_name_H-M	'P1'
_cell_length_a	11.381500
_cell_length_b	20.067600
_cell_length_c	29.437100
_cell_angle_alpha	90.000000
_cell_angle_beta	98.782000
_cell_angle_gamma	90.000000
_symmetry_Int_Tables_number 1

loop_
_symmetry_equiv_pos_as_xyz
'x,y,z'

loop_
_atom_site_label
_atom_site_type_symbol
_atom_site_fract_x
_atom_site_fract_y
_atom_site_fract_z
Zn11	Zn1	0.540990	0.923350	0.547220
Zn21	Zn2	0.527070	0.578230	0.455790
Zn31	Zn3	0.459010	0.423350	0.952780
Zn41	Zn4	0.472930	0.078230	0.044210
Zn51	Zn5	0.459010	0.076650	0.452780
Zn61	Zn6	0.472930	0.421770	0.544210
Zn71	Zn7	0.540990	0.576650	0.047220
Zn81	Zn8	0.527070	0.921770	0.955790
H11	H1	0.385400	0.615300	0.707600
H21	H2	0.359000	0.622200	0.775100
H31	H3	0.550100	0.694700	0.548500
H41	H4	0.459600	0.569500	0.645300
H51	H5	0.482000	0.771000	0.670300
H61	H6	0.436900	0.570900	0.847100
H71	H7	0.522900	0.694700	0.956100
H81	H8	0.457400	0.771300	0.826600
H91	H9	0.300800	0.887600	0.483600
H101	H10	0.101500	0.888900	0.484000
H111	H11	0.166000	0.961200	0.613900
H121	H12	0.362600	0.959300	0.609600
H131	H13	0.931500	0.845500	0.506200
H141	H14	0.732600	0.850000	0.507600
H151	H15	0.773600	0.996200	0.597600
H161	H16	0.971400	0.999100	0.596200
H171	H17	0.295100	0.514200	0.403600
H181	H18	0.095800	0.509900	0.404300
H191	H19	0.141200	0.645500	0.507500
H201	H20	0.343300	0.647800	0.502700
H211	H21	0.931700	0.484300	0.430600
H221	H22	0.727100	0.487800	0.430500
H231	H23	0.746800	0.666300	0.481700
H241	H24	0.953800	0.664400	0.487700
H251	H25	0.614600	0.115300	0.792400
H261	H26	0.641000	0.122200	0.724900
H271	H27	0.449900	0.194700	0.951500
H281	H28	0.540400	0.069500	0.854700
H291	H29	0.518000	0.271000	0.829700
H301	H30	0.563100	0.070900	0.652900
H311	H31	0.477100	0.194700	0.543900
H321	H32	0.542600	0.271300	0.673400
H331	H33	0.699200	0.387600	0.016400
H341	H34	0.898500	0.388900	0.016000
H351	H35	0.834000	0.461200	0.886100
H361	H36	0.637400	0.459300	0.890400
H371	H37	0.068500	0.345500	0.993800
H381	H38	0.267400	0.350000	0.992400
H391	H39	0.226400	0.496200	0.902400
H401	H40	0.028600	0.499100	0.903800
H411	H41	0.704900	0.014200	0.096400
H421	H42	0.904200	0.009900	0.095700
H431	H43	0.858800	0.145500	0.992500
H441	H44	0.656700	0.147800	0.997300
H451	H45	0.068300	0.984300	0.069400
H461	H46	0.272900	0.987800	0.069500
H471	H47	0.253200	0.166300	0.018300
H481	H48	0.046200	0.164400	0.012300
H491	H49	0.614600	0.384700	0.292400
H501	H50	0.641000	0.377800	0.224900
H511	H51	0.449900	0.305300	0.451500
H521	H52	0.540400	0.430500	0.354700
H531	H53	0.518000	0.229000	0.329700
H541	H54	0.563100	0.429100	0.152900
H551	H55	0.477100	0.305300	0.043900
H561	H56	0.542600	0.228700	0.173400
H571	H57	0.699200	0.112400	0.516400
H581	H58	0.898500	0.111100	0.516000
H591	H59	0.834000	0.038800	0.386100
H601	H60	0.637400	0.040700	0.390400
H611	H61	0.068500	0.154500	0.493800
H621	H62	0.267400	0.150000	0.492400
H631	H63	0.226400	0.003800	0.402400
H641	H64	0.028600	0.000900	0.403800
H651	H65	0.704900	0.485800	0.596400
H661	H66	0.904200	0.490100	0.595700
H671	H67	0.858800	0.354500	0.492500
H681	H68	0.656700	0.352200	0.497300
H691	H69	0.068300	0.515700	0.569400
H701	H70	0.272900	0.512200	0.569500
H711	H71	0.253200	0.333700	0.518300
H721	H72	0.046200	0.335600	0.512300
H731	H73	0.385400	0.884700	0.207600
H741	H74	0.359000	0.877800	0.275100
H751	H75	0.550100	0.805300	0.048500
H761	H76	0.459600	0.930500	0.145300
H771	H77	0.482000	0.729000	0.170300
H781	H78	0.436900	0.929100	0.347100
H791	H79	0.522900	0.805300	0.456100
H801	H80	0.457400	0.728700	0.326600
H811	H81	0.300800	0.612400	0.983600
H821	H82	0.101500	0.611100	0.984000
H831	H83	0.166000	0.538800	0.113900
H841	H84	0.362600	0.540700	0.109600
H851	H85	0.931500	0.654500	0.006200
H861	H86	0.732600	0.650000	0.007600
H871	H87	0.773600	0.503800	0.097600
H881	H88	0.971400	0.500900	0.096200
H891	H89	0.295100	0.985800	0.903600
H901	H90	0.095800	0.990100	0.904300
H911	H91	0.141200	0.854500	0.007500
H921	H92	0.343300	0.852200	0.002700
H931	H93	0.931700	0.015700	0.930600
H941	H94	0.727100	0.012200	0.930500
H951	H95	0.746800	0.833700	0.981700
H961	H96	0.953800	0.835600	0.987700
C11	C1	0.529100	0.812800	0.590200
C21	C2	0.512100	0.742900	0.605900
C31	C3	0.525200	0.688200	0.577500
C41	C4	0.502000	0.625500	0.591900
C51	C5	0.471800	0.613700	0.635400
C61	C6	0.459900	0.668200	0.664600
C71	C7	0.484400	0.734100	0.650200
C81	C8	0.515300	0.565100	0.562000
C91	C9	0.449000	0.687600	0.746600
C101	C10	0.445700	0.668900	0.829600
C111	C11	0.451400	0.614600	0.859100
C121	C12	0.478500	0.624800	0.906400
C131	C13	0.500800	0.688300	0.923900
C141	C14	0.490700	0.742300	0.894400
C151	C15	0.463500	0.734000	0.846700
C161	C16	0.488100	0.564100	0.937500
C171	C17	0.507800	0.811500	0.912000
C181	C18	0.272100	0.904200	0.510100
C191	C19	0.153600	0.903800	0.510400
C201	C20	0.107200	0.924700	0.549000
C211	C21	0.191800	0.946300	0.586500
C221	C22	0.308100	0.945700	0.583500
C231	C23	0.979600	0.922200	0.551000
C241	C24	0.901200	0.877800	0.525000
C251	C25	0.782500	0.880300	0.526400
C261	C26	0.805900	0.965500	0.578300
C271	C27	0.924300	0.967000	0.577900
C281	C28	0.262600	0.541200	0.425100
C291	C29	0.144200	0.538700	0.424900
C301	C30	0.094500	0.578400	0.454800
C311	C31	0.171800	0.618700	0.485400
C321	C32	0.292700	0.618900	0.483000
C331	C33	0.962300	0.575900	0.456000
C341	C34	0.896300	0.523000	0.441300
C351	C35	0.772000	0.525700	0.442000
C361	C36	0.783000	0.627300	0.471900
C371	C37	0.908200	0.628000	0.473900
C381	C38	0.470900	0.312800	0.909800
C391	C39	0.487900	0.242900	0.894100
C401	C40	0.474800	0.188200	0.922500
C411	C41	0.498000	0.125500	0.908100
C421	C42	0.528200	0.113700	0.864600
C431	C43	0.540100	0.168200	0.835400
C441	C44	0.515600	0.234100	0.849800
C451	C45	0.484700	0.065100	0.938000
C461	C46	0.551000	0.187600	0.753400
C471	C47	0.554300	0.168900	0.670400
C481	C48	0.548600	0.114600	0.640900
C491	C49	0.521500	0.124800	0.593600
C501	C50	0.499200	0.188300	0.576100
C511	C51	0.509300	0.242300	0.605600
C521	C52	0.536500	0.234000	0.653300
C531	C53	0.511900	0.064100	0.562500
C541	C54	0.492200	0.311500	0.588000
C551	C55	0.727900	0.404200	0.989900
C561	C56	0.846400	0.403800	0.989600
C571	C57	0.892800	0.424700	0.951000
C581	C58	0.808200	0.446300	0.913500
C591	C59	0.691900	0.445700	0.916500
C601	C60	0.020400	0.422200	0.949000
C611	C61	0.098800	0.377800	0.975000
C621	C62	0.217500	0.380300	0.973600
C631	C63	0.194100	0.465500	0.921700
C641	C64	0.075700	0.467000	0.922100
C651	C65	0.737400	0.041200	0.074900
C661	C66	0.855800	0.038700	0.075100
C671	C67	0.905500	0.078400	0.045200
C681	C68	0.828200	0.118700	0.014600
C691	C69	0.707300	0.118900	0.017000
C701	C70	0.037700	0.075900	0.044000
C711	C71	0.103700	0.023000	0.058700
C721	C72	0.228000	0.025700	0.058000
C731	C73	0.217000	0.127300	0.028100
C741	C74	0.091800	0.128000	0.026100
C751	C75	0.470900	0.187200	0.409800
C761	C76	0.487900	0.257100	0.394100
C771	C77	0.474800	0.311800	0.422500
C781	C78	0.498000	0.374500	0.408100
C791	C79	0.528200	0.386300	0.364600
C801	C80	0.540100	0.331800	0.335400
C811	C81	0.515600	0.265900	0.349800
C821	C82	0.484700	0.434900	0.438000
C831	C83	0.551000	0.312400	0.253400
C841	C84	0.554300	0.331100	0.170400
C851	C85	0.548600	0.385400	0.140900
C861	C86	0.521500	0.375200	0.093600
C871	C87	0.499200	0.311700	0.076100
C881	C88	0.509300	0.257700	0.105600
C891	C89	0.536500	0.266000	0.153300
C901	C90	0.511900	0.435900	0.062500
C911	C91	0.492200	0.188500	0.088000
C921	C92	0.727900	0.095800	0.489900
C931	C93	0.846400	0.096200	0.489600
C941	C94	0.892800	0.075300	0.451000
C951	C95	0.808200	0.053700	0.413500
C961	C96	0.691900	0.054300	0.416500
C971	C97	0.020400	0.077800	0.449000
C981	C98	0.098800	0.122200	0.475000
C991	C99	0.217500	0.119700	0.473600
C1001	C100	0.194100	0.034500	0.421700
C1011	C101	0.075700	0.033000	0.422100
C1021	C102	0.737400	0.458800	0.574900
C1031	C103	0.855800	0.461300	0.575100
C1041	C104	0.905500	0.421600	0.545200
C1051	C105	0.828200	0.381300	0.514600
C1061	C106	0.707300	0.381100	0.517000
C1071	C107	0.037700	0.424100	0.544000
C1081	C108	0.103700	0.477000	0.558700
C1091	C109	0.228000	0.474300	0.558000
C1101	C110	0.217000	0.372700	0.528100
C1111	C111	0.091800	0.372000	0.526100
C1121	C112	0.529100	0.687200	0.090200
C1131	C113	0.512100	0.757100	0.105900
C1141	C114	0.525200	0.811800	0.077500
C1151	C115	0.502000	0.874500	0.091900
C1161	C116	0.471800	0.886300	0.135400
C1171	C117	0.459900	0.831800	0.164600
C1181	C118	0.484400	0.765900	0.150200
C1191	C119	0.515300	0.934900	0.062000
C1201	C120	0.449000	0.812400	0.246600
C1211	C121	0.445700	0.831100	0.329600
C1221	C122	0.451400	0.885400	0.359100
C1231	C123	0.478500	0.875200	0.406400
C1241	C124	0.500800	0.811700	0.423900
C1251	C125	0.490700	0.757700	0.394400
C1261	C126	0.463500	0.766000	0.346700
C1271	C127	0.488100	0.935900	0.437500
C1281	C128	0.507800	0.688500	0.412000
C1291	C129	0.272100	0.595800	0.010100
C1301	C130	0.153600	0.596200	0.010400
C1311	C131	0.107200	0.575300	0.049000
C1321	C132	0.191800	0.553700	0.086500
C1331	C133	0.308100	0.554300	0.083500
C1341	C134	0.979600	0.577800	0.051000
C1351	C135	0.901200	0.622200	0.025000
C1361	C136	0.782500	0.619700	0.026400
C1371	C137	0.805900	0.534500	0.078300
C1381	C138	0.924300	0.533000	0.077900
C1391	C139	0.262600	0.958800	0.925100
C1401	C140	0.144200	0.961300	0.924900
C1411	C141	0.094500	0.921600	0.954800
C1421	C142	0.171800	0.881300	0.985400
C1431	C143	0.292700	0.881100	0.983000
C1441	C144	0.962300	0.924100	0.956000
C1451	C145	0.896300	0.977000	0.941300
C1461	C146	0.772000	0.974300	0.942000
C1471	C147	0.783000	0.872700	0.971900
C1481	C148	0.908200	0.872000	0.973900
N11	N1	0.426200	0.652400	0.706600
N21	N2	0.410300	0.654800	0.782200
N31	N3	0.352000	0.927000	0.545200
N41	N4	0.730600	0.923200	0.552900
N51	N5	0.339600	0.580200	0.454300
N61	N6	0.711300	0.575900	0.457200
N71	N7	0.573800	0.152400	0.793400
N81	N8	0.589700	0.154800	0.717800
N91	N9	0.648000	0.427000	0.954800
N101	N10	0.269400	0.423200	0.947100
N111	N11	0.660400	0.080200	0.045700
N121	N12	0.288700	0.075900	0.042800
N131	N13	0.573800	0.347600	0.293400
N141	N14	0.589700	0.345200	0.217800
N151	N15	0.648000	0.073000	0.454800
N161	N16	0.269400	0.076800	0.447100
N171	N17	0.660400	0.419800	0.545700
N181	N18	0.288700	0.424100	0.542800
N191	N19	0.426200	0.847600	0.206600
N201	N20	0.410300	0.845200	0.282200
N211	N21	0.352000	0.573000	0.045200
N221	N22	0.730600	0.576800	0.052900
N231	N23	0.339600	0.919800	0.954300
N241	N24	0.711300	0.924100	0.957200
O11	O1	0.536900	0.860000	0.617800
O21	O2	0.537500	0.820500	0.547300
O31	O3	0.535600	0.571900	0.978100
O41	O4	0.445400	0.510900	0.919100
O51	O5	0.558700	0.574100	0.525700
O61	O6	0.479300	0.510300	0.575700
O71	O7	0.528600	0.819300	0.956400
O81	O8	0.500000	0.860100	0.885700
O91	O9	0.496800	0.741000	0.749900
O101	O10	0.463100	0.360000	0.882200
O111	O11	0.462500	0.320500	0.952700
O121	O12	0.464400	0.071900	0.521900
O131	O13	0.554600	0.010900	0.580900
O141	O14	0.441300	0.074100	0.974300
O151	O15	0.520700	0.010300	0.924300
O161	O16	0.471400	0.319300	0.543600
O171	O17	0.500000	0.360100	0.614300
O181	O18	0.503200	0.241000	0.750100
O191	O19	0.463100	0.140000	0.382200
O201	O20	0.462500	0.179500	0.452700
O211	O21	0.464400	0.428100	0.021900
O221	O22	0.554600	0.489100	0.080900
O231	O23	0.441300	0.425900	0.474300
O241	O24	0.520700	0.489700	0.424300
O251	O25	0.471400	0.180700	0.043600
O261	O26	0.500000	0.139900	0.114300
O271	O27	0.503200	0.259000	0.250100
O281	O28	0.536900	0.640000	0.117800
O291	O29	0.537500	0.679500	0.047300
O301	O30	0.535600	0.928100	0.478100
O311	O31	0.445400	0.989100	0.419100
O321	O32	0.558700	0.925900	0.025700
O331	O33	0.479300	0.989700	0.075700
O341	O34	0.528600	0.680700	0.456400
O351	O35	0.500000	0.639900	0.385700
O361	O36	0.496800	0.759000	0.249900
