data_HASTAY_freeONLY_PM
_symmetry_space_group_name_H-M	'P1'
_cell_length_a	16.483500
_cell_length_b	21.129300
_cell_length_c	24.969000
_cell_angle_alpha	92.760000
_cell_angle_beta	90.000000
_cell_angle_gamma	90.000000
_symmetry_Int_Tables_number 1

loop_
_symmetry_equiv_pos_as_xyz
'x,y,z'

loop_
_atom_site_label
_atom_site_type_symbol
_atom_site_fract_x
_atom_site_fract_y
_atom_site_fract_z
Zn11	Zn1	0.012800	0.339300	0.307410
Zn21	Zn2	0.458500	0.337160	0.245520
Zn31	Zn3	0.071290	0.658630	0.813540
Zn41	Zn4	0.019840	0.349140	0.004070
Zn51	Zn5	0.466560	0.843130	0.010230
Zn61	Zn6	0.012800	0.160700	0.192590
Zn71	Zn7	0.458500	0.162840	0.254480
Zn81	Zn8	0.071290	0.841370	0.686460
Zn91	Zn9	0.019840	0.150860	0.495930
Zn101	Zn10	0.466560	0.656870	0.489770
Zn111	Zn11	0.987200	0.660700	0.692590
Zn121	Zn12	0.541500	0.662840	0.754480
Zn131	Zn13	0.928710	0.341370	0.186460
Zn141	Zn14	0.980160	0.650860	0.995930
Zn151	Zn15	0.533440	0.156870	0.989770
Zn161	Zn16	0.987200	0.839300	0.807410
Zn171	Zn17	0.541500	0.837160	0.745520
Zn181	Zn18	0.928710	0.158630	0.313540
Zn191	Zn19	0.980160	0.849140	0.504070
Zn201	Zn20	0.533440	0.343130	0.510230
H11	H1	0.861700	0.516700	0.638400
H21	H2	0.771900	0.578100	0.690900
H31	H3	0.633100	0.604000	0.560700
H41	H4	0.937800	0.461000	0.584100
H51	H5	0.017400	0.405600	0.520500
H61	H6	0.855300	0.444400	0.405500
H71	H7	0.829100	0.646900	0.315500
H81	H8	0.896700	0.725200	0.367100
H91	H9	0.817600	0.647400	0.502000
H101	H10	0.742200	0.583400	0.275500
H111	H11	0.661500	0.503800	0.235800
H121	H12	0.634000	0.426500	0.379300
H131	H13	0.229300	0.596600	0.240200
H141	H14	0.142300	0.521200	0.273700
H151	H15	0.118600	0.439200	0.125200
H161	H16	0.304500	0.667800	0.202400
H171	H17	0.378600	0.740000	0.154500
H181	H18	0.335000	0.636400	0.017500
H191	H19	0.473200	0.425600	0.964600
H201	H20	0.517300	0.367300	0.035900
H211	H21	0.329300	0.434200	0.125400
H221	H22	0.435400	0.491800	0.905900
H231	H23	0.372300	0.550100	0.840800
H241	H24	0.182000	0.582700	0.940000
H251	H25	0.861700	0.983300	0.861600
H261	H26	0.771900	0.921900	0.809100
H271	H27	0.633100	0.896000	0.939300
H281	H28	0.937800	0.039000	0.915900
H291	H29	0.017400	0.094400	0.979500
H301	H30	0.855300	0.055600	0.094500
H311	H31	0.829100	0.853100	0.184500
H321	H32	0.896700	0.774800	0.132900
H331	H33	0.817600	0.852600	0.998000
H341	H34	0.742200	0.916600	0.224500
H351	H35	0.661500	0.996200	0.264200
H361	H36	0.634000	0.073500	0.120700
H371	H37	0.229300	0.903400	0.259800
H381	H38	0.142300	0.978800	0.226300
H391	H39	0.118600	0.060800	0.374800
H401	H40	0.304500	0.832200	0.297600
H411	H41	0.378600	0.760000	0.345500
H421	H42	0.335000	0.863600	0.482500
H431	H43	0.473200	0.074400	0.535400
H441	H44	0.517300	0.132700	0.464100
H451	H45	0.329300	0.065800	0.374600
H461	H46	0.435400	0.008200	0.594100
H471	H47	0.372300	0.949900	0.659200
H481	H48	0.182000	0.917300	0.560000
H491	H49	0.138300	0.483300	0.361600
H501	H50	0.228100	0.421900	0.309100
H511	H51	0.366900	0.396000	0.439300
H521	H52	0.062200	0.539000	0.415900
H531	H53	0.982600	0.594400	0.479500
H541	H54	0.144700	0.555600	0.594500
H551	H55	0.170900	0.353100	0.684500
H561	H56	0.103300	0.274800	0.632900
H571	H57	0.182400	0.352600	0.498000
H581	H58	0.257800	0.416600	0.724500
H591	H59	0.338500	0.496200	0.764200
H601	H60	0.366000	0.573500	0.620700
H611	H61	0.770700	0.403400	0.759800
H621	H62	0.857700	0.478800	0.726300
H631	H63	0.881400	0.560800	0.874800
H641	H64	0.695500	0.332200	0.797600
H651	H65	0.621400	0.260000	0.845500
H661	H66	0.665000	0.363600	0.982500
H671	H67	0.526800	0.574400	0.035400
H681	H68	0.482700	0.632700	0.964100
H691	H69	0.670700	0.565800	0.874600
H701	H70	0.564600	0.508200	0.094100
H711	H71	0.627700	0.449900	0.159200
H721	H72	0.818000	0.417300	0.060000
H731	H73	0.138300	0.016700	0.138400
H741	H74	0.228100	0.078100	0.190900
H751	H75	0.366900	0.104000	0.060700
H761	H76	0.062200	0.961000	0.084100
H771	H77	0.982600	0.905600	0.020500
H781	H78	0.144700	0.944400	0.905500
H791	H79	0.170900	0.146900	0.815500
H801	H80	0.103300	0.225200	0.867100
H811	H81	0.182400	0.147400	0.002000
H821	H82	0.257800	0.083400	0.775500
H831	H83	0.338500	0.003800	0.735800
H841	H84	0.366000	0.926500	0.879300
H851	H85	0.770700	0.096600	0.740200
H861	H86	0.857700	0.021200	0.773700
H871	H87	0.881400	0.939200	0.625200
H881	H88	0.695500	0.167800	0.702400
H891	H89	0.621400	0.240000	0.654500
H901	H90	0.665000	0.136400	0.517500
H911	H91	0.526800	0.925600	0.464600
H921	H92	0.482700	0.867300	0.535900
H931	H93	0.670700	0.934200	0.625400
H941	H94	0.564600	0.991800	0.405900
H951	H95	0.627700	0.050100	0.340800
H961	H96	0.818000	0.082700	0.440000
Ru11	Ru1	0.224180	0.521310	0.048510
Ru21	Ru2	0.713160	0.525610	0.464090
Ru31	Ru3	0.224180	0.978690	0.451490
Ru41	Ru4	0.713160	0.974390	0.035910
Ru51	Ru5	0.775820	0.478690	0.951490
Ru61	Ru6	0.286840	0.474390	0.535910
Ru71	Ru7	0.775820	0.021310	0.548510
Ru81	Ru8	0.286840	0.025610	0.964090
C11	C1	0.589600	0.403800	0.284200
C21	C2	0.630900	0.633800	0.662200
C31	C3	0.896500	0.745100	0.475800
C41	C4	0.402000	0.744700	0.048100
C51	C5	0.800900	0.523700	0.568200
C61	C6	0.815600	0.534300	0.622700
C71	C7	0.762000	0.570900	0.654100
C81	C8	0.693800	0.597000	0.630900
C91	C9	0.679200	0.586400	0.576400
C101	C10	0.849100	0.485800	0.532700
C111	C11	0.921200	0.457700	0.548100
C121	C12	0.968600	0.424600	0.510200
C131	C13	0.944000	0.419700	0.456900
C141	C14	0.871900	0.447800	0.441500
C151	C15	0.783000	0.600500	0.378000
C161	C16	0.826800	0.647000	0.353200
C171	C17	0.867100	0.693700	0.383900
C181	C18	0.863700	0.693800	0.439600
C191	C19	0.819900	0.647300	0.464400
C201	C20	0.736300	0.552500	0.351200
C211	C21	0.720400	0.551700	0.296500
C221	C22	0.672200	0.504200	0.272700
C231	C23	0.639900	0.457500	0.303700
C241	C24	0.655800	0.458200	0.358400
C251	C25	0.225900	0.562900	0.162700
C261	C26	0.207000	0.564900	0.217000
C271	C27	0.155100	0.519800	0.237000
C281	C28	0.122000	0.472900	0.202700
C291	C29	0.140900	0.471000	0.148400
C301	C30	0.275500	0.609000	0.138500
C311	C31	0.310600	0.661500	0.165100
C321	C32	0.354800	0.704600	0.136500
C331	C33	0.364000	0.695200	0.081400
C341	C34	0.328900	0.642800	0.054800
C351	C35	0.374900	0.464600	0.002400
C361	C36	0.444200	0.427300	0.997000
C371	C37	0.470500	0.392600	0.039600
C381	C38	0.427600	0.395100	0.087600
C391	C39	0.358300	0.432400	0.093000
C401	C40	0.346400	0.502500	0.961800
C411	C41	0.384300	0.510100	0.912800
C421	C42	0.346600	0.544900	0.874000
C431	C43	0.271000	0.572000	0.884100
C441	C44	0.233100	0.564400	0.933100
C451	C45	0.131200	0.575400	0.036700
C461	C46	0.995400	0.388900	0.414800
C471	C47	0.612400	0.924300	0.039900
C481	C48	0.157400	0.450100	0.023500
C491	C49	0.023700	0.727400	0.907300
C501	C50	0.349400	0.951200	0.984400
C511	C51	0.064900	0.424000	0.222000
C521	C52	0.454400	0.357900	0.134400
C531	C53	0.228100	0.192900	0.300800
C541	C54	0.152900	0.277200	0.350700
C551	C55	0.263900	0.225100	0.395500
C561	C56	0.226400	0.606600	0.844200
C571	C57	0.589600	0.096200	0.215800
C581	C58	0.630900	0.866200	0.837800
C591	C59	0.896500	0.754900	0.024200
C601	C60	0.402000	0.755300	0.451900
C611	C61	0.800900	0.976300	0.931800
C621	C62	0.815600	0.965700	0.877300
C631	C63	0.762000	0.929100	0.845900
C641	C64	0.693800	0.903000	0.869100
C651	C65	0.679200	0.913600	0.923600
C661	C66	0.849100	0.014200	0.967300
C671	C67	0.921200	0.042300	0.951900
C681	C68	0.968600	0.075400	0.989800
C691	C69	0.944000	0.080300	0.043100
C701	C70	0.871900	0.052200	0.058500
C711	C71	0.783000	0.899500	0.122000
C721	C72	0.826800	0.853000	0.146800
C731	C73	0.867100	0.806300	0.116100
C741	C74	0.863700	0.806200	0.060400
C751	C75	0.819900	0.852700	0.035600
C761	C76	0.736300	0.947500	0.148800
C771	C77	0.720400	0.948300	0.203500
C781	C78	0.672200	0.995800	0.227300
C791	C79	0.639900	0.042500	0.196300
C801	C80	0.655800	0.041800	0.141600
C811	C81	0.225900	0.937100	0.337300
C821	C82	0.207000	0.935100	0.283000
C831	C83	0.155100	0.980200	0.263000
C841	C84	0.122000	0.027100	0.297300
C851	C85	0.140900	0.029000	0.351600
C861	C86	0.275500	0.891000	0.361500
C871	C87	0.310600	0.838500	0.334900
C881	C88	0.354800	0.795400	0.363500
C891	C89	0.364000	0.804800	0.418600
C901	C90	0.328900	0.857200	0.445200
C911	C91	0.374900	0.035400	0.497600
C921	C92	0.444200	0.072700	0.503000
C931	C93	0.470500	0.107400	0.460400
C941	C94	0.427600	0.104900	0.412400
C951	C95	0.358300	0.067600	0.407000
C961	C96	0.346400	0.997500	0.538200
C971	C97	0.384300	0.989900	0.587200
C981	C98	0.346600	0.955100	0.626000
C991	C99	0.271000	0.928000	0.615900
C1001	C100	0.233100	0.935600	0.566900
C1011	C101	0.131200	0.924600	0.463300
C1021	C102	0.995400	0.111100	0.085200
C1031	C103	0.612400	0.575700	0.460100
C1041	C104	0.157400	0.049900	0.476500
C1051	C105	0.023700	0.772600	0.592700
C1061	C106	0.349400	0.548800	0.515600
C1071	C107	0.064900	0.076000	0.278000
C1081	C108	0.454400	0.142100	0.365600
C1091	C109	0.228100	0.307100	0.199200
C1101	C110	0.152900	0.222800	0.149300
C1111	C111	0.263900	0.274900	0.104500
C1121	C112	0.226400	0.893400	0.655800
C1131	C113	0.410400	0.596200	0.715800
C1141	C114	0.369100	0.366200	0.337800
C1151	C115	0.103500	0.254900	0.524200
C1161	C116	0.598000	0.255300	0.951900
C1171	C117	0.199100	0.476300	0.431800
C1181	C118	0.184400	0.465700	0.377300
C1191	C119	0.238000	0.429100	0.345900
C1201	C120	0.306200	0.403000	0.369100
C1211	C121	0.320800	0.413600	0.423600
C1221	C122	0.150900	0.514200	0.467300
C1231	C123	0.078800	0.542300	0.451900
C1241	C124	0.031400	0.575400	0.489800
C1251	C125	0.056000	0.580300	0.543100
C1261	C126	0.128100	0.552200	0.558500
C1271	C127	0.217000	0.399500	0.622000
C1281	C128	0.173200	0.353000	0.646800
C1291	C129	0.132900	0.306300	0.616100
C1301	C130	0.136300	0.306200	0.560400
C1311	C131	0.180100	0.352700	0.535600
C1321	C132	0.263700	0.447500	0.648800
C1331	C133	0.279600	0.448300	0.703500
C1341	C134	0.327800	0.495800	0.727300
C1351	C135	0.360100	0.542500	0.696300
C1361	C136	0.344200	0.541800	0.641600
C1371	C137	0.774100	0.437100	0.837300
C1381	C138	0.793000	0.435100	0.783000
C1391	C139	0.844900	0.480200	0.763000
C1401	C140	0.878000	0.527100	0.797300
C1411	C141	0.859100	0.529000	0.851600
C1421	C142	0.724500	0.391000	0.861500
C1431	C143	0.689400	0.338500	0.834900
C1441	C144	0.645200	0.295400	0.863500
C1451	C145	0.636000	0.304800	0.918600
C1461	C146	0.671100	0.357200	0.945200
C1471	C147	0.625100	0.535400	0.997600
C1481	C148	0.555800	0.572700	0.003000
C1491	C149	0.529500	0.607400	0.960400
C1501	C150	0.572400	0.604900	0.912400
C1511	C151	0.641700	0.567600	0.907000
C1521	C152	0.653600	0.497500	0.038200
C1531	C153	0.615700	0.489900	0.087200
C1541	C154	0.653400	0.455100	0.126000
C1551	C155	0.729000	0.428000	0.115900
C1561	C156	0.766900	0.435600	0.066900
C1571	C157	0.868800	0.424600	0.963300
C1581	C158	0.004600	0.611100	0.585200
C1591	C159	0.387600	0.075700	0.960100
C1601	C160	0.842600	0.549900	0.976500
C1611	C161	0.976300	0.272600	0.092700
C1621	C162	0.650600	0.048800	0.015600
C1631	C163	0.935100	0.576000	0.778000
C1641	C164	0.545600	0.642100	0.865600
C1651	C165	0.771900	0.807100	0.699200
C1661	C166	0.847100	0.722800	0.649300
C1671	C167	0.736100	0.774900	0.604500
C1681	C168	0.773600	0.393400	0.155800
C1691	C169	0.410400	0.903800	0.784200
C1701	C170	0.369100	0.133800	0.162200
C1711	C171	0.103500	0.245100	0.975800
C1721	C172	0.598000	0.244700	0.548100
C1731	C173	0.199100	0.023700	0.068200
C1741	C174	0.184400	0.034300	0.122700
C1751	C175	0.238000	0.070900	0.154100
C1761	C176	0.306200	0.097000	0.130900
C1771	C177	0.320800	0.086400	0.076400
C1781	C178	0.150900	0.985800	0.032700
C1791	C179	0.078800	0.957700	0.048100
C1801	C180	0.031400	0.924600	0.010200
C1811	C181	0.056000	0.919700	0.956900
C1821	C182	0.128100	0.947800	0.941500
C1831	C183	0.217000	0.100500	0.878000
C1841	C184	0.173200	0.147000	0.853200
C1851	C185	0.132900	0.193700	0.883900
C1861	C186	0.136300	0.193800	0.939600
C1871	C187	0.180100	0.147300	0.964400
C1881	C188	0.263700	0.052500	0.851200
C1891	C189	0.279600	0.051700	0.796500
C1901	C190	0.327800	0.004200	0.772700
C1911	C191	0.360100	0.957500	0.803700
C1921	C192	0.344200	0.958200	0.858400
C1931	C193	0.774100	0.062900	0.662700
C1941	C194	0.793000	0.064900	0.717000
C1951	C195	0.844900	0.019800	0.737000
C1961	C196	0.878000	0.972900	0.702700
C1971	C197	0.859100	0.971000	0.648400
C1981	C198	0.724500	0.109000	0.638500
C1991	C199	0.689400	0.161500	0.665100
C2001	C200	0.645200	0.204600	0.636500
C2011	C201	0.636000	0.195200	0.581400
C2021	C202	0.671100	0.142800	0.554800
C2031	C203	0.625100	0.964600	0.502400
C2041	C204	0.555800	0.927300	0.497000
C2051	C205	0.529500	0.892600	0.539600
C2061	C206	0.572400	0.895100	0.587600
C2071	C207	0.641700	0.932400	0.593000
C2081	C208	0.653600	0.002500	0.461800
C2091	C209	0.615700	0.010100	0.412800
C2101	C210	0.653400	0.044900	0.374000
C2111	C211	0.729000	0.072000	0.384100
C2121	C212	0.766900	0.064400	0.433100
C2131	C213	0.868800	0.075400	0.536700
C2141	C214	0.004600	0.888900	0.914800
C2151	C215	0.387600	0.424300	0.539900
C2161	C216	0.842600	0.950100	0.523500
C2171	C217	0.976300	0.227400	0.407300
C2181	C218	0.650600	0.451200	0.484400
C2191	C219	0.935100	0.924000	0.722000
C2201	C220	0.545600	0.857900	0.634400
C2211	C221	0.771900	0.692900	0.800800
C2221	C222	0.847100	0.777200	0.850700
C2231	C223	0.736100	0.725100	0.895500
C2241	C224	0.773600	0.106600	0.344200
N11	N1	0.382900	0.904900	0.994000
N21	N2	0.112300	0.408000	0.013300
N31	N3	0.732700	0.549700	0.545000
N41	N4	0.824500	0.480800	0.479500
N51	N5	0.779500	0.600600	0.433600
N61	N6	0.704000	0.505700	0.382100
N71	N7	0.192900	0.516000	0.128400
N81	N8	0.284700	0.599700	0.083400
N91	N9	0.332000	0.467200	0.050400
N101	N10	0.270700	0.529600	0.971900
N111	N11	0.074300	0.606600	0.026900
N121	N12	0.557800	0.892700	0.040400
N131	N13	0.212100	0.233900	0.348900
N141	N14	0.382900	0.595100	0.506000
N151	N15	0.112300	0.092000	0.486700
N161	N16	0.732700	0.950300	0.955000
N171	N17	0.824500	0.019200	0.020500
N181	N18	0.779500	0.899400	0.066400
N191	N19	0.704000	0.994300	0.117900
N201	N20	0.192900	0.984000	0.371600
N211	N21	0.284700	0.900300	0.416600
N221	N22	0.332000	0.032800	0.449600
N231	N23	0.270700	0.970400	0.528100
N241	N24	0.074300	0.893400	0.473100
N251	N25	0.557800	0.607300	0.459600
N261	N26	0.212100	0.266100	0.151100
N271	N27	0.617100	0.095100	0.006000
N281	N28	0.887700	0.592000	0.986700
N291	N29	0.267300	0.450300	0.455000
N301	N30	0.175500	0.519200	0.520500
N311	N31	0.220500	0.399400	0.566400
N321	N32	0.296000	0.494300	0.617900
N331	N33	0.807100	0.484000	0.871600
N341	N34	0.715300	0.400300	0.916600
N351	N35	0.668000	0.532800	0.949600
N361	N36	0.729300	0.470400	0.028100
N371	N37	0.925700	0.393400	0.973100
N381	N38	0.442200	0.107300	0.959600
N391	N39	0.787900	0.766100	0.651100
N401	N40	0.617100	0.404900	0.494000
N411	N41	0.887700	0.908000	0.513300
N421	N42	0.267300	0.049700	0.045000
N431	N43	0.175500	0.980800	0.979500
N441	N44	0.220500	0.100600	0.933600
N451	N45	0.296000	0.005700	0.882100
N461	N46	0.807100	0.016000	0.628400
N471	N47	0.715300	0.099700	0.583400
N481	N48	0.668000	0.967200	0.550400
N491	N49	0.729300	0.029600	0.471900
N501	N50	0.925700	0.106600	0.526900
N511	N51	0.442200	0.392700	0.540400
N521	N52	0.787900	0.733900	0.848900
O11	O1	0.600800	0.350400	0.306000
O21	O2	0.543900	0.404700	0.249100
O31	O3	0.638200	0.633600	0.712100
O41	O4	0.954600	0.776800	0.455500
O51	O5	0.428500	0.791900	0.073100
O61	O6	0.153100	0.615200	0.849000
O71	O7	0.107900	0.284700	0.311800
O81	O8	0.020500	0.398700	0.185700
O91	O9	0.042800	0.736600	0.859500
O101	O10	0.069800	0.411500	0.268200
O111	O11	0.413300	0.365500	0.176400
O121	O12	0.062300	0.370700	0.426700
O131	O13	0.869600	0.755700	0.520600
O141	O14	0.509200	0.319800	0.128400
O151	O15	0.965600	0.387800	0.367600
O161	O16	0.928000	0.312700	0.257700
O171	O17	0.515500	0.797900	0.943900
O181	O18	0.022300	0.672700	0.924800
O191	O19	0.257700	0.616300	0.799300
O201	O20	0.404000	0.733700	0.999800
O211	O21	0.580200	0.663800	0.639500
O221	O22	0.600800	0.149600	0.194000
O231	O23	0.543900	0.095300	0.250900
O241	O24	0.638200	0.866400	0.787900
O251	O25	0.954600	0.723200	0.044500
O261	O26	0.428500	0.708100	0.426900
O271	O27	0.153100	0.884800	0.651000
O281	O28	0.107900	0.215300	0.188200
O291	O29	0.020500	0.101300	0.314300
O301	O30	0.042800	0.763400	0.640500
O311	O31	0.069800	0.088500	0.231800
O321	O32	0.413300	0.134500	0.323600
O331	O33	0.062300	0.129300	0.073300
O341	O34	0.869600	0.744300	0.979400
O351	O35	0.509200	0.180200	0.371600
O361	O36	0.965600	0.112200	0.132400
O371	O37	0.928000	0.187300	0.242300
O381	O38	0.515500	0.702100	0.556100
O391	O39	0.022300	0.827300	0.575200
O401	O40	0.257700	0.883700	0.700700
O411	O41	0.404000	0.766300	0.500200
O421	O42	0.580200	0.836200	0.860500
O431	O43	0.399200	0.649600	0.694000
O441	O44	0.456100	0.595300	0.750900
O451	O45	0.361800	0.366400	0.287900
O461	O46	0.045400	0.223200	0.544500
O471	O47	0.571500	0.208100	0.926900
O481	O48	0.846900	0.384800	0.151000
O491	O49	0.892100	0.715300	0.688200
O501	O50	0.979500	0.601300	0.814300
O511	O51	0.957200	0.263400	0.140500
O521	O52	0.930200	0.588500	0.731800
O531	O53	0.586700	0.634500	0.823600
O541	O54	0.937700	0.629300	0.573300
O551	O55	0.130400	0.244300	0.479400
O561	O56	0.490800	0.680200	0.871600
O571	O57	0.034400	0.612200	0.632400
O581	O58	0.072000	0.687300	0.742300
O591	O59	0.484500	0.202100	0.056100
O601	O60	0.977700	0.327300	0.075200
O611	O61	0.742300	0.383700	0.200700
O621	O62	0.596000	0.266300	0.000200
O631	O63	0.419800	0.336200	0.360500
O641	O64	0.399200	0.850400	0.806000
O651	O65	0.456100	0.904700	0.749100
O661	O66	0.361800	0.133600	0.212100
O671	O67	0.045400	0.276800	0.955500
O681	O68	0.571500	0.291900	0.573100
O691	O69	0.846900	0.115200	0.349000
O701	O70	0.892100	0.784700	0.811800
O711	O71	0.979500	0.898700	0.685700
O721	O72	0.957200	0.236600	0.359500
O731	O73	0.930200	0.911500	0.768200
O741	O74	0.586700	0.865500	0.676400
O751	O75	0.937700	0.870700	0.926700
O761	O76	0.130400	0.255700	0.020600
O771	O77	0.490800	0.819800	0.628400
O781	O78	0.034400	0.887800	0.867600
O791	O79	0.072000	0.812700	0.757700
O801	O80	0.484500	0.297900	0.443900
O811	O81	0.977700	0.172700	0.424800
O821	O82	0.742300	0.116300	0.299300
O831	O83	0.596000	0.233700	0.499800
O841	O84	0.419800	0.163800	0.139500
O851	O85	0.483600	0.250000	0.250000
O861	O86	0.516400	0.750000	0.750000
