data_HATZOS02_freeONLY_PM
_symmetry_space_group_name_H-M	'P1'
_cell_length_a	10.236400
_cell_length_b	10.236400
_cell_length_c	28.109000
_cell_angle_alpha	90.000000
_cell_angle_beta	90.000000
_cell_angle_gamma	90.000000
_symmetry_Int_Tables_number 1

loop_
_symmetry_equiv_pos_as_xyz
'x,y,z'

loop_
_atom_site_label
_atom_site_type_symbol
_atom_site_fract_x
_atom_site_fract_y
_atom_site_fract_z
Ag11	Ag1	0.803220	0.606150	0.516400
N11	N1	0.963600	0.810800	0.726900
N21	N2	0.956200	0.752100	0.529590
O11	O1	0.740200	0.788000	0.584500
C11	C1	0.954100	0.792100	0.680160
H11	H1	0.015400	0.739100	0.665200
C21	C2	0.856400	0.848600	0.652860
C31	C3	0.766100	0.929000	0.674300
H21	H2	0.698700	0.966500	0.656800
C41	C4	0.778200	0.952700	0.722740
H31	H3	0.720300	0.008600	0.738100
C51	C5	0.876400	0.892800	0.747560
H41	H4	0.883500	0.909000	0.780000
C61	C6	0.844800	0.815200	0.601490
C71	C7	0.963200	0.821500	0.570320
C81	C8	0.065700	0.903300	0.580330
H51	H5	0.069800	0.946200	0.609500
C91	C9	0.163300	0.921700	0.546660
H61	H6	0.232800	0.978100	0.552400
C101	C10	0.154000	0.854500	0.504900
H71	H7	0.216500	0.866500	0.481300
C111	C11	0.052000	0.768700	0.497630
H81	H8	0.049600	0.720600	0.469600
Ag21	Ag2	0.196780	0.393850	0.016400
N31	N3	0.036400	0.189200	0.226900
N41	N4	0.043800	0.247900	0.029590
O21	O2	0.259800	0.212000	0.084500
C121	C12	0.045900	0.207900	0.180160
H91	H9	0.984600	0.260900	0.165200
C131	C13	0.143600	0.151400	0.152860
C141	C14	0.233900	0.071000	0.174300
H101	H10	0.301300	0.033500	0.156800
C151	C15	0.221800	0.047300	0.222740
H111	H11	0.279700	0.991400	0.238100
C161	C16	0.123600	0.107200	0.247560
H121	H12	0.116500	0.091000	0.280000
C171	C17	0.155200	0.184800	0.101490
C181	C18	0.036800	0.178500	0.070320
C191	C19	0.934300	0.096700	0.080330
H131	H13	0.930200	0.053800	0.109500
C201	C20	0.836700	0.078300	0.046660
H141	H14	0.767200	0.021900	0.052400
C211	C21	0.846000	0.145500	0.004900
H151	H15	0.783500	0.133500	0.981300
C221	C22	0.948000	0.231300	0.997630
H161	H16	0.950400	0.279400	0.969600
Ag31	Ag3	0.893850	0.303220	0.266400
N51	N5	0.689200	0.463600	0.476900
N61	N6	0.747900	0.456200	0.279590
O31	O3	0.712000	0.240200	0.334500
C231	C23	0.707900	0.454100	0.430160
H171	H17	0.760900	0.515400	0.415200
C241	C24	0.651400	0.356400	0.402860
C251	C25	0.571000	0.266100	0.424300
H181	H18	0.533500	0.198700	0.406800
C261	C26	0.547300	0.278200	0.472740
H191	H19	0.491400	0.220300	0.488100
C271	C27	0.607200	0.376400	0.497560
H201	H20	0.591000	0.383500	0.530000
C281	C28	0.684800	0.344800	0.351490
C291	C29	0.678500	0.463200	0.320320
C301	C30	0.596700	0.565700	0.330330
H211	H21	0.553800	0.569800	0.359500
C311	C31	0.578300	0.663300	0.296660
H221	H22	0.521900	0.732800	0.302400
C321	C32	0.645500	0.654000	0.254900
H231	H23	0.633500	0.716500	0.231300
C331	C33	0.731300	0.552000	0.247630
H241	H24	0.779400	0.549600	0.219600
Ag41	Ag4	0.106150	0.696780	0.766400
N71	N7	0.310800	0.536400	0.976900
N81	N8	0.252100	0.543800	0.779590
O41	O4	0.288000	0.759800	0.834500
C341	C34	0.292100	0.545900	0.930160
H251	H25	0.239100	0.484600	0.915200
C351	C35	0.348600	0.643600	0.902860
C361	C36	0.429000	0.733900	0.924300
H261	H26	0.466500	0.801300	0.906800
C371	C37	0.452700	0.721800	0.972740
H271	H27	0.508600	0.779700	0.988100
C381	C38	0.392800	0.623600	0.997560
H281	H28	0.409000	0.616500	0.030000
C391	C39	0.315200	0.655200	0.851490
C401	C40	0.321500	0.536800	0.820320
C411	C41	0.403300	0.434300	0.830330
H291	H29	0.446200	0.430200	0.859500
C421	C42	0.421700	0.336700	0.796660
H301	H30	0.478100	0.267200	0.802400
C431	C43	0.354500	0.346000	0.754900
H311	H31	0.366500	0.283500	0.731300
C441	C44	0.268700	0.448000	0.747630
H321	H32	0.220600	0.450400	0.719600
Ag51	Ag5	0.696780	0.106150	0.233600
N91	N9	0.536400	0.310800	0.023100
N101	N10	0.543800	0.252100	0.220410
O51	O5	0.759800	0.288000	0.165500
C451	C45	0.545900	0.292100	0.069840
H331	H33	0.484600	0.239100	0.084800
C461	C46	0.643600	0.348600	0.097140
C471	C47	0.733900	0.429000	0.075700
H341	H34	0.801300	0.466500	0.093200
C481	C48	0.721800	0.452700	0.027260
H351	H35	0.779700	0.508600	0.011900
C491	C49	0.623600	0.392800	0.002440
H361	H36	0.616500	0.409000	0.970000
C501	C50	0.655200	0.315200	0.148510
C511	C51	0.536800	0.321500	0.179680
C521	C52	0.434300	0.403300	0.169670
H371	H37	0.430200	0.446200	0.140500
C531	C53	0.336700	0.421700	0.203340
H381	H38	0.267200	0.478100	0.197600
C541	C54	0.346000	0.354500	0.245100
H391	H39	0.283500	0.366500	0.268700
C551	C55	0.448000	0.268700	0.252370
H401	H40	0.450400	0.220600	0.280400
Ag61	Ag6	0.303220	0.893850	0.733600
N111	N11	0.463600	0.689200	0.523100
N121	N12	0.456200	0.747900	0.720410
O61	O6	0.240200	0.712000	0.665500
C561	C56	0.454100	0.707900	0.569840
H411	H41	0.515400	0.760900	0.584800
C571	C57	0.356400	0.651400	0.597140
C581	C58	0.266100	0.571000	0.575700
H421	H42	0.198700	0.533500	0.593200
C591	C59	0.278200	0.547300	0.527260
H431	H43	0.220300	0.491400	0.511900
C601	C60	0.376400	0.607200	0.502440
H441	H44	0.383500	0.591000	0.470000
C611	C61	0.344800	0.684800	0.648510
C621	C62	0.463200	0.678500	0.679680
C631	C63	0.565700	0.596700	0.669670
H451	H45	0.569800	0.553800	0.640500
C641	C64	0.663300	0.578300	0.703340
H461	H46	0.732800	0.521900	0.697600
C651	C65	0.654000	0.645500	0.745100
H471	H47	0.716500	0.633500	0.768700
C661	C66	0.552000	0.731300	0.752370
H481	H48	0.549600	0.779400	0.780400
Ag71	Ag7	0.606150	0.803220	0.483600
N131	N13	0.810800	0.963600	0.273100
N141	N14	0.752100	0.956200	0.470410
O71	O7	0.788000	0.740200	0.415500
C671	C67	0.792100	0.954100	0.319840
H491	H49	0.739100	0.015400	0.334800
C681	C68	0.848600	0.856400	0.347140
C691	C69	0.929000	0.766100	0.325700
H501	H50	0.966500	0.698700	0.343200
C701	C70	0.952700	0.778200	0.277260
H511	H51	0.008600	0.720300	0.261900
C711	C71	0.892800	0.876400	0.252440
H521	H52	0.909000	0.883500	0.220000
C721	C72	0.815200	0.844800	0.398510
C731	C73	0.821500	0.963200	0.429680
C741	C74	0.903300	0.065700	0.419670
H531	H53	0.946200	0.069800	0.390500
C751	C75	0.921700	0.163300	0.453340
H541	H54	0.978100	0.232800	0.447600
C761	C76	0.854500	0.154000	0.495100
H551	H55	0.866500	0.216500	0.518700
C771	C77	0.768700	0.052000	0.502370
H561	H56	0.720600	0.049600	0.530400
Ag81	Ag8	0.393850	0.196780	0.983600
N151	N15	0.189200	0.036400	0.773100
N161	N16	0.247900	0.043800	0.970410
O81	O8	0.212000	0.259800	0.915500
C781	C78	0.207900	0.045900	0.819840
H571	H57	0.260900	0.984600	0.834800
C791	C79	0.151400	0.143600	0.847140
C801	C80	0.071000	0.233900	0.825700
H581	H58	0.033500	0.301300	0.843200
C811	C81	0.047300	0.221800	0.777260
H591	H59	0.991400	0.279700	0.761900
C821	C82	0.107200	0.123600	0.752440
H601	H60	0.091000	0.116500	0.720000
C831	C83	0.184800	0.155200	0.898510
C841	C84	0.178500	0.036800	0.929680
C851	C85	0.096700	0.934300	0.919670
H611	H61	0.053800	0.930200	0.890500
C861	C86	0.078300	0.836700	0.953340
H621	H62	0.021900	0.767200	0.947600
C871	C87	0.145500	0.846000	0.995100
H631	H63	0.133500	0.783500	0.018700
C881	C88	0.231300	0.948000	0.002370
H641	H64	0.279400	0.950400	0.030400
