data_HAVZIP_freeONLY_PM
_symmetry_space_group_name_H-M	'P1'
_cell_length_a	15.131600
_cell_length_b	24.736900
_cell_length_c	15.361300
_cell_angle_alpha	90.000000
_cell_angle_beta	110.847000
_cell_angle_gamma	90.000000
_symmetry_Int_Tables_number 1

loop_
_symmetry_equiv_pos_as_xyz
'x,y,z'

loop_
_atom_site_label
_atom_site_type_symbol
_atom_site_fract_x
_atom_site_fract_y
_atom_site_fract_z
Co11	Co1	0.897880	0.520650	0.110140
N11	N1	0.942600	0.521300	0.262500
O11	O1	0.039500	0.509100	0.122200
N21	N2	0.747800	0.514500	0.071700
N31	N3	0.898400	0.606000	0.111600
O21	O2	0.118700	0.484100	0.029700
O31	O3	0.889200	0.434000	0.110100
C11	C1	0.023800	0.471400	0.400100
H11	H1	0.060800	0.441800	0.428100
C21	C2	0.992800	0.505800	0.451200
C31	C3	0.044100	0.498300	0.043600
C41	C4	0.595700	0.521000	0.958400
H21	H2	0.560100	0.529700	0.897000
C51	C5	0.551900	0.501900	0.015000
C61	C6	0.001100	0.480200	0.310000
H31	H3	0.026100	0.457300	0.276700
C71	C7	0.903000	0.722000	0.116000
C81	C8	0.710600	0.497900	0.134700
H41	H4	0.747900	0.491700	0.196700
C91	C9	0.937600	0.549000	0.407800
H51	H5	0.913000	0.572300	0.441000
C101	C10	0.687600	0.527400	0.988900
H61	H6	0.712900	0.542600	0.947500
C111	C11	0.918800	0.557500	0.310900
H71	H7	0.889400	0.589200	0.282500
C121	C12	0.611600	0.490400	0.101400
H81	H8	0.585400	0.476300	0.142800
C131	C13	0.975000	0.632600	0.146500
H91	H9	0.030800	0.612900	0.170300
C141	C14	0.982700	0.691100	0.152300
H101	H10	0.041400	0.707400	0.180500
C151	C15	0.821700	0.691900	0.081300
H111	H11	0.763900	0.709800	0.059000
C161	C16	0.822200	0.635700	0.078000
H121	H12	0.764700	0.618100	0.050200
Co21	Co2	0.102120	0.020650	0.889860
N41	N4	0.057400	0.021300	0.737500
O41	O4	0.960500	0.009100	0.877800
N51	N5	0.252200	0.014500	0.928300
N61	N6	0.101600	0.106000	0.888400
O51	O5	0.881300	0.984100	0.970300
O61	O6	0.110800	0.934000	0.889900
C171	C17	0.976200	0.971400	0.599900
H131	H13	0.939200	0.941800	0.571900
C181	C18	0.007200	0.005800	0.548800
C191	C19	0.955900	0.998300	0.956400
C201	C20	0.404300	0.021000	0.041600
H141	H14	0.439900	0.029700	0.103000
C211	C21	0.448100	0.001900	0.985000
C221	C22	0.998900	0.980200	0.690000
H151	H15	0.973900	0.957300	0.723300
C231	C23	0.097000	0.222000	0.884000
C241	C24	0.289400	0.997900	0.865300
H161	H16	0.252100	0.991700	0.803300
C251	C25	0.062400	0.049000	0.592200
H171	H17	0.087000	0.072300	0.559000
C261	C26	0.312400	0.027400	0.011100
H181	H18	0.287100	0.042600	0.052500
C271	C27	0.081200	0.057500	0.689100
H191	H19	0.110600	0.089200	0.717500
C281	C28	0.388400	0.990400	0.898600
H201	H20	0.414600	0.976300	0.857200
C291	C29	0.025000	0.132600	0.853500
H211	H21	0.969200	0.112900	0.829700
C301	C30	0.017300	0.191100	0.847700
H221	H22	0.958600	0.207400	0.819500
C311	C31	0.178300	0.191900	0.918700
H231	H23	0.236100	0.209800	0.941000
C321	C32	0.177800	0.135700	0.922000
H241	H24	0.235300	0.118100	0.949800
Co31	Co3	0.102120	0.479350	0.889860
N71	N7	0.057400	0.478700	0.737500
O71	O7	0.960500	0.490900	0.877800
N81	N8	0.252200	0.485500	0.928300
N91	N9	0.101600	0.394000	0.888400
O81	O8	0.881300	0.515900	0.970300
O91	O9	0.110800	0.566000	0.889900
C331	C33	0.976200	0.528600	0.599900
H251	H25	0.939200	0.558200	0.571900
C341	C34	0.007200	0.494200	0.548800
C351	C35	0.955900	0.501700	0.956400
C361	C36	0.404300	0.479000	0.041600
H261	H26	0.439900	0.470300	0.103000
C371	C37	0.448100	0.498100	0.985000
C381	C38	0.998900	0.519800	0.690000
H271	H27	0.973900	0.542700	0.723300
C391	C39	0.097000	0.278000	0.884000
C401	C40	0.289400	0.502100	0.865300
H281	H28	0.252100	0.508300	0.803300
C411	C41	0.062400	0.451000	0.592200
H291	H29	0.087000	0.427700	0.559000
C421	C42	0.312400	0.472600	0.011100
H301	H30	0.287100	0.457400	0.052500
C431	C43	0.081200	0.442500	0.689100
H311	H31	0.110600	0.410800	0.717500
C441	C44	0.388400	0.509600	0.898600
H321	H32	0.414600	0.523700	0.857200
C451	C45	0.025000	0.367400	0.853500
H331	H33	0.969200	0.387100	0.829700
C461	C46	0.017300	0.308900	0.847700
H341	H34	0.958600	0.292600	0.819500
C471	C47	0.178300	0.308100	0.918700
H351	H35	0.236100	0.290200	0.941000
C481	C48	0.177800	0.364300	0.922000
H361	H36	0.235300	0.381900	0.949800
Co41	Co4	0.897880	0.979350	0.110140
N101	N10	0.942600	0.978700	0.262500
O101	O10	0.039500	0.990900	0.122200
N111	N11	0.747800	0.985500	0.071700
N121	N12	0.898400	0.894000	0.111600
O111	O11	0.118700	0.015900	0.029700
O121	O12	0.889200	0.066000	0.110100
C491	C49	0.023800	0.028600	0.400100
H371	H37	0.060800	0.058200	0.428100
C501	C50	0.992800	0.994200	0.451200
C511	C51	0.044100	0.001700	0.043600
C521	C52	0.595700	0.979000	0.958400
H381	H38	0.560100	0.970300	0.897000
C531	C53	0.551900	0.998100	0.015000
C541	C54	0.001100	0.019800	0.310000
H391	H39	0.026100	0.042700	0.276700
C551	C55	0.903000	0.778000	0.116000
C561	C56	0.710600	0.002100	0.134700
H401	H40	0.747900	0.008300	0.196700
C571	C57	0.937600	0.951000	0.407800
H411	H41	0.913000	0.927700	0.441000
C581	C58	0.687600	0.972600	0.988900
H421	H42	0.712900	0.957400	0.947500
C591	C59	0.918800	0.942500	0.310900
H431	H43	0.889400	0.910800	0.282500
C601	C60	0.611600	0.009600	0.101400
H441	H44	0.585400	0.023700	0.142800
C611	C61	0.975000	0.867400	0.146500
H451	H45	0.030800	0.887100	0.170300
C621	C62	0.982700	0.808900	0.152300
H461	H46	0.041400	0.792600	0.180500
C631	C63	0.821700	0.808100	0.081300
H471	H47	0.763900	0.790200	0.059000
C641	C64	0.822200	0.864300	0.078000
H481	H48	0.764700	0.881900	0.050200
W11	W1	0.731420	0.318250	0.152600
W21	W2	0.469310	0.318140	0.094870
W31	W3	0.765420	0.393190	0.370200
W41	W4	0.530600	0.324710	0.510260
W51	W5	0.794250	0.324950	0.567480
W61	W6	0.502420	0.393380	0.313300
W71	W7	0.967000	0.317970	0.342710
O131	O13	0.033700	0.304300	0.472400
O141	O14	0.595700	0.312800	0.104600
O151	O15	0.503500	0.390200	0.435700
O161	O16	0.507400	0.366900	0.199500
O171	O17	0.404300	0.301800	0.454400
O181	O18	0.743700	0.362800	0.074300
O191	O19	0.723800	0.363300	0.245500
O201	O20	0.861600	0.312900	0.230400
O211	O21	0.919900	0.302800	0.560900
O221	O22	0.636000	0.399200	0.356800
W81	W8	0.279400	0.181850	0.195300
O231	O23	0.797700	0.390500	0.495100
O241	O24	0.521900	0.345000	0.608100
O251	O25	0.783300	0.458900	0.351100
O261	O26	0.427400	0.360300	0.003000
O271	O27	0.541000	0.192900	0.367700
O281	O28	0.044000	0.361500	0.317600
O291	O29	0.474700	0.459700	0.290200
O301	O30	0.352000	0.312400	0.118300
O311	O31	0.739000	0.305800	0.410600
O321	O32	0.246200	0.196500	0.304500
O331	O33	0.376500	0.364400	0.271100
O341	O34	0.886500	0.366200	0.377900
O351	O35	0.192300	0.138400	0.133400
O361	O36	0.833000	0.347000	0.678700
O371	O37	0.663000	0.337200	0.541700
W91	W9	0.731420	0.181750	0.152600
W101	W10	0.469310	0.181860	0.094870
W111	W11	0.765420	0.106810	0.370200
W121	W12	0.530600	0.175290	0.510260
W131	W13	0.794250	0.175050	0.567480
W141	W14	0.502420	0.106620	0.313300
W151	W15	0.967000	0.182030	0.342710
O381	O38	0.033700	0.195700	0.472400
O391	O39	0.595700	0.187200	0.104600
O401	O40	0.503500	0.109800	0.435700
O411	O41	0.507400	0.133100	0.199500
O421	O42	0.404300	0.198200	0.454400
O431	O43	0.743700	0.137200	0.074300
O441	O44	0.723800	0.136700	0.245500
O451	O45	0.861600	0.187100	0.230400
O461	O46	0.919900	0.197200	0.560900
O471	O47	0.636000	0.100800	0.356800
W161	W16	0.279400	0.318150	0.195300
O481	O48	0.797700	0.109500	0.495100
O491	O49	0.521900	0.155000	0.608100
O501	O50	0.783300	0.041100	0.351100
O511	O51	0.427400	0.139700	0.003000
O521	O52	0.541000	0.307100	0.367700
O531	O53	0.044000	0.138500	0.317600
O541	O54	0.474700	0.040300	0.290200
O551	O55	0.352000	0.187600	0.118300
O561	O56	0.739000	0.194200	0.410600
O571	O57	0.246200	0.303500	0.304500
O581	O58	0.376500	0.135600	0.271100
O591	O59	0.886500	0.133800	0.377900
O601	O60	0.192300	0.361600	0.133400
O611	O61	0.833000	0.153000	0.678700
O621	O62	0.663000	0.162800	0.541700
As11	As1	0.766550	0.250000	0.363300
As21	As2	0.497540	0.250000	0.305000
W171	W17	0.996530	0.250000	0.541510
W181	W18	0.306570	0.250000	0.392580
O631	O63	0.091600	0.250000	0.642300
O641	O64	0.883200	0.250000	0.387600
O651	O65	0.439600	0.250000	0.028700
O661	O66	0.244500	0.250000	0.464900
O671	O67	0.380100	0.250000	0.279500
O681	O68	0.001900	0.250000	0.316100
O691	O69	0.220300	0.250000	0.147100
O701	O70	0.739700	0.250000	0.094400
O711	O71	0.716700	0.250000	0.242900
O721	O72	0.512600	0.250000	0.200300
O731	O73	0.778100	0.250000	0.580200
O741	O74	0.557000	0.250000	0.535100
W191	W19	0.268580	0.818250	0.847400
W201	W20	0.530690	0.818140	0.905130
W211	W21	0.234580	0.893190	0.629800
W221	W22	0.469400	0.824710	0.489740
W231	W23	0.205750	0.824950	0.432520
W241	W24	0.497580	0.893380	0.686700
W251	W25	0.033000	0.817970	0.657290
O751	O75	0.966300	0.804300	0.527600
O761	O76	0.404300	0.812800	0.895400
O771	O77	0.496500	0.890200	0.564300
O781	O78	0.492600	0.866900	0.800500
O791	O79	0.595700	0.801800	0.545600
O801	O80	0.256300	0.862800	0.925700
O811	O81	0.276200	0.863300	0.754500
O821	O82	0.138400	0.812900	0.769600
O831	O83	0.080100	0.802800	0.439100
O841	O84	0.364000	0.899200	0.643200
W261	W26	0.720600	0.681850	0.804700
O851	O85	0.202300	0.890500	0.504900
O861	O86	0.478100	0.845000	0.391900
O871	O87	0.216700	0.958900	0.648900
O881	O88	0.572600	0.860300	0.997000
O891	O89	0.459000	0.692900	0.632300
O901	O90	0.956000	0.861500	0.682400
O911	O91	0.525300	0.959700	0.709800
O921	O92	0.648000	0.812400	0.881700
O931	O93	0.261000	0.805800	0.589400
O941	O94	0.753800	0.696500	0.695500
O951	O95	0.623500	0.864400	0.728900
O961	O96	0.113500	0.866200	0.622100
O971	O97	0.807700	0.638400	0.866600
O981	O98	0.167000	0.847000	0.321300
O991	O99	0.337000	0.837200	0.458300
W271	W27	0.268580	0.681750	0.847400
W281	W28	0.530690	0.681860	0.905130
W291	W29	0.234580	0.606810	0.629800
W301	W30	0.469400	0.675290	0.489740
W311	W31	0.205750	0.675050	0.432520
W321	W32	0.497580	0.606620	0.686700
W331	W33	0.033000	0.682030	0.657290
O1001	O100	0.966300	0.695700	0.527600
O1011	O101	0.404300	0.687200	0.895400
O1021	O102	0.496500	0.609800	0.564300
O1031	O103	0.492600	0.633100	0.800500
O1041	O104	0.595700	0.698200	0.545600
O1051	O105	0.256300	0.637200	0.925700
O1061	O106	0.276200	0.636700	0.754500
O1071	O107	0.138400	0.687100	0.769600
O1081	O108	0.080100	0.697200	0.439100
O1091	O109	0.364000	0.600800	0.643200
W341	W34	0.720600	0.818150	0.804700
O1101	O110	0.202300	0.609500	0.504900
O1111	O111	0.478100	0.655000	0.391900
O1121	O112	0.216700	0.541100	0.648900
O1131	O113	0.572600	0.639700	0.997000
O1141	O114	0.459000	0.807100	0.632300
O1151	O115	0.956000	0.638500	0.682400
O1161	O116	0.525300	0.540300	0.709800
O1171	O117	0.648000	0.687600	0.881700
O1181	O118	0.261000	0.694200	0.589400
O1191	O119	0.753800	0.803500	0.695500
O1201	O120	0.623500	0.635600	0.728900
O1211	O121	0.113500	0.633800	0.622100
O1221	O122	0.807700	0.861600	0.866600
O1231	O123	0.167000	0.653000	0.321300
O1241	O124	0.337000	0.662800	0.458300
As31	As3	0.233450	0.750000	0.636700
As41	As4	0.502460	0.750000	0.695000
W351	W35	0.003470	0.750000	0.458490
W361	W36	0.693430	0.750000	0.607420
O1251	O125	0.908400	0.750000	0.357700
O1261	O126	0.116800	0.750000	0.612400
O1271	O127	0.560400	0.750000	0.971300
O1281	O128	0.755500	0.750000	0.535100
O1291	O129	0.619900	0.750000	0.720500
O1301	O130	0.998100	0.750000	0.683900
O1311	O131	0.779700	0.750000	0.852900
O1321	O132	0.260300	0.750000	0.905600
O1331	O133	0.283300	0.750000	0.757100
O1341	O134	0.487400	0.750000	0.799700
O1351	O135	0.221900	0.750000	0.419800
O1361	O136	0.443000	0.750000	0.464900
