data_HAWVOS_freeONLY_PM
_symmetry_space_group_name_H-M	'P1'
_cell_length_a	11.614000
_cell_length_b	16.088800
_cell_length_c	12.020400
_cell_angle_alpha	90.000000
_cell_angle_beta	112.699000
_cell_angle_gamma	90.000000
_symmetry_Int_Tables_number 1

loop_
_symmetry_equiv_pos_as_xyz
'x,y,z'

loop_
_atom_site_label
_atom_site_type_symbol
_atom_site_fract_x
_atom_site_fract_y
_atom_site_fract_z
Er11	Er1	0.194450	0.027890	0.579390
S11	S1	0.052970	0.219830	0.214610
S21	S2	0.490080	0.283760	0.750240
O11	O1	0.127600	0.076400	0.382600
O21	O2	0.933500	0.030000	0.342000
O31	O3	0.058800	0.365100	0.069300
O41	O4	0.859700	0.404100	0.023700
O51	O5	0.275100	0.103600	0.778800
O61	O6	0.334200	0.140500	0.632300
O71	O7	0.650200	0.434600	0.793900
O81	O8	0.627000	0.477500	0.958900
C11	C1	0.957300	0.154000	0.250200
C21	C2	0.834800	0.177700	0.199300
H11	H1	0.769400	0.148800	0.207900
C31	C3	0.820600	0.251200	0.132500
H21	H2	0.744000	0.277100	0.093300
C41	C4	0.929100	0.280800	0.130700
C51	C5	0.010900	0.080800	0.330100
C61	C6	0.950700	0.356100	0.069500
C71	C7	0.393300	0.228500	0.801100
C81	C8	0.383900	0.265300	0.900100
H31	H3	0.336200	0.243900	0.940200
C91	C9	0.454400	0.339000	0.934700
H41	H4	0.456700	0.372000	0.999100
C101	C10	0.518500	0.356800	0.864200
C111	C11	0.330800	0.152100	0.734800
C121	C12	0.603400	0.426700	0.872300
Er21	Er2	0.805550	0.527890	0.920610
S31	S3	0.947030	0.719830	0.285390
S41	S4	0.509920	0.783760	0.749760
O91	O9	0.872400	0.576400	0.117400
O101	O10	0.066500	0.530000	0.158000
O111	O11	0.941200	0.865100	0.430700
O121	O12	0.140300	0.904100	0.476300
O131	O13	0.724900	0.603600	0.721200
O141	O14	0.665800	0.640500	0.867700
O151	O15	0.349800	0.934600	0.706100
O161	O16	0.373000	0.977500	0.541100
C131	C13	0.042700	0.654000	0.249800
C141	C14	0.165200	0.677700	0.300700
H51	H5	0.230600	0.648800	0.292100
C151	C15	0.179400	0.751200	0.367500
H61	H6	0.256000	0.777100	0.406700
C161	C16	0.070900	0.780800	0.369300
C171	C17	0.989100	0.580800	0.169900
C181	C18	0.049300	0.856100	0.430500
C191	C19	0.606700	0.728500	0.698900
C201	C20	0.616100	0.765300	0.599900
H71	H7	0.663800	0.743900	0.559800
C211	C21	0.545600	0.839000	0.565300
H81	H8	0.543300	0.872000	0.500900
C221	C22	0.481500	0.856800	0.635800
C231	C23	0.669200	0.652100	0.765200
C241	C24	0.396600	0.926700	0.627700
Er31	Er3	0.805550	0.972110	0.420610
S51	S5	0.947030	0.780170	0.785390
S61	S6	0.509920	0.716240	0.249760
O171	O17	0.872400	0.923600	0.617400
O181	O18	0.066500	0.970000	0.658000
O191	O19	0.941200	0.634900	0.930700
O201	O20	0.140300	0.595900	0.976300
O211	O21	0.724900	0.896400	0.221200
O221	O22	0.665800	0.859500	0.367700
O231	O23	0.349800	0.565400	0.206100
O241	O24	0.373000	0.522500	0.041100
C251	C25	0.042700	0.846000	0.749800
C261	C26	0.165200	0.822300	0.800700
H91	H9	0.230600	0.851200	0.792100
C271	C27	0.179400	0.748800	0.867500
H101	H10	0.256000	0.722900	0.906700
C281	C28	0.070900	0.719200	0.869300
C291	C29	0.989100	0.919200	0.669900
C301	C30	0.049300	0.643900	0.930500
C311	C31	0.606700	0.771500	0.198900
C321	C32	0.616100	0.734700	0.099900
H111	H11	0.663800	0.756100	0.059800
C331	C33	0.545600	0.661000	0.065300
H121	H12	0.543300	0.628000	0.000900
C341	C34	0.481500	0.643200	0.135800
C351	C35	0.669200	0.847900	0.265200
C361	C36	0.396600	0.573300	0.127700
Er41	Er4	0.194450	0.472110	0.079390
S71	S7	0.052970	0.280170	0.714610
S81	S8	0.490080	0.216240	0.250240
O251	O25	0.127600	0.423600	0.882600
O261	O26	0.933500	0.470000	0.842000
O271	O27	0.058800	0.134900	0.569300
O281	O28	0.859700	0.095900	0.523700
O291	O29	0.275100	0.396400	0.278800
O301	O30	0.334200	0.359500	0.132300
O311	O31	0.650200	0.065400	0.293900
O321	O32	0.627000	0.022500	0.458900
C371	C37	0.957300	0.346000	0.750200
C381	C38	0.834800	0.322300	0.699300
H131	H13	0.769400	0.351200	0.707900
C391	C39	0.820600	0.248800	0.632500
H141	H14	0.744000	0.222900	0.593300
C401	C40	0.929100	0.219200	0.630700
C411	C41	0.010900	0.419200	0.830100
C421	C42	0.950700	0.143900	0.569500
C431	C43	0.393300	0.271500	0.301100
C441	C44	0.383900	0.234700	0.400100
H151	H15	0.336200	0.256100	0.440200
C451	C45	0.454400	0.161000	0.434700
H161	H16	0.456700	0.128000	0.499100
C461	C46	0.518500	0.143200	0.364200
C471	C47	0.330800	0.347900	0.234800
C481	C48	0.603400	0.073300	0.372300
