data_HAWWEJ_charged_PM
_symmetry_space_group_name_H-M	'P1'
_cell_length_a	11.504700
_cell_length_b	14.021400
_cell_length_c	15.831500
_cell_angle_alpha	93.831200
_cell_angle_beta	90.000000
_cell_angle_gamma	90.000000
_symmetry_Int_Tables_number 1

loop_
_symmetry_equiv_pos_as_xyz
'x,y,z'

loop_
_atom_site_label
_atom_site_type_symbol
_atom_site_fract_x
_atom_site_fract_y
_atom_site_fract_z
Yb11	Yb1	0.888690	0.661420	0.014050
Yb21	Yb2	0.388690	0.838580	0.485950
Yb31	Yb3	0.111310	0.338580	0.985950
Yb41	Yb4	0.611310	0.161420	0.514050
H11	H1	0.684900	0.416200	0.118200
H21	H2	0.564900	0.652200	0.039300
H31	H3	0.931200	0.699700	0.807200
H41	H4	0.949700	0.708000	0.654100
H51	H5	0.853700	0.998100	0.180100
H61	H6	0.738900	0.075700	0.294500
H71	H7	0.487700	0.609700	0.182300
H81	H8	0.404600	0.577600	0.106000
H91	H9	0.464400	0.423700	0.105100
H101	H10	0.509500	0.451300	0.197900
H111	H11	0.184900	0.083800	0.381800
H121	H12	0.064900	0.847800	0.460700
H131	H13	0.431200	0.800300	0.692800
H141	H14	0.449700	0.792000	0.845900
H151	H15	0.353700	0.501900	0.319900
H161	H16	0.238900	0.424300	0.205500
H171	H17	0.987700	0.890300	0.317700
H181	H18	0.904600	0.922400	0.394000
H191	H19	0.964400	0.076300	0.394900
H201	H20	0.009500	0.048700	0.302100
H211	H21	0.315100	0.583800	0.881800
H221	H22	0.435100	0.347800	0.960700
H231	H23	0.068800	0.300300	0.192800
H241	H24	0.050300	0.292000	0.345900
H251	H25	0.146300	0.001900	0.819900
H261	H26	0.261100	0.924300	0.705500
H271	H27	0.512300	0.390300	0.817700
H281	H28	0.595400	0.422400	0.894000
H291	H29	0.535600	0.576300	0.894900
H301	H30	0.490500	0.548700	0.802100
H311	H31	0.815100	0.916200	0.618200
H321	H32	0.935100	0.152200	0.539300
H331	H33	0.568800	0.199700	0.307200
H341	H34	0.550300	0.208000	0.154100
H351	H35	0.646300	0.498100	0.680100
H361	H36	0.761100	0.575700	0.794500
H371	H37	0.012300	0.109700	0.682300
H381	H38	0.095400	0.077600	0.606000
H391	H39	0.035600	0.923700	0.605100
H401	H40	0.990500	0.951300	0.697900
C11	C1	0.106400	0.713800	0.820700
C21	C2	0.001800	0.707000	0.779700
C31	C3	0.012500	0.712300	0.691100
C41	C4	0.125000	0.724700	0.665700
C51	C5	0.132600	0.715200	0.913000
C61	C6	0.168700	0.739800	0.579500
C71	C7	0.764100	0.874300	0.191000
C81	C8	0.795100	0.967700	0.208500
C91	C9	0.728600	0.012500	0.274100
C101	C10	0.647100	0.953100	0.304600
C111	C11	0.815900	0.799800	0.131400
C121	C12	0.562600	0.970700	0.374400
C131	C13	0.658800	0.538500	0.064400
C141	C14	0.482300	0.571800	0.128800
C151	C15	0.514200	0.466800	0.139200
C161	C16	0.606400	0.786200	0.679300
C171	C17	0.501800	0.793000	0.720300
C181	C18	0.512500	0.787700	0.808900
C191	C19	0.625000	0.775300	0.834300
C201	C20	0.632600	0.784800	0.587000
C211	C21	0.668700	0.760200	0.920500
C221	C22	0.264100	0.625700	0.309000
C231	C23	0.295100	0.532300	0.291500
C241	C24	0.228600	0.487500	0.225900
C251	C25	0.147100	0.546900	0.195400
C261	C26	0.315900	0.700200	0.368600
C271	C27	0.062600	0.529300	0.125600
C281	C28	0.158800	0.961500	0.435600
C291	C29	0.982300	0.928200	0.371200
C301	C30	0.014200	0.033200	0.360800
C311	C31	0.893600	0.286200	0.179300
C321	C32	0.998200	0.293000	0.220300
C331	C33	0.987500	0.287700	0.308900
C341	C34	0.875000	0.275300	0.334300
C351	C35	0.867400	0.284800	0.087000
C361	C36	0.831300	0.260200	0.420500
C371	C37	0.235900	0.125700	0.809000
C381	C38	0.204900	0.032300	0.791500
C391	C39	0.271400	0.987500	0.725900
C401	C40	0.352900	0.046900	0.695400
C411	C41	0.184100	0.200200	0.868600
C421	C42	0.437400	0.029300	0.625600
C431	C43	0.341200	0.461500	0.935600
C441	C44	0.517700	0.428200	0.871200
C451	C45	0.485800	0.533200	0.860800
C461	C46	0.393600	0.213800	0.320700
C471	C47	0.498200	0.207000	0.279700
C481	C48	0.487500	0.212300	0.191100
C491	C49	0.375000	0.224700	0.165700
C501	C50	0.367400	0.215200	0.413000
C511	C51	0.331300	0.239800	0.079500
C521	C52	0.735900	0.374300	0.691000
C531	C53	0.704900	0.467700	0.708500
C541	C54	0.771400	0.512500	0.774100
C551	C55	0.852900	0.453100	0.804600
C561	C56	0.684100	0.299800	0.631400
C571	C57	0.937400	0.470700	0.874400
C581	C58	0.841200	0.038500	0.564400
C591	C59	0.017700	0.071800	0.628800
C601	C60	0.985800	0.966800	0.639200
S11	S1	0.218580	0.727830	0.750590
S21	S2	0.651140	0.841210	0.253390
S31	S3	0.718580	0.772170	0.749410
S41	S4	0.151140	0.658790	0.246610
S51	S5	0.781420	0.272170	0.249410
S61	S6	0.348860	0.158790	0.746610
S71	S7	0.281420	0.227830	0.250590
S81	S8	0.848860	0.341210	0.753390
N11	N1	0.634000	0.463000	0.108500
N21	N2	0.569800	0.600100	0.069400
N31	N3	0.134000	0.037000	0.391500
N41	N4	0.069800	0.899900	0.430600
N51	N5	0.366000	0.537000	0.891500
N61	N6	0.430200	0.399900	0.930600
N71	N7	0.866000	0.963000	0.608500
N81	N8	0.930200	0.100100	0.569400
O11	O1	0.046300	0.725970	0.962670
O21	O2	0.235700	0.710500	0.935100
O31	O3	0.272900	0.771010	0.576210
O41	O4	0.103900	0.723300	0.518000
O51	O5	0.780500	0.714880	0.134580
O61	O6	0.892900	0.821800	0.079800
O71	O7	0.560800	0.050960	0.413460
O81	O8	0.496100	0.902070	0.388570
O91	O9	0.750400	0.548900	0.023400
O101	O10	0.546300	0.774030	0.537330
O111	O11	0.735700	0.789500	0.564900
O121	O12	0.772900	0.728990	0.923790
O131	O13	0.603900	0.776700	0.982000
O141	O14	0.280500	0.785120	0.365420
O151	O15	0.392900	0.678200	0.420200
O161	O16	0.060800	0.449040	0.086540
O171	O17	0.996100	0.597930	0.111430
O181	O18	0.250400	0.951100	0.476600
O191	O19	0.953700	0.274030	0.037330
O201	O20	0.764300	0.289500	0.064900
O211	O21	0.727100	0.228990	0.423790
O221	O22	0.896100	0.276700	0.482000
O231	O23	0.219500	0.285120	0.865420
O241	O24	0.107100	0.178200	0.920200
O251	O25	0.439200	0.949040	0.586540
O261	O26	0.503900	0.097930	0.611430
O271	O27	0.249600	0.451100	0.976600
O281	O28	0.453700	0.225970	0.462670
O291	O29	0.264300	0.210500	0.435100
O301	O30	0.227100	0.271010	0.076210
O311	O31	0.396100	0.223300	0.018000
O321	O32	0.719500	0.214880	0.634580
O331	O33	0.607100	0.321800	0.579800
O341	O34	0.939200	0.550960	0.913460
O351	O35	0.003900	0.402070	0.888570
O361	O36	0.749600	0.048900	0.523400
