data_HAWWIN_freeONLY_PM
_symmetry_space_group_name_H-M	'P1'
_cell_length_a	11.687100
_cell_length_b	17.341300
_cell_length_c	25.851200
_cell_angle_alpha	102.301000
_cell_angle_beta	90.000000
_cell_angle_gamma	90.000000
_symmetry_Int_Tables_number 1

loop_
_symmetry_equiv_pos_as_xyz
'x,y,z'

loop_
_atom_site_label
_atom_site_type_symbol
_atom_site_fract_x
_atom_site_fract_y
_atom_site_fract_z
Nd11	Nd1	0.028270	0.486780	0.419030
Nd21	Nd2	0.492060	0.039280	0.580590
Nd31	Nd3	0.028270	0.013220	0.080970
Nd41	Nd4	0.492060	0.460720	0.919410
Nd51	Nd5	0.971730	0.513220	0.580970
Nd61	Nd6	0.507940	0.960720	0.419410
Nd71	Nd7	0.971730	0.986780	0.919030
Nd81	Nd8	0.507940	0.539280	0.080590
H11	H1	0.914800	0.308200	0.334800
H21	H2	0.211300	0.249300	0.320400
H31	H3	0.366000	0.598500	0.366300
H41	H4	0.331800	0.519900	0.491100
H51	H5	0.668500	0.891100	0.637300
H61	H6	0.666700	0.074700	0.744500
H71	H7	0.505300	0.300100	0.692500
H81	H8	0.250300	0.176400	0.642300
H91	H9	0.775700	0.249500	0.395300
H101	H10	0.672200	0.134600	0.411800
H111	H11	0.028100	0.576500	0.236600
H121	H12	0.912200	0.580100	0.158700
H131	H13	0.735000	0.644200	0.573800
H141	H14	0.628300	0.767100	0.592200
H151	H15	0.097200	0.128900	0.323300
H161	H16	0.098100	0.146400	0.265700
H171	H17	0.918800	0.166500	0.332900
H181	H18	0.919600	0.183800	0.275200
H191	H19	0.413300	0.655800	0.510900
H201	H20	0.509900	0.590700	0.498300
H211	H21	0.540900	0.617500	0.418400
H221	H22	0.459300	0.691500	0.435200
H231	H23	0.752600	0.954400	0.768000
H241	H24	0.626800	0.972700	0.790100
H251	H25	0.546100	0.885400	0.719500
H261	H26	0.667400	0.843900	0.716600
H271	H27	0.337500	0.357200	0.739300
H281	H28	0.352700	0.386900	0.686000
H291	H29	0.204400	0.314800	0.650500
H301	H30	0.183700	0.290200	0.705200
H311	H31	0.914800	0.191800	0.165200
H321	H32	0.211300	0.250700	0.179600
H331	H33	0.366000	0.901500	0.133700
H341	H34	0.331800	0.980100	0.008900
H351	H35	0.668500	0.608900	0.862700
H361	H36	0.666700	0.425300	0.755500
H371	H37	0.505300	0.199900	0.807500
H381	H38	0.250300	0.323600	0.857700
H391	H39	0.775700	0.250500	0.104700
H401	H40	0.672200	0.365400	0.088200
H411	H41	0.028100	0.923500	0.263400
H421	H42	0.912200	0.919900	0.341300
H431	H43	0.735000	0.855800	0.926200
H441	H44	0.628300	0.732900	0.907800
H451	H45	0.097200	0.371100	0.176700
H461	H46	0.098100	0.353600	0.234300
H471	H47	0.918800	0.333500	0.167100
H481	H48	0.919600	0.316200	0.224800
H491	H49	0.413300	0.844200	0.989100
H501	H50	0.509900	0.909300	0.001700
H511	H51	0.540900	0.882500	0.081600
H521	H52	0.459300	0.808500	0.064800
H531	H53	0.752600	0.545600	0.732000
H541	H54	0.626800	0.527300	0.709900
H551	H55	0.546100	0.614600	0.780500
H561	H56	0.667400	0.656100	0.783400
H571	H57	0.337500	0.142800	0.760700
H581	H58	0.352700	0.113100	0.814000
H591	H59	0.204400	0.185200	0.849500
H601	H60	0.183700	0.209800	0.794800
H611	H61	0.085200	0.691800	0.665200
H621	H62	0.788700	0.750700	0.679600
H631	H63	0.634000	0.401500	0.633700
H641	H64	0.668200	0.480100	0.508900
H651	H65	0.331500	0.108900	0.362700
H661	H66	0.333300	0.925300	0.255500
H671	H67	0.494700	0.699900	0.307500
H681	H68	0.749700	0.823600	0.357700
H691	H69	0.224300	0.750500	0.604700
H701	H70	0.327800	0.865400	0.588200
H711	H71	0.971900	0.423500	0.763400
H721	H72	0.087800	0.419900	0.841300
H731	H73	0.265000	0.355800	0.426200
H741	H74	0.371700	0.232900	0.407800
H751	H75	0.902800	0.871100	0.676700
H761	H76	0.901900	0.853600	0.734300
H771	H77	0.081200	0.833500	0.667100
H781	H78	0.080400	0.816200	0.724800
H791	H79	0.586700	0.344200	0.489100
H801	H80	0.490100	0.409300	0.501700
H811	H81	0.459100	0.382500	0.581600
H821	H82	0.540700	0.308500	0.564800
H831	H83	0.247400	0.045600	0.232000
H841	H84	0.373200	0.027300	0.209900
H851	H85	0.453900	0.114600	0.280500
H861	H86	0.332600	0.156100	0.283400
H871	H87	0.662500	0.642800	0.260700
H881	H88	0.647300	0.613100	0.314000
H891	H89	0.795600	0.685200	0.349500
H901	H90	0.816300	0.709800	0.294800
H911	H91	0.085200	0.808200	0.834800
H921	H92	0.788700	0.749300	0.820400
H931	H93	0.634000	0.098500	0.866300
H941	H94	0.668200	0.019900	0.991100
H951	H95	0.331500	0.391100	0.137300
H961	H96	0.333300	0.574700	0.244500
H971	H97	0.494700	0.800100	0.192500
H981	H98	0.749700	0.676400	0.142300
H991	H99	0.224300	0.749500	0.895300
H1001	H100	0.327800	0.634600	0.911800
H1011	H101	0.971900	0.076500	0.736600
H1021	H102	0.087800	0.080100	0.658700
H1031	H103	0.265000	0.144200	0.073800
H1041	H104	0.371700	0.267100	0.092200
H1051	H105	0.902800	0.628900	0.823300
H1061	H106	0.901900	0.646400	0.765700
H1071	H107	0.081200	0.666500	0.832900
H1081	H108	0.080400	0.683800	0.775200
H1091	H109	0.586700	0.155800	0.010900
H1101	H110	0.490100	0.090700	0.998300
H1111	H111	0.459100	0.117500	0.918400
H1121	H112	0.540700	0.191500	0.935200
H1131	H113	0.247400	0.454400	0.268000
H1141	H114	0.373200	0.472700	0.290100
H1151	H115	0.453900	0.385400	0.219500
H1161	H116	0.332600	0.343900	0.216600
H1171	H117	0.662500	0.857200	0.239300
H1181	H118	0.647300	0.886900	0.186000
H1191	H119	0.795600	0.814800	0.150500
H1201	H120	0.816300	0.790200	0.205200
C11	C1	0.816400	0.282000	0.473100
C21	C2	0.769100	0.237500	0.428600
C31	C3	0.709000	0.171200	0.438100
C41	C4	0.710900	0.167000	0.489900
C51	C5	0.882600	0.356800	0.480400
C61	C6	0.655100	0.110400	0.517600
C71	C7	0.905600	0.511500	0.263700
C81	C8	0.956700	0.552600	0.230300
C91	C9	0.889800	0.554700	0.185300
C101	C10	0.789800	0.516100	0.185100
C111	C11	0.949600	0.499990	0.315090
C121	C12	0.696000	0.511900	0.146200
C131	C13	0.769000	0.658850	0.499750
C141	C14	0.725300	0.676100	0.549400
C151	C15	0.664200	0.747100	0.560000
C161	C16	0.662500	0.783700	0.518800
C171	C17	0.840500	0.591300	0.474800
C181	C18	0.609300	0.860100	0.514800
C191	C19	0.079400	0.167700	0.302500
C201	C20	0.959300	0.193000	0.308900
C211	C21	0.069800	0.297700	0.344500
C221	C22	0.441600	0.611300	0.484700
C231	C23	0.465500	0.634800	0.431800
C241	C24	0.312200	0.546800	0.421200
C251	C25	0.674000	0.962700	0.758500
C261	C26	0.628000	0.892800	0.715700
C271	C27	0.652100	0.999600	0.679100
C281	C28	0.343400	0.340700	0.701100
C291	C29	0.239900	0.293000	0.678100
C301	C30	0.401500	0.216000	0.662900
C311	C31	0.816400	0.218000	0.026900
C321	C32	0.769100	0.262500	0.071400
C331	C33	0.709000	0.328800	0.061900
C341	C34	0.710900	0.333000	0.010100
C351	C35	0.882600	0.143200	0.019600
C361	C36	0.655100	0.389600	0.982400
C371	C37	0.905600	0.988500	0.236300
C381	C38	0.956700	0.947400	0.269700
C391	C39	0.889800	0.945300	0.314700
C401	C40	0.789800	0.983900	0.314900
C411	C41	0.949600	0.000010	0.184910
C421	C42	0.696000	0.988100	0.353800
C431	C43	0.769000	0.841150	0.000250
C441	C44	0.725300	0.823900	0.950600
C451	C45	0.664200	0.752900	0.940000
C461	C46	0.662500	0.716300	0.981200
C471	C47	0.840500	0.908700	0.025200
C481	C48	0.609300	0.639900	0.985200
C491	C49	0.079400	0.332300	0.197500
C501	C50	0.959300	0.307000	0.191100
C511	C51	0.069800	0.202300	0.155500
C521	C52	0.441600	0.888700	0.015300
C531	C53	0.465500	0.865200	0.068200
C541	C54	0.312200	0.953200	0.078800
C551	C55	0.674000	0.537300	0.741500
C561	C56	0.628000	0.607200	0.784300
C571	C57	0.652100	0.500400	0.820900
C581	C58	0.343400	0.159300	0.798900
C591	C59	0.239900	0.207000	0.821900
C601	C60	0.401500	0.284000	0.837100
C611	C61	0.183600	0.718000	0.526900
C621	C62	0.230900	0.762500	0.571400
C631	C63	0.291000	0.828800	0.561900
C641	C64	0.289100	0.833000	0.510100
C651	C65	0.117400	0.643200	0.519600
C661	C66	0.344900	0.889600	0.482400
C671	C67	0.094400	0.488500	0.736300
C681	C68	0.043300	0.447400	0.769700
C691	C69	0.110200	0.445300	0.814700
C701	C70	0.210200	0.483900	0.814900
C711	C71	0.050400	0.500010	0.684910
C721	C72	0.304000	0.488100	0.853800
C731	C73	0.231000	0.341150	0.500250
C741	C74	0.274700	0.323900	0.450600
C751	C75	0.335800	0.252900	0.440000
C761	C76	0.337500	0.216300	0.481200
C771	C77	0.159500	0.408700	0.525200
C781	C78	0.390700	0.139900	0.485200
C791	C79	0.920600	0.832300	0.697500
C801	C80	0.040700	0.807000	0.691100
C811	C81	0.930200	0.702300	0.655500
C821	C82	0.558400	0.388700	0.515300
C831	C83	0.534500	0.365200	0.568200
C841	C84	0.687800	0.453200	0.578800
C851	C85	0.326000	0.037300	0.241500
C861	C86	0.372000	0.107200	0.284300
C871	C87	0.347900	0.000400	0.320900
C881	C88	0.656600	0.659300	0.298900
C891	C89	0.760100	0.707000	0.321900
C901	C90	0.598500	0.784000	0.337100
C911	C91	0.183600	0.782000	0.973100
C921	C92	0.230900	0.737500	0.928600
C931	C93	0.291000	0.671200	0.938100
C941	C94	0.289100	0.667000	0.989900
C951	C95	0.117400	0.856800	0.980400
C961	C96	0.344900	0.610400	0.017600
C971	C97	0.094400	0.011500	0.763700
C981	C98	0.043300	0.052600	0.730300
C991	C99	0.110200	0.054700	0.685300
C1001	C100	0.210200	0.016100	0.685100
C1011	C101	0.050400	0.999990	0.815090
C1021	C102	0.304000	0.011900	0.646200
C1031	C103	0.231000	0.158850	0.999750
C1041	C104	0.274700	0.176100	0.049400
C1051	C105	0.335800	0.247100	0.060000
C1061	C106	0.337500	0.283700	0.018800
C1071	C107	0.159500	0.091300	0.974800
C1081	C108	0.390700	0.360100	0.014800
C1091	C109	0.920600	0.667700	0.802500
C1101	C110	0.040700	0.693000	0.808900
C1111	C111	0.930200	0.797700	0.844500
C1121	C112	0.558400	0.111300	0.984700
C1131	C113	0.534500	0.134800	0.931800
C1141	C114	0.687800	0.046800	0.921200
C1151	C115	0.326000	0.462700	0.258500
C1161	C116	0.372000	0.392800	0.215700
C1171	C117	0.347900	0.499600	0.179100
C1181	C118	0.656600	0.840700	0.201100
C1191	C119	0.760100	0.793000	0.178100
C1201	C120	0.598500	0.716000	0.162900
S11	S1	0.786020	0.244070	0.527690
S21	S2	0.733680	0.729170	0.465250
S31	S3	0.775380	0.474430	0.239490
S41	S4	0.786020	0.255930	0.972310
S51	S5	0.733680	0.770830	0.034750
S61	S6	0.775380	0.025570	0.260510
S71	S7	0.213980	0.755930	0.472310
S81	S8	0.266320	0.270830	0.534750
S91	S9	0.224620	0.525570	0.760510
S101	S10	0.213980	0.744070	0.027690
S111	S11	0.266320	0.229170	0.965250
S121	S12	0.224620	0.974430	0.739490
N11	N1	0.971700	0.276000	0.331100
N21	N2	0.138700	0.242900	0.322800
N31	N3	0.376600	0.593500	0.398300
N41	N4	0.354000	0.550100	0.470600
N51	N5	0.654100	0.920500	0.667800
N61	N6	0.664400	0.025300	0.729600
N71	N7	0.434600	0.287400	0.686600
N81	N8	0.289500	0.217000	0.657100
N91	N9	0.971700	0.224000	0.168900
N101	N10	0.138700	0.257100	0.177200
N111	N11	0.376600	0.906500	0.101700
N121	N12	0.354000	0.949900	0.029400
N131	N13	0.654100	0.579500	0.832200
N141	N14	0.664400	0.474700	0.770400
N151	N15	0.434600	0.212600	0.813400
N161	N16	0.289500	0.283000	0.842900
N171	N17	0.028300	0.724000	0.668900
N181	N18	0.861300	0.757100	0.677200
N191	N19	0.623400	0.406500	0.601700
N201	N20	0.646000	0.449900	0.529400
N211	N21	0.345900	0.079500	0.332200
N221	N22	0.335600	0.974700	0.270400
N231	N23	0.565400	0.712600	0.313400
N241	N24	0.710500	0.783000	0.342900
N251	N25	0.028300	0.776000	0.831100
N261	N26	0.861300	0.742900	0.822800
N271	N27	0.623400	0.093500	0.898300
N281	N28	0.646000	0.050100	0.970600
N291	N29	0.345900	0.420500	0.167800
N301	N30	0.335600	0.525300	0.229600
N311	N31	0.565400	0.787400	0.186600
N321	N32	0.710500	0.717000	0.157100
O11	O1	0.904900	0.382220	0.439320
O21	O2	0.909600	0.387750	0.526750
O31	O3	0.648700	0.129760	0.566560
O41	O4	0.612400	0.046670	0.491870
O51	O5	0.033400	0.539510	0.335510
O61	O6	0.901100	0.449940	0.336640
O71	O7	0.603500	0.480250	0.152650
O81	O8	0.713700	0.543630	0.107030
O91	O9	0.880200	0.545750	0.503450
O101	O10	0.863000	0.580310	0.426810
O111	O11	0.598100	0.872400	0.469000
O121	O12	0.581200	0.905870	0.557170
O131	O13	0.104900	0.365900	0.364400
O141	O14	0.231300	0.506100	0.401200
O151	O15	0.468600	0.159270	0.648170
O161	O16	0.643000	0.039810	0.645810
O171	O17	0.904900	0.117780	0.060680
O181	O18	0.909600	0.112250	0.973250
O191	O19	0.648700	0.370240	0.933440
O201	O20	0.612400	0.453330	0.008130
O211	O21	0.033400	0.960490	0.164490
O221	O22	0.901100	0.050060	0.163360
O231	O23	0.603500	0.019750	0.347350
O241	O24	0.713700	0.956370	0.392970
O251	O25	0.880200	0.954250	0.996550
O261	O26	0.863000	0.919690	0.073190
O271	O27	0.598100	0.627600	0.031000
O281	O28	0.581200	0.594130	0.942830
O291	O29	0.104900	0.134100	0.135600
O301	O30	0.231300	0.993900	0.098800
O311	O31	0.468600	0.340730	0.851830
O321	O32	0.643000	0.460190	0.854190
O331	O33	0.095100	0.617780	0.560680
O341	O34	0.090400	0.612250	0.473250
O351	O35	0.351300	0.870240	0.433440
O361	O36	0.387600	0.953330	0.508130
O371	O37	0.966600	0.460490	0.664490
O381	O38	0.098900	0.550060	0.663360
O391	O39	0.396500	0.519750	0.847350
O401	O40	0.286300	0.456370	0.892970
O411	O41	0.119800	0.454250	0.496550
O421	O42	0.137000	0.419690	0.573190
O431	O43	0.401900	0.127600	0.531000
O441	O44	0.418800	0.094130	0.442830
O451	O45	0.895100	0.634100	0.635600
O461	O46	0.768700	0.493900	0.598800
O471	O47	0.531400	0.840730	0.351830
O481	O48	0.357000	0.960190	0.354190
O491	O49	0.095100	0.882220	0.939320
O501	O50	0.090400	0.887750	0.026750
O511	O51	0.351300	0.629760	0.066560
O521	O52	0.387600	0.546670	0.991870
O531	O53	0.966600	0.039510	0.835510
O541	O54	0.098900	0.949940	0.836640
O551	O55	0.396500	0.980250	0.652650
O561	O56	0.286300	0.043630	0.607030
O571	O57	0.119800	0.045750	0.003450
O581	O58	0.137000	0.080310	0.926810
O591	O59	0.401900	0.372400	0.969000
O601	O60	0.418800	0.405870	0.057170
O611	O61	0.895100	0.865900	0.864400
O621	O62	0.768700	0.006100	0.901200
O631	O63	0.531400	0.659270	0.148170
O641	O64	0.357000	0.539810	0.145810
