data_HAWWAF_freeONLY_PM
_symmetry_space_group_name_H-M	'P1'
_cell_length_a	11.540800
_cell_length_b	16.159000
_cell_length_c	12.001900
_cell_angle_alpha	90.000000
_cell_angle_beta	112.733000
_cell_angle_gamma	90.000000
_symmetry_Int_Tables_number 1

loop_
_symmetry_equiv_pos_as_xyz
'x,y,z'

loop_
_atom_site_label
_atom_site_type_symbol
_atom_site_fract_x
_atom_site_fract_y
_atom_site_fract_z
Dy11	Dy1	0.194490	0.027810	0.078780
S11	S1	0.052940	0.218910	0.712430
S21	S2	0.489250	0.283590	0.250720
O11	O1	0.129310	0.076230	0.879580
O21	O2	0.936910	0.029490	0.843110
O31	O3	0.056750	0.363730	0.567880
O41	O4	0.857250	0.402060	0.523290
O51	O5	0.274700	0.104330	0.279880
O61	O6	0.337400	0.139710	0.135680
O71	O7	0.647680	0.434790	0.292650
O81	O8	0.623480	0.477350	0.456930
C11	C1	0.956700	0.152400	0.748200
C21	C2	0.833800	0.176700	0.698700
H11	H1	0.768500	0.148300	0.708900
C31	C3	0.817800	0.249510	0.630800
H21	H2	0.740300	0.274900	0.591400
C41	C4	0.927600	0.279390	0.628200
C51	C5	0.011600	0.081460	0.828800
C61	C6	0.949100	0.354100	0.568600
C71	C7	0.392900	0.228040	0.303400
C81	C8	0.382900	0.265400	0.400800
H31	H3	0.334800	0.244300	0.441200
C91	C9	0.452100	0.338710	0.434100
H41	H4	0.454400	0.371900	0.498200
C101	C10	0.516200	0.356270	0.362100
C111	C11	0.331200	0.152470	0.237300
C121	C12	0.600100	0.427270	0.370900
Dy21	Dy2	0.805510	0.527810	0.421220
S31	S3	0.947060	0.718910	0.787570
S41	S4	0.510750	0.783590	0.249280
O91	O9	0.870690	0.576230	0.620420
O101	O10	0.063090	0.529490	0.656890
O111	O11	0.943250	0.863730	0.932120
O121	O12	0.142750	0.902060	0.976710
O131	O13	0.725300	0.604330	0.220120
O141	O14	0.662600	0.639710	0.364320
O151	O15	0.352320	0.934790	0.207350
O161	O16	0.376520	0.977350	0.043070
C131	C13	0.043300	0.652400	0.751800
C141	C14	0.166200	0.676700	0.801300
H51	H5	0.231500	0.648300	0.791100
C151	C15	0.182200	0.749510	0.869200
H61	H6	0.259700	0.774900	0.908600
C161	C16	0.072400	0.779390	0.871800
C171	C17	0.988400	0.581460	0.671200
C181	C18	0.050900	0.854100	0.931400
C191	C19	0.607100	0.728040	0.196600
C201	C20	0.617100	0.765400	0.099200
H71	H7	0.665200	0.744300	0.058800
C211	C21	0.547900	0.838710	0.065900
H81	H8	0.545600	0.871900	0.001800
C221	C22	0.483800	0.856270	0.137900
C231	C23	0.668800	0.652470	0.262700
C241	C24	0.399900	0.927270	0.129100
Dy31	Dy3	0.805510	0.972190	0.921220
S51	S5	0.947060	0.781090	0.287570
S61	S6	0.510750	0.716410	0.749280
O171	O17	0.870690	0.923770	0.120420
O181	O18	0.063090	0.970510	0.156890
O191	O19	0.943250	0.636270	0.432120
O201	O20	0.142750	0.597940	0.476710
O211	O21	0.725300	0.895670	0.720120
O221	O22	0.662600	0.860290	0.864320
O231	O23	0.352320	0.565210	0.707350
O241	O24	0.376520	0.522650	0.543070
C251	C25	0.043300	0.847600	0.251800
C261	C26	0.166200	0.823300	0.301300
H91	H9	0.231500	0.851700	0.291100
C271	C27	0.182200	0.750490	0.369200
H101	H10	0.259700	0.725100	0.408600
C281	C28	0.072400	0.720610	0.371800
C291	C29	0.988400	0.918540	0.171200
C301	C30	0.050900	0.645900	0.431400
C311	C31	0.607100	0.771960	0.696600
C321	C32	0.617100	0.734600	0.599200
H111	H11	0.665200	0.755700	0.558800
C331	C33	0.547900	0.661290	0.565900
H121	H12	0.545600	0.628100	0.501800
C341	C34	0.483800	0.643730	0.637900
C351	C35	0.668800	0.847530	0.762700
C361	C36	0.399900	0.572730	0.629100
Dy41	Dy4	0.194490	0.472190	0.578780
S71	S7	0.052940	0.281090	0.212430
S81	S8	0.489250	0.216410	0.750720
O251	O25	0.129310	0.423770	0.379580
O261	O26	0.936910	0.470510	0.343110
O271	O27	0.056750	0.136270	0.067880
O281	O28	0.857250	0.097940	0.023290
O291	O29	0.274700	0.395670	0.779880
O301	O30	0.337400	0.360290	0.635680
O311	O31	0.647680	0.065210	0.792650
O321	O32	0.623480	0.022650	0.956930
C371	C37	0.956700	0.347600	0.248200
C381	C38	0.833800	0.323300	0.198700
H131	H13	0.768500	0.351700	0.208900
C391	C39	0.817800	0.250490	0.130800
H141	H14	0.740300	0.225100	0.091400
C401	C40	0.927600	0.220610	0.128200
C411	C41	0.011600	0.418540	0.328800
C421	C42	0.949100	0.145900	0.068600
C431	C43	0.392900	0.271960	0.803400
C441	C44	0.382900	0.234600	0.900800
H151	H15	0.334800	0.255700	0.941200
C451	C45	0.452100	0.161290	0.934100
H161	H16	0.454400	0.128100	0.998200
C461	C46	0.516200	0.143730	0.862100
C471	C47	0.331200	0.347530	0.737300
C481	C48	0.600100	0.072730	0.870900
