data_HAWWOT_freeONLY_PM
_symmetry_space_group_name_H-M	'P1'
_cell_length_a	12.179900
_cell_length_b	16.983600
_cell_length_c	25.780200
_cell_angle_alpha	102.109000
_cell_angle_beta	90.000000
_cell_angle_gamma	90.000000
_symmetry_Int_Tables_number 1

loop_
_symmetry_equiv_pos_as_xyz
'x,y,z'

loop_
_atom_site_label
_atom_site_type_symbol
_atom_site_fract_x
_atom_site_fract_y
_atom_site_fract_z
Nd11	Nd1	0.476390	0.485660	0.418480
Nd21	Nd2	0.998450	0.960570	0.417490
Nd31	Nd3	0.476390	0.014340	0.081520
Nd41	Nd4	0.998450	0.539430	0.082510
Nd51	Nd5	0.523610	0.514340	0.581520
Nd61	Nd6	0.001550	0.039430	0.582510
Nd71	Nd7	0.523610	0.985660	0.918480
Nd81	Nd8	0.001550	0.460570	0.917490
H11	H1	0.155300	0.594500	0.365200
H21	H2	0.176400	0.509500	0.488500
H31	H3	0.608600	0.310500	0.337000
H41	H4	0.327900	0.234400	0.307400
H51	H5	0.043700	0.697000	0.305000
H61	H6	0.788300	0.813100	0.346400
H71	H7	0.315300	0.019700	0.312700
H81	H8	0.022200	0.993600	0.279800
H91	H9	0.714700	0.670000	0.579200
H101	H10	0.825000	0.794000	0.594600
H111	H11	0.489700	0.580800	0.239000
H121	H12	0.600000	0.588600	0.161500
H131	H13	0.268300	0.744200	0.602400
H141	H14	0.173200	0.864700	0.589300
H151	H15	0.001600	0.573700	0.488100
H161	H16	0.088500	0.642000	0.508900
H171	H17	0.064700	0.687700	0.436000
H181	H18	0.984000	0.615600	0.413400
H191	H19	0.581700	0.150300	0.337400
H201	H20	0.612500	0.163700	0.280600
H211	H21	0.458600	0.137100	0.253800
H221	H22	0.435000	0.109000	0.307600
H231	H23	0.754200	0.670900	0.341200
H241	H24	0.736100	0.693100	0.285300
H251	H25	0.890200	0.629000	0.254400
H261	H26	0.902400	0.600200	0.308700
H271	H27	0.276300	0.000200	0.218000
H281	H28	0.270300	0.092400	0.244900
H291	H29	0.102000	0.093800	0.234700
H301	H30	0.111500	0.004900	0.200400
H311	H31	0.155300	0.905500	0.134800
H321	H32	0.176400	0.990500	0.011500
H331	H33	0.608600	0.189500	0.163000
H341	H34	0.327900	0.265600	0.192600
H351	H35	0.043700	0.803000	0.195000
H361	H36	0.788300	0.686900	0.153600
H371	H37	0.315300	0.480300	0.187300
H381	H38	0.022200	0.506400	0.220200
H391	H39	0.714700	0.830000	0.920800
H401	H40	0.825000	0.706000	0.905400
H411	H41	0.489700	0.919200	0.261000
H421	H42	0.600000	0.911400	0.338500
H431	H43	0.268300	0.755800	0.897600
H441	H44	0.173200	0.635300	0.910700
H451	H45	0.001600	0.926300	0.011900
H461	H46	0.088500	0.858000	0.991100
H471	H47	0.064700	0.812300	0.064000
H481	H48	0.984000	0.884400	0.086600
H491	H49	0.581700	0.349700	0.162600
H501	H50	0.612500	0.336300	0.219400
H511	H51	0.458600	0.362900	0.246200
H521	H52	0.435000	0.391000	0.192400
H531	H53	0.754200	0.829100	0.158800
H541	H54	0.736100	0.806900	0.214700
H551	H55	0.890200	0.871000	0.245600
H561	H56	0.902400	0.899800	0.191300
H571	H57	0.276300	0.499800	0.282000
H581	H58	0.270300	0.407600	0.255100
H591	H59	0.102000	0.406200	0.265300
H601	H60	0.111500	0.495100	0.299600
H611	H61	0.844700	0.405500	0.634800
H621	H62	0.823600	0.490500	0.511500
H631	H63	0.391400	0.689500	0.663000
H641	H64	0.672100	0.765600	0.692600
H651	H65	0.956300	0.303000	0.695000
H661	H66	0.211700	0.186900	0.653600
H671	H67	0.684700	0.980300	0.687300
H681	H68	0.977800	0.006400	0.720200
H691	H69	0.285300	0.330000	0.420800
H701	H70	0.175000	0.206000	0.405400
H711	H71	0.510300	0.419200	0.761000
H721	H72	0.400000	0.411400	0.838500
H731	H73	0.731700	0.255800	0.397600
H741	H74	0.826800	0.135300	0.410700
H751	H75	0.998400	0.426300	0.511900
H761	H76	0.911500	0.358000	0.491100
H771	H77	0.935300	0.312300	0.564000
H781	H78	0.016000	0.384400	0.586600
H791	H79	0.418300	0.849700	0.662600
H801	H80	0.387500	0.836300	0.719400
H811	H81	0.541400	0.862900	0.746200
H821	H82	0.565000	0.891000	0.692400
H831	H83	0.245800	0.329100	0.658800
H841	H84	0.263900	0.306900	0.714700
H851	H85	0.109800	0.371000	0.745600
H861	H86	0.097600	0.399800	0.691300
H871	H87	0.723700	0.999800	0.782000
H881	H88	0.729700	0.907600	0.755100
H891	H89	0.898000	0.906200	0.765300
H901	H90	0.888500	0.995100	0.799600
H911	H91	0.844700	0.094500	0.865200
H921	H92	0.823600	0.009500	0.988500
H931	H93	0.391400	0.810500	0.837000
H941	H94	0.672100	0.734400	0.807400
H951	H95	0.956300	0.197000	0.805000
H961	H96	0.211700	0.313100	0.846400
H971	H97	0.684700	0.519700	0.812700
H981	H98	0.977800	0.493600	0.779800
H991	H99	0.285300	0.170000	0.079200
H1001	H100	0.175000	0.294000	0.094600
H1011	H101	0.510300	0.080800	0.739000
H1021	H102	0.400000	0.088600	0.661500
H1031	H103	0.731700	0.244200	0.102400
H1041	H104	0.826800	0.364700	0.089300
H1051	H105	0.998400	0.073700	0.988100
H1061	H106	0.911500	0.142000	0.008900
H1071	H107	0.935300	0.187700	0.936000
H1081	H108	0.016000	0.115600	0.913400
H1091	H109	0.418300	0.650300	0.837400
H1101	H110	0.387500	0.663700	0.780600
H1111	H111	0.541400	0.637100	0.753800
H1121	H112	0.565000	0.609000	0.807600
H1131	H113	0.245800	0.170900	0.841200
H1141	H114	0.263900	0.193100	0.785300
H1151	H115	0.109800	0.129000	0.754400
H1161	H116	0.097600	0.100200	0.808700
H1171	H117	0.723700	0.500200	0.718000
H1181	H118	0.729700	0.592400	0.744900
H1191	H119	0.898000	0.593800	0.734700
H1201	H120	0.888500	0.504900	0.700400
C11	C1	0.720000	0.664300	0.499600
C21	C2	0.740000	0.693900	0.552200
C31	C3	0.805100	0.765400	0.561100
C41	C4	0.834100	0.786600	0.515900
C51	C5	0.650300	0.595700	0.475400
C61	C6	0.897300	0.858500	0.511200
C71	C7	0.606700	0.516100	0.265300
C81	C8	0.558700	0.557300	0.232600
C91	C9	0.622100	0.562000	0.187800
C101	C10	0.720200	0.522900	0.187600
C111	C11	0.563100	0.500400	0.315600
C121	C12	0.810700	0.520800	0.149400
C131	C13	0.314800	0.718000	0.525200
C141	C14	0.265200	0.759900	0.570000
C151	C15	0.209000	0.828900	0.562400
C161	C16	0.213400	0.837100	0.510800
C171	C17	0.381200	0.643000	0.517300
C181	C18	0.160000	0.897700	0.485200
C191	C19	0.068800	0.598700	0.479400
C201	C20	0.055300	0.629700	0.429500
C211	C21	0.200700	0.540700	0.421100
C221	C22	0.560000	0.177200	0.309200
C231	C23	0.461000	0.153100	0.292100
C241	C24	0.455600	0.295000	0.340200
C251	C25	0.788700	0.693100	0.313500
C261	C26	0.891800	0.646500	0.292700
C271	C27	0.938900	0.777100	0.332200
C281	C28	0.239100	0.039800	0.244900
C291	C29	0.129400	0.040000	0.234100
C301	C30	0.155300	0.002600	0.316700
C311	C31	0.720000	0.835700	0.000400
C321	C32	0.740000	0.806100	0.947800
C331	C33	0.805100	0.734600	0.938900
C341	C34	0.834100	0.713400	0.984100
C351	C35	0.650300	0.904300	0.024600
C361	C36	0.897300	0.641500	0.988800
C371	C37	0.606700	0.983900	0.234700
C381	C38	0.558700	0.942700	0.267400
C391	C39	0.622100	0.938000	0.312200
C401	C40	0.720200	0.977100	0.312400
C411	C41	0.563100	0.999600	0.184400
C421	C42	0.810700	0.979200	0.350600
C431	C43	0.314800	0.782000	0.974800
C441	C44	0.265200	0.740100	0.930000
C451	C45	0.209000	0.671100	0.937600
C461	C46	0.213400	0.662900	0.989200
C471	C47	0.381200	0.857000	0.982700
C481	C48	0.160000	0.602300	0.014800
C491	C49	0.068800	0.901300	0.020600
C501	C50	0.055300	0.870300	0.070500
C511	C51	0.200700	0.959300	0.078900
C521	C52	0.560000	0.322800	0.190800
C531	C53	0.461000	0.346900	0.207900
C541	C54	0.455600	0.205000	0.159800
C551	C55	0.788700	0.806900	0.186500
C561	C56	0.891800	0.853500	0.207300
C571	C57	0.938900	0.722900	0.167800
C581	C58	0.239100	0.460200	0.255100
C591	C59	0.129400	0.460000	0.265900
C601	C60	0.155300	0.497400	0.183300
C611	C61	0.280000	0.335700	0.500400
C621	C62	0.260000	0.306100	0.447800
C631	C63	0.194900	0.234600	0.438900
C641	C64	0.165900	0.213400	0.484100
C651	C65	0.349700	0.404300	0.524600
C661	C66	0.102700	0.141500	0.488800
C671	C67	0.393300	0.483900	0.734700
C681	C68	0.441300	0.442700	0.767400
C691	C69	0.377900	0.438000	0.812200
C701	C70	0.279800	0.477100	0.812400
C711	C71	0.436900	0.499600	0.684400
C721	C72	0.189300	0.479200	0.850600
C731	C73	0.685200	0.282000	0.474800
C741	C74	0.734800	0.240100	0.430000
C751	C75	0.791000	0.171100	0.437600
C761	C76	0.786600	0.162900	0.489200
C771	C77	0.618800	0.357000	0.482700
C781	C78	0.840000	0.102300	0.514800
C791	C79	0.931200	0.401300	0.520600
C801	C80	0.944700	0.370300	0.570500
C811	C81	0.799300	0.459300	0.578900
C821	C82	0.440000	0.822800	0.690800
C831	C83	0.539000	0.846900	0.707900
C841	C84	0.544400	0.705000	0.659800
C851	C85	0.211300	0.306900	0.686500
C861	C86	0.108200	0.353500	0.707300
C871	C87	0.061100	0.222900	0.667800
C881	C88	0.760900	0.960200	0.755100
C891	C89	0.870600	0.960000	0.765900
C901	C90	0.844700	0.997400	0.683300
C911	C91	0.280000	0.164300	0.999600
C921	C92	0.260000	0.193900	0.052200
C931	C93	0.194900	0.265400	0.061100
C941	C94	0.165900	0.286600	0.015900
C951	C95	0.349700	0.095700	0.975400
C961	C96	0.102700	0.358500	0.011200
C971	C97	0.393300	0.016100	0.765300
C981	C98	0.441300	0.057300	0.732600
C991	C99	0.377900	0.062000	0.687800
C1001	C100	0.279800	0.022900	0.687600
C1011	C101	0.436900	0.000400	0.815600
C1021	C102	0.189300	0.020800	0.649400
C1031	C103	0.685200	0.218000	0.025200
C1041	C104	0.734800	0.259900	0.070000
C1051	C105	0.791000	0.328900	0.062400
C1061	C106	0.786600	0.337100	0.010800
C1071	C107	0.618800	0.143000	0.017300
C1081	C108	0.840000	0.397700	0.985200
C1091	C109	0.931200	0.098700	0.979400
C1101	C110	0.944700	0.129700	0.929500
C1111	C111	0.799300	0.040700	0.921100
C1121	C112	0.440000	0.677200	0.809200
C1131	C113	0.539000	0.653100	0.792100
C1141	C114	0.544400	0.795000	0.840200
C1151	C115	0.211300	0.193100	0.813500
C1161	C116	0.108200	0.146500	0.792700
C1171	C117	0.061100	0.277100	0.832200
C1181	C118	0.760900	0.539800	0.744900
C1191	C119	0.870600	0.540000	0.734100
C1201	C120	0.844700	0.502600	0.816700
S11	S1	0.782200	0.721860	0.462360
S21	S2	0.732400	0.480230	0.241490
S31	S3	0.289400	0.761600	0.472070
S41	S4	0.782200	0.778140	0.037640
S51	S5	0.732400	0.019770	0.258510
S61	S6	0.289400	0.738400	0.027930
S71	S7	0.217800	0.278140	0.537640
S81	S8	0.267600	0.519770	0.758510
S91	S9	0.710600	0.238400	0.527930
S101	S10	0.217800	0.221860	0.962360
S111	S11	0.267600	0.980230	0.741490
S121	S12	0.710600	0.261600	0.972070
N11	N1	0.142300	0.588700	0.397000
N21	N2	0.156000	0.540500	0.467800
N31	N3	0.554000	0.277700	0.332100
N41	N4	0.397000	0.230800	0.312800
N51	N5	0.974800	0.707000	0.309600
N61	N6	0.829800	0.772500	0.334100
N71	N7	0.253300	0.020100	0.296800
N81	N8	0.090000	0.008400	0.278800
N91	N9	0.142300	0.911300	0.103000
N101	N10	0.156000	0.959500	0.032200
N111	N11	0.554000	0.222300	0.167900
N121	N12	0.397000	0.269200	0.187200
N131	N13	0.974800	0.793000	0.190400
N141	N14	0.829800	0.727500	0.165900
N151	N15	0.253300	0.479900	0.203200
N161	N16	0.090000	0.491600	0.221200
N171	N17	0.857700	0.411300	0.603000
N181	N18	0.844000	0.459500	0.532200
N191	N19	0.446000	0.722300	0.667900
N201	N20	0.603000	0.769200	0.687200
N211	N21	0.025200	0.293000	0.690400
N221	N22	0.170200	0.227500	0.665900
N231	N23	0.746700	0.979900	0.703200
N241	N24	0.910000	0.991600	0.721200
N251	N25	0.857700	0.088700	0.897000
N261	N26	0.844000	0.040500	0.967800
N271	N27	0.446000	0.777700	0.832100
N281	N28	0.603000	0.730800	0.812800
N291	N29	0.025200	0.207000	0.809600
N301	N30	0.170200	0.272500	0.834100
N311	N31	0.746700	0.520100	0.796800
N321	N32	0.910000	0.508400	0.778800
O11	O1	0.608500	0.553200	0.505600
O21	O2	0.633500	0.582800	0.427600
O31	O3	0.923500	0.863400	0.465000
O41	O4	0.919000	0.907200	0.552700
O51	O5	0.610600	0.452400	0.338000
O61	O6	0.477700	0.536800	0.334500
O71	O7	0.798900	0.559800	0.112600
O81	O8	0.896200	0.482500	0.153300
O91	O9	0.409500	0.613200	0.471100
O101	O10	0.400000	0.615500	0.558000
O111	O11	0.165100	0.886700	0.436000
O121	O12	0.112800	0.957400	0.513500
O131	O13	0.280100	0.499500	0.400200
O141	O14	0.413300	0.361300	0.359600
O151	O15	0.996500	0.835800	0.348400
O161	O16	0.141700	0.974800	0.354600
O171	O17	0.608500	0.946800	0.994400
O181	O18	0.633500	0.917200	0.072400
O191	O19	0.923500	0.636600	0.035000
O201	O20	0.919000	0.592800	0.947300
O211	O21	0.610600	0.047600	0.162000
O221	O22	0.477700	0.963200	0.165500
O231	O23	0.798900	0.940200	0.387400
O241	O24	0.896200	0.017500	0.346700
O251	O25	0.409500	0.886800	0.028900
O261	O26	0.400000	0.884500	0.942000
O271	O27	0.165100	0.613300	0.064000
O281	O28	0.112800	0.542600	0.986500
O291	O29	0.280100	0.000500	0.099800
O301	O30	0.413300	0.138700	0.140400
O311	O31	0.996500	0.664200	0.151600
O321	O32	0.141700	0.525200	0.145400
O331	O33	0.391500	0.446800	0.494400
O341	O34	0.366500	0.417200	0.572400
O351	O35	0.076500	0.136600	0.535000
O361	O36	0.081000	0.092800	0.447300
O371	O37	0.389400	0.547600	0.662000
O381	O38	0.522300	0.463200	0.665500
O391	O39	0.201100	0.440200	0.887400
O401	O40	0.103800	0.517500	0.846700
O411	O41	0.590500	0.386800	0.528900
O421	O42	0.600000	0.384500	0.442000
O431	O43	0.834900	0.113300	0.564000
O441	O44	0.887200	0.042600	0.486500
O451	O45	0.719900	0.500500	0.599800
O461	O46	0.586700	0.638700	0.640400
O471	O47	0.003500	0.164200	0.651600
O481	O48	0.858300	0.025200	0.645400
O491	O49	0.391500	0.053200	0.005600
O501	O50	0.366500	0.082800	0.927600
O511	O51	0.076500	0.363400	0.965000
O521	O52	0.081000	0.407200	0.052700
O531	O53	0.389400	0.952400	0.838000
O541	O54	0.522300	0.036800	0.834500
O551	O55	0.201100	0.059800	0.612600
O561	O56	0.103800	0.982500	0.653300
O571	O57	0.590500	0.113200	0.971100
O581	O58	0.600000	0.115500	0.058000
O591	O59	0.834900	0.386700	0.936000
O601	O60	0.887200	0.457400	0.013500
O611	O61	0.719900	0.999500	0.900200
O621	O62	0.586700	0.861300	0.859600
O631	O63	0.003500	0.335800	0.848400
O641	O64	0.858300	0.474800	0.854600
