data_HAYLIE_freeONLY_PM
_symmetry_space_group_name_H-M	'P1'
_cell_length_a	10.303900
_cell_length_b	24.942500
_cell_length_c	11.574000
_cell_angle_alpha	90.000000
_cell_angle_beta	93.197000
_cell_angle_gamma	90.000000
_symmetry_Int_Tables_number 1

loop_
_symmetry_equiv_pos_as_xyz
'x,y,z'

loop_
_atom_site_label
_atom_site_type_symbol
_atom_site_fract_x
_atom_site_fract_y
_atom_site_fract_z
Zn11	Zn1	0.568230	0.220090	0.414410
Zn21	Zn2	0.069930	0.146780	0.435020
O11	O1	0.762000	0.191640	0.419900
O21	O2	0.883900	0.117110	0.427200
O31	O3	0.262800	0.178740	0.445100
O41	O4	0.379600	0.250030	0.400500
N11	N1	0.634700	0.301470	0.438900
N21	N2	0.848500	0.567550	0.554800
N31	N3	0.574900	0.230360	0.221900
N41	N4	0.569300	0.218140	0.608100
N51	N5	0.064600	0.139400	0.239400
N61	N6	0.066300	0.144660	0.625700
N71	N7	0.535400	0.136380	0.402300
H11	H1	0.474600	0.126600	0.453700
H21	H2	0.502400	0.128100	0.329000
N81	N8	0.727600	0.909990	0.168100
H31	H3	0.654500	0.892500	0.141100
H41	H4	0.793200	0.885900	0.180900
H51	H5	0.750900	0.934500	0.114800
N91	N9	0.037500	0.230650	0.424200
H61	H6	0.963600	0.237300	0.378100
H71	H7	0.025000	0.244100	0.496800
N101	N10	0.189400	0.445450	0.225700
H81	H8	0.198500	0.412300	0.194200
H91	H9	0.263600	0.464600	0.218100
H101	H10	0.121400	0.462700	0.188400
C11	C1	0.572100	0.343150	0.390100
H111	H11	0.500600	0.336600	0.336500
C21	C2	0.607900	0.396170	0.414800
H121	H12	0.560500	0.424900	0.379000
C31	C3	0.712200	0.406600	0.491300
C41	C4	0.778500	0.362970	0.541700
H131	H13	0.851500	0.368400	0.594200
C51	C5	0.736000	0.311630	0.513900
H141	H14	0.780700	0.282100	0.549600
C61	C6	0.755800	0.556030	0.473000
H151	H15	0.719500	0.584700	0.428000
C71	C7	0.710600	0.505660	0.450300
H161	H16	0.647000	0.499800	0.389000
C81	C8	0.757500	0.462770	0.516800
C91	C9	0.849500	0.474390	0.605100
H171	H17	0.882300	0.446700	0.654900
C101	C10	0.893500	0.526610	0.620500
H181	H18	0.958300	0.533700	0.680100
C111	C11	0.467900	0.240460	0.154500
H191	H19	0.389900	0.248300	0.191200
C121	C12	0.463900	0.240260	0.035000
H201	H20	0.384500	0.246900	0.991600
C131	C13	0.577000	0.230180	0.978900
C141	C14	0.689700	0.222900	0.048300
H211	H21	0.770900	0.218600	0.014300
C151	C15	0.683500	0.222100	0.166400
H221	H22	0.761500	0.215200	0.211700
C161	C16	0.481900	0.248290	0.661400
H231	H23	0.418000	0.267000	0.614900
C171	C17	0.480500	0.253510	0.781200
H241	H24	0.416400	0.274800	0.815200
C181	C18	0.575600	0.226710	0.850500
C191	C19	0.664100	0.196240	0.796100
H251	H25	0.729600	0.177200	0.840100
C201	C20	0.657500	0.193260	0.676300
H261	H26	0.720500	0.172000	0.640800
C211	C21	0.170500	0.150800	0.182600
H271	H27	0.248600	0.158600	0.226900
C221	C22	0.173500	0.152100	0.063700
H281	H28	0.251200	0.161900	0.028600
C231	C23	0.062900	0.138960	0.995400
C241	C24	0.955500	0.123880	0.054000
H291	H29	0.878900	0.112100	0.012000
C251	C25	0.958900	0.125760	0.172300
H301	H30	0.881900	0.116900	0.209400
C261	C26	0.141400	0.176580	0.693400
H311	H31	0.196800	0.201100	0.657200
C271	C27	0.143700	0.176240	0.811800
H321	H32	0.199000	0.200100	0.855500
C281	C28	0.063200	0.140210	0.867900
C291	C29	0.985300	0.107130	0.797300
H331	H33	0.930000	0.081700	0.830600
C301	C30	0.988100	0.111100	0.680000
H341	H34	0.931300	0.088800	0.633900
C311	C31	0.776200	0.141770	0.424300
C321	C32	0.657000	0.105460	0.427800
H351	H35	0.654000	0.092200	0.509100
C331	C33	0.670400	0.056210	0.351200
H361	H36	0.664500	0.068000	0.269400
H371	H37	0.758300	0.040900	0.367000
C341	C34	0.572500	0.012500	0.365200
H381	H38	0.484000	0.028100	0.361600
H391	H39	0.588100	0.995400	0.441900
C351	C35	0.581800	0.969700	0.269200
H401	H40	0.506500	0.945200	0.271900
H411	H41	0.576500	0.987800	0.192900
C361	C36	0.701500	0.938300	0.280100
H421	H42	0.694500	0.911400	0.342300
H431	H43	0.775400	0.962200	0.302100
C371	C37	0.273800	0.226270	0.411600
C381	C38	0.150000	0.258060	0.375100
H441	H44	0.137800	0.254200	0.289200
C391	C39	0.160600	0.317920	0.399200
H451	H45	0.161300	0.323900	0.483800
H461	H46	0.244100	0.331200	0.372100
C401	C40	0.050700	0.349750	0.341000
H471	H47	0.967100	0.333200	0.359900
H481	H48	0.057200	0.347500	0.256100
C411	C41	0.049700	0.409140	0.376800
H491	H49	0.972600	0.426500	0.338000
H501	H50	0.039400	0.411000	0.461300
C421	C42	0.164500	0.440000	0.350400
H511	H51	0.241400	0.423000	0.390200
H521	H52	0.156100	0.476400	0.383400
Zn31	Zn3	0.431770	0.720090	0.585590
Zn41	Zn4	0.930070	0.646780	0.564980
O51	O5	0.238000	0.691640	0.580100
O61	O6	0.116100	0.617110	0.572800
O71	O7	0.737200	0.678740	0.554900
O81	O8	0.620400	0.750030	0.599500
N111	N11	0.365300	0.801470	0.561100
N121	N12	0.151500	0.067550	0.445200
N131	N13	0.425100	0.730360	0.778100
N141	N14	0.430700	0.718140	0.391900
N151	N15	0.935400	0.639400	0.760600
N161	N16	0.933700	0.644660	0.374300
N171	N17	0.464600	0.636380	0.597700
H531	H53	0.525400	0.626600	0.546300
H541	H54	0.497600	0.628100	0.671000
N181	N18	0.272400	0.409990	0.831900
H551	H55	0.345500	0.392500	0.858900
H561	H56	0.206800	0.385900	0.819100
H571	H57	0.249100	0.434500	0.885200
N191	N19	0.962500	0.730650	0.575800
H581	H58	0.036400	0.737300	0.621900
H591	H59	0.975000	0.744100	0.503200
N201	N20	0.810600	0.945450	0.774300
H601	H60	0.801500	0.912300	0.805800
H611	H61	0.736400	0.964600	0.781900
H621	H62	0.878600	0.962700	0.811600
C431	C43	0.427900	0.843150	0.609900
H631	H63	0.499400	0.836600	0.663500
C441	C44	0.392100	0.896170	0.585200
H641	H64	0.439500	0.924900	0.621000
C451	C45	0.287800	0.906600	0.508700
C461	C46	0.221500	0.862970	0.458300
H651	H65	0.148500	0.868400	0.405800
C471	C47	0.264000	0.811630	0.486100
H661	H66	0.219300	0.782100	0.450400
C481	C48	0.244200	0.056030	0.527000
H671	H67	0.280500	0.084700	0.572000
C491	C49	0.289400	0.005660	0.549700
H681	H68	0.353000	0.999800	0.611000
C501	C50	0.242500	0.962770	0.483200
C511	C51	0.150500	0.974390	0.394900
H691	H69	0.117700	0.946700	0.345100
C521	C52	0.106500	0.026610	0.379500
H701	H70	0.041700	0.033700	0.319900
C531	C53	0.532100	0.740460	0.845500
H711	H71	0.610100	0.748300	0.808800
C541	C54	0.536100	0.740260	0.965000
H721	H72	0.615500	0.746900	0.008400
C551	C55	0.423000	0.730180	0.021100
C561	C56	0.310300	0.722900	0.951700
H731	H73	0.229100	0.718600	0.985700
C571	C57	0.316500	0.722100	0.833600
H741	H74	0.238500	0.715200	0.788300
C581	C58	0.518100	0.748290	0.338600
H751	H75	0.582000	0.767000	0.385100
C591	C59	0.519500	0.753510	0.218800
H761	H76	0.583600	0.774800	0.184800
C601	C60	0.424400	0.726710	0.149500
C611	C61	0.335900	0.696240	0.203900
H771	H77	0.270400	0.677200	0.159900
C621	C62	0.342500	0.693260	0.323700
H781	H78	0.279500	0.672000	0.359200
C631	C63	0.829500	0.650800	0.817400
H791	H79	0.751400	0.658600	0.773100
C641	C64	0.826500	0.652100	0.936300
H801	H80	0.748800	0.661900	0.971400
C651	C65	0.937100	0.638960	0.004600
C661	C66	0.044500	0.623880	0.946000
H811	H81	0.121100	0.612100	0.988000
C671	C67	0.041100	0.625760	0.827700
H821	H82	0.118100	0.616900	0.790600
C681	C68	0.858600	0.676580	0.306600
H831	H83	0.803200	0.701100	0.342800
C691	C69	0.856300	0.676240	0.188200
H841	H84	0.801000	0.700100	0.144500
C701	C70	0.936800	0.640210	0.132100
C711	C71	0.014700	0.607130	0.202700
H851	H85	0.070000	0.581700	0.169400
C721	C72	0.011900	0.611100	0.320000
H861	H86	0.068700	0.588800	0.366100
C731	C73	0.223800	0.641770	0.575700
C741	C74	0.343000	0.605460	0.572200
H871	H87	0.346000	0.592200	0.490900
C751	C75	0.329600	0.556210	0.648800
H881	H88	0.335500	0.568000	0.730600
H891	H89	0.241700	0.540900	0.633000
C761	C76	0.427500	0.512500	0.634800
H901	H90	0.516000	0.528100	0.638400
H911	H91	0.411900	0.495400	0.558100
C771	C77	0.418200	0.469700	0.730800
H921	H92	0.493500	0.445200	0.728100
H931	H93	0.423500	0.487800	0.807100
C781	C78	0.298500	0.438300	0.719900
H941	H94	0.305500	0.411400	0.657700
H951	H95	0.224600	0.462200	0.697900
C791	C79	0.726200	0.726270	0.588400
C801	C80	0.850000	0.758060	0.624900
H961	H96	0.862200	0.754200	0.710800
C811	C81	0.839400	0.817920	0.600800
H971	H97	0.838700	0.823900	0.516200
H981	H98	0.755900	0.831200	0.627900
C821	C82	0.949300	0.849750	0.659000
H991	H99	0.032900	0.833200	0.640100
H1001	H100	0.942800	0.847500	0.743900
C831	C83	0.950300	0.909140	0.623200
H1011	H101	0.027400	0.926500	0.662000
H1021	H102	0.960600	0.911000	0.538700
C841	C84	0.835500	0.940000	0.649600
H1031	H103	0.758600	0.923000	0.609800
H1041	H104	0.843900	0.976400	0.616600
