data_HEBJAB_freeONLY_PM
_symmetry_space_group_name_H-M	'P1'
_cell_length_a	9.730000
_cell_length_b	10.190000
_cell_length_c	19.529000
_cell_angle_alpha	78.011000
_cell_angle_beta	80.400000
_cell_angle_gamma	87.705000
_symmetry_Int_Tables_number 1

loop_
_symmetry_equiv_pos_as_xyz
'x,y,z'

loop_
_atom_site_label
_atom_site_type_symbol
_atom_site_fract_x
_atom_site_fract_y
_atom_site_fract_z
Co11	Co1	0.313890	0.604390	0.277430
Co21	Co2	0.686110	0.395610	0.722570
Co31	Co3	0.000000	0.000000	0.000000
H11	H1	0.294300	0.071800	0.263600
H21	H2	0.263800	0.833000	0.457000
H31	H3	0.235500	0.233400	0.437400
H41	H4	0.155200	0.838100	0.571300
H51	H5	0.318500	0.848400	0.561100
H61	H6	0.428400	0.911600	0.653500
H71	H7	0.413900	0.921900	0.771600
H81	H8	0.995400	0.920200	0.793300
H91	H9	0.012200	0.901800	0.676200
H101	H10	0.565900	0.779700	0.199200
H111	H11	0.791000	0.764100	0.143700
H121	H12	0.779300	0.370600	0.226900
H131	H13	0.554800	0.396800	0.278600
H141	H14	0.994600	0.460800	0.159800
H151	H15	0.016900	0.616000	0.147600
H161	H16	0.912400	0.364800	0.071900
H171	H17	0.783000	0.461700	0.069700
H181	H18	0.147100	0.458400	0.051500
H191	H19	0.166100	0.614600	0.036300
H201	H20	0.050500	0.765700	0.236800
H211	H21	0.825500	0.807500	0.286100
H221	H22	0.867100	0.515700	0.453700
H231	H23	0.091800	0.482200	0.399500
H241	H24	0.614400	0.722100	0.374300
H251	H25	0.677400	0.777400	0.431500
H261	H26	0.496900	0.518300	0.403600
H271	H27	0.645300	0.451500	0.402200
H281	H28	0.522200	0.702600	0.532600
H291	H29	0.422200	0.671300	0.482700
H301	H30	0.268600	0.501600	0.196200
H311	H31	0.335400	0.599900	0.140600
H321	H32	0.189000	0.889000	0.074000
H331	H33	0.215000	0.875000	0.001500
H341	H34	0.921000	0.750000	0.019000
H351	H35	0.860000	0.807000	0.963600
H361	H36	0.705700	0.928200	0.736400
H371	H37	0.736200	0.167000	0.543000
H381	H38	0.764500	0.766600	0.562600
H391	H39	0.844800	0.161900	0.428700
H401	H40	0.681500	0.151600	0.438900
H411	H41	0.571600	0.088400	0.346500
H421	H42	0.586100	0.078100	0.228400
H431	H43	0.004600	0.079800	0.206700
H441	H44	0.987800	0.098200	0.323800
H451	H45	0.434100	0.220300	0.800800
H461	H46	0.209000	0.235900	0.856300
H471	H47	0.220700	0.629400	0.773100
H481	H48	0.445200	0.603200	0.721400
H491	H49	0.005400	0.539200	0.840200
H501	H50	0.983100	0.384000	0.852400
H511	H51	0.087600	0.635200	0.928100
H521	H52	0.217000	0.538300	0.930300
H531	H53	0.852900	0.541600	0.948500
H541	H54	0.833900	0.385400	0.963700
H551	H55	0.949500	0.234300	0.763200
H561	H56	0.174500	0.192500	0.713900
H571	H57	0.132900	0.484300	0.546300
H581	H58	0.908200	0.517800	0.600500
H591	H59	0.385600	0.277900	0.625700
H601	H60	0.322600	0.222600	0.568500
H611	H61	0.503100	0.481700	0.596400
H621	H62	0.354700	0.548500	0.597800
H631	H63	0.477800	0.297400	0.467400
H641	H64	0.577800	0.328700	0.517300
H651	H65	0.731400	0.498400	0.803800
H661	H66	0.664600	0.400100	0.859400
H671	H67	0.811000	0.111000	0.926000
H681	H68	0.785000	0.125000	0.998500
H691	H69	0.079000	0.250000	0.981000
H701	H70	0.140000	0.193000	0.036400
C11	C1	0.265200	0.311900	0.297500
C21	C2	0.263900	0.174200	0.344100
C31	C3	0.283200	0.062000	0.312700
C41	C4	0.285300	0.935900	0.356100
C51	C5	0.311200	0.813000	0.324100
C61	C6	0.264400	0.918800	0.428900
C71	C7	0.244200	0.030700	0.460600
C81	C8	0.246200	0.158100	0.417000
C91	C9	0.231500	0.892100	0.576100
C101	C10	0.221800	0.905100	0.652300
C111	C11	0.341500	0.912000	0.681700
C121	C12	0.333100	0.919400	0.752300
C131	C13	0.202700	0.923200	0.794500
C141	C14	0.082500	0.917300	0.765600
C151	C15	0.092900	0.907200	0.695100
C161	C16	0.191600	0.932700	0.871600
C171	C17	0.608700	0.695800	0.204100
C181	C18	0.744900	0.687400	0.170500
C191	C19	0.812500	0.563500	0.177100
C201	C20	0.737800	0.455100	0.219500
C211	C21	0.602400	0.471700	0.250700
C221	C22	0.958100	0.547700	0.139700
C231	C23	0.879700	0.451500	0.049200
C241	C24	0.110200	0.543500	0.029100
C251	C25	0.013600	0.714600	0.280800
C261	C26	0.877600	0.740600	0.310500
C271	C27	0.819900	0.667600	0.375900
C281	C28	0.901800	0.568100	0.409700
C291	C29	0.037300	0.548300	0.376300
C301	C30	0.673600	0.699600	0.410500
C311	C31	0.566800	0.482400	0.432600
C321	C32	0.493000	0.633400	0.510800
C331	C33	0.734800	0.688100	0.702500
C341	C34	0.736100	0.825800	0.655900
C351	C35	0.716800	0.938000	0.687300
C361	C36	0.714700	0.064100	0.643900
C371	C37	0.688800	0.187000	0.675900
C381	C38	0.735600	0.081200	0.571100
C391	C39	0.755800	0.969300	0.539400
C401	C40	0.753800	0.841900	0.583000
C411	C41	0.768500	0.107900	0.423900
C421	C42	0.778200	0.094900	0.347700
C431	C43	0.658500	0.088000	0.318300
C441	C44	0.666900	0.080600	0.247700
C451	C45	0.797300	0.076800	0.205500
C461	C46	0.917500	0.082700	0.234400
C471	C47	0.907100	0.092800	0.304900
C481	C48	0.808400	0.067300	0.128400
C491	C49	0.391300	0.304200	0.795900
C501	C50	0.255100	0.312600	0.829500
C511	C51	0.187500	0.436500	0.822900
C521	C52	0.262200	0.544900	0.780500
C531	C53	0.397600	0.528300	0.749300
C541	C54	0.041900	0.452300	0.860300
C551	C55	0.120300	0.548500	0.950800
C561	C56	0.889800	0.456500	0.970900
C571	C57	0.986400	0.285400	0.719200
C581	C58	0.122400	0.259400	0.689500
C591	C59	0.180100	0.332400	0.624100
C601	C60	0.098200	0.431900	0.590300
C611	C61	0.962700	0.451700	0.623700
C621	C62	0.326400	0.300400	0.589500
C631	C63	0.433200	0.517600	0.567400
C641	C64	0.507000	0.366600	0.489200
N11	N1	0.535300	0.590700	0.242890
N21	N2	0.963800	0.558900	0.062650
N31	N3	0.093300	0.619100	0.312830
N41	N4	0.613000	0.588600	0.464580
N51	N5	0.464700	0.409300	0.757110
N61	N6	0.036200	0.441100	0.937350
N71	N7	0.906700	0.380900	0.687170
N81	N8	0.387000	0.411400	0.535420
O11	O1	0.302200	0.405900	0.323740
O21	O2	0.231300	0.325500	0.237290
O31	O3	0.321800	0.822800	0.257530
O41	O4	0.320600	0.700400	0.364680
O51	O5	0.084700	0.994500	0.896110
O61	O6	0.286000	0.882800	0.905340
O71	O7	0.225100	0.024400	0.532510
O81	O8	0.275200	0.584800	0.178650
O91	O9	0.884200	0.824600	0.000210
O101	O10	0.155600	0.872900	0.039380
O111	O11	0.697800	0.594100	0.676260
O121	O12	0.768700	0.674500	0.762710
O131	O13	0.678200	0.177200	0.742470
O141	O14	0.679400	0.299600	0.635320
O151	O15	0.915300	0.005500	0.103890
O161	O16	0.714000	0.117200	0.094660
O171	O17	0.774900	0.975600	0.467490
O181	O18	0.724800	0.415200	0.821350
O191	O19	0.115800	0.175400	0.999790
O201	O20	0.844400	0.127100	0.960620
