data_HEBNOT_freeONLY_PM
_symmetry_space_group_name_H-M	'P1'
_cell_length_a	9.697000
_cell_length_b	17.557800
_cell_length_c	17.934500
_cell_angle_alpha	90.000000
_cell_angle_beta	90.327000
_cell_angle_gamma	90.000000
_symmetry_Int_Tables_number 1

loop_
_symmetry_equiv_pos_as_xyz
'x,y,z'

loop_
_atom_site_label
_atom_site_type_symbol
_atom_site_fract_x
_atom_site_fract_y
_atom_site_fract_z
U11	U1	0.398660	0.275480	0.219250
U21	U2	0.903750	0.210200	0.438870
Zn11	Zn1	0.233690	0.007500	0.442570
P11	P1	0.272700	0.171220	0.384410
P21	P2	0.773800	0.234460	0.241350
P31	P3	0.207100	0.150850	0.547540
P41	P4	0.701700	0.335500	0.110150
O11	O1	0.354600	0.186600	0.178400
O21	O2	0.441900	0.363800	0.261400
O31	O3	0.364100	0.217000	0.333200
O41	O4	0.562100	0.297400	0.124000
O51	O5	0.623000	0.231300	0.260900
O61	O6	0.267200	0.166100	0.624400
O71	O7	0.162000	0.298500	0.264800
O81	O8	0.935700	0.308200	0.448700
O91	O9	0.875000	0.111000	0.430900
O101	O10	0.120600	0.193500	0.378400
O111	O11	0.657200	0.232700	0.412500
O121	O12	0.782000	0.294000	0.050000
O131	O13	0.065500	0.189300	0.537300
O141	O14	0.869100	0.231000	0.309000
O151	O15	0.809100	0.172600	0.182600
H11	H1	0.892400	0.172600	0.175100
O161	O16	0.296700	0.086200	0.372300
O171	O17	0.950300	0.330700	0.174600
H21	H2	0.967400	0.373100	0.158100
O181	O18	0.458200	0.163400	0.491900
H31	H3	0.492800	0.182300	0.529400
O191	O19	0.199700	0.066700	0.531600
O201	O20	0.039700	0.987500	0.400200
O211	O21	0.681400	0.419400	0.093500
C11	C1	0.322500	0.195800	0.479700
C21	C2	0.322700	0.283100	0.488100
H41	H4	0.354100	0.296500	0.537200
H51	H5	0.230900	0.302200	0.480500
H61	H6	0.383200	0.305000	0.451800
C31	C3	0.805500	0.327000	0.196200
C41	C4	0.780200	0.391100	0.253900
H71	H7	0.848900	0.388300	0.292600
H81	H8	0.690400	0.385000	0.275300
H91	H9	0.785800	0.439700	0.229600
U31	U3	0.601340	0.775480	0.280750
U41	U4	0.096250	0.710200	0.061130
Zn21	Zn2	0.766310	0.507500	0.057430
P51	P5	0.727300	0.671220	0.115590
P61	P6	0.226200	0.734460	0.258650
P71	P7	0.792900	0.650850	0.952460
P81	P8	0.298300	0.835500	0.389850
O221	O22	0.645400	0.686600	0.321600
O231	O23	0.558100	0.863800	0.238600
O241	O24	0.635900	0.717000	0.166800
O251	O25	0.437900	0.797400	0.376000
O261	O26	0.377000	0.731300	0.239100
O271	O27	0.732800	0.666100	0.875600
O281	O28	0.838000	0.798500	0.235200
O291	O29	0.064300	0.808200	0.051300
O301	O30	0.125000	0.611000	0.069100
O311	O31	0.879400	0.693500	0.121600
O321	O32	0.342800	0.732700	0.087500
O331	O33	0.218000	0.794000	0.450000
O341	O34	0.934500	0.689300	0.962700
O351	O35	0.130900	0.731000	0.191000
O361	O36	0.190900	0.672600	0.317400
H101	H10	0.107600	0.672600	0.324900
O371	O37	0.703300	0.586200	0.127700
O381	O38	0.049700	0.830700	0.325400
H111	H11	0.032600	0.873100	0.341900
O391	O39	0.541800	0.663400	0.008100
H121	H12	0.507200	0.682300	0.970600
O401	O40	0.800300	0.566700	0.968400
O411	O41	0.960300	0.487500	0.099800
O421	O42	0.318600	0.919400	0.406500
C51	C5	0.677500	0.695800	0.020300
C61	C6	0.677300	0.783100	0.011900
H131	H13	0.645900	0.796500	0.962800
H141	H14	0.769100	0.802200	0.019500
H151	H15	0.616800	0.805000	0.048200
C71	C7	0.194500	0.827000	0.303800
C81	C8	0.219800	0.891100	0.246100
H161	H16	0.151100	0.888300	0.207400
H171	H17	0.309600	0.885000	0.224700
H181	H18	0.214200	0.939700	0.270400
U51	U5	0.601340	0.724520	0.780750
U61	U6	0.096250	0.789800	0.561130
Zn31	Zn3	0.766310	0.992500	0.557430
P91	P9	0.727300	0.828780	0.615590
P101	P10	0.226200	0.765540	0.758650
P111	P11	0.792900	0.849150	0.452460
P121	P12	0.298300	0.664500	0.889850
O431	O43	0.645400	0.813400	0.821600
O441	O44	0.558100	0.636200	0.738600
O451	O45	0.635900	0.783000	0.666800
O461	O46	0.437900	0.702600	0.876000
O471	O47	0.377000	0.768700	0.739100
O481	O48	0.732800	0.833900	0.375600
O491	O49	0.838000	0.701500	0.735200
O501	O50	0.064300	0.691800	0.551300
O511	O51	0.125000	0.889000	0.569100
O521	O52	0.879400	0.806500	0.621600
O531	O53	0.342800	0.767300	0.587500
O541	O54	0.218000	0.706000	0.950000
O551	O55	0.934500	0.810700	0.462700
O561	O56	0.130900	0.769000	0.691000
O571	O57	0.190900	0.827400	0.817400
H191	H19	0.107600	0.827400	0.824900
O581	O58	0.703300	0.913800	0.627700
O591	O59	0.049700	0.669300	0.825400
H201	H20	0.032600	0.626900	0.841900
O601	O60	0.541800	0.836600	0.508100
H211	H21	0.507200	0.817700	0.470600
O611	O61	0.800300	0.933300	0.468400
O621	O62	0.960300	0.012500	0.599800
O631	O63	0.318600	0.580600	0.906500
C91	C9	0.677500	0.804200	0.520300
C101	C10	0.677300	0.716900	0.511900
H221	H22	0.645900	0.703500	0.462800
H231	H23	0.769100	0.697800	0.519500
H241	H24	0.616800	0.695000	0.548200
C111	C11	0.194500	0.673000	0.803800
C121	C12	0.219800	0.608900	0.746100
H251	H25	0.151100	0.611700	0.707400
H261	H26	0.309600	0.615000	0.724700
H271	H27	0.214200	0.560300	0.770400
U71	U7	0.398660	0.224520	0.719250
U81	U8	0.903750	0.289800	0.938870
Zn41	Zn4	0.233690	0.492500	0.942570
P131	P13	0.272700	0.328780	0.884410
P141	P14	0.773800	0.265540	0.741350
P151	P15	0.207100	0.349150	0.047540
P161	P16	0.701700	0.164500	0.610150
O641	O64	0.354600	0.313400	0.678400
O651	O65	0.441900	0.136200	0.761400
O661	O66	0.364100	0.283000	0.833200
O671	O67	0.562100	0.202600	0.624000
O681	O68	0.623000	0.268700	0.760900
O691	O69	0.267200	0.333900	0.124400
O701	O70	0.162000	0.201500	0.764800
O711	O71	0.935700	0.191800	0.948700
O721	O72	0.875000	0.389000	0.930900
O731	O73	0.120600	0.306500	0.878400
O741	O74	0.657200	0.267300	0.912500
O751	O75	0.782000	0.206000	0.550000
O761	O76	0.065500	0.310700	0.037300
O771	O77	0.869100	0.269000	0.809000
O781	O78	0.809100	0.327400	0.682600
H281	H28	0.892400	0.327400	0.675100
O791	O79	0.296700	0.413800	0.872300
O801	O80	0.950300	0.169300	0.674600
H291	H29	0.967400	0.126900	0.658100
O811	O81	0.458200	0.336600	0.991900
H301	H30	0.492800	0.317700	0.029400
O821	O82	0.199700	0.433300	0.031600
O831	O83	0.039700	0.512500	0.900200
O841	O84	0.681400	0.080600	0.593500
C131	C13	0.322500	0.304200	0.979700
C141	C14	0.322700	0.216900	0.988100
H311	H31	0.354100	0.203500	0.037200
H321	H32	0.230900	0.197800	0.980500
H331	H33	0.383200	0.195000	0.951800
C151	C15	0.805500	0.173000	0.696200
C161	C16	0.780200	0.108900	0.753900
H341	H34	0.848900	0.111700	0.792600
H351	H35	0.690400	0.115000	0.775300
H361	H36	0.785800	0.060300	0.729600
