data_HEFDED_freeONLY_PM
_symmetry_space_group_name_H-M	'P1'
_cell_length_a	25.696500
_cell_length_b	25.696500
_cell_length_c	25.696500
_cell_angle_alpha	77.273900
_cell_angle_beta	77.273900
_cell_angle_gamma	77.273900
_symmetry_Int_Tables_number 1

loop_
_symmetry_equiv_pos_as_xyz
'x,y,z'

loop_
_atom_site_label
_atom_site_type_symbol
_atom_site_fract_x
_atom_site_fract_y
_atom_site_fract_z
Mn11	Mn1	0.059690	0.483790	0.291880
Mn21	Mn2	0.207270	0.769570	0.988510
Mn31	Mn3	0.173580	0.502630	0.991510
Mn41	Mn4	0.255320	0.513830	0.691300
Mn51	Mn5	0.291880	0.059690	0.483790
Mn61	Mn6	0.988510	0.207270	0.769570
Mn71	Mn7	0.991510	0.173580	0.502630
Mn81	Mn8	0.691300	0.255320	0.513830
Mn91	Mn9	0.483790	0.291880	0.059690
Mn101	Mn10	0.769570	0.988510	0.207270
Mn111	Mn11	0.502630	0.991510	0.173580
Mn121	Mn12	0.513830	0.691300	0.255320
Mn131	Mn13	0.940310	0.516210	0.708120
Mn141	Mn14	0.792730	0.230430	0.011490
Mn151	Mn15	0.826420	0.497370	0.008490
Mn161	Mn16	0.744680	0.486170	0.308700
Mn171	Mn17	0.708120	0.940310	0.516210
Mn181	Mn18	0.011490	0.792730	0.230430
Mn191	Mn19	0.008490	0.826420	0.497370
Mn201	Mn20	0.308700	0.744680	0.486170
Mn211	Mn21	0.516210	0.708120	0.940310
Mn221	Mn22	0.230430	0.011490	0.792730
Mn231	Mn23	0.497370	0.008490	0.826420
Mn241	Mn24	0.486170	0.308700	0.744680
Mo11	Mo1	0.079870	0.640590	0.117270
Mo21	Mo2	0.357560	0.451610	0.853510
Mo31	Mo3	0.117270	0.079870	0.640590
Mo41	Mo4	0.853510	0.357560	0.451610
Mo51	Mo5	0.640590	0.117270	0.079870
Mo61	Mo6	0.451610	0.853510	0.357560
Mo71	Mo7	0.920130	0.359410	0.882730
Mo81	Mo8	0.642440	0.548390	0.146490
Mo91	Mo9	0.882730	0.920130	0.359410
Mo101	Mo10	0.146490	0.642440	0.548390
Mo111	Mo11	0.359410	0.882730	0.920130
Mo121	Mo12	0.548390	0.146490	0.642440
H11	H1	0.047300	0.402200	0.375600
H21	H2	0.136800	0.415600	0.165900
H31	H3	0.112200	0.384200	0.222200
H41	H4	0.055200	0.474800	0.161000
H51	H5	0.044800	0.415100	0.171100
H61	H6	0.945700	0.472500	0.216700
H71	H7	0.973500	0.521500	0.215200
H81	H8	0.905300	0.523600	0.281300
H91	H9	0.920900	0.461500	0.303800
H101	H10	0.883800	0.521400	0.422300
H111	H11	0.880200	0.578000	0.383400
H121	H12	0.870600	0.527600	0.364200
H131	H13	0.944900	0.565000	0.455600
H141	H14	0.018100	0.578000	0.491200
H151	H15	0.107600	0.549500	0.449700
H161	H16	0.203700	0.541300	0.352800
H171	H17	0.186400	0.508000	0.410600
H181	H18	0.217900	0.477900	0.363000
H191	H19	0.218000	0.448800	0.298100
H201	H20	0.201900	0.498300	0.252700
H211	H21	0.169900	0.398000	0.274300
H221	H22	0.206400	0.422100	0.221200
H231	H23	0.343700	0.663700	0.994100
H241	H24	0.354500	0.723200	0.984700
H251	H25	0.323400	0.701700	0.075700
H261	H26	0.275900	0.677400	0.066500
H271	H27	0.211500	0.737500	0.121200
H281	H28	0.248700	0.776200	0.126600
H291	H29	0.197300	0.850100	0.073200
H301	H30	0.159700	0.826700	0.126400
H311	H31	0.084300	0.863300	0.068600
H321	H32	0.129900	0.879700	0.019500
H331	H33	0.060800	0.862700	0.983500
H341	H34	0.061200	0.806000	0.022100
H351	H35	0.065600	0.846400	0.867200
H361	H36	0.057300	0.785900	0.882900
H371	H37	0.034000	0.825000	0.924700
H381	H38	0.134600	0.773300	0.815500
H391	H39	0.217100	0.730900	0.767900
H401	H40	0.291800	0.708200	0.805900
H411	H41	0.382800	0.711700	0.887500
H421	H42	0.366100	0.655000	0.894300
H431	H43	0.358100	0.698900	0.842200
H441	H44	0.306500	0.511400	0.044700
H451	H45	0.246300	0.532600	0.070800
H461	H46	0.288000	0.552800	0.959400
H471	H47	0.276000	0.596000	0.997500
H481	H48	0.213600	0.647200	0.931900
H491	H49	0.226100	0.596300	0.903700
H501	H50	0.139700	0.640000	0.890000
H511	H51	0.121200	0.646600	0.951100
H521	H52	0.056900	0.637500	0.881700
H531	H53	0.030800	0.591300	0.872400
H541	H54	0.009100	0.616500	0.925000
H551	H55	0.997900	0.511800	0.917600
H561	H56	0.997400	0.421200	0.942400
H571	H57	0.058900	0.362400	0.990400
H581	H58	0.144200	0.311300	0.061800
H591	H59	0.124900	0.317700	0.006600
H601	H60	0.187000	0.308700	0.008100
H611	H61	0.253100	0.369500	0.031200
H621	H62	0.213400	0.360000	0.087000
H631	H63	0.217800	0.440200	0.104100
H641	H64	0.277800	0.410800	0.087000
H651	H65	0.321300	0.430300	0.532300
H661	H66	0.323000	0.372500	0.568600
H671	H67	0.269400	0.403700	0.548400
H681	H68	0.245700	0.336300	0.632300
H691	H69	0.193800	0.301500	0.710600
H701	H70	0.165800	0.346300	0.781700
H711	H71	0.124400	0.415100	0.842500
H721	H72	0.182000	0.391500	0.857400
H731	H73	0.152900	0.449900	0.866800
H741	H74	0.139700	0.540900	0.818400
H751	H75	0.197500	0.527600	0.833900
H761	H76	0.186200	0.615600	0.794100
H771	H77	0.163900	0.603900	0.746500
H781	H78	0.232900	0.651700	0.681900
H791	H79	0.269900	0.655600	0.721700
H801	H80	0.340600	0.595000	0.680700
H811	H81	0.323200	0.645400	0.636900
H821	H82	0.361900	0.575600	0.569000
H831	H83	0.371600	0.530200	0.619700
H841	H84	0.358000	0.487600	0.554700
H851	H85	0.304800	0.529800	0.545600
H861	H86	0.375600	0.047300	0.402200
H871	H87	0.165900	0.136800	0.415600
H881	H88	0.222200	0.112200	0.384200
H891	H89	0.161000	0.055200	0.474800
H901	H90	0.171100	0.044800	0.415100
H911	H91	0.216700	0.945700	0.472500
H921	H92	0.215200	0.973500	0.521500
H931	H93	0.281300	0.905300	0.523600
H941	H94	0.303800	0.920900	0.461500
H951	H95	0.422300	0.883800	0.521400
H961	H96	0.383400	0.880200	0.578000
H971	H97	0.364200	0.870600	0.527600
H981	H98	0.455600	0.944900	0.565000
H991	H99	0.491200	0.018100	0.578000
H1001	H100	0.449700	0.107600	0.549500
H1011	H101	0.352800	0.203700	0.541300
H1021	H102	0.410600	0.186400	0.508000
H1031	H103	0.363000	0.217900	0.477900
H1041	H104	0.298100	0.218000	0.448800
H1051	H105	0.252700	0.201900	0.498300
H1061	H106	0.274300	0.169900	0.398000
H1071	H107	0.221200	0.206400	0.422100
H1081	H108	0.994100	0.343700	0.663700
H1091	H109	0.984700	0.354500	0.723200
H1101	H110	0.075700	0.323400	0.701700
H1111	H111	0.066500	0.275900	0.677400
H1121	H112	0.121200	0.211500	0.737500
H1131	H113	0.126600	0.248700	0.776200
H1141	H114	0.073200	0.197300	0.850100
H1151	H115	0.126400	0.159700	0.826700
H1161	H116	0.068600	0.084300	0.863300
H1171	H117	0.019500	0.129900	0.879700
H1181	H118	0.983500	0.060800	0.862700
H1191	H119	0.022100	0.061200	0.806000
H1201	H120	0.867200	0.065600	0.846400
H1211	H121	0.882900	0.057300	0.785900
H1221	H122	0.924700	0.034000	0.825000
H1231	H123	0.815500	0.134600	0.773300
H1241	H124	0.767900	0.217100	0.730900
H1251	H125	0.805900	0.291800	0.708200
H1261	H126	0.887500	0.382800	0.711700
H1271	H127	0.894300	0.366100	0.655000
H1281	H128	0.842200	0.358100	0.698900
H1291	H129	0.044700	0.306500	0.511400
H1301	H130	0.070800	0.246300	0.532600
H1311	H131	0.959400	0.288000	0.552800
H1321	H132	0.997500	0.276000	0.596000
H1331	H133	0.931900	0.213600	0.647200
H1341	H134	0.903700	0.226100	0.596300
H1351	H135	0.890000	0.139700	0.640000
H1361	H136	0.951100	0.121200	0.646600
H1371	H137	0.881700	0.056900	0.637500
H1381	H138	0.872400	0.030800	0.591300
H1391	H139	0.925000	0.009100	0.616500
H1401	H140	0.917600	0.997900	0.511800
H1411	H141	0.942400	0.997400	0.421200
H1421	H142	0.990400	0.058900	0.362400
H1431	H143	0.061800	0.144200	0.311300
H1441	H144	0.006600	0.124900	0.317700
H1451	H145	0.008100	0.187000	0.308700
H1461	H146	0.031200	0.253100	0.369500
H1471	H147	0.087000	0.213400	0.360000
H1481	H148	0.104100	0.217800	0.440200
H1491	H149	0.087000	0.277800	0.410800
H1501	H150	0.532300	0.321300	0.430300
H1511	H151	0.568600	0.323000	0.372500
H1521	H152	0.548400	0.269400	0.403700
H1531	H153	0.632300	0.245700	0.336300
H1541	H154	0.710600	0.193800	0.301500
H1551	H155	0.781700	0.165800	0.346300
H1561	H156	0.842500	0.124400	0.415100
H1571	H157	0.857400	0.182000	0.391500
H1581	H158	0.866800	0.152900	0.449900
H1591	H159	0.818400	0.139700	0.540900
H1601	H160	0.833900	0.197500	0.527600
H1611	H161	0.794100	0.186200	0.615600
H1621	H162	0.746500	0.163900	0.603900
H1631	H163	0.681900	0.232900	0.651700
H1641	H164	0.721700	0.269900	0.655600
H1651	H165	0.680700	0.340600	0.595000
H1661	H166	0.636900	0.323200	0.645400
H1671	H167	0.569000	0.361900	0.575600
H1681	H168	0.619700	0.371600	0.530200
H1691	H169	0.554700	0.358000	0.487600
H1701	H170	0.545600	0.304800	0.529800
H1711	H171	0.402200	0.375600	0.047300
H1721	H172	0.415600	0.165900	0.136800
H1731	H173	0.384200	0.222200	0.112200
H1741	H174	0.474800	0.161000	0.055200
H1751	H175	0.415100	0.171100	0.044800
H1761	H176	0.472500	0.216700	0.945700
H1771	H177	0.521500	0.215200	0.973500
H1781	H178	0.523600	0.281300	0.905300
H1791	H179	0.461500	0.303800	0.920900
H1801	H180	0.521400	0.422300	0.883800
H1811	H181	0.578000	0.383400	0.880200
H1821	H182	0.527600	0.364200	0.870600
H1831	H183	0.565000	0.455600	0.944900
H1841	H184	0.578000	0.491200	0.018100
H1851	H185	0.549500	0.449700	0.107600
H1861	H186	0.541300	0.352800	0.203700
H1871	H187	0.508000	0.410600	0.186400
H1881	H188	0.477900	0.363000	0.217900
H1891	H189	0.448800	0.298100	0.218000
H1901	H190	0.498300	0.252700	0.201900
H1911	H191	0.398000	0.274300	0.169900
H1921	H192	0.422100	0.221200	0.206400
H1931	H193	0.663700	0.994100	0.343700
H1941	H194	0.723200	0.984700	0.354500
H1951	H195	0.701700	0.075700	0.323400
H1961	H196	0.677400	0.066500	0.275900
H1971	H197	0.737500	0.121200	0.211500
H1981	H198	0.776200	0.126600	0.248700
H1991	H199	0.850100	0.073200	0.197300
H2001	H200	0.826700	0.126400	0.159700
H2011	H201	0.863300	0.068600	0.084300
H2021	H202	0.879700	0.019500	0.129900
H2031	H203	0.862700	0.983500	0.060800
H2041	H204	0.806000	0.022100	0.061200
H2051	H205	0.846400	0.867200	0.065600
H2061	H206	0.785900	0.882900	0.057300
H2071	H207	0.825000	0.924700	0.034000
H2081	H208	0.773300	0.815500	0.134600
H2091	H209	0.730900	0.767900	0.217100
H2101	H210	0.708200	0.805900	0.291800
H2111	H211	0.711700	0.887500	0.382800
H2121	H212	0.655000	0.894300	0.366100
H2131	H213	0.698900	0.842200	0.358100
H2141	H214	0.511400	0.044700	0.306500
H2151	H215	0.532600	0.070800	0.246300
H2161	H216	0.552800	0.959400	0.288000
H2171	H217	0.596000	0.997500	0.276000
H2181	H218	0.647200	0.931900	0.213600
H2191	H219	0.596300	0.903700	0.226100
H2201	H220	0.640000	0.890000	0.139700
H2211	H221	0.646600	0.951100	0.121200
H2221	H222	0.637500	0.881700	0.056900
H2231	H223	0.591300	0.872400	0.030800
H2241	H224	0.616500	0.925000	0.009100
H2251	H225	0.511800	0.917600	0.997900
H2261	H226	0.421200	0.942400	0.997400
H2271	H227	0.362400	0.990400	0.058900
H2281	H228	0.311300	0.061800	0.144200
H2291	H229	0.317700	0.006600	0.124900
H2301	H230	0.308700	0.008100	0.187000
H2311	H231	0.369500	0.031200	0.253100
H2321	H232	0.360000	0.087000	0.213400
H2331	H233	0.440200	0.104100	0.217800
H2341	H234	0.410800	0.087000	0.277800
H2351	H235	0.430300	0.532300	0.321300
H2361	H236	0.372500	0.568600	0.323000
H2371	H237	0.403700	0.548400	0.269400
H2381	H238	0.336300	0.632300	0.245700
H2391	H239	0.301500	0.710600	0.193800
H2401	H240	0.346300	0.781700	0.165800
H2411	H241	0.415100	0.842500	0.124400
H2421	H242	0.391500	0.857400	0.182000
H2431	H243	0.449900	0.866800	0.152900
H2441	H244	0.540900	0.818400	0.139700
H2451	H245	0.527600	0.833900	0.197500
H2461	H246	0.615600	0.794100	0.186200
H2471	H247	0.603900	0.746500	0.163900
H2481	H248	0.651700	0.681900	0.232900
H2491	H249	0.655600	0.721700	0.269900
H2501	H250	0.595000	0.680700	0.340600
H2511	H251	0.645400	0.636900	0.323200
H2521	H252	0.575600	0.569000	0.361900
H2531	H253	0.530200	0.619700	0.371600
H2541	H254	0.487600	0.554700	0.358000
H2551	H255	0.529800	0.545600	0.304800
H2561	H256	0.952700	0.597800	0.624400
H2571	H257	0.863200	0.584400	0.834100
H2581	H258	0.887800	0.615800	0.777800
H2591	H259	0.944800	0.525200	0.839000
H2601	H260	0.955200	0.584900	0.828900
H2611	H261	0.054300	0.527500	0.783300
H2621	H262	0.026500	0.478500	0.784800
H2631	H263	0.094700	0.476400	0.718700
H2641	H264	0.079100	0.538500	0.696200
H2651	H265	0.116200	0.478600	0.577700
H2661	H266	0.119800	0.422000	0.616600
H2671	H267	0.129400	0.472400	0.635800
H2681	H268	0.055100	0.435000	0.544400
H2691	H269	0.981900	0.422000	0.508800
H2701	H270	0.892400	0.450500	0.550300
H2711	H271	0.796300	0.458700	0.647200
H2721	H272	0.813600	0.492000	0.589400
H2731	H273	0.782100	0.522100	0.637000
H2741	H274	0.782000	0.551200	0.701900
H2751	H275	0.798100	0.501700	0.747300
H2761	H276	0.830100	0.602000	0.725700
H2771	H277	0.793600	0.577900	0.778800
H2781	H278	0.656300	0.336300	0.005900
H2791	H279	0.645500	0.276800	0.015300
H2801	H280	0.676600	0.298300	0.924300
H2811	H281	0.724100	0.322600	0.933500
H2821	H282	0.788500	0.262500	0.878800
H2831	H283	0.751300	0.223800	0.873400
H2841	H284	0.802700	0.149900	0.926800
H2851	H285	0.840300	0.173300	0.873600
H2861	H286	0.915700	0.136700	0.931400
H2871	H287	0.870100	0.120300	0.980500
H2881	H288	0.939200	0.137300	0.016500
H2891	H289	0.938800	0.194000	0.977900
H2901	H290	0.934400	0.153600	0.132800
H2911	H291	0.942700	0.214100	0.117100
H2921	H292	0.966000	0.175000	0.075300
H2931	H293	0.865400	0.226700	0.184500
H2941	H294	0.782900	0.269100	0.232100
H2951	H295	0.708200	0.291800	0.194100
H2961	H296	0.617200	0.288300	0.112500
H2971	H297	0.633900	0.345000	0.105700
H2981	H298	0.641900	0.301100	0.157800
H2991	H299	0.693500	0.488600	0.955300
H3001	H300	0.753700	0.467400	0.929200
H3011	H301	0.712000	0.447200	0.040600
H3021	H302	0.724000	0.404000	0.002500
H3031	H303	0.786400	0.352800	0.068100
H3041	H304	0.773900	0.403700	0.096300
H3051	H305	0.860300	0.360000	0.110000
H3061	H306	0.878800	0.353400	0.048900
H3071	H307	0.943100	0.362500	0.118300
H3081	H308	0.969200	0.408700	0.127600
H3091	H309	0.990900	0.383500	0.075000
H3101	H310	0.002100	0.488200	0.082400
H3111	H311	0.002600	0.578800	0.057600
H3121	H312	0.941100	0.637600	0.009600
H3131	H313	0.855800	0.688700	0.938200
H3141	H314	0.875100	0.682300	0.993400
H3151	H315	0.813000	0.691300	0.991900
H3161	H316	0.746900	0.630500	0.968800
H3171	H317	0.786600	0.640000	0.913000
H3181	H318	0.782200	0.559800	0.895900
H3191	H319	0.722200	0.589200	0.913000
H3201	H320	0.678700	0.569700	0.467700
H3211	H321	0.677000	0.627500	0.431400
H3221	H322	0.730600	0.596300	0.451600
H3231	H323	0.754300	0.663700	0.367700
H3241	H324	0.806200	0.698500	0.289400
H3251	H325	0.834200	0.653700	0.218300
H3261	H326	0.875600	0.584900	0.157500
H3271	H327	0.818000	0.608500	0.142600
H3281	H328	0.847100	0.550100	0.133200
H3291	H329	0.860300	0.459100	0.181600
H3301	H330	0.802500	0.472400	0.166100
H3311	H331	0.813800	0.384400	0.205900
H3321	H332	0.836100	0.396100	0.253500
H3331	H333	0.767100	0.348300	0.318100
H3341	H334	0.730100	0.344400	0.278300
H3351	H335	0.659400	0.405000	0.319300
H3361	H336	0.676800	0.354600	0.363100
H3371	H337	0.638100	0.424400	0.431000
H3381	H338	0.628400	0.469800	0.380300
H3391	H339	0.642000	0.512400	0.445300
H3401	H340	0.695200	0.470200	0.454400
H3411	H341	0.624400	0.952700	0.597800
H3421	H342	0.834100	0.863200	0.584400
H3431	H343	0.777800	0.887800	0.615800
H3441	H344	0.839000	0.944800	0.525200
H3451	H345	0.828900	0.955200	0.584900
H3461	H346	0.783300	0.054300	0.527500
H3471	H347	0.784800	0.026500	0.478500
H3481	H348	0.718700	0.094700	0.476400
H3491	H349	0.696200	0.079100	0.538500
H3501	H350	0.577700	0.116200	0.478600
H3511	H351	0.616600	0.119800	0.422000
H3521	H352	0.635800	0.129400	0.472400
H3531	H353	0.544400	0.055100	0.435000
H3541	H354	0.508800	0.981900	0.422000
H3551	H355	0.550300	0.892400	0.450500
H3561	H356	0.647200	0.796300	0.458700
H3571	H357	0.589400	0.813600	0.492000
H3581	H358	0.637000	0.782100	0.522100
H3591	H359	0.701900	0.782000	0.551200
H3601	H360	0.747300	0.798100	0.501700
H3611	H361	0.725700	0.830100	0.602000
H3621	H362	0.778800	0.793600	0.577900
H3631	H363	0.005900	0.656300	0.336300
H3641	H364	0.015300	0.645500	0.276800
H3651	H365	0.924300	0.676600	0.298300
H3661	H366	0.933500	0.724100	0.322600
H3671	H367	0.878800	0.788500	0.262500
H3681	H368	0.873400	0.751300	0.223800
H3691	H369	0.926800	0.802700	0.149900
H3701	H370	0.873600	0.840300	0.173300
H3711	H371	0.931400	0.915700	0.136700
H3721	H372	0.980500	0.870100	0.120300
H3731	H373	0.016500	0.939200	0.137300
H3741	H374	0.977900	0.938800	0.194000
H3751	H375	0.132800	0.934400	0.153600
H3761	H376	0.117100	0.942700	0.214100
H3771	H377	0.075300	0.966000	0.175000
H3781	H378	0.184500	0.865400	0.226700
H3791	H379	0.232100	0.782900	0.269100
H3801	H380	0.194100	0.708200	0.291800
H3811	H381	0.112500	0.617200	0.288300
H3821	H382	0.105700	0.633900	0.345000
H3831	H383	0.157800	0.641900	0.301100
H3841	H384	0.955300	0.693500	0.488600
H3851	H385	0.929200	0.753700	0.467400
H3861	H386	0.040600	0.712000	0.447200
H3871	H387	0.002500	0.724000	0.404000
H3881	H388	0.068100	0.786400	0.352800
H3891	H389	0.096300	0.773900	0.403700
H3901	H390	0.110000	0.860300	0.360000
H3911	H391	0.048900	0.878800	0.353400
H3921	H392	0.118300	0.943100	0.362500
H3931	H393	0.127600	0.969200	0.408700
H3941	H394	0.075000	0.990900	0.383500
H3951	H395	0.082400	0.002100	0.488200
H3961	H396	0.057600	0.002600	0.578800
H3971	H397	0.009600	0.941100	0.637600
H3981	H398	0.938200	0.855800	0.688700
H3991	H399	0.993400	0.875100	0.682300
H4001	H400	0.991900	0.813000	0.691300
H4011	H401	0.968800	0.746900	0.630500
H4021	H402	0.913000	0.786600	0.640000
H4031	H403	0.895900	0.782200	0.559800
H4041	H404	0.913000	0.722200	0.589200
H4051	H405	0.467700	0.678700	0.569700
H4061	H406	0.431400	0.677000	0.627500
H4071	H407	0.451600	0.730600	0.596300
H4081	H408	0.367700	0.754300	0.663700
H4091	H409	0.289400	0.806200	0.698500
H4101	H410	0.218300	0.834200	0.653700
H4111	H411	0.157500	0.875600	0.584900
H4121	H412	0.142600	0.818000	0.608500
H4131	H413	0.133200	0.847100	0.550100
H4141	H414	0.181600	0.860300	0.459100
H4151	H415	0.166100	0.802500	0.472400
H4161	H416	0.205900	0.813800	0.384400
H4171	H417	0.253500	0.836100	0.396100
H4181	H418	0.318100	0.767100	0.348300
H4191	H419	0.278300	0.730100	0.344400
H4201	H420	0.319300	0.659400	0.405000
H4211	H421	0.363100	0.676800	0.354600
H4221	H422	0.431000	0.638100	0.424400
H4231	H423	0.380300	0.628400	0.469800
H4241	H424	0.445300	0.642000	0.512400
H4251	H425	0.454400	0.695200	0.470200
H4261	H426	0.597800	0.624400	0.952700
H4271	H427	0.584400	0.834100	0.863200
H4281	H428	0.615800	0.777800	0.887800
H4291	H429	0.525200	0.839000	0.944800
H4301	H430	0.584900	0.828900	0.955200
H4311	H431	0.527500	0.783300	0.054300
H4321	H432	0.478500	0.784800	0.026500
H4331	H433	0.476400	0.718700	0.094700
H4341	H434	0.538500	0.696200	0.079100
H4351	H435	0.478600	0.577700	0.116200
H4361	H436	0.422000	0.616600	0.119800
H4371	H437	0.472400	0.635800	0.129400
H4381	H438	0.435000	0.544400	0.055100
H4391	H439	0.422000	0.508800	0.981900
H4401	H440	0.450500	0.550300	0.892400
H4411	H441	0.458700	0.647200	0.796300
H4421	H442	0.492000	0.589400	0.813600
H4431	H443	0.522100	0.637000	0.782100
H4441	H444	0.551200	0.701900	0.782000
H4451	H445	0.501700	0.747300	0.798100
H4461	H446	0.602000	0.725700	0.830100
H4471	H447	0.577900	0.778800	0.793600
H4481	H448	0.336300	0.005900	0.656300
H4491	H449	0.276800	0.015300	0.645500
H4501	H450	0.298300	0.924300	0.676600
H4511	H451	0.322600	0.933500	0.724100
H4521	H452	0.262500	0.878800	0.788500
H4531	H453	0.223800	0.873400	0.751300
H4541	H454	0.149900	0.926800	0.802700
H4551	H455	0.173300	0.873600	0.840300
H4561	H456	0.136700	0.931400	0.915700
H4571	H457	0.120300	0.980500	0.870100
H4581	H458	0.137300	0.016500	0.939200
H4591	H459	0.194000	0.977900	0.938800
H4601	H460	0.153600	0.132800	0.934400
H4611	H461	0.214100	0.117100	0.942700
H4621	H462	0.175000	0.075300	0.966000
H4631	H463	0.226700	0.184500	0.865400
H4641	H464	0.269100	0.232100	0.782900
H4651	H465	0.291800	0.194100	0.708200
H4661	H466	0.288300	0.112500	0.617200
H4671	H467	0.345000	0.105700	0.633900
H4681	H468	0.301100	0.157800	0.641900
H4691	H469	0.488600	0.955300	0.693500
H4701	H470	0.467400	0.929200	0.753700
H4711	H471	0.447200	0.040600	0.712000
H4721	H472	0.404000	0.002500	0.724000
H4731	H473	0.352800	0.068100	0.786400
H4741	H474	0.403700	0.096300	0.773900
H4751	H475	0.360000	0.110000	0.860300
H4761	H476	0.353400	0.048900	0.878800
H4771	H477	0.362500	0.118300	0.943100
H4781	H478	0.408700	0.127600	0.969200
H4791	H479	0.383500	0.075000	0.990900
H4801	H480	0.488200	0.082400	0.002100
H4811	H481	0.578800	0.057600	0.002600
H4821	H482	0.637600	0.009600	0.941100
H4831	H483	0.688700	0.938200	0.855800
H4841	H484	0.682300	0.993400	0.875100
H4851	H485	0.691300	0.991900	0.813000
H4861	H486	0.630500	0.968800	0.746900
H4871	H487	0.640000	0.913000	0.786600
H4881	H488	0.559800	0.895900	0.782200
H4891	H489	0.589200	0.913000	0.722200
H4901	H490	0.569700	0.467700	0.678700
H4911	H491	0.627500	0.431400	0.677000
H4921	H492	0.596300	0.451600	0.730600
H4931	H493	0.663700	0.367700	0.754300
H4941	H494	0.698500	0.289400	0.806200
H4951	H495	0.653700	0.218300	0.834200
H4961	H496	0.584900	0.157500	0.875600
H4971	H497	0.608500	0.142600	0.818000
H4981	H498	0.550100	0.133200	0.847100
H4991	H499	0.459100	0.181600	0.860300
H5001	H500	0.472400	0.166100	0.802500
H5011	H501	0.384400	0.205900	0.813800
H5021	H502	0.396100	0.253500	0.836100
H5031	H503	0.348300	0.318100	0.767100
H5041	H504	0.344400	0.278300	0.730100
H5051	H505	0.405000	0.319300	0.659400
H5061	H506	0.354600	0.363100	0.676800
H5071	H507	0.424400	0.431000	0.638100
H5081	H508	0.469800	0.380300	0.628400
H5091	H509	0.512400	0.445300	0.642000
H5101	H510	0.470200	0.454400	0.695200
C11	C1	0.141680	0.674480	0.056880
C21	C2	0.104580	0.565980	0.086680
C31	C3	0.150600	0.626800	0.153300
C41	C4	0.065650	0.590950	0.194450
C51	C5	0.993100	0.641100	0.141400
C61	C6	0.059550	0.717350	0.142550
C71	C7	0.044710	0.676910	0.045010
C81	C8	0.274840	0.473240	0.892640
C91	C9	0.339600	0.539700	0.841700
C101	C10	0.337400	0.466400	0.773200
C111	C11	0.434600	0.479500	0.819800
C121	C12	0.417480	0.382980	0.831080
C131	C13	0.320900	0.385000	0.869000
C141	C14	0.376000	0.437100	0.931900
C151	C15	0.111800	0.419800	0.199600
C161	C16	0.055800	0.441100	0.186900
C171	C17	0.966500	0.486400	0.236000
C181	C18	0.935500	0.493900	0.286200
C191	C19	0.949000	0.526500	0.363400
C201	C20	0.890900	0.539400	0.385200
C211	C21	0.990300	0.533900	0.391200
C221	C22	0.980400	0.555300	0.438200
C231	C23	0.025200	0.562400	0.460400
C241	C24	0.078000	0.546100	0.436200
C251	C25	0.083400	0.524700	0.390100
C261	C26	0.137700	0.506600	0.357500
C271	C27	0.191400	0.508600	0.372300
C281	C28	0.189300	0.467700	0.278200
C291	C29	0.175600	0.431300	0.249100
C301	C30	0.326400	0.701000	0.995400
C311	C31	0.297100	0.706000	0.052400
C321	C32	0.227300	0.769200	0.103100
C331	C33	0.181800	0.818500	0.092400
C341	C34	0.111100	0.850400	0.039100
C351	C35	0.083800	0.831800	0.001300
C361	C36	0.116300	0.799700	0.917800
C371	C37	0.063400	0.815800	0.896100
C381	C38	0.164480	0.772480	0.882380
C391	C39	0.165600	0.763200	0.830900
C401	C40	0.215400	0.737700	0.802400
C411	C41	0.259000	0.723900	0.824800
C421	C42	0.256000	0.733000	0.877800
C431	C43	0.301200	0.715100	0.908100
C441	C44	0.357100	0.693100	0.880500
C451	C45	0.269300	0.520700	0.038700
C461	C46	0.264800	0.564500	0.991600
C471	C47	0.203100	0.612800	0.933300
C481	C48	0.143200	0.622700	0.926900
C491	C49	0.081200	0.564000	0.927900
C501	C50	0.040800	0.606200	0.899100
C511	C51	0.070500	0.507700	0.945400
C521	C52	0.024900	0.488300	0.934500
C531	C53	0.024700	0.434800	0.950700
C541	C54	0.061800	0.398800	0.978400
C551	C55	0.103200	0.419500	0.987100
C561	C56	0.148100	0.388900	0.014500
C571	C57	0.151400	0.325400	0.023700
C581	C58	0.224300	0.387400	0.056200
C591	C59	0.244000	0.427000	0.074300
C601	C60	0.283800	0.432600	0.610100
C611	C61	0.300900	0.407600	0.560400
C621	C62	0.250140	0.404340	0.658040
C631	C63	0.234800	0.354900	0.661200
C641	C64	0.204000	0.334800	0.707600
C651	C65	0.187000	0.361300	0.750000
C661	C66	0.202120	0.411320	0.745520
C671	C67	0.184500	0.447200	0.786900
C681	C68	0.158600	0.423900	0.843600
C691	C69	0.178110	0.537610	0.803710
C701	C70	0.190000	0.589800	0.770500
C711	C71	0.261800	0.631700	0.701200
C721	C72	0.311500	0.613900	0.661500
C731	C73	0.345000	0.549600	0.597500
C741	C74	0.326700	0.510200	0.572400
C751	C75	0.056880	0.141680	0.674480
C761	C76	0.086680	0.104580	0.565980
C771	C77	0.153300	0.150600	0.626800
C781	C78	0.194450	0.065650	0.590950
C791	C79	0.141400	0.993100	0.641100
C801	C80	0.142550	0.059550	0.717350
C811	C81	0.045010	0.044710	0.676910
C821	C82	0.892640	0.274840	0.473240
C831	C83	0.841700	0.339600	0.539700
C841	C84	0.773200	0.337400	0.466400
C851	C85	0.819800	0.434600	0.479500
C861	C86	0.831080	0.417480	0.382980
C871	C87	0.869000	0.320900	0.385000
C881	C88	0.931900	0.376000	0.437100
C891	C89	0.199600	0.111800	0.419800
C901	C90	0.186900	0.055800	0.441100
C911	C91	0.236000	0.966500	0.486400
C921	C92	0.286200	0.935500	0.493900
C931	C93	0.363400	0.949000	0.526500
C941	C94	0.385200	0.890900	0.539400
C951	C95	0.391200	0.990300	0.533900
C961	C96	0.438200	0.980400	0.555300
C971	C97	0.460400	0.025200	0.562400
C981	C98	0.436200	0.078000	0.546100
C991	C99	0.390100	0.083400	0.524700
C1001	C100	0.357500	0.137700	0.506600
C1011	C101	0.372300	0.191400	0.508600
C1021	C102	0.278200	0.189300	0.467700
C1031	C103	0.249100	0.175600	0.431300
C1041	C104	0.995400	0.326400	0.701000
C1051	C105	0.052400	0.297100	0.706000
C1061	C106	0.103100	0.227300	0.769200
C1071	C107	0.092400	0.181800	0.818500
C1081	C108	0.039100	0.111100	0.850400
C1091	C109	0.001300	0.083800	0.831800
C1101	C110	0.917800	0.116300	0.799700
C1111	C111	0.896100	0.063400	0.815800
C1121	C112	0.882380	0.164480	0.772480
C1131	C113	0.830900	0.165600	0.763200
C1141	C114	0.802400	0.215400	0.737700
C1151	C115	0.824800	0.259000	0.723900
C1161	C116	0.877800	0.256000	0.733000
C1171	C117	0.908100	0.301200	0.715100
C1181	C118	0.880500	0.357100	0.693100
C1191	C119	0.038700	0.269300	0.520700
C1201	C120	0.991600	0.264800	0.564500
C1211	C121	0.933300	0.203100	0.612800
C1221	C122	0.926900	0.143200	0.622700
C1231	C123	0.927900	0.081200	0.564000
C1241	C124	0.899100	0.040800	0.606200
C1251	C125	0.945400	0.070500	0.507700
C1261	C126	0.934500	0.024900	0.488300
C1271	C127	0.950700	0.024700	0.434800
C1281	C128	0.978400	0.061800	0.398800
C1291	C129	0.987100	0.103200	0.419500
C1301	C130	0.014500	0.148100	0.388900
C1311	C131	0.023700	0.151400	0.325400
C1321	C132	0.056200	0.224300	0.387400
C1331	C133	0.074300	0.244000	0.427000
C1341	C134	0.610100	0.283800	0.432600
C1351	C135	0.560400	0.300900	0.407600
C1361	C136	0.658040	0.250140	0.404340
C1371	C137	0.661200	0.234800	0.354900
C1381	C138	0.707600	0.204000	0.334800
C1391	C139	0.750000	0.187000	0.361300
C1401	C140	0.745520	0.202120	0.411320
C1411	C141	0.786900	0.184500	0.447200
C1421	C142	0.843600	0.158600	0.423900
C1431	C143	0.803710	0.178110	0.537610
C1441	C144	0.770500	0.190000	0.589800
C1451	C145	0.701200	0.261800	0.631700
C1461	C146	0.661500	0.311500	0.613900
C1471	C147	0.597500	0.345000	0.549600
C1481	C148	0.572400	0.326700	0.510200
C1491	C149	0.674480	0.056880	0.141680
C1501	C150	0.565980	0.086680	0.104580
C1511	C151	0.626800	0.153300	0.150600
C1521	C152	0.590950	0.194450	0.065650
C1531	C153	0.641100	0.141400	0.993100
C1541	C154	0.717350	0.142550	0.059550
C1551	C155	0.676910	0.045010	0.044710
C1561	C156	0.473240	0.892640	0.274840
C1571	C157	0.539700	0.841700	0.339600
C1581	C158	0.466400	0.773200	0.337400
C1591	C159	0.479500	0.819800	0.434600
C1601	C160	0.382980	0.831080	0.417480
C1611	C161	0.385000	0.869000	0.320900
C1621	C162	0.437100	0.931900	0.376000
C1631	C163	0.419800	0.199600	0.111800
C1641	C164	0.441100	0.186900	0.055800
C1651	C165	0.486400	0.236000	0.966500
C1661	C166	0.493900	0.286200	0.935500
C1671	C167	0.526500	0.363400	0.949000
C1681	C168	0.539400	0.385200	0.890900
C1691	C169	0.533900	0.391200	0.990300
C1701	C170	0.555300	0.438200	0.980400
C1711	C171	0.562400	0.460400	0.025200
C1721	C172	0.546100	0.436200	0.078000
C1731	C173	0.524700	0.390100	0.083400
C1741	C174	0.506600	0.357500	0.137700
C1751	C175	0.508600	0.372300	0.191400
C1761	C176	0.467700	0.278200	0.189300
C1771	C177	0.431300	0.249100	0.175600
C1781	C178	0.701000	0.995400	0.326400
C1791	C179	0.706000	0.052400	0.297100
C1801	C180	0.769200	0.103100	0.227300
C1811	C181	0.818500	0.092400	0.181800
C1821	C182	0.850400	0.039100	0.111100
C1831	C183	0.831800	0.001300	0.083800
C1841	C184	0.799700	0.917800	0.116300
C1851	C185	0.815800	0.896100	0.063400
C1861	C186	0.772480	0.882380	0.164480
C1871	C187	0.763200	0.830900	0.165600
C1881	C188	0.737700	0.802400	0.215400
C1891	C189	0.723900	0.824800	0.259000
C1901	C190	0.733000	0.877800	0.256000
C1911	C191	0.715100	0.908100	0.301200
C1921	C192	0.693100	0.880500	0.357100
C1931	C193	0.520700	0.038700	0.269300
C1941	C194	0.564500	0.991600	0.264800
C1951	C195	0.612800	0.933300	0.203100
C1961	C196	0.622700	0.926900	0.143200
C1971	C197	0.564000	0.927900	0.081200
C1981	C198	0.606200	0.899100	0.040800
C1991	C199	0.507700	0.945400	0.070500
C2001	C200	0.488300	0.934500	0.024900
C2011	C201	0.434800	0.950700	0.024700
C2021	C202	0.398800	0.978400	0.061800
C2031	C203	0.419500	0.987100	0.103200
C2041	C204	0.388900	0.014500	0.148100
C2051	C205	0.325400	0.023700	0.151400
C2061	C206	0.387400	0.056200	0.224300
C2071	C207	0.427000	0.074300	0.244000
C2081	C208	0.432600	0.610100	0.283800
C2091	C209	0.407600	0.560400	0.300900
C2101	C210	0.404340	0.658040	0.250140
C2111	C211	0.354900	0.661200	0.234800
C2121	C212	0.334800	0.707600	0.204000
C2131	C213	0.361300	0.750000	0.187000
C2141	C214	0.411320	0.745520	0.202120
C2151	C215	0.447200	0.786900	0.184500
C2161	C216	0.423900	0.843600	0.158600
C2171	C217	0.537610	0.803710	0.178110
C2181	C218	0.589800	0.770500	0.190000
C2191	C219	0.631700	0.701200	0.261800
C2201	C220	0.613900	0.661500	0.311500
C2211	C221	0.549600	0.597500	0.345000
C2221	C222	0.510200	0.572400	0.326700
C2231	C223	0.858320	0.325520	0.943120
C2241	C224	0.895420	0.434020	0.913320
C2251	C225	0.849400	0.373200	0.846700
C2261	C226	0.934350	0.409050	0.805550
C2271	C227	0.006900	0.358900	0.858600
C2281	C228	0.940450	0.282650	0.857450
C2291	C229	0.955290	0.323090	0.954990
C2301	C230	0.725160	0.526760	0.107360
C2311	C231	0.660400	0.460300	0.158300
C2321	C232	0.662600	0.533600	0.226800
C2331	C233	0.565400	0.520500	0.180200
C2341	C234	0.582520	0.617020	0.168920
C2351	C235	0.679100	0.615000	0.131000
C2361	C236	0.624000	0.562900	0.068100
C2371	C237	0.888200	0.580200	0.800400
C2381	C238	0.944200	0.558900	0.813100
C2391	C239	0.033500	0.513600	0.764000
C2401	C240	0.064500	0.506100	0.713800
C2411	C241	0.051000	0.473500	0.636600
C2421	C242	0.109100	0.460600	0.614800
C2431	C243	0.009700	0.466100	0.608800
C2441	C244	0.019600	0.444700	0.561800
C2451	C245	0.974800	0.437600	0.539600
C2461	C246	0.922000	0.453900	0.563800
C2471	C247	0.916600	0.475300	0.609900
C2481	C248	0.862300	0.493400	0.642500
C2491	C249	0.808600	0.491400	0.627700
C2501	C250	0.810700	0.532300	0.721800
C2511	C251	0.824400	0.568700	0.750900
C2521	C252	0.673600	0.299000	0.004600
C2531	C253	0.702900	0.294000	0.947600
C2541	C254	0.772700	0.230800	0.896900
C2551	C255	0.818200	0.181500	0.907600
C2561	C256	0.888900	0.149600	0.960900
C2571	C257	0.916200	0.168200	0.998700
C2581	C258	0.883700	0.200300	0.082200
C2591	C259	0.936600	0.184200	0.103900
C2601	C260	0.835520	0.227520	0.117620
C2611	C261	0.834400	0.236800	0.169100
C2621	C262	0.784600	0.262300	0.197600
C2631	C263	0.741000	0.276100	0.175200
C2641	C264	0.744000	0.267000	0.122200
C2651	C265	0.698800	0.284900	0.091900
C2661	C266	0.642900	0.306900	0.119500
C2671	C267	0.730700	0.479300	0.961300
C2681	C268	0.735200	0.435500	0.008400
C2691	C269	0.796900	0.387200	0.066700
C2701	C270	0.856800	0.377300	0.073100
C2711	C271	0.918800	0.436000	0.072100
C2721	C272	0.959200	0.393800	0.100900
C2731	C273	0.929500	0.492300	0.054600
C2741	C274	0.975100	0.511700	0.065500
C2751	C275	0.975300	0.565200	0.049300
C2761	C276	0.938200	0.601200	0.021600
C2771	C277	0.896800	0.580500	0.012900
C2781	C278	0.851900	0.611100	0.985500
C2791	C279	0.848600	0.674600	0.976300
C2801	C280	0.775700	0.612600	0.943800
C2811	C281	0.756000	0.573000	0.925700
C2821	C282	0.716200	0.567400	0.389900
C2831	C283	0.699100	0.592400	0.439600
C2841	C284	0.749860	0.595660	0.341960
C2851	C285	0.765200	0.645100	0.338800
C2861	C286	0.796000	0.665200	0.292400
C2871	C287	0.813000	0.638700	0.250000
C2881	C288	0.797880	0.588680	0.254480
C2891	C289	0.815500	0.552800	0.213100
C2901	C290	0.841400	0.576100	0.156400
C2911	C291	0.821890	0.462390	0.196290
C2921	C292	0.810000	0.410200	0.229500
C2931	C293	0.738200	0.368300	0.298800
C2941	C294	0.688500	0.386100	0.338500
C2951	C295	0.655000	0.450400	0.402500
C2961	C296	0.673300	0.489800	0.427600
C2971	C297	0.943120	0.858320	0.325520
C2981	C298	0.913320	0.895420	0.434020
C2991	C299	0.846700	0.849400	0.373200
C3001	C300	0.805550	0.934350	0.409050
C3011	C301	0.858600	0.006900	0.358900
C3021	C302	0.857450	0.940450	0.282650
C3031	C303	0.954990	0.955290	0.323090
C3041	C304	0.107360	0.725160	0.526760
C3051	C305	0.158300	0.660400	0.460300
C3061	C306	0.226800	0.662600	0.533600
C3071	C307	0.180200	0.565400	0.520500
C3081	C308	0.168920	0.582520	0.617020
C3091	C309	0.131000	0.679100	0.615000
C3101	C310	0.068100	0.624000	0.562900
C3111	C311	0.800400	0.888200	0.580200
C3121	C312	0.813100	0.944200	0.558900
C3131	C313	0.764000	0.033500	0.513600
C3141	C314	0.713800	0.064500	0.506100
C3151	C315	0.636600	0.051000	0.473500
C3161	C316	0.614800	0.109100	0.460600
C3171	C317	0.608800	0.009700	0.466100
C3181	C318	0.561800	0.019600	0.444700
C3191	C319	0.539600	0.974800	0.437600
C3201	C320	0.563800	0.922000	0.453900
C3211	C321	0.609900	0.916600	0.475300
C3221	C322	0.642500	0.862300	0.493400
C3231	C323	0.627700	0.808600	0.491400
C3241	C324	0.721800	0.810700	0.532300
C3251	C325	0.750900	0.824400	0.568700
C3261	C326	0.004600	0.673600	0.299000
C3271	C327	0.947600	0.702900	0.294000
C3281	C328	0.896900	0.772700	0.230800
C3291	C329	0.907600	0.818200	0.181500
C3301	C330	0.960900	0.888900	0.149600
C3311	C331	0.998700	0.916200	0.168200
C3321	C332	0.082200	0.883700	0.200300
C3331	C333	0.103900	0.936600	0.184200
C3341	C334	0.117620	0.835520	0.227520
C3351	C335	0.169100	0.834400	0.236800
C3361	C336	0.197600	0.784600	0.262300
C3371	C337	0.175200	0.741000	0.276100
C3381	C338	0.122200	0.744000	0.267000
C3391	C339	0.091900	0.698800	0.284900
C3401	C340	0.119500	0.642900	0.306900
C3411	C341	0.961300	0.730700	0.479300
C3421	C342	0.008400	0.735200	0.435500
C3431	C343	0.066700	0.796900	0.387200
C3441	C344	0.073100	0.856800	0.377300
C3451	C345	0.072100	0.918800	0.436000
C3461	C346	0.100900	0.959200	0.393800
C3471	C347	0.054600	0.929500	0.492300
C3481	C348	0.065500	0.975100	0.511700
C3491	C349	0.049300	0.975300	0.565200
C3501	C350	0.021600	0.938200	0.601200
C3511	C351	0.012900	0.896800	0.580500
C3521	C352	0.985500	0.851900	0.611100
C3531	C353	0.976300	0.848600	0.674600
C3541	C354	0.943800	0.775700	0.612600
C3551	C355	0.925700	0.756000	0.573000
C3561	C356	0.389900	0.716200	0.567400
C3571	C357	0.439600	0.699100	0.592400
C3581	C358	0.341960	0.749860	0.595660
C3591	C359	0.338800	0.765200	0.645100
C3601	C360	0.292400	0.796000	0.665200
C3611	C361	0.250000	0.813000	0.638700
C3621	C362	0.254480	0.797880	0.588680
C3631	C363	0.213100	0.815500	0.552800
C3641	C364	0.156400	0.841400	0.576100
C3651	C365	0.196290	0.821890	0.462390
C3661	C366	0.229500	0.810000	0.410200
C3671	C367	0.298800	0.738200	0.368300
C3681	C368	0.338500	0.688500	0.386100
C3691	C369	0.402500	0.655000	0.450400
C3701	C370	0.427600	0.673300	0.489800
C3711	C371	0.325520	0.943120	0.858320
C3721	C372	0.434020	0.913320	0.895420
C3731	C373	0.373200	0.846700	0.849400
C3741	C374	0.409050	0.805550	0.934350
C3751	C375	0.358900	0.858600	0.006900
C3761	C376	0.282650	0.857450	0.940450
C3771	C377	0.323090	0.954990	0.955290
C3781	C378	0.526760	0.107360	0.725160
C3791	C379	0.460300	0.158300	0.660400
C3801	C380	0.533600	0.226800	0.662600
C3811	C381	0.520500	0.180200	0.565400
C3821	C382	0.617020	0.168920	0.582520
C3831	C383	0.615000	0.131000	0.679100
C3841	C384	0.562900	0.068100	0.624000
C3851	C385	0.580200	0.800400	0.888200
C3861	C386	0.558900	0.813100	0.944200
C3871	C387	0.513600	0.764000	0.033500
C3881	C388	0.506100	0.713800	0.064500
C3891	C389	0.473500	0.636600	0.051000
C3901	C390	0.460600	0.614800	0.109100
C3911	C391	0.466100	0.608800	0.009700
C3921	C392	0.444700	0.561800	0.019600
C3931	C393	0.437600	0.539600	0.974800
C3941	C394	0.453900	0.563800	0.922000
C3951	C395	0.475300	0.609900	0.916600
C3961	C396	0.493400	0.642500	0.862300
C3971	C397	0.491400	0.627700	0.808600
C3981	C398	0.532300	0.721800	0.810700
C3991	C399	0.568700	0.750900	0.824400
C4001	C400	0.299000	0.004600	0.673600
C4011	C401	0.294000	0.947600	0.702900
C4021	C402	0.230800	0.896900	0.772700
C4031	C403	0.181500	0.907600	0.818200
C4041	C404	0.149600	0.960900	0.888900
C4051	C405	0.168200	0.998700	0.916200
C4061	C406	0.200300	0.082200	0.883700
C4071	C407	0.184200	0.103900	0.936600
C4081	C408	0.227520	0.117620	0.835520
C4091	C409	0.236800	0.169100	0.834400
C4101	C410	0.262300	0.197600	0.784600
C4111	C411	0.276100	0.175200	0.741000
C4121	C412	0.267000	0.122200	0.744000
C4131	C413	0.284900	0.091900	0.698800
C4141	C414	0.306900	0.119500	0.642900
C4151	C415	0.479300	0.961300	0.730700
C4161	C416	0.435500	0.008400	0.735200
C4171	C417	0.387200	0.066700	0.796900
C4181	C418	0.377300	0.073100	0.856800
C4191	C419	0.436000	0.072100	0.918800
C4201	C420	0.393800	0.100900	0.959200
C4211	C421	0.492300	0.054600	0.929500
C4221	C422	0.511700	0.065500	0.975100
C4231	C423	0.565200	0.049300	0.975300
C4241	C424	0.601200	0.021600	0.938200
C4251	C425	0.580500	0.012900	0.896800
C4261	C426	0.611100	0.985500	0.851900
C4271	C427	0.674600	0.976300	0.848600
C4281	C428	0.612600	0.943800	0.775700
C4291	C429	0.573000	0.925700	0.756000
C4301	C430	0.567400	0.389900	0.716200
C4311	C431	0.592400	0.439600	0.699100
C4321	C432	0.595660	0.341960	0.749860
C4331	C433	0.645100	0.338800	0.765200
C4341	C434	0.665200	0.292400	0.796000
C4351	C435	0.638700	0.250000	0.813000
C4361	C436	0.588680	0.254480	0.797880
C4371	C437	0.552800	0.213100	0.815500
C4381	C438	0.576100	0.156400	0.841400
C4391	C439	0.462390	0.196290	0.821890
C4401	C440	0.410200	0.229500	0.810000
C4411	C441	0.368300	0.298800	0.738200
C4421	C442	0.386100	0.338500	0.688500
C4431	C443	0.450400	0.402500	0.655000
C4441	C444	0.489800	0.427600	0.673300
N11	N1	0.175160	0.693460	0.025660
N21	N2	0.121260	0.527160	0.068260
N31	N3	0.189300	0.618300	0.172000
N41	N4	0.059460	0.562060	0.235260
N51	N5	0.946800	0.645100	0.156700
N61	N6	0.047770	0.760670	0.153670
N71	N7	0.025190	0.697390	0.007090
N81	N8	0.231400	0.483400	0.916800
N91	N9	0.330700	0.586400	0.831500
N101	N10	0.326270	0.476170	0.730670
N111	N11	0.474610	0.493810	0.800910
N121	N12	0.447680	0.348480	0.816180
N131	N13	0.299300	0.343600	0.879500
N141	N14	0.384800	0.425000	0.976600
N151	N15	0.130600	0.451500	0.225300
N161	N16	0.017500	0.450100	0.238400
N171	N17	0.968400	0.506300	0.321300
N181	N18	0.042900	0.518600	0.368600
N191	N19	0.138800	0.487300	0.316900
N201	N20	0.261340	0.759040	0.052940
N211	N21	0.148710	0.805110	0.059710
N221	N22	0.124470	0.806870	0.961170
N231	N23	0.209880	0.757180	0.903880
N241	N24	0.288110	0.718910	0.958210
N251	N25	0.177800	0.412700	0.029100
N261	N26	0.105560	0.473760	0.971760
N271	N27	0.125000	0.572600	0.939400
N281	N28	0.210690	0.577690	0.984190
N291	N29	0.252600	0.472000	0.029100
N301	N30	0.299100	0.577700	0.630300
N311	N31	0.244340	0.583840	0.738440
N321	N32	0.194840	0.495440	0.770140
N331	N33	0.233470	0.431570	0.700070
N341	N34	0.295370	0.477070	0.615470
N351	N35	0.025660	0.175160	0.693460
N361	N36	0.068260	0.121260	0.527160
N371	N37	0.172000	0.189300	0.618300
N381	N38	0.235260	0.059460	0.562060
N391	N39	0.156700	0.946800	0.645100
N401	N40	0.153670	0.047770	0.760670
N411	N41	0.007090	0.025190	0.697390
N421	N42	0.916800	0.231400	0.483400
N431	N43	0.831500	0.330700	0.586400
N441	N44	0.730670	0.326270	0.476170
N451	N45	0.800910	0.474610	0.493810
N461	N46	0.816180	0.447680	0.348480
N471	N47	0.879500	0.299300	0.343600
N481	N48	0.976600	0.384800	0.425000
N491	N49	0.225300	0.130600	0.451500
N501	N50	0.238400	0.017500	0.450100
N511	N51	0.321300	0.968400	0.506300
N521	N52	0.368600	0.042900	0.518600
N531	N53	0.316900	0.138800	0.487300
N541	N54	0.052940	0.261340	0.759040
N551	N55	0.059710	0.148710	0.805110
N561	N56	0.961170	0.124470	0.806870
N571	N57	0.903880	0.209880	0.757180
N581	N58	0.958210	0.288110	0.718910
N591	N59	0.029100	0.177800	0.412700
N601	N60	0.971760	0.105560	0.473760
N611	N61	0.939400	0.125000	0.572600
N621	N62	0.984190	0.210690	0.577690
N631	N63	0.029100	0.252600	0.472000
N641	N64	0.630300	0.299100	0.577700
N651	N65	0.738440	0.244340	0.583840
N661	N66	0.770140	0.194840	0.495440
N671	N67	0.700070	0.233470	0.431570
N681	N68	0.615470	0.295370	0.477070
N691	N69	0.693460	0.025660	0.175160
N701	N70	0.527160	0.068260	0.121260
N711	N71	0.618300	0.172000	0.189300
N721	N72	0.562060	0.235260	0.059460
N731	N73	0.645100	0.156700	0.946800
N741	N74	0.760670	0.153670	0.047770
N751	N75	0.697390	0.007090	0.025190
N761	N76	0.483400	0.916800	0.231400
N771	N77	0.586400	0.831500	0.330700
N781	N78	0.476170	0.730670	0.326270
N791	N79	0.493810	0.800910	0.474610
N801	N80	0.348480	0.816180	0.447680
N811	N81	0.343600	0.879500	0.299300
N821	N82	0.425000	0.976600	0.384800
N831	N83	0.451500	0.225300	0.130600
N841	N84	0.450100	0.238400	0.017500
N851	N85	0.506300	0.321300	0.968400
N861	N86	0.518600	0.368600	0.042900
N871	N87	0.487300	0.316900	0.138800
N881	N88	0.759040	0.052940	0.261340
N891	N89	0.805110	0.059710	0.148710
N901	N90	0.806870	0.961170	0.124470
N911	N91	0.757180	0.903880	0.209880
N921	N92	0.718910	0.958210	0.288110
N931	N93	0.412700	0.029100	0.177800
N941	N94	0.473760	0.971760	0.105560
N951	N95	0.572600	0.939400	0.125000
N961	N96	0.577690	0.984190	0.210690
N971	N97	0.472000	0.029100	0.252600
N981	N98	0.577700	0.630300	0.299100
N991	N99	0.583840	0.738440	0.244340
N1001	N100	0.495440	0.770140	0.194840
N1011	N101	0.431570	0.700070	0.233470
N1021	N102	0.477070	0.615470	0.295370
N1031	N103	0.824840	0.306540	0.974340
N1041	N104	0.878740	0.472840	0.931740
N1051	N105	0.810700	0.381700	0.828000
N1061	N106	0.940540	0.437940	0.764740
N1071	N107	0.053200	0.354900	0.843300
N1081	N108	0.952230	0.239330	0.846330
N1091	N109	0.974810	0.302610	0.992910
N1101	N110	0.768600	0.516600	0.083200
N1111	N111	0.669300	0.413600	0.168500
N1121	N112	0.673730	0.523830	0.269330
N1131	N113	0.525390	0.506190	0.199090
N1141	N114	0.552320	0.651520	0.183820
N1151	N115	0.700700	0.656400	0.120500
N1161	N116	0.615200	0.575000	0.023400
N1171	N117	0.869400	0.548500	0.774700
N1181	N118	0.982500	0.549900	0.761600
N1191	N119	0.031600	0.493700	0.678700
N1201	N120	0.957100	0.481400	0.631400
N1211	N121	0.861200	0.512700	0.683100
N1221	N122	0.738660	0.240960	0.947060
N1231	N123	0.851290	0.194890	0.940290
N1241	N124	0.875530	0.193130	0.038830
N1251	N125	0.790120	0.242820	0.096120
N1261	N126	0.711890	0.281090	0.041790
N1271	N127	0.822200	0.587300	0.970900
N1281	N128	0.894440	0.526240	0.028240
N1291	N129	0.875000	0.427400	0.060600
N1301	N130	0.789310	0.422310	0.015810
N1311	N131	0.747400	0.528000	0.970900
N1321	N132	0.700900	0.422300	0.369700
N1331	N133	0.755660	0.416160	0.261560
N1341	N134	0.805160	0.504560	0.229860
N1351	N135	0.766530	0.568430	0.299930
N1361	N136	0.704630	0.522930	0.384530
N1371	N137	0.974340	0.824840	0.306540
N1381	N138	0.931740	0.878740	0.472840
N1391	N139	0.828000	0.810700	0.381700
N1401	N140	0.764740	0.940540	0.437940
N1411	N141	0.843300	0.053200	0.354900
N1421	N142	0.846330	0.952230	0.239330
N1431	N143	0.992910	0.974810	0.302610
N1441	N144	0.083200	0.768600	0.516600
N1451	N145	0.168500	0.669300	0.413600
N1461	N146	0.269330	0.673730	0.523830
N1471	N147	0.199090	0.525390	0.506190
N1481	N148	0.183820	0.552320	0.651520
N1491	N149	0.120500	0.700700	0.656400
N1501	N150	0.023400	0.615200	0.575000
N1511	N151	0.774700	0.869400	0.548500
N1521	N152	0.761600	0.982500	0.549900
N1531	N153	0.678700	0.031600	0.493700
N1541	N154	0.631400	0.957100	0.481400
N1551	N155	0.683100	0.861200	0.512700
N1561	N156	0.947060	0.738660	0.240960
N1571	N157	0.940290	0.851290	0.194890
N1581	N158	0.038830	0.875530	0.193130
N1591	N159	0.096120	0.790120	0.242820
N1601	N160	0.041790	0.711890	0.281090
N1611	N161	0.970900	0.822200	0.587300
N1621	N162	0.028240	0.894440	0.526240
N1631	N163	0.060600	0.875000	0.427400
N1641	N164	0.015810	0.789310	0.422310
N1651	N165	0.970900	0.747400	0.528000
N1661	N166	0.369700	0.700900	0.422300
N1671	N167	0.261560	0.755660	0.416160
N1681	N168	0.229860	0.805160	0.504560
N1691	N169	0.299930	0.766530	0.568430
N1701	N170	0.384530	0.704630	0.522930
N1711	N171	0.306540	0.974340	0.824840
N1721	N172	0.472840	0.931740	0.878740
N1731	N173	0.381700	0.828000	0.810700
N1741	N174	0.437940	0.764740	0.940540
N1751	N175	0.354900	0.843300	0.053200
N1761	N176	0.239330	0.846330	0.952230
N1771	N177	0.302610	0.992910	0.974810
N1781	N178	0.516600	0.083200	0.768600
N1791	N179	0.413600	0.168500	0.669300
N1801	N180	0.523830	0.269330	0.673730
N1811	N181	0.506190	0.199090	0.525390
N1821	N182	0.651520	0.183820	0.552320
N1831	N183	0.656400	0.120500	0.700700
N1841	N184	0.575000	0.023400	0.615200
N1851	N185	0.548500	0.774700	0.869400
N1861	N186	0.549900	0.761600	0.982500
N1871	N187	0.493700	0.678700	0.031600
N1881	N188	0.481400	0.631400	0.957100
N1891	N189	0.512700	0.683100	0.861200
N1901	N190	0.240960	0.947060	0.738660
N1911	N191	0.194890	0.940290	0.851290
N1921	N192	0.193130	0.038830	0.875530
N1931	N193	0.242820	0.096120	0.790120
N1941	N194	0.281090	0.041790	0.711890
N1951	N195	0.587300	0.970900	0.822200
N1961	N196	0.526240	0.028240	0.894440
N1971	N197	0.427400	0.060600	0.875000
N1981	N198	0.422310	0.015810	0.789310
N1991	N199	0.528000	0.970900	0.747400
N2001	N200	0.422300	0.369700	0.700900
N2011	N201	0.416160	0.261560	0.755660
N2021	N202	0.504560	0.229860	0.805160
N2031	N203	0.568430	0.299930	0.766530
N2041	N204	0.522930	0.384530	0.704630
O11	O1	0.064400	0.399500	0.345000
O21	O2	0.345000	0.064400	0.399500
O31	O3	0.399500	0.345000	0.064400
O41	O4	0.935600	0.600500	0.655000
O51	O5	0.655000	0.935600	0.600500
O61	O6	0.600500	0.655000	0.935600
