data_HEFFAB_charged_PM
_symmetry_space_group_name_H-M	'P1'
_cell_length_a	19.834000
_cell_length_b	20.224000
_cell_length_c	20.284000
_cell_angle_alpha	87.480000
_cell_angle_beta	64.418000
_cell_angle_gamma	82.896000
_symmetry_Int_Tables_number 1

loop_
_symmetry_equiv_pos_as_xyz
'x,y,z'

loop_
_atom_site_label
_atom_site_type_symbol
_atom_site_fract_x
_atom_site_fract_y
_atom_site_fract_z
Mn11	Mn1	0.174620	0.957160	0.543310
Mn21	Mn2	0.716000	0.462910	0.953420
Mn31	Mn3	0.323540	0.045780	0.461980
Mn41	Mn4	0.103900	0.872430	0.713400
Mn51	Mn5	0.825380	0.042840	0.456690
Mn61	Mn6	0.284000	0.537090	0.046580
Mn71	Mn7	0.676460	0.954220	0.538020
Mn81	Mn8	0.896100	0.127570	0.286600
Cd11	Cd1	0.219070	0.459480	0.949910
Cd21	Cd2	0.780930	0.540520	0.050090
H11	H1	0.947800	0.080800	0.835900
H21	H2	0.937600	0.187700	0.881600
H31	H3	0.127900	0.224000	0.704700
H41	H4	0.138100	0.117200	0.658900
H51	H5	0.912000	0.309300	0.864500
H61	H6	0.011600	0.446700	0.919700
H71	H7	0.133300	0.274300	0.819200
H81	H8	0.218000	0.394100	0.234000
H91	H9	0.181600	0.309800	0.321000
H101	H10	0.113000	0.212900	0.193400
H111	H11	0.151700	0.296400	0.105800
H121	H12	0.212600	0.190900	0.342700
H131	H13	0.060500	0.066000	0.460100
H141	H14	0.018300	0.194400	0.321100
H151	H15	0.356400	0.698200	0.891900
H161	H16	0.400600	0.782500	0.803300
H171	H17	0.318200	0.696800	0.681300
H181	H18	0.283000	0.609700	0.766500
H191	H19	0.480800	0.814800	0.683500
H201	H20	0.434300	0.946500	0.551800
H211	H21	0.285300	0.814900	0.664300
H221	H22	0.470300	0.446900	0.947500
H231	H23	0.653100	0.319100	0.818900
H241	H24	0.445600	0.299600	0.833000
H251	H25	0.673200	0.290000	0.694600
H261	H26	0.731400	0.201000	0.609700
H271	H27	0.563100	0.092900	0.739700
H281	H28	0.507000	0.179500	0.819100
H291	H29	0.052200	0.919200	0.164100
H301	H30	0.062400	0.812300	0.118400
H311	H31	0.872100	0.776000	0.295300
H321	H32	0.861900	0.882800	0.341100
H331	H33	0.088000	0.690700	0.135500
H341	H34	0.988400	0.553300	0.080300
H351	H35	0.866700	0.725700	0.180800
H361	H36	0.782000	0.605900	0.766000
H371	H37	0.818400	0.690200	0.679000
H381	H38	0.887000	0.787100	0.806600
H391	H39	0.848300	0.703600	0.894200
H401	H40	0.787400	0.809100	0.657300
H411	H41	0.939500	0.934000	0.539900
H421	H42	0.981700	0.805600	0.678900
H431	H43	0.643600	0.301800	0.108100
H441	H44	0.599400	0.217500	0.196700
H451	H45	0.681800	0.303200	0.318700
H461	H46	0.717000	0.390300	0.233500
H471	H47	0.519200	0.185200	0.316500
H481	H48	0.565700	0.053500	0.448200
H491	H49	0.714700	0.185100	0.335700
H501	H50	0.529700	0.553100	0.052500
H511	H51	0.346900	0.680900	0.181100
H521	H52	0.554400	0.700400	0.167000
H531	H53	0.326800	0.710000	0.305400
H541	H54	0.268600	0.799000	0.390300
H551	H55	0.436900	0.907100	0.260300
H561	H56	0.493000	0.820500	0.180900
C11	C1	0.151900	0.384800	0.871400
C21	C2	0.876300	0.427000	0.931300
C31	C3	0.049400	0.020700	0.713300
C41	C4	0.043900	0.089000	0.743100
C51	C5	0.984300	0.109900	0.809300
C61	C6	0.978300	0.173400	0.836400
C71	C7	0.031800	0.215900	0.797500
C81	C8	0.091300	0.194900	0.731300
C91	C9	0.097400	0.131500	0.704100
C101	C10	0.023300	0.282100	0.837000
C111	C11	0.955400	0.323100	0.865800
C121	C12	0.951100	0.384500	0.896600
C131	C13	0.014600	0.404800	0.898600
C141	C14	0.082500	0.363700	0.869700
C151	C15	0.086900	0.302400	0.838900
C161	C16	0.216500	0.404300	0.100100
C171	C17	0.191200	0.351100	0.157700
C181	C18	0.198200	0.356700	0.225200
C191	C19	0.175800	0.307000	0.277100
C201	C20	0.145200	0.253500	0.265400
C211	C21	0.135200	0.249100	0.201200
C221	C22	0.158800	0.299100	0.149000
C231	C23	0.121300	0.200300	0.321800
C241	C24	0.165700	0.174600	0.354900
C251	C25	0.141700	0.122500	0.408400
C261	C26	0.075400	0.100800	0.425500
C271	C27	0.025900	0.127000	0.394500
C281	C28	0.050000	0.176000	0.343100
C291	C29	0.951900	0.101300	0.421400
C301	C30	0.196200	0.091100	0.438900
C311	C31	0.287800	0.593200	0.895800
C321	C32	0.315200	0.648100	0.839100
C331	C33	0.348900	0.697400	0.848700
C341	C34	0.374200	0.749400	0.796300
C351	C35	0.359900	0.750700	0.737100
C361	C36	0.326100	0.697400	0.724200
C371	C37	0.304600	0.645900	0.775200
C381	C38	0.379300	0.805400	0.682000
C391	C39	0.447800	0.832300	0.662600
C401	C40	0.467600	0.885800	0.611700
C411	C41	0.419900	0.911700	0.586400
C421	C42	0.347400	0.891000	0.607900
C431	C43	0.330500	0.833700	0.653500
C441	C44	0.291500	0.919700	0.582100
C451	C45	0.545400	0.908700	0.586800
C461	C46	0.367200	0.408400	0.915500
C471	C47	0.447000	0.378100	0.890600
C481	C48	0.491900	0.410500	0.914000
C491	C49	0.569400	0.388000	0.887200
C501	C50	0.615300	0.419300	0.913300
C511	C51	0.600700	0.333400	0.838000
C521	C52	0.554400	0.299900	0.816800
C531	C53	0.477600	0.322800	0.845300
C541	C54	0.587700	0.243200	0.765900
C551	C55	0.651400	0.249300	0.703500
C561	C56	0.685700	0.196800	0.651900
C571	C57	0.650600	0.137700	0.664200
C581	C58	0.585300	0.133400	0.729400
C591	C59	0.553000	0.183500	0.777300
C601	C60	0.687700	0.082200	0.607300
C611	C61	0.848100	0.615200	0.128600
C621	C62	0.123700	0.573000	0.068700
C631	C63	0.950600	0.979300	0.286700
C641	C64	0.956100	0.911000	0.256900
C651	C65	0.015700	0.890100	0.190700
C661	C66	0.021700	0.826600	0.163600
C671	C67	0.968200	0.784100	0.202500
C681	C68	0.908700	0.805100	0.268700
C691	C69	0.902600	0.868500	0.295900
C701	C70	0.976700	0.717900	0.163000
C711	C71	0.044600	0.676900	0.134200
C721	C72	0.048900	0.615500	0.103400
C731	C73	0.985400	0.595200	0.101400
C741	C74	0.917500	0.636300	0.130300
C751	C75	0.913100	0.697600	0.161100
C761	C76	0.783500	0.595700	0.899900
C771	C77	0.808800	0.648900	0.842300
C781	C78	0.801800	0.643300	0.774800
C791	C79	0.824200	0.693000	0.722900
C801	C80	0.854800	0.746500	0.734600
C811	C81	0.864800	0.750900	0.798800
C821	C82	0.841200	0.700900	0.851000
C831	C83	0.878700	0.799700	0.678200
C841	C84	0.834300	0.825400	0.645100
C851	C85	0.858300	0.877500	0.591600
C861	C86	0.924600	0.899200	0.574500
C871	C87	0.974100	0.873000	0.605500
C881	C88	0.950000	0.824000	0.656900
C891	C89	0.048100	0.898700	0.578600
C901	C90	0.803800	0.908900	0.561100
C911	C91	0.712200	0.406800	0.104200
C921	C92	0.684800	0.351900	0.160900
C931	C93	0.651100	0.302600	0.151300
C941	C94	0.625800	0.250600	0.203700
C951	C95	0.640100	0.249300	0.262900
C961	C96	0.673900	0.302600	0.275800
C971	C97	0.695400	0.354100	0.224800
C981	C98	0.620700	0.194600	0.318000
C991	C99	0.552200	0.167700	0.337400
C1001	C100	0.532400	0.114200	0.388300
C1011	C101	0.580100	0.088300	0.413600
C1021	C102	0.652600	0.109000	0.392100
C1031	C103	0.669500	0.166300	0.346500
C1041	C104	0.708500	0.080300	0.417900
C1051	C105	0.454600	0.091300	0.413200
C1061	C106	0.632800	0.591600	0.084500
C1071	C107	0.553000	0.621900	0.109400
C1081	C108	0.508100	0.589500	0.086000
C1091	C109	0.430600	0.612000	0.112800
C1101	C110	0.384700	0.580700	0.086700
C1111	C111	0.399300	0.666600	0.162000
C1121	C112	0.445600	0.700100	0.183200
C1131	C113	0.522400	0.677200	0.154700
C1141	C114	0.412300	0.756800	0.234100
C1151	C115	0.348600	0.750700	0.296500
C1161	C116	0.314300	0.803200	0.348100
C1171	C117	0.349400	0.862300	0.335800
C1181	C118	0.414700	0.866600	0.270600
C1191	C119	0.447000	0.816500	0.222700
C1201	C120	0.312300	0.917800	0.392700
O11	O1	0.144300	0.767300	0.693900
O21	O2	0.147700	0.874800	0.796000
O31	O3	0.993400	0.852200	0.793300
O41	O4	0.289500	0.135400	0.544200
O51	O5	0.214100	0.362500	0.820400
O61	O6	0.142400	0.430000	0.915300
O71	O7	0.866000	0.471300	0.977700
O81	O8	0.826300	0.419000	0.911500
O91	O9	0.091500	0.014500	0.646900
O101	O10	0.012700	0.977300	0.755900
O111	O11	0.259600	0.104600	0.414500
O121	O12	0.169500	0.053500	0.491400
O131	O13	0.929900	0.062900	0.467300
O141	O14	0.916500	0.125000	0.390800
O151	O15	0.249400	0.448400	0.111300
O161	O16	0.196700	0.400000	0.048300
O171	O17	0.259500	0.549300	0.882700
O181	O18	0.306100	0.599200	0.949100
O191	O19	0.289200	0.982700	0.566000
O201	O20	0.224900	0.908100	0.611400
O211	O21	0.577200	0.897800	0.623700
O221	O22	0.564300	0.946500	0.534500
O231	O23	0.343900	0.461000	0.952500
O241	O24	0.325700	0.381100	0.892500
O251	O25	0.591300	0.452100	0.970300
O261	O26	0.686900	0.413500	0.872000
O271	O27	0.754600	0.083100	0.563700
O281	O28	0.646400	0.037700	0.609800
O291	O29	0.855700	0.232700	0.306100
O301	O30	0.852300	0.125200	0.204000
O311	O31	0.006600	0.147800	0.206700
O321	O32	0.710500	0.864600	0.455800
O331	O33	0.785900	0.637500	0.179600
O341	O34	0.857600	0.570000	0.084700
O351	O35	0.134000	0.528700	0.022300
O361	O36	0.173700	0.581000	0.088500
O371	O37	0.908500	0.985500	0.353100
O381	O38	0.987300	0.022700	0.244100
O391	O39	0.740400	0.895400	0.585500
O401	O40	0.830500	0.946500	0.508600
O411	O41	0.070100	0.937100	0.532700
O421	O42	0.083500	0.875000	0.609200
O431	O43	0.750600	0.551600	0.888700
O441	O44	0.803300	0.600000	0.951700
O451	O45	0.740500	0.450700	0.117300
O461	O46	0.693900	0.400800	0.050900
O471	O47	0.710800	0.017300	0.434000
O481	O48	0.775100	0.091900	0.388600
O491	O49	0.422800	0.102200	0.376300
O501	O50	0.435700	0.053500	0.465500
O511	O51	0.656100	0.539000	0.047500
O521	O52	0.674300	0.618900	0.107500
O531	O53	0.408700	0.547900	0.029700
O541	O54	0.313100	0.586500	0.128000
O551	O55	0.245400	0.916900	0.436300
O561	O56	0.353600	0.962300	0.390200
Cd31	Cd3	0.941950	0.517810	0.530790
Cd41	Cd4	0.058050	0.482190	0.469210
H571	H57	0.858800	0.270800	0.585400
H581	H58	0.839000	0.159400	0.613500
H591	H59	0.069600	0.232900	0.575500
H601	H60	0.039800	0.121000	0.605600
H611	H61	0.878200	0.054000	0.634800
H621	H62	0.966500	0.031800	0.590400
H631	H63	0.932000	0.050600	0.675400
H641	H64	0.946700	0.269100	0.446400
H651	H65	0.942800	0.337800	0.346400
H661	H66	0.977600	0.592400	0.266300
H671	H67	0.002900	0.689500	0.315300
H681	H68	0.841700	0.459100	0.333300
H691	H69	0.833000	0.428800	0.228700
H701	H70	0.050800	0.423200	0.110400
H711	H71	0.065200	0.451800	0.213300
H721	H72	0.987400	0.397500	0.054600
H731	H73	0.911000	0.365700	0.102000
H741	H74	0.908000	0.442100	0.077900
H751	H75	0.141200	0.729200	0.414600
H761	H76	0.161000	0.840600	0.386500
H771	H77	0.930400	0.767100	0.424500
H781	H78	0.960200	0.879000	0.394400
H791	H79	0.121800	0.946000	0.365200
H801	H80	0.033500	0.968200	0.409600
H811	H81	0.068000	0.949400	0.324600
H821	H82	0.053300	0.730900	0.553600
H831	H83	0.057200	0.662200	0.653600
H841	H84	0.022400	0.407600	0.733700
H851	H85	0.997100	0.310500	0.684700
H861	H86	0.158300	0.540900	0.666700
H871	H87	0.167000	0.571200	0.771300
H881	H88	0.949200	0.576800	0.889600
H891	H89	0.934800	0.548200	0.786700
H901	H90	0.012600	0.602500	0.945400
H911	H91	0.089000	0.634300	0.898000
H921	H92	0.092000	0.557900	0.922100
C1211	C121	0.963900	0.355200	0.489200
C1221	C122	0.975200	0.336100	0.554400
C1231	C123	0.962300	0.264300	0.575000
C1241	C124	0.898400	0.240800	0.588000
C1251	C125	0.885700	0.174000	0.605400
C1261	C126	0.022900	0.219500	0.582100
C1271	C127	0.002900	0.152700	0.600400
C1281	C128	0.928400	0.061000	0.629300
C1291	C129	0.952300	0.315200	0.440800
C1301	C130	0.950500	0.352300	0.386300
C1311	C131	0.962200	0.419100	0.398400
C1321	C132	0.963700	0.473900	0.352800
C1331	C133	0.978500	0.538500	0.360200
C1341	C134	0.983800	0.593800	0.310100
C1351	C135	0.998600	0.646300	0.335900
C1361	C136	0.993000	0.374700	0.597900
C1371	C137	0.955500	0.460600	0.284200
C1381	C138	0.885500	0.452600	0.288300
C1391	C139	0.880900	0.435200	0.225600
C1401	C140	0.008200	0.431400	0.156000
C1411	C141	0.016200	0.448400	0.217500
C1421	C142	0.936100	0.406200	0.093200
C1431	C143	0.036100	0.644800	0.510800
C1441	C144	0.024800	0.663900	0.445600
C1451	C145	0.037700	0.735700	0.425000
C1461	C146	0.101600	0.759200	0.412000
C1471	C147	0.114300	0.826000	0.394600
C1481	C148	0.977100	0.780500	0.417900
C1491	C149	0.997100	0.847300	0.399600
C1501	C150	0.071600	0.939000	0.370700
C1511	C151	0.047700	0.684800	0.559200
C1521	C152	0.049500	0.647700	0.613700
C1531	C153	0.037800	0.580900	0.601600
C1541	C154	0.036300	0.526100	0.647200
C1551	C155	0.021500	0.461500	0.639800
C1561	C156	0.016200	0.406200	0.689900
C1571	C157	0.001400	0.353700	0.664100
C1581	C158	0.007000	0.625300	0.402100
C1591	C159	0.044500	0.539400	0.715800
C1601	C160	0.114500	0.547400	0.711700
C1611	C161	0.119100	0.564800	0.774400
C1621	C162	0.991800	0.568600	0.844000
C1631	C163	0.983800	0.551600	0.782500
C1641	C164	0.063900	0.593800	0.906800
N11	N1	0.969400	0.420600	0.461700
N21	N2	0.990100	0.560400	0.416600
N31	N3	0.938900	0.426900	0.162600
N41	N4	0.940800	0.131200	0.610400
N51	N5	0.030600	0.579400	0.538300
N61	N6	0.009900	0.439600	0.583400
N71	N7	0.061100	0.573100	0.837400
N81	N8	0.059200	0.868800	0.389600
Cl11	Cl1	0.805100	0.555700	0.617100
Cl21	Cl2	0.194900	0.444300	0.382900
Cd51	Cd5	0.555700	0.483250	0.470170
Cd61	Cd6	0.444300	0.516750	0.529830
H931	H93	0.619300	0.621100	0.886000
H941	H94	0.530500	0.642700	0.926600
H951	H95	0.564200	0.567700	0.932500
H961	H96	0.662800	0.603800	0.762900
H971	H97	0.649000	0.579900	0.657600
H981	H98	0.442400	0.529800	0.791700
H991	H99	0.459900	0.561400	0.889500
H1001	H100	0.546300	0.676900	0.650000
H1011	H101	0.545400	0.737300	0.542600
H1021	H102	0.482100	0.682100	0.318400
H1031	H103	0.469700	0.580800	0.268700
H1041	H104	0.380700	0.378900	0.114000
H1051	H105	0.469500	0.357300	0.073400
H1061	H106	0.435800	0.432300	0.067500
H1071	H107	0.337200	0.396200	0.237100
H1081	H108	0.351000	0.420100	0.342400
H1091	H109	0.557600	0.470200	0.208300
H1101	H110	0.540100	0.438600	0.110500
H1111	H111	0.453700	0.323100	0.350000
H1121	H112	0.454600	0.262700	0.457400
H1131	H113	0.517900	0.317900	0.681600
H1141	H114	0.530300	0.419200	0.731300
C1651	C165	0.569600	0.606400	0.900500
C1661	C166	0.616400	0.590600	0.767900
C1671	C167	0.609100	0.575300	0.704600
C1681	C168	0.543000	0.553400	0.711400
C1691	C169	0.487700	0.546900	0.783600
C1701	C170	0.498600	0.565000	0.841600
C1711	C171	0.533500	0.591100	0.599800
C1721	C172	0.532700	0.536900	0.649700
C1731	C173	0.541200	0.658800	0.610200
C1741	C174	0.539600	0.691400	0.552000
C1751	C175	0.528100	0.647700	0.506600
C1761	C176	0.518600	0.662600	0.442200
C1771	C177	0.500400	0.622700	0.399300
C1781	C178	0.485200	0.638800	0.337700
C1791	C179	0.476300	0.584200	0.312100
C1801	C180	0.522200	0.469300	0.640900
C1811	C181	0.430400	0.393600	0.099500
C1821	C182	0.383600	0.409400	0.232100
C1831	C183	0.390900	0.424700	0.295400
C1841	C184	0.457000	0.446600	0.288600
C1851	C185	0.512300	0.453100	0.216400
C1861	C186	0.501400	0.435000	0.158400
C1871	C187	0.466500	0.408900	0.400200
C1881	C188	0.467300	0.463100	0.350300
C1891	C189	0.458800	0.341200	0.389800
C1901	C190	0.460400	0.308600	0.448000
C1911	C191	0.471900	0.352300	0.493400
C1921	C192	0.481400	0.337400	0.557800
C1931	C193	0.499600	0.377300	0.600700
C1941	C194	0.514800	0.361200	0.662300
C1951	C195	0.523700	0.415800	0.687900
C1961	C196	0.477800	0.530700	0.359100
N91	N9	0.522400	0.585400	0.538100
N101	N10	0.494500	0.554100	0.412200
N111	N11	0.561900	0.587500	0.833400
N121	N12	0.477600	0.414600	0.461900
N131	N13	0.505500	0.445900	0.587800
N141	N14	0.438100	0.412500	0.166600
Cl31	Cl3	0.691700	0.448100	0.391000
Cl41	Cl4	0.308300	0.551900	0.609000
