data_HEGCEB_freeONLY_PM
_symmetry_space_group_name_H-M	'P1'
_cell_length_a	11.868000
_cell_length_b	13.030000
_cell_length_c	7.711300
_cell_angle_alpha	105.956000
_cell_angle_beta	94.951000
_cell_angle_gamma	91.584000
_symmetry_Int_Tables_number 1

loop_
_symmetry_equiv_pos_as_xyz
'x,y,z'

loop_
_atom_site_label
_atom_site_type_symbol
_atom_site_fract_x
_atom_site_fract_y
_atom_site_fract_z
Cd11	Cd1	0.245620	0.194120	0.112750
N11	N1	0.148400	0.090200	0.275100
N21	N2	0.132400	0.127100	0.843100
N31	N3	0.358900	0.303100	0.987900
N41	N4	0.424200	0.600700	0.365700
N51	N5	0.120600	0.326200	0.227300
N61	N6	0.339700	0.292100	0.392700
N71	N7	0.350300	0.043900	0.020200
C11	C1	0.093600	0.055700	0.361400
C21	C2	0.081800	0.080900	0.711500
C31	C3	0.412100	0.376600	0.988500
C41	C4	0.454600	0.562800	0.229800
C51	C5	0.182700	0.405300	0.390600
C61	C6	0.264000	0.361700	0.493200
C71	C7	0.474000	0.052100	0.040800
H11	H1	0.052520	0.293290	0.263470
H21	H2	0.096410	0.362910	0.133300
H31	H3	0.119520	0.443060	0.480700
H41	H4	0.226910	0.466350	0.343350
H51	H5	0.217660	0.316840	0.568960
H61	H6	0.314690	0.428700	0.589030
H71	H7	0.405560	0.335030	0.371350
H81	H8	0.367270	0.241780	0.462240
H91	H9	0.327000	0.011910	0.888090
H101	H10	0.327090	0.993270	0.089020
H111	H11	0.502670	0.111320	0.974100
H121	H12	0.502990	0.079180	0.186230
Cd21	Cd2	0.754380	0.805880	0.887250
N81	N8	0.851600	0.909800	0.724900
N91	N9	0.867600	0.872900	0.156900
N101	N10	0.641100	0.696900	0.012100
N111	N11	0.575800	0.399300	0.634300
N121	N12	0.879400	0.673800	0.772700
N131	N13	0.660300	0.707900	0.607300
N141	N14	0.649700	0.956100	0.979800
C81	C8	0.906400	0.944300	0.638600
C91	C9	0.918200	0.919100	0.288500
C101	C10	0.587900	0.623400	0.011500
C111	C11	0.545400	0.437200	0.770200
C121	C12	0.817300	0.594700	0.609400
C131	C13	0.736000	0.638300	0.506800
C141	C14	0.526000	0.947900	0.959200
H131	H13	0.947480	0.706710	0.736530
H141	H14	0.903590	0.637090	0.866700
H151	H15	0.880480	0.556940	0.519300
H161	H16	0.773090	0.533650	0.656650
H171	H17	0.782340	0.683160	0.431040
H181	H18	0.685310	0.571300	0.410970
H191	H19	0.594440	0.664970	0.628650
H201	H20	0.632730	0.758220	0.537760
H211	H21	0.673000	0.988090	0.111910
H221	H22	0.672910	0.006730	0.910980
H231	H23	0.497330	0.888680	0.025900
H241	H24	0.497010	0.920820	0.813770
Ni11	Ni1	0.000000	0.000000	0.500000
Ni21	Ni2	0.500000	0.500000	0.000000
