data_HELDEJ_SL_PM
_symmetry_space_group_name_H-M	'P1'
_cell_length_a	12.618000
_cell_length_b	12.927000
_cell_length_c	13.012000
_cell_angle_alpha	78.300000
_cell_angle_beta	62.220000
_cell_angle_gamma	62.070000
_symmetry_Int_Tables_number 1

loop_
_symmetry_equiv_pos_as_xyz
'x,y,z'

loop_
_atom_site_label
_atom_site_type_symbol
_atom_site_fract_x
_atom_site_fract_y
_atom_site_fract_z
Zn11	Zn1	0.658230	0.141250	0.393870
H21	H2	0.112300	0.816700	0.879000
H31	H3	0.985000	0.166100	0.554400
H41	H4	0.831000	0.943600	0.598300
H51	H5	0.695000	0.117100	0.712600
H61	H6	0.734200	0.222000	0.669800
H71	H7	0.953200	0.984900	0.777800
H81	H8	0.616800	0.935700	0.586100
H91	H9	0.357200	0.960700	0.858300
H101	H10	0.506800	0.870900	0.796800
H111	H11	0.285800	0.079000	0.020300
H121	H12	0.671800	0.881400	0.842000
H131	H13	0.905500	0.773100	0.183100
H141	H14	0.010700	0.782900	0.208000
H151	H15	0.786300	0.751700	0.380800
H161	H16	0.883900	0.769700	0.410000
H171	H17	0.934300	0.373100	0.221000
H181	H18	0.023000	0.265900	0.271200
H191	H19	0.845000	0.324800	0.459700
H201	H20	0.757000	0.420700	0.401400
H211	H21	0.252200	0.449600	0.427100
H221	H22	0.275900	0.322700	0.409900
H231	H23	0.388300	0.348900	0.203500
H241	H24	0.385700	0.460000	0.237500
C251	C25	0.990800	0.098700	0.532600
C261	C26	0.886200	0.067300	0.594700
C271	C27	0.899400	0.966700	0.558700
C281	C28	0.764400	0.141000	0.693300
C291	C29	0.750200	0.179500	0.959000
C301	C30	0.883300	0.050400	0.823600
C311	C31	0.447600	0.192400	0.644600
C321	C32	0.556600	0.010000	0.619300
C331	C33	0.447900	0.951100	0.825100
C341	C34	0.474700	0.976000	0.916700
C351	C35	0.372700	0.046900	0.011800
C361	C36	0.602000	0.929400	0.905700
C371	C37	0.837200	0.932800	0.252400
C381	C38	0.917300	0.801300	0.238900
C391	C39	0.878000	0.737600	0.352600
C401	C40	0.922100	0.540800	0.312900
C411	C41	0.073200	0.568500	0.358100
C421	C42	0.108200	0.371300	0.332000
C431	C43	0.952500	0.344900	0.288600
C441	C44	0.830000	0.343300	0.390200
C451	C45	0.792000	0.255100	0.373600
C461	C46	0.264200	0.398300	0.373700
C471	C47	0.387800	0.383500	0.263400
C481	C48	0.514700	0.307100	0.278100
N491	N49	0.962100	0.610600	0.340800
N501	N50	0.144500	0.447100	0.354000
N511	N51	0.996400	0.421200	0.313600
N521	N52	0.546300	0.108800	0.563900
N531	N53	0.397200	0.148200	0.746600
N541	N54	0.469300	0.031800	0.728200
N551	N55	0.863600	0.077900	0.926100
N561	N56	0.701000	0.213600	0.883400
N571	N57	0.785800	0.132400	0.797900
O581	O58	0.681500	0.259900	0.451000
O591	O59	0.858000	0.184400	0.297000
O601	O60	0.513800	0.227100	0.347700
O611	O61	0.616700	0.318500	0.211400
O621	O62	0.848900	0.994500	0.165100
O631	O63	0.759200	0.973200	0.354100
O641	O64	0.824200	0.582900	0.294500
O651	O65	0.109900	0.632000	0.376100
O661	O66	0.172200	0.265900	0.331300
O671	O67	0.050300	0.832200	0.944000
H681	H68	0.416890	0.288650	0.620560
H691	H69	0.290920	0.775440	0.955050
Zn701	Zn70	0.341770	0.858750	0.606130
H711	H71	0.887700	0.183300	0.121000
H721	H72	0.015000	0.833900	0.445600
H731	H73	0.169000	0.056400	0.401700
H741	H74	0.305000	0.882900	0.287400
H751	H75	0.265800	0.778000	0.330200
H761	H76	0.046800	0.015100	0.222200
H771	H77	0.383200	0.064300	0.413900
H781	H78	0.642800	0.039300	0.141700
H791	H79	0.493200	0.129100	0.203200
H801	H80	0.714200	0.921000	0.979700
H811	H81	0.328200	0.118600	0.158000
H821	H82	0.094500	0.226900	0.816900
H831	H83	0.989300	0.217100	0.792000
H841	H84	0.213700	0.248300	0.619200
H851	H85	0.116100	0.230300	0.590000
H861	H86	0.065700	0.626900	0.779000
H871	H87	0.977000	0.734100	0.728800
H881	H88	0.155000	0.675200	0.540300
H891	H89	0.243000	0.579300	0.598600
H901	H90	0.747800	0.550400	0.572900
H911	H91	0.724100	0.677300	0.590100
H921	H92	0.611700	0.651100	0.796500
H931	H93	0.614300	0.540000	0.762500
C941	C94	0.009200	0.901300	0.467400
C951	C95	0.113800	0.932700	0.405300
C961	C96	0.100600	0.033300	0.441300
C971	C97	0.235600	0.859000	0.306700
C981	C98	0.249800	0.820500	0.041000
C991	C99	0.116700	0.949600	0.176400
C1001	C100	0.552400	0.807600	0.355400
C1011	C101	0.443400	0.990000	0.380700
C1021	C102	0.552100	0.048900	0.174900
C1031	C103	0.525300	0.024000	0.083300
C1041	C104	0.627300	0.953100	0.988200
C1051	C105	0.398000	0.070600	0.094300
C1061	C106	0.162800	0.067200	0.747600
C1071	C107	0.082700	0.198700	0.761100
C1081	C108	0.122000	0.262400	0.647400
C1091	C109	0.077900	0.459200	0.687100
C1101	C110	0.926800	0.431500	0.641900
C1111	C111	0.891800	0.628700	0.668000
C1121	C112	0.047500	0.655100	0.711400
C1131	C113	0.170000	0.656700	0.609800
C1141	C114	0.208000	0.744900	0.626400
C1151	C115	0.735800	0.601700	0.626300
C1161	C116	0.612200	0.616500	0.736600
C1171	C117	0.485300	0.692900	0.721900
N1181	N118	0.037900	0.389400	0.659200
N1191	N119	0.855500	0.552900	0.646000
N1201	N120	0.003600	0.578800	0.686400
N1211	N121	0.453700	0.891200	0.436100
N1221	N122	0.602800	0.851800	0.253400
N1231	N123	0.530700	0.968200	0.271800
N1241	N124	0.136400	0.922100	0.073900
N1251	N125	0.299000	0.786400	0.116600
N1261	N126	0.214200	0.867600	0.202100
O1271	O127	0.318500	0.740100	0.549000
O1281	O128	0.142000	0.815600	0.703000
O1291	O129	0.486200	0.772900	0.652300
O1301	O130	0.383300	0.681500	0.788600
O1311	O131	0.151100	0.005500	0.834900
O1321	O132	0.240800	0.026800	0.645900
O1331	O133	0.175800	0.417100	0.705500
O1341	O134	0.890100	0.368000	0.623900
O1351	O135	0.827800	0.734100	0.668700
O1361	O136	0.949700	0.167800	0.056000
H1371	H137	0.583110	0.711350	0.379440
H1381	H138	0.709080	0.224560	0.044950
Zn1391	Zn139	0.000000	0.000000	0.000000
