data_HEMTEZ_freeONLY_PM
_symmetry_space_group_name_H-M	'P1'
_cell_length_a	27.745000
_cell_length_b	16.158300
_cell_length_c	22.819200
_cell_angle_alpha	90.000000
_cell_angle_beta	90.000000
_cell_angle_gamma	90.000000
_symmetry_Int_Tables_number 1

loop_
_symmetry_equiv_pos_as_xyz
'x,y,z'

loop_
_atom_site_label
_atom_site_type_symbol
_atom_site_fract_x
_atom_site_fract_y
_atom_site_fract_z
Mo11	Mo1	0.049520	0.798990	0.439200
Mo21	Mo2	0.933190	0.103530	0.373750
Mo31	Mo3	0.060180	0.112250	0.369510
Mo41	Mo4	0.889310	0.967770	0.403650
Mo51	Mo5	0.109930	0.981240	0.396770
Mo61	Mo6	0.955760	0.792500	0.443440
P11	P1	0.868660	0.780760	0.343210
P21	P2	0.133510	0.796530	0.335140
P31	P3	0.991450	0.185980	0.261030
P41	P4	0.998000	0.932800	0.339560
O11	O1	0.823370	0.729900	0.340610
O21	O2	0.904360	0.745100	0.387770
O31	O3	0.857390	0.872800	0.355150
O41	O4	0.894350	0.781600	0.281000
O51	O5	0.178090	0.744300	0.332030
O61	O6	0.097820	0.758100	0.378500
O71	O7	0.145460	0.887600	0.350830
O81	O8	0.109680	0.797800	0.272100
O91	O9	0.981720	0.277600	0.255000
O101	O10	0.039970	0.166700	0.290310
O111	O11	0.947930	0.147100	0.292280
O121	O12	0.993190	0.145100	0.198200
O131	O13	0.997280	0.027100	0.345870
O141	O14	0.044870	0.898100	0.365760
O151	O15	0.954550	0.894100	0.371890
O161	O16	0.994010	0.916100	0.272880
O171	O17	0.063350	0.734100	0.493950
O181	O18	0.101620	0.887800	0.459550
O191	O19	0.001750	0.874200	0.476450
O201	O20	0.002380	0.739600	0.392010
O211	O21	0.941090	0.031100	0.443990
O221	O22	0.995840	0.166800	0.400410
O231	O23	0.896310	0.023000	0.328620
O241	O24	0.893970	0.176000	0.396400
O251	O25	0.057460	0.038800	0.439560
O261	O26	0.097530	0.035300	0.322310
O271	O27	0.098480	0.187500	0.390500
O281	O28	0.901500	0.875700	0.466590
O291	O29	0.837820	0.006100	0.431900
O301	O30	0.160320	0.025200	0.423300
O311	O31	0.948670	0.725600	0.499050
O321	O32	0.758540	0.880700	0.341690
O331	O33	0.246630	0.882700	0.336700
C11	C1	0.777400	0.698800	0.218500
H11	H1	0.796900	0.662000	0.238800
C21	C2	0.778600	0.696900	0.157900
H21	H2	0.798700	0.659700	0.138700
C31	C3	0.784700	0.711900	0.967200
H31	H3	0.809200	0.685200	0.946800
C41	C4	0.786000	0.710400	0.028000
H41	H4	0.810800	0.683000	0.047400
C51	C5	0.216400	0.710700	0.210200
H51	H5	0.192300	0.683000	0.230500
C61	C6	0.215500	0.708600	0.149400
H61	H6	0.191400	0.679100	0.130200
C71	C7	0.212900	0.720700	0.958900
H71	H7	0.186500	0.700000	0.938500
C81	C8	0.211700	0.719300	0.019900
H81	H8	0.185100	0.697800	0.039300
Mo71	Mo7	0.450480	0.701010	0.439200
Mo81	Mo8	0.566810	0.396470	0.373750
Mo91	Mo9	0.439820	0.387750	0.369510
Mo101	Mo10	0.610690	0.532230	0.403650
Mo111	Mo11	0.390070	0.518760	0.396770
Mo121	Mo12	0.544240	0.707500	0.443440
P51	P5	0.631340	0.719240	0.343210
P61	P6	0.366490	0.703470	0.335140
P71	P7	0.508550	0.314020	0.261030
P81	P8	0.502000	0.567200	0.339560
O341	O34	0.676630	0.770100	0.340610
O351	O35	0.595640	0.754900	0.387770
O361	O36	0.642610	0.627200	0.355150
O371	O37	0.605650	0.718400	0.281000
O381	O38	0.321910	0.755700	0.332030
O391	O39	0.402180	0.741900	0.378500
O401	O40	0.354540	0.612400	0.350830
O411	O41	0.390320	0.702200	0.272100
O421	O42	0.518280	0.222400	0.255000
O431	O43	0.460030	0.333300	0.290310
O441	O44	0.552070	0.352900	0.292280
O451	O45	0.506810	0.354900	0.198200
O461	O46	0.502720	0.472900	0.345870
O471	O47	0.455130	0.601900	0.365760
O481	O48	0.545450	0.605900	0.371890
O491	O49	0.505990	0.583900	0.272880
O501	O50	0.436650	0.765900	0.493950
O511	O51	0.398380	0.612200	0.459550
O521	O52	0.498250	0.625800	0.476450
O531	O53	0.497620	0.760400	0.392010
O541	O54	0.558910	0.468900	0.443990
O551	O55	0.504160	0.333200	0.400410
O561	O56	0.603690	0.477000	0.328620
O571	O57	0.606030	0.324000	0.396400
O581	O58	0.442540	0.461200	0.439560
O591	O59	0.402470	0.464700	0.322310
O601	O60	0.401520	0.312500	0.390500
O611	O61	0.598500	0.624300	0.466590
O621	O62	0.662180	0.493900	0.431900
O631	O63	0.339680	0.474800	0.423300
O641	O64	0.551330	0.774400	0.499050
O651	O65	0.741460	0.619300	0.341690
O661	O66	0.253370	0.617300	0.336700
C91	C9	0.722600	0.801200	0.218500
H91	H9	0.703100	0.838000	0.238800
C101	C10	0.721400	0.803100	0.157900
H101	H10	0.701300	0.840300	0.138700
C111	C11	0.715300	0.788100	0.967200
H111	H11	0.690800	0.814800	0.946800
C121	C12	0.714000	0.789600	0.028000
H121	H12	0.689200	0.817000	0.047400
C131	C13	0.283600	0.789300	0.210200
H131	H13	0.307700	0.817000	0.230500
C141	C14	0.284500	0.791400	0.149400
H141	H14	0.308600	0.820900	0.130200
C151	C15	0.287100	0.779300	0.958900
H151	H15	0.313500	0.800000	0.938500
C161	C16	0.288300	0.780700	0.019900
H161	H16	0.314900	0.802200	0.039300
Mo131	Mo13	0.950480	0.298990	0.060800
Mo141	Mo14	0.066810	0.603530	0.126250
Mo151	Mo15	0.939820	0.612250	0.130490
Mo161	Mo16	0.110690	0.467770	0.096350
Mo171	Mo17	0.890070	0.481240	0.103230
Mo181	Mo18	0.044240	0.292500	0.056560
P91	P9	0.131340	0.280760	0.156790
P101	P10	0.866490	0.296530	0.164860
P111	P11	0.008550	0.685980	0.238970
P121	P12	0.002000	0.432800	0.160440
O671	O67	0.176630	0.229900	0.159390
O681	O68	0.095640	0.245100	0.112230
O691	O69	0.142610	0.372800	0.144850
O701	O70	0.105650	0.281600	0.219000
O711	O71	0.821910	0.244300	0.167970
O721	O72	0.902180	0.258100	0.121500
O731	O73	0.854540	0.387600	0.149170
O741	O74	0.890320	0.297800	0.227900
O751	O75	0.018280	0.777600	0.245000
O761	O76	0.960030	0.666700	0.209690
O771	O77	0.052070	0.647100	0.207720
O781	O78	0.006810	0.645100	0.301800
O791	O79	0.002720	0.527100	0.154130
O801	O80	0.955130	0.398100	0.134240
O811	O81	0.045450	0.394100	0.128110
O821	O82	0.005990	0.416100	0.227120
O831	O83	0.936650	0.234100	0.006050
O841	O84	0.898380	0.387800	0.040450
O851	O85	0.998250	0.374200	0.023550
O861	O86	0.997620	0.239600	0.107990
O871	O87	0.058910	0.531100	0.056010
O881	O88	0.004160	0.666800	0.099590
O891	O89	0.103690	0.523000	0.171380
O901	O90	0.106030	0.676000	0.103600
O911	O91	0.942540	0.538800	0.060440
O921	O92	0.902470	0.535300	0.177690
O931	O93	0.901520	0.687500	0.109500
O941	O94	0.098500	0.375700	0.033410
O951	O95	0.162180	0.506100	0.068100
O961	O96	0.839680	0.525200	0.076700
O971	O97	0.051330	0.225600	0.000950
O981	O98	0.241460	0.380700	0.158310
O991	O99	0.753370	0.382700	0.163300
C171	C17	0.222600	0.198800	0.281500
H171	H17	0.203100	0.162000	0.261200
C181	C18	0.221400	0.196900	0.342100
H181	H18	0.201300	0.159700	0.361300
C191	C19	0.215300	0.211900	0.532800
H191	H19	0.190800	0.185200	0.553200
C201	C20	0.214000	0.210400	0.472000
H201	H20	0.189200	0.183000	0.452600
C211	C21	0.783600	0.210700	0.289800
H211	H21	0.807700	0.183000	0.269500
C221	C22	0.784500	0.208600	0.350600
H221	H22	0.808600	0.179100	0.369800
C231	C23	0.787100	0.220700	0.541100
H231	H23	0.813500	0.200000	0.561500
C241	C24	0.788300	0.219300	0.480100
H241	H24	0.814900	0.197800	0.460700
Mo191	Mo19	0.549520	0.201010	0.060800
Mo201	Mo20	0.433190	0.896470	0.126250
Mo211	Mo21	0.560180	0.887750	0.130490
Mo221	Mo22	0.389310	0.032230	0.096350
Mo231	Mo23	0.609930	0.018760	0.103230
Mo241	Mo24	0.455760	0.207500	0.056560
P131	P13	0.368660	0.219240	0.156790
P141	P14	0.633510	0.203470	0.164860
P151	P15	0.491450	0.814020	0.238970
P161	P16	0.498000	0.067200	0.160440
O1001	O100	0.323370	0.270100	0.159390
O1011	O101	0.404360	0.254900	0.112230
O1021	O102	0.357390	0.127200	0.144850
O1031	O103	0.394350	0.218400	0.219000
O1041	O104	0.678090	0.255700	0.167970
O1051	O105	0.597820	0.241900	0.121500
O1061	O106	0.645460	0.112400	0.149170
O1071	O107	0.609680	0.202200	0.227900
O1081	O108	0.481720	0.722400	0.245000
O1091	O109	0.539970	0.833300	0.209690
O1101	O110	0.447930	0.852900	0.207720
O1111	O111	0.493190	0.854900	0.301800
O1121	O112	0.497280	0.972900	0.154130
O1131	O113	0.544870	0.101900	0.134240
O1141	O114	0.454550	0.105900	0.128110
O1151	O115	0.494010	0.083900	0.227120
O1161	O116	0.563350	0.265900	0.006050
O1171	O117	0.601620	0.112200	0.040450
O1181	O118	0.501750	0.125800	0.023550
O1191	O119	0.502380	0.260400	0.107990
O1201	O120	0.441090	0.968900	0.056010
O1211	O121	0.495840	0.833200	0.099590
O1221	O122	0.396310	0.977000	0.171380
O1231	O123	0.393970	0.824000	0.103600
O1241	O124	0.557460	0.961200	0.060440
O1251	O125	0.597530	0.964700	0.177690
O1261	O126	0.598480	0.812500	0.109500
O1271	O127	0.401500	0.124300	0.033410
O1281	O128	0.337820	0.993900	0.068100
O1291	O129	0.660320	0.974800	0.076700
O1301	O130	0.448670	0.274400	0.000950
O1311	O131	0.258540	0.119300	0.158310
O1321	O132	0.746630	0.117300	0.163300
C251	C25	0.277400	0.301200	0.281500
H251	H25	0.296900	0.338000	0.261200
C261	C26	0.278600	0.303100	0.342100
H261	H26	0.298700	0.340300	0.361300
C271	C27	0.284700	0.288100	0.532800
H271	H27	0.309200	0.314800	0.553200
C281	C28	0.286000	0.289600	0.472000
H281	H28	0.310800	0.317000	0.452600
C291	C29	0.716400	0.289300	0.289800
H291	H29	0.692300	0.317000	0.269500
C301	C30	0.715500	0.291400	0.350600
H301	H30	0.691400	0.320900	0.369800
C311	C31	0.712900	0.279300	0.541100
H311	H31	0.686500	0.300000	0.561500
C321	C32	0.711700	0.280700	0.480100
H321	H32	0.685100	0.302200	0.460700
Mo251	Mo25	0.950480	0.201010	0.560800
Mo261	Mo26	0.066810	0.896470	0.626250
Mo271	Mo27	0.939820	0.887750	0.630490
Mo281	Mo28	0.110690	0.032230	0.596350
Mo291	Mo29	0.890070	0.018760	0.603230
Mo301	Mo30	0.044240	0.207500	0.556560
P171	P17	0.131340	0.219240	0.656790
P181	P18	0.866490	0.203470	0.664860
P191	P19	0.008550	0.814020	0.738970
P201	P20	0.002000	0.067200	0.660440
O1331	O133	0.176630	0.270100	0.659390
O1341	O134	0.095640	0.254900	0.612230
O1351	O135	0.142610	0.127200	0.644850
O1361	O136	0.105650	0.218400	0.719000
O1371	O137	0.821910	0.255700	0.667970
O1381	O138	0.902180	0.241900	0.621500
O1391	O139	0.854540	0.112400	0.649170
O1401	O140	0.890320	0.202200	0.727900
O1411	O141	0.018280	0.722400	0.745000
O1421	O142	0.960030	0.833300	0.709690
O1431	O143	0.052070	0.852900	0.707720
O1441	O144	0.006810	0.854900	0.801800
O1451	O145	0.002720	0.972900	0.654130
O1461	O146	0.955130	0.101900	0.634240
O1471	O147	0.045450	0.105900	0.628110
O1481	O148	0.005990	0.083900	0.727120
O1491	O149	0.936650	0.265900	0.506050
O1501	O150	0.898380	0.112200	0.540450
O1511	O151	0.998250	0.125800	0.523550
O1521	O152	0.997620	0.260400	0.607990
O1531	O153	0.058910	0.968900	0.556010
O1541	O154	0.004160	0.833200	0.599590
O1551	O155	0.103690	0.977000	0.671380
O1561	O156	0.106030	0.824000	0.603600
O1571	O157	0.942540	0.961200	0.560440
O1581	O158	0.902470	0.964700	0.677690
O1591	O159	0.901520	0.812500	0.609500
O1601	O160	0.098500	0.124300	0.533410
O1611	O161	0.162180	0.993900	0.568100
O1621	O162	0.839680	0.974800	0.576700
O1631	O163	0.051330	0.274400	0.500950
O1641	O164	0.241460	0.119300	0.658310
O1651	O165	0.753370	0.117300	0.663300
C331	C33	0.222600	0.301200	0.781500
H331	H33	0.203100	0.338000	0.761200
C341	C34	0.221400	0.303100	0.842100
H341	H34	0.201300	0.340300	0.861300
C351	C35	0.215300	0.288100	0.032800
H351	H35	0.190800	0.314800	0.053200
C361	C36	0.214000	0.289600	0.972000
H361	H36	0.189200	0.317000	0.952600
C371	C37	0.783600	0.289300	0.789800
H371	H37	0.807700	0.317000	0.769500
C381	C38	0.784500	0.291400	0.850600
H381	H38	0.808600	0.320900	0.869800
C391	C39	0.787100	0.279300	0.041100
H391	H39	0.813500	0.300000	0.061500
C401	C40	0.788300	0.280700	0.980100
H401	H40	0.814900	0.302200	0.960700
Mo311	Mo31	0.549520	0.298990	0.560800
Mo321	Mo32	0.433190	0.603530	0.626250
Mo331	Mo33	0.560180	0.612250	0.630490
Mo341	Mo34	0.389310	0.467770	0.596350
Mo351	Mo35	0.609930	0.481240	0.603230
Mo361	Mo36	0.455760	0.292500	0.556560
P211	P21	0.368660	0.280760	0.656790
P221	P22	0.633510	0.296530	0.664860
P231	P23	0.491450	0.685980	0.738970
P241	P24	0.498000	0.432800	0.660440
O1661	O166	0.323370	0.229900	0.659390
O1671	O167	0.404360	0.245100	0.612230
O1681	O168	0.357390	0.372800	0.644850
O1691	O169	0.394350	0.281600	0.719000
O1701	O170	0.678090	0.244300	0.667970
O1711	O171	0.597820	0.258100	0.621500
O1721	O172	0.645460	0.387600	0.649170
O1731	O173	0.609680	0.297800	0.727900
O1741	O174	0.481720	0.777600	0.745000
O1751	O175	0.539970	0.666700	0.709690
O1761	O176	0.447930	0.647100	0.707720
O1771	O177	0.493190	0.645100	0.801800
O1781	O178	0.497280	0.527100	0.654130
O1791	O179	0.544870	0.398100	0.634240
O1801	O180	0.454550	0.394100	0.628110
O1811	O181	0.494010	0.416100	0.727120
O1821	O182	0.563350	0.234100	0.506050
O1831	O183	0.601620	0.387800	0.540450
O1841	O184	0.501750	0.374200	0.523550
O1851	O185	0.502380	0.239600	0.607990
O1861	O186	0.441090	0.531100	0.556010
O1871	O187	0.495840	0.666800	0.599590
O1881	O188	0.396310	0.523000	0.671380
O1891	O189	0.393970	0.676000	0.603600
O1901	O190	0.557460	0.538800	0.560440
O1911	O191	0.597530	0.535300	0.677690
O1921	O192	0.598480	0.687500	0.609500
O1931	O193	0.401500	0.375700	0.533410
O1941	O194	0.337820	0.506100	0.568100
O1951	O195	0.660320	0.525200	0.576700
O1961	O196	0.448670	0.225600	0.500950
O1971	O197	0.258540	0.380700	0.658310
O1981	O198	0.746630	0.382700	0.663300
C411	C41	0.277400	0.198800	0.781500
H411	H41	0.296900	0.162000	0.761200
C421	C42	0.278600	0.196900	0.842100
H421	H42	0.298700	0.159700	0.861300
C431	C43	0.284700	0.211900	0.032800
H431	H43	0.309200	0.185200	0.053200
C441	C44	0.286000	0.210400	0.972000
H441	H44	0.310800	0.183000	0.952600
C451	C45	0.716400	0.210700	0.789800
H451	H45	0.692300	0.183000	0.769500
C461	C46	0.715500	0.208600	0.850600
H461	H46	0.691400	0.179100	0.869800
C471	C47	0.712900	0.220700	0.041100
H471	H47	0.686500	0.200000	0.061500
C481	C48	0.711700	0.219300	0.980100
H481	H48	0.685100	0.197800	0.960700
Mo371	Mo37	0.049520	0.701010	0.939200
Mo381	Mo38	0.933190	0.396470	0.873750
Mo391	Mo39	0.060180	0.387750	0.869510
Mo401	Mo40	0.889310	0.532230	0.903650
Mo411	Mo41	0.109930	0.518760	0.896770
Mo421	Mo42	0.955760	0.707500	0.943440
P251	P25	0.868660	0.719240	0.843210
P261	P26	0.133510	0.703470	0.835140
P271	P27	0.991450	0.314020	0.761030
P281	P28	0.998000	0.567200	0.839560
O1991	O199	0.823370	0.770100	0.840610
O2001	O200	0.904360	0.754900	0.887770
O2011	O201	0.857390	0.627200	0.855150
O2021	O202	0.894350	0.718400	0.781000
O2031	O203	0.178090	0.755700	0.832030
O2041	O204	0.097820	0.741900	0.878500
O2051	O205	0.145460	0.612400	0.850830
O2061	O206	0.109680	0.702200	0.772100
O2071	O207	0.981720	0.222400	0.755000
O2081	O208	0.039970	0.333300	0.790310
O2091	O209	0.947930	0.352900	0.792280
O2101	O210	0.993190	0.354900	0.698200
O2111	O211	0.997280	0.472900	0.845870
O2121	O212	0.044870	0.601900	0.865760
O2131	O213	0.954550	0.605900	0.871890
O2141	O214	0.994010	0.583900	0.772880
O2151	O215	0.063350	0.765900	0.993950
O2161	O216	0.101620	0.612200	0.959550
O2171	O217	0.001750	0.625800	0.976450
O2181	O218	0.002380	0.760400	0.892010
O2191	O219	0.941090	0.468900	0.943990
O2201	O220	0.995840	0.333200	0.900410
O2211	O221	0.896310	0.477000	0.828620
O2221	O222	0.893970	0.324000	0.896400
O2231	O223	0.057460	0.461200	0.939560
O2241	O224	0.097530	0.464700	0.822310
O2251	O225	0.098480	0.312500	0.890500
O2261	O226	0.901500	0.624300	0.966590
O2271	O227	0.837820	0.493900	0.931900
O2281	O228	0.160320	0.474800	0.923300
O2291	O229	0.948670	0.774400	0.999050
O2301	O230	0.758540	0.619300	0.841690
O2311	O231	0.246630	0.617300	0.836700
C491	C49	0.777400	0.801200	0.718500
H491	H49	0.796900	0.838000	0.738800
C501	C50	0.778600	0.803100	0.657900
H501	H50	0.798700	0.840300	0.638700
C511	C51	0.784700	0.788100	0.467200
H511	H51	0.809200	0.814800	0.446800
C521	C52	0.786000	0.789600	0.528000
H521	H52	0.810800	0.817000	0.547400
C531	C53	0.216400	0.789300	0.710200
H531	H53	0.192300	0.817000	0.730500
C541	C54	0.215500	0.791400	0.649400
H541	H54	0.191400	0.820900	0.630200
C551	C55	0.212900	0.779300	0.458900
H551	H55	0.186500	0.800000	0.438500
C561	C56	0.211700	0.780700	0.519900
H561	H56	0.185100	0.802200	0.539300
Mo431	Mo43	0.450480	0.798990	0.939200
Mo441	Mo44	0.566810	0.103530	0.873750
Mo451	Mo45	0.439820	0.112250	0.869510
Mo461	Mo46	0.610690	0.967770	0.903650
Mo471	Mo47	0.390070	0.981240	0.896770
Mo481	Mo48	0.544240	0.792500	0.943440
P291	P29	0.631340	0.780760	0.843210
P301	P30	0.366490	0.796530	0.835140
P311	P31	0.508550	0.185980	0.761030
P321	P32	0.502000	0.932800	0.839560
O2321	O232	0.676630	0.729900	0.840610
O2331	O233	0.595640	0.745100	0.887770
O2341	O234	0.642610	0.872800	0.855150
O2351	O235	0.605650	0.781600	0.781000
O2361	O236	0.321910	0.744300	0.832030
O2371	O237	0.402180	0.758100	0.878500
O2381	O238	0.354540	0.887600	0.850830
O2391	O239	0.390320	0.797800	0.772100
O2401	O240	0.518280	0.277600	0.755000
O2411	O241	0.460030	0.166700	0.790310
O2421	O242	0.552070	0.147100	0.792280
O2431	O243	0.506810	0.145100	0.698200
O2441	O244	0.502720	0.027100	0.845870
O2451	O245	0.455130	0.898100	0.865760
O2461	O246	0.545450	0.894100	0.871890
O2471	O247	0.505990	0.916100	0.772880
O2481	O248	0.436650	0.734100	0.993950
O2491	O249	0.398380	0.887800	0.959550
O2501	O250	0.498250	0.874200	0.976450
O2511	O251	0.497620	0.739600	0.892010
O2521	O252	0.558910	0.031100	0.943990
O2531	O253	0.504160	0.166800	0.900410
O2541	O254	0.603690	0.023000	0.828620
O2551	O255	0.606030	0.176000	0.896400
O2561	O256	0.442540	0.038800	0.939560
O2571	O257	0.402470	0.035300	0.822310
O2581	O258	0.401520	0.187500	0.890500
O2591	O259	0.598500	0.875700	0.966590
O2601	O260	0.662180	0.006100	0.931900
O2611	O261	0.339680	0.025200	0.923300
O2621	O262	0.551330	0.725600	0.999050
O2631	O263	0.741460	0.880700	0.841690
O2641	O264	0.253370	0.882700	0.836700
C571	C57	0.722600	0.698800	0.718500
H571	H57	0.703100	0.662000	0.738800
C581	C58	0.721400	0.696900	0.657900
H581	H58	0.701300	0.659700	0.638700
C591	C59	0.715300	0.711900	0.467200
H591	H59	0.690800	0.685200	0.446800
C601	C60	0.714000	0.710400	0.528000
H601	H60	0.689200	0.683000	0.547400
C611	C61	0.283600	0.710700	0.710200
H611	H61	0.307700	0.683000	0.730500
C621	C62	0.284500	0.708600	0.649400
H621	H62	0.308600	0.679100	0.630200
C631	C63	0.287100	0.720700	0.458900
H631	H63	0.313500	0.700000	0.438500
C641	C64	0.288300	0.719300	0.519900
H641	H64	0.314900	0.697800	0.539300
Ni11	Ni1	0.000000	0.000000	0.500000
Ni21	Ni2	0.500000	0.500000	0.500000
Ni31	Ni3	0.000000	0.500000	0.000000
Ni41	Ni4	0.500000	0.000000	0.000000
Ni51	Ni5	0.750000	0.750000	0.342020
N11	N1	0.750000	0.750000	0.249200
N21	N2	0.750000	0.750000	0.936300
C651	C65	0.750000	0.750000	0.125600
C661	C66	0.750000	0.750000	0.060000
Ni61	Ni6	0.250000	0.250000	0.157980
N31	N3	0.250000	0.250000	0.250800
N41	N4	0.250000	0.250000	0.563700
C671	C67	0.250000	0.250000	0.374400
C681	C68	0.250000	0.250000	0.440000
Ni71	Ni7	0.250000	0.250000	0.657980
N51	N5	0.250000	0.250000	0.750800
N61	N6	0.250000	0.250000	0.063700
C691	C69	0.250000	0.250000	0.874400
C701	C70	0.250000	0.250000	0.940000
Ni81	Ni8	0.750000	0.750000	0.842020
N71	N7	0.750000	0.750000	0.749200
N81	N8	0.750000	0.750000	0.436300
C711	C71	0.750000	0.750000	0.625600
C721	C72	0.750000	0.750000	0.560000
Ni91	Ni9	0.250000	0.750000	0.333840
N91	N9	0.250000	0.750000	0.240900
N101	N10	0.250000	0.750000	0.928400
C731	C73	0.250000	0.750000	0.117300
C741	C74	0.250000	0.750000	0.051100
Ni101	Ni10	0.750000	0.250000	0.166160
N111	N11	0.750000	0.250000	0.259100
N121	N12	0.750000	0.250000	0.571600
C751	C75	0.750000	0.250000	0.382700
C761	C76	0.750000	0.250000	0.448900
Ni111	Ni11	0.750000	0.250000	0.666160
N131	N13	0.750000	0.250000	0.759100
N141	N14	0.750000	0.250000	0.071600
C771	C77	0.750000	0.250000	0.882700
C781	C78	0.750000	0.250000	0.948900
Ni121	Ni12	0.250000	0.750000	0.833840
N151	N15	0.250000	0.750000	0.740900
N161	N16	0.250000	0.750000	0.428400
C791	C79	0.250000	0.750000	0.617300
C801	C80	0.250000	0.750000	0.551100
