data_HEWFUL_ion_b_PM
_symmetry_space_group_name_H-M	'P1'
_cell_length_a	16.693900
_cell_length_b	16.693900
_cell_length_c	16.693900
_cell_angle_alpha	117.060500
_cell_angle_beta	117.060500
_cell_angle_gamma	117.060500
_symmetry_Int_Tables_number 1

loop_
_symmetry_equiv_pos_as_xyz
'x,y,z'

loop_
_atom_site_label
_atom_site_type_symbol
_atom_site_fract_x
_atom_site_fract_y
_atom_site_fract_z
C11	C1	0.142700	0.039700	0.335600
H21	H2	0.239500	0.099700	0.379200
H31	H3	0.081700	0.027100	0.265800
C41	C4	0.305100	0.302000	0.578100
H51	H5	0.276100	0.301500	0.512500
H61	H6	0.415900	0.371600	0.657200
C71	C7	0.296200	0.369200	0.666800
C81	C8	0.829000	0.730700	0.114400
H91	H9	0.784200	0.730800	0.052000
H101	H10	0.751500	0.618000	0.038500
C111	C11	0.695400	0.713400	0.147400
H121	H12	0.631900	0.614700	0.101100
H131	H13	0.632400	0.681700	0.058800
C141	C14	0.727100	0.818000	0.265800
N151	N15	0.191000	0.132000	0.470700
H161	H16	0.246300	0.140200	0.532600
N171	N17	0.849600	0.802300	0.229500
H181	H18	0.882400	0.790800	0.278100
O191	O19	0.099800	0.865300	0.336000
O201	O20	0.986000	0.759000	0.091400
O221	O22	0.175700	0.266500	0.614000
O231	O23	0.401500	0.515400	0.780400
O241	O24	0.871900	0.970200	0.402000
O251	O25	0.611000	0.751400	0.222300
P261	P26	0.018220	0.840220	0.216460
K271	K27	0.383540	0.071680	0.630080
Cu281	Cu28	0.012160	0.039590	0.412130
C311	C31	0.335600	0.142700	0.039700
H321	H32	0.379200	0.239500	0.099700
H331	H33	0.265800	0.081700	0.027100
C341	C34	0.578100	0.305100	0.302000
H351	H35	0.512500	0.276100	0.301500
H361	H36	0.657200	0.415900	0.371600
C371	C37	0.666800	0.296200	0.369200
C381	C38	0.114400	0.829000	0.730700
H391	H39	0.052000	0.784200	0.730800
H401	H40	0.038500	0.751500	0.618000
C411	C41	0.147400	0.695400	0.713400
H421	H42	0.101100	0.631900	0.614700
H431	H43	0.058800	0.632400	0.681700
C441	C44	0.265800	0.727100	0.818000
N451	N45	0.470700	0.191000	0.132000
H461	H46	0.532600	0.246300	0.140200
N471	N47	0.229500	0.849600	0.802300
H481	H48	0.278100	0.882400	0.790800
O491	O49	0.336000	0.099800	0.865300
O501	O50	0.091400	0.986000	0.759000
O521	O52	0.614000	0.175700	0.266500
O531	O53	0.780400	0.401500	0.515400
O541	O54	0.402000	0.871900	0.970200
O551	O55	0.222300	0.611000	0.751400
P561	P56	0.216460	0.018220	0.840220
K571	K57	0.630080	0.383540	0.071680
Cu581	Cu58	0.412130	0.012160	0.039590
C611	C61	0.039700	0.335600	0.142700
H621	H62	0.099700	0.379200	0.239500
H631	H63	0.027100	0.265800	0.081700
C641	C64	0.302000	0.578100	0.305100
H651	H65	0.301500	0.512500	0.276100
H661	H66	0.371600	0.657200	0.415900
C671	C67	0.369200	0.666800	0.296200
C681	C68	0.730700	0.114400	0.829000
H691	H69	0.730800	0.052000	0.784200
H701	H70	0.618000	0.038500	0.751500
C711	C71	0.713400	0.147400	0.695400
H721	H72	0.614700	0.101100	0.631900
H731	H73	0.681700	0.058800	0.632400
C741	C74	0.818000	0.265800	0.727100
N751	N75	0.132000	0.470700	0.191000
H761	H76	0.140200	0.532600	0.246300
N771	N77	0.802300	0.229500	0.849600
H781	H78	0.790800	0.278100	0.882400
O791	O79	0.865300	0.336000	0.099800
O801	O80	0.759000	0.091400	0.986000
O821	O82	0.266500	0.614000	0.175700
O831	O83	0.515400	0.780400	0.401500
O841	O84	0.970200	0.402000	0.871900
O851	O85	0.751400	0.222300	0.611000
P861	P86	0.840220	0.216460	0.018220
K871	K87	0.071680	0.630080	0.383540
Cu881	Cu88	0.039590	0.412130	0.012160
C911	C91	0.857300	0.960300	0.664400
H921	H92	0.760500	0.900300	0.620800
H931	H93	0.918300	0.972900	0.734200
C941	C94	0.694900	0.698000	0.421900
H951	H95	0.723900	0.698500	0.487500
H961	H96	0.584100	0.628400	0.342800
C971	C97	0.703800	0.630800	0.333200
C981	C98	0.171000	0.269300	0.885600
H991	H99	0.215800	0.269200	0.948000
H1001	H100	0.248500	0.382000	0.961500
C1011	C101	0.304600	0.286600	0.852600
H1021	H102	0.368100	0.385300	0.898900
H1031	H103	0.367600	0.318300	0.941200
C1041	C104	0.272900	0.182000	0.734200
N1051	N105	0.809000	0.868000	0.529300
H1061	H106	0.753700	0.859800	0.467400
N1071	N107	0.150400	0.197700	0.770500
H1081	H108	0.117600	0.209200	0.721900
O1091	O109	0.900200	0.134700	0.664000
O1101	O110	0.014000	0.241000	0.908600
O1121	O112	0.824300	0.733500	0.386000
O1131	O113	0.598500	0.484600	0.219600
O1141	O114	0.128100	0.029800	0.598000
O1151	O115	0.389000	0.248600	0.777700
P1161	P116	0.981780	0.159780	0.783540
K1171	K117	0.616460	0.928320	0.369920
Cu1181	Cu118	0.987840	0.960410	0.587870
C1211	C121	0.664400	0.857300	0.960300
H1221	H122	0.620800	0.760500	0.900300
H1231	H123	0.734200	0.918300	0.972900
C1241	C124	0.421900	0.694900	0.698000
H1251	H125	0.487500	0.723900	0.698500
H1261	H126	0.342800	0.584100	0.628400
C1271	C127	0.333200	0.703800	0.630800
C1281	C128	0.885600	0.171000	0.269300
H1291	H129	0.948000	0.215800	0.269200
H1301	H130	0.961500	0.248500	0.382000
C1311	C131	0.852600	0.304600	0.286600
H1321	H132	0.898900	0.368100	0.385300
H1331	H133	0.941200	0.367600	0.318300
C1341	C134	0.734200	0.272900	0.182000
N1351	N135	0.529300	0.809000	0.868000
H1361	H136	0.467400	0.753700	0.859800
N1371	N137	0.770500	0.150400	0.197700
H1381	H138	0.721900	0.117600	0.209200
O1391	O139	0.664000	0.900200	0.134700
O1401	O140	0.908600	0.014000	0.241000
O1421	O142	0.386000	0.824300	0.733500
O1431	O143	0.219600	0.598500	0.484600
O1441	O144	0.598000	0.128100	0.029800
O1451	O145	0.777700	0.389000	0.248600
P1461	P146	0.783540	0.981780	0.159780
K1471	K147	0.369920	0.616460	0.928320
Cu1481	Cu148	0.587870	0.987840	0.960410
C1511	C151	0.960300	0.664400	0.857300
H1521	H152	0.900300	0.620800	0.760500
H1531	H153	0.972900	0.734200	0.918300
C1541	C154	0.698000	0.421900	0.694900
H1551	H155	0.698500	0.487500	0.723900
H1561	H156	0.628400	0.342800	0.584100
C1571	C157	0.630800	0.333200	0.703800
C1581	C158	0.269300	0.885600	0.171000
H1591	H159	0.269200	0.948000	0.215800
H1601	H160	0.382000	0.961500	0.248500
C1611	C161	0.286600	0.852600	0.304600
H1621	H162	0.385300	0.898900	0.368100
H1631	H163	0.318300	0.941200	0.367600
C1641	C164	0.182000	0.734200	0.272900
N1651	N165	0.868000	0.529300	0.809000
H1661	H166	0.859800	0.467400	0.753700
N1671	N167	0.197700	0.770500	0.150400
H1681	H168	0.209200	0.721900	0.117600
O1691	O169	0.134700	0.664000	0.900200
O1701	O170	0.241000	0.908600	0.014000
O1721	O172	0.733500	0.386000	0.824300
O1731	O173	0.484600	0.219600	0.598500
O1741	O174	0.029800	0.598000	0.128100
O1751	O175	0.248600	0.777700	0.389000
P1761	P176	0.159780	0.783540	0.981780
K1771	K177	0.928320	0.369920	0.616460
Cu1781	Cu178	0.960410	0.587870	0.987840
