data_HEYBIX_freeONLY_PM
_symmetry_space_group_name_H-M	'P1'
_cell_length_a	9.192800
_cell_length_b	14.209000
_cell_length_c	32.297100
_cell_angle_alpha	90.000000
_cell_angle_beta	90.000000
_cell_angle_gamma	90.000000
_symmetry_Int_Tables_number 1

loop_
_symmetry_equiv_pos_as_xyz
'x,y,z'

loop_
_atom_site_label
_atom_site_type_symbol
_atom_site_fract_x
_atom_site_fract_y
_atom_site_fract_z
P11	P1	0.394000	0.065600	0.559780
O11	O1	0.278400	0.129500	0.581900
O21	O2	0.513500	0.038900	0.590700
O31	O3	0.447500	0.125600	0.523600
O41	O4	0.319000	0.977700	0.544800
P21	P2	0.394000	0.565600	0.059780
O51	O5	0.278400	0.629500	0.081900
O61	O6	0.513500	0.538900	0.090700
O71	O7	0.447500	0.625600	0.023600
O81	O8	0.319000	0.477700	0.044800
P31	P3	0.894000	0.065600	0.059780
O91	O9	0.778400	0.129500	0.081900
O101	O10	0.013500	0.038900	0.090700
O111	O11	0.947500	0.125600	0.023600
O121	O12	0.819000	0.977700	0.044800
P41	P4	0.894000	0.565600	0.559780
O131	O13	0.778400	0.629500	0.581900
O141	O14	0.013500	0.538900	0.590700
O151	O15	0.947500	0.625600	0.523600
O161	O16	0.819000	0.477700	0.544800
P51	P5	0.356000	0.684400	0.559780
O171	O17	0.471600	0.620500	0.581900
O181	O18	0.236500	0.711100	0.590700
O191	O19	0.302500	0.624400	0.523600
O201	O20	0.431000	0.772300	0.544800
P61	P6	0.356000	0.184400	0.059780
O211	O21	0.471600	0.120500	0.081900
O221	O22	0.236500	0.211100	0.090700
O231	O23	0.302500	0.124400	0.023600
O241	O24	0.431000	0.272300	0.044800
P71	P7	0.856000	0.684400	0.059780
O251	O25	0.971600	0.620500	0.081900
O261	O26	0.736500	0.711100	0.090700
O271	O27	0.802500	0.624400	0.023600
O281	O28	0.931000	0.772300	0.044800
P81	P8	0.856000	0.184400	0.559780
O291	O29	0.971600	0.120500	0.581900
O301	O30	0.736500	0.211100	0.590700
O311	O31	0.802500	0.124400	0.523600
O321	O32	0.931000	0.272300	0.544800
P91	P9	0.356000	0.065600	0.190220
O331	O33	0.471600	0.129500	0.168100
O341	O34	0.236500	0.038900	0.159300
O351	O35	0.302500	0.125600	0.226400
O361	O36	0.431000	0.977700	0.205200
P101	P10	0.356000	0.565600	0.690220
O371	O37	0.471600	0.629500	0.668100
O381	O38	0.236500	0.538900	0.659300
O391	O39	0.302500	0.625600	0.726400
O401	O40	0.431000	0.477700	0.705200
P111	P11	0.856000	0.065600	0.690220
O411	O41	0.971600	0.129500	0.668100
O421	O42	0.736500	0.038900	0.659300
O431	O43	0.802500	0.125600	0.726400
O441	O44	0.931000	0.977700	0.705200
P121	P12	0.856000	0.565600	0.190220
O451	O45	0.971600	0.629500	0.168100
O461	O46	0.736500	0.538900	0.159300
O471	O47	0.802500	0.625600	0.226400
O481	O48	0.931000	0.477700	0.205200
P131	P13	0.394000	0.684400	0.190220
O491	O49	0.278400	0.620500	0.168100
O501	O50	0.513500	0.711100	0.159300
O511	O51	0.447500	0.624400	0.226400
O521	O52	0.319000	0.772300	0.205200
P141	P14	0.394000	0.184400	0.690220
O531	O53	0.278400	0.120500	0.668100
O541	O54	0.513500	0.211100	0.659300
O551	O55	0.447500	0.124400	0.726400
O561	O56	0.319000	0.272300	0.705200
P151	P15	0.894000	0.684400	0.690220
O571	O57	0.778400	0.620500	0.668100
O581	O58	0.013500	0.711100	0.659300
O591	O59	0.947500	0.624400	0.726400
O601	O60	0.819000	0.772300	0.705200
P161	P16	0.894000	0.184400	0.190220
O611	O61	0.778400	0.120500	0.168100
O621	O62	0.013500	0.211100	0.159300
O631	O63	0.947500	0.124400	0.226400
O641	O64	0.819000	0.272300	0.205200
P171	P17	0.606000	0.934400	0.440220
O651	O65	0.721600	0.870500	0.418100
O661	O66	0.486500	0.961100	0.409300
O671	O67	0.552500	0.874400	0.476400
O681	O68	0.681000	0.022300	0.455200
P181	P18	0.606000	0.434400	0.940220
O691	O69	0.721600	0.370500	0.918100
O701	O70	0.486500	0.461100	0.909300
O711	O71	0.552500	0.374400	0.976400
O721	O72	0.681000	0.522300	0.955200
P191	P19	0.106000	0.934400	0.940220
O731	O73	0.221600	0.870500	0.918100
O741	O74	0.986500	0.961100	0.909300
O751	O75	0.052500	0.874400	0.976400
O761	O76	0.181000	0.022300	0.955200
P201	P20	0.106000	0.434400	0.440220
O771	O77	0.221600	0.370500	0.418100
O781	O78	0.986500	0.461100	0.409300
O791	O79	0.052500	0.374400	0.476400
O801	O80	0.181000	0.522300	0.455200
P211	P21	0.644000	0.315600	0.440220
O811	O81	0.528400	0.379500	0.418100
O821	O82	0.763500	0.288900	0.409300
O831	O83	0.697500	0.375600	0.476400
O841	O84	0.569000	0.227700	0.455200
P221	P22	0.644000	0.815600	0.940220
O851	O85	0.528400	0.879500	0.918100
O861	O86	0.763500	0.788900	0.909300
O871	O87	0.697500	0.875600	0.976400
O881	O88	0.569000	0.727700	0.955200
P231	P23	0.144000	0.315600	0.940220
O891	O89	0.028400	0.379500	0.918100
O901	O90	0.263500	0.288900	0.909300
O911	O91	0.197500	0.375600	0.976400
O921	O92	0.069000	0.227700	0.955200
P241	P24	0.144000	0.815600	0.440220
O931	O93	0.028400	0.879500	0.418100
O941	O94	0.263500	0.788900	0.409300
O951	O95	0.197500	0.875600	0.476400
O961	O96	0.069000	0.727700	0.455200
P251	P25	0.644000	0.934400	0.809780
O971	O97	0.528400	0.870500	0.831900
O981	O98	0.763500	0.961100	0.840700
O991	O99	0.697500	0.874400	0.773600
O1001	O100	0.569000	0.022300	0.794800
P261	P26	0.644000	0.434400	0.309780
O1011	O101	0.528400	0.370500	0.331900
O1021	O102	0.763500	0.461100	0.340700
O1031	O103	0.697500	0.374400	0.273600
O1041	O104	0.569000	0.522300	0.294800
P271	P27	0.144000	0.934400	0.309780
O1051	O105	0.028400	0.870500	0.331900
O1061	O106	0.263500	0.961100	0.340700
O1071	O107	0.197500	0.874400	0.273600
O1081	O108	0.069000	0.022300	0.294800
P281	P28	0.144000	0.434400	0.809780
O1091	O109	0.028400	0.370500	0.831900
O1101	O110	0.263500	0.461100	0.840700
O1111	O111	0.197500	0.374400	0.773600
O1121	O112	0.069000	0.522300	0.794800
P291	P29	0.606000	0.315600	0.809780
O1131	O113	0.721600	0.379500	0.831900
O1141	O114	0.486500	0.288900	0.840700
O1151	O115	0.552500	0.375600	0.773600
O1161	O116	0.681000	0.227700	0.794800
P301	P30	0.606000	0.815600	0.309780
O1171	O117	0.721600	0.879500	0.331900
O1181	O118	0.486500	0.788900	0.340700
O1191	O119	0.552500	0.875600	0.273600
O1201	O120	0.681000	0.727700	0.294800
P311	P31	0.106000	0.315600	0.309780
O1211	O121	0.221600	0.379500	0.331900
O1221	O122	0.986500	0.288900	0.340700
O1231	O123	0.052500	0.375600	0.273600
O1241	O124	0.181000	0.227700	0.294800
P321	P32	0.106000	0.815600	0.809780
O1251	O125	0.221600	0.879500	0.831900
O1261	O126	0.986500	0.788900	0.840700
O1271	O127	0.052500	0.875600	0.773600
O1281	O128	0.181000	0.727700	0.794800
Nb11	Nb1	0.125000	0.125000	0.625000
Nb21	Nb2	0.625000	0.625000	0.625000
Nb31	Nb3	0.625000	0.125000	0.125000
Nb41	Nb4	0.125000	0.625000	0.125000
Nb51	Nb5	0.875000	0.875000	0.375000
Nb61	Nb6	0.375000	0.375000	0.375000
Nb71	Nb7	0.375000	0.875000	0.875000
Nb81	Nb8	0.875000	0.375000	0.875000
Zn11	Zn1	0.625000	0.125000	0.491330
Zn21	Zn2	0.625000	0.625000	0.991330
Zn31	Zn3	0.125000	0.625000	0.491330
Zn41	Zn4	0.125000	0.125000	0.991330
Zn51	Zn5	0.125000	0.125000	0.258670
Zn61	Zn6	0.125000	0.625000	0.758670
Zn71	Zn7	0.625000	0.625000	0.258670
Zn81	Zn8	0.625000	0.125000	0.758670
Zn91	Zn9	0.375000	0.875000	0.508670
Zn101	Zn10	0.375000	0.375000	0.008670
Zn111	Zn11	0.875000	0.375000	0.508670
Zn121	Zn12	0.875000	0.875000	0.008670
Zn131	Zn13	0.875000	0.875000	0.741330
Zn141	Zn14	0.875000	0.375000	0.241330
Zn151	Zn15	0.375000	0.375000	0.741330
Zn161	Zn16	0.375000	0.875000	0.241330
Zn171	Zn17	0.625000	0.125000	0.625000
Zn181	Zn18	0.125000	0.625000	0.625000
Zn191	Zn19	0.125000	0.125000	0.125000
Zn201	Zn20	0.625000	0.625000	0.125000
Zn211	Zn21	0.375000	0.875000	0.375000
Zn221	Zn22	0.875000	0.375000	0.375000
Zn231	Zn23	0.875000	0.875000	0.875000
Zn241	Zn24	0.375000	0.375000	0.875000
F11	F1	0.125000	0.989600	0.625000
F21	F2	0.125000	0.489600	0.125000
F31	F3	0.625000	0.760400	0.625000
F41	F4	0.625000	0.260400	0.125000
F51	F5	0.625000	0.989600	0.125000
F61	F6	0.625000	0.489600	0.625000
F71	F7	0.125000	0.760400	0.125000
F81	F8	0.125000	0.260400	0.625000
F91	F9	0.875000	0.010400	0.375000
F101	F10	0.875000	0.510400	0.875000
F111	F11	0.375000	0.239600	0.375000
F121	F12	0.375000	0.739600	0.875000
F131	F13	0.375000	0.010400	0.875000
F141	F14	0.375000	0.510400	0.375000
F151	F15	0.875000	0.239600	0.875000
F161	F16	0.875000	0.739600	0.375000
