data_HEZNUW_freeONLY_PM
_symmetry_space_group_name_H-M	'P1'
_cell_length_a	8.213000
_cell_length_b	10.025700
_cell_length_c	15.513300
_cell_angle_alpha	80.842000
_cell_angle_beta	75.671000
_cell_angle_gamma	89.020000
_symmetry_Int_Tables_number 1

loop_
_symmetry_equiv_pos_as_xyz
'x,y,z'

loop_
_atom_site_label
_atom_site_type_symbol
_atom_site_fract_x
_atom_site_fract_y
_atom_site_fract_z
Zn11	Zn1	0.159240	0.261090	0.221700
Zn21	Zn2	0.758120	0.495980	0.023300
Zn31	Zn3	0.865090	0.856920	0.480610
Zn41	Zn4	0.712930	0.484020	0.539380
P11	P1	0.974160	0.265980	0.061470
P21	P2	0.377850	0.510830	0.138850
P31	P3	0.195410	0.990950	0.356470
P41	P4	0.004590	0.399840	0.390110
P51	P5	0.519750	0.734380	0.483210
O11	O1	0.820000	0.343100	0.103900
O21	O2	0.086600	0.355800	0.980950
O31	O3	0.008100	0.963300	0.373580
O41	O4	0.545300	0.566700	0.077980
O51	O5	0.234100	0.549600	0.093940
O61	O6	0.547000	0.625900	0.557650
O71	O7	0.377500	0.359000	0.168260
O81	O8	0.686100	0.803600	0.426790
O91	O9	0.845700	0.480000	0.420430
O101	O10	0.064300	0.204000	0.131350
O111	O11	0.258000	0.108400	0.280770
O121	O12	0.161300	0.494600	0.373470
O131	O13	0.429000	0.683200	0.419190
O141	O14	0.015300	0.276200	0.458640
O151	O15	0.244800	0.012200	0.442340
O161	O16	0.001100	0.364200	0.297000
O171	O17	0.912800	0.145500	0.023900
H11	H1	0.816100	0.158200	0.019300
O181	O18	0.406300	0.838500	0.534360
H21	H2	0.362400	0.887400	0.499300
O191	O19	0.352200	0.584700	0.222520
H31	H3	0.285800	0.540600	0.265600
O201	O20	0.295100	0.867100	0.320890
H41	H4	0.326800	0.821100	0.362000
Zn51	Zn5	0.840760	0.738910	0.778300
Zn61	Zn6	0.241880	0.504020	0.976700
Zn71	Zn7	0.134910	0.143080	0.519390
Zn81	Zn8	0.287070	0.515980	0.460620
P61	P6	0.025840	0.734020	0.938530
P71	P7	0.622150	0.489170	0.861150
P81	P8	0.804590	0.009050	0.643530
P91	P9	0.995410	0.600160	0.609890
P101	P10	0.480250	0.265620	0.516790
O211	O21	0.180000	0.656900	0.896100
O221	O22	0.913400	0.644200	0.019050
O231	O23	0.991900	0.036700	0.626420
O241	O24	0.454700	0.433300	0.922020
O251	O25	0.765900	0.450400	0.906060
O261	O26	0.453000	0.374100	0.442350
O271	O27	0.622500	0.641000	0.831740
O281	O28	0.313900	0.196400	0.573210
O291	O29	0.154300	0.520000	0.579570
O301	O30	0.935700	0.796000	0.868650
O311	O31	0.742000	0.891600	0.719230
O321	O32	0.838700	0.505400	0.626530
O331	O33	0.571000	0.316800	0.580810
O341	O34	0.984700	0.723800	0.541360
O351	O35	0.755200	0.987800	0.557660
O361	O36	0.998900	0.635800	0.703000
O371	O37	0.087200	0.854500	0.976100
H51	H5	0.183900	0.841800	0.980700
O381	O38	0.593700	0.161500	0.465640
H61	H6	0.637600	0.112600	0.500700
O391	O39	0.647800	0.415300	0.777480
H71	H7	0.714200	0.459400	0.734400
O401	O40	0.704900	0.132900	0.679110
H81	H8	0.673200	0.178900	0.638000
