data_HEZPIL01_freeONLY_PM
_symmetry_space_group_name_H-M	'P1'
_cell_length_a	10.464000
_cell_length_b	17.142000
_cell_length_c	8.448100
_cell_angle_alpha	90.000000
_cell_angle_beta	90.000000
_cell_angle_gamma	90.000000
_symmetry_Int_Tables_number 1

loop_
_symmetry_equiv_pos_as_xyz
'x,y,z'

loop_
_atom_site_label
_atom_site_type_symbol
_atom_site_fract_x
_atom_site_fract_y
_atom_site_fract_z
V11	V1	0.858910	0.438380	0.220450
P11	P1	0.628720	0.412840	0.474380
O11	O1	0.715010	0.410300	0.019400
O21	O2	0.842360	0.326030	0.254300
O31	O3	0.662780	0.452930	0.632590
O41	O4	0.482600	0.413880	0.451570
O51	O5	0.674820	0.327840	0.490530
O61	O6	0.694610	0.455210	0.335790
O71	O7	0.955920	0.459510	0.362690
H11	H1	0.646000	0.412000	0.058000
H21	H2	0.715000	0.442000	0.952000
H31	H3	0.901000	0.310000	0.219000
V21	V2	0.641090	0.561620	0.720450
P21	P2	0.871280	0.587160	0.974380
O81	O8	0.784990	0.589700	0.519400
O91	O9	0.657640	0.673970	0.754300
O101	O10	0.837220	0.547070	0.132590
O111	O11	0.017400	0.586120	0.951570
O121	O12	0.825180	0.672160	0.990530
O131	O13	0.805390	0.544790	0.835790
O141	O14	0.544080	0.540490	0.862690
H41	H4	0.854000	0.588000	0.558000
H51	H5	0.785000	0.558000	0.452000
H61	H6	0.599000	0.690000	0.719000
V31	V3	0.141090	0.938380	0.779550
P31	P3	0.371280	0.912840	0.525620
O151	O15	0.284990	0.910300	0.980600
O161	O16	0.157640	0.826030	0.745700
O171	O17	0.337220	0.952930	0.367410
O181	O18	0.517400	0.913880	0.548430
O191	O19	0.325180	0.827840	0.509470
O201	O20	0.305390	0.955210	0.664210
O211	O21	0.044080	0.959510	0.637310
H71	H7	0.354000	0.912000	0.942000
H81	H8	0.285000	0.942000	0.048000
H91	H9	0.099000	0.810000	0.781000
V41	V4	0.358910	0.061620	0.279550
P41	P4	0.128720	0.087160	0.025620
O221	O22	0.215010	0.089700	0.480600
O231	O23	0.342360	0.173970	0.245700
O241	O24	0.162780	0.047070	0.867410
O251	O25	0.982600	0.086120	0.048430
O261	O26	0.174820	0.172160	0.009470
O271	O27	0.194610	0.044790	0.164210
O281	O28	0.455920	0.040490	0.137310
H101	H10	0.146000	0.088000	0.442000
H111	H11	0.215000	0.058000	0.548000
H121	H12	0.401000	0.190000	0.281000
V51	V5	0.141090	0.561620	0.779550
P51	P5	0.371280	0.587160	0.525620
O291	O29	0.284990	0.589700	0.980600
O301	O30	0.157640	0.673970	0.745700
O311	O31	0.337220	0.547070	0.367410
O321	O32	0.517400	0.586120	0.548430
O331	O33	0.325180	0.672160	0.509470
O341	O34	0.305390	0.544790	0.664210
O351	O35	0.044080	0.540490	0.637310
H131	H13	0.354000	0.588000	0.942000
H141	H14	0.285000	0.558000	0.048000
H151	H15	0.099000	0.690000	0.781000
V61	V6	0.358910	0.438380	0.279550
P61	P6	0.128720	0.412840	0.025620
O361	O36	0.215010	0.410300	0.480600
O371	O37	0.342360	0.326030	0.245700
O381	O38	0.162780	0.452930	0.867410
O391	O39	0.982600	0.413880	0.048430
O401	O40	0.174820	0.327840	0.009470
O411	O41	0.194610	0.455210	0.164210
O421	O42	0.455920	0.459510	0.137310
H161	H16	0.146000	0.412000	0.442000
H171	H17	0.215000	0.442000	0.548000
H181	H18	0.401000	0.310000	0.281000
V71	V7	0.858910	0.061620	0.220450
P71	P7	0.628720	0.087160	0.474380
O431	O43	0.715010	0.089700	0.019400
O441	O44	0.842360	0.173970	0.254300
O451	O45	0.662780	0.047070	0.632590
O461	O46	0.482600	0.086120	0.451570
O471	O47	0.674820	0.172160	0.490530
O481	O48	0.694610	0.044790	0.335790
O491	O49	0.955920	0.040490	0.362690
H191	H19	0.646000	0.088000	0.058000
H201	H20	0.715000	0.058000	0.952000
H211	H21	0.901000	0.190000	0.219000
V81	V8	0.641090	0.938380	0.720450
P81	P8	0.871280	0.912840	0.974380
O501	O50	0.784990	0.910300	0.519400
O511	O51	0.657640	0.826030	0.754300
O521	O52	0.837220	0.952930	0.132590
O531	O53	0.017400	0.913880	0.951570
O541	O54	0.825180	0.827840	0.990530
O551	O55	0.805390	0.955210	0.835790
O561	O56	0.544080	0.959510	0.862690
H221	H22	0.854000	0.912000	0.558000
H231	H23	0.785000	0.942000	0.452000
H241	H24	0.599000	0.810000	0.719000
V91	V9	0.716620	0.250000	0.328630
O571	O57	0.600200	0.250000	0.206200
V101	V10	0.783380	0.750000	0.828630
O581	O58	0.899800	0.750000	0.706200
V111	V11	0.283380	0.750000	0.671370
O591	O59	0.399800	0.750000	0.793800
V121	V12	0.216620	0.250000	0.171370
O601	O60	0.100200	0.250000	0.293800
