data_HIBGEF_freeONLY_PM
_symmetry_space_group_name_H-M	'P1'
_cell_length_a	9.853000
_cell_length_b	11.315000
_cell_length_c	14.400000
_cell_angle_alpha	91.320000
_cell_angle_beta	90.000000
_cell_angle_gamma	90.000000
_symmetry_Int_Tables_number 1

loop_
_symmetry_equiv_pos_as_xyz
'x,y,z'

loop_
_atom_site_label
_atom_site_type_symbol
_atom_site_fract_x
_atom_site_fract_y
_atom_site_fract_z
Mg11	Mg1	0.918070	0.744510	0.865080
Mg21	Mg2	0.107880	0.761240	0.688450
Mg31	Mg3	0.418070	0.755490	0.634920
Mg41	Mg4	0.607880	0.738760	0.811550
Mg51	Mg5	0.081930	0.255490	0.134920
Mg61	Mg6	0.892120	0.238760	0.311550
Mg71	Mg7	0.581930	0.244510	0.365080
Mg81	Mg8	0.392120	0.261240	0.188450
Mg91	Mg9	0.000000	0.000000	0.000000
Mg101	Mg10	0.500000	0.500000	0.500000
Mg111	Mg11	0.000000	0.500000	0.000000
Mg121	Mg12	0.500000	0.000000	0.500000
H11	H1	0.033200	0.025200	0.733300
H21	H2	0.617400	0.943100	0.957600
H31	H3	0.756000	0.636300	0.630000
H41	H4	0.704500	0.509300	0.991400
H51	H5	0.186800	0.518600	0.765000
H61	H6	0.158500	0.801700	0.070200
H71	H7	0.533200	0.474800	0.766700
H81	H8	0.117400	0.556900	0.542400
H91	H9	0.256000	0.863700	0.870000
H101	H10	0.204500	0.990700	0.508600
H111	H11	0.686800	0.981400	0.735000
H121	H12	0.658500	0.698300	0.429800
H131	H13	0.966800	0.974800	0.266700
H141	H14	0.382600	0.056900	0.042400
H151	H15	0.244000	0.363700	0.370000
H161	H16	0.295500	0.490700	0.008600
H171	H17	0.813200	0.481400	0.235000
H181	H18	0.841500	0.198300	0.929800
H191	H19	0.466800	0.525200	0.233300
H201	H20	0.882600	0.443100	0.457600
H211	H21	0.744000	0.136300	0.130000
H221	H22	0.795500	0.009300	0.491400
H231	H23	0.313200	0.018600	0.265000
H241	H24	0.341500	0.301700	0.570200
C11	C1	0.013140	0.982080	0.787440
C21	C2	0.710830	0.925240	0.949280
C31	C3	0.825510	0.669310	0.668260
C41	C4	0.722050	0.570650	0.949140
C51	C5	0.125750	0.546750	0.811540
C61	C6	0.101680	0.758000	0.028570
C71	C7	0.513140	0.517920	0.712560
C81	C8	0.210830	0.574760	0.550720
C91	C9	0.325510	0.830690	0.831740
C101	C10	0.222050	0.929350	0.550860
C111	C11	0.625750	0.953250	0.688460
C121	C12	0.601680	0.742000	0.471430
C131	C13	0.986860	0.017920	0.212560
C141	C14	0.289170	0.074760	0.050720
C151	C15	0.174490	0.330690	0.331740
C161	C16	0.277950	0.429350	0.050860
C171	C17	0.874250	0.453250	0.188460
C181	C18	0.898320	0.242000	0.971430
C191	C19	0.486860	0.482080	0.287440
C201	C20	0.789170	0.425240	0.449280
C211	C21	0.674490	0.169310	0.168260
C221	C22	0.777950	0.070650	0.449140
C231	C23	0.374250	0.046750	0.311540
C241	C24	0.398320	0.258000	0.528570
O11	O1	0.002190	0.870000	0.778250
O21	O2	0.740920	0.843740	0.889510
O31	O3	0.796240	0.690680	0.753300
O41	O4	0.845780	0.602030	0.939250
O51	O5	0.078180	0.650680	0.802240
O61	O6	0.024580	0.816980	0.974710
O71	O7	0.999750	0.038980	0.861070
O81	O8	0.792940	0.982620	0.997000
O91	O9	0.622840	0.612930	0.908640
O101	O10	0.099850	0.479170	0.875440
O111	O11	0.108020	0.649010	0.030680
O121	O12	0.937490	0.688030	0.631160
O131	O13	0.502190	0.630000	0.721750
O141	O14	0.240920	0.656260	0.610490
O151	O15	0.296240	0.809320	0.746700
O161	O16	0.345780	0.897970	0.560750
O171	O17	0.578180	0.849320	0.697760
O181	O18	0.524580	0.683020	0.525290
O191	O19	0.499750	0.461020	0.638930
O201	O20	0.292940	0.517380	0.503000
O211	O21	0.122840	0.887070	0.591360
O221	O22	0.599850	0.020830	0.624560
O231	O23	0.608020	0.850990	0.469320
O241	O24	0.437490	0.811970	0.868840
O251	O25	0.997810	0.130000	0.221750
O261	O26	0.259080	0.156260	0.110490
O271	O27	0.203760	0.309320	0.246700
O281	O28	0.154220	0.397970	0.060750
O291	O29	0.921820	0.349320	0.197760
O301	O30	0.975420	0.183020	0.025290
O311	O31	0.000250	0.961020	0.138930
O321	O32	0.207060	0.017380	0.003000
O331	O33	0.377160	0.387070	0.091360
O341	O34	0.900150	0.520830	0.124560
O351	O35	0.891980	0.350990	0.969320
O361	O36	0.062510	0.311970	0.368840
O371	O37	0.497810	0.370000	0.278250
O381	O38	0.759080	0.343740	0.389510
O391	O39	0.703760	0.190680	0.253300
O401	O40	0.654220	0.102030	0.439250
O411	O41	0.421820	0.150680	0.302240
O421	O42	0.475420	0.316980	0.474710
O431	O43	0.500250	0.538980	0.361070
O441	O44	0.707060	0.482620	0.497000
O451	O45	0.877160	0.112930	0.408640
O461	O46	0.400150	0.979170	0.375440
O471	O47	0.391980	0.149010	0.530680
O481	O48	0.562510	0.188030	0.131160
