data_HICZAW_freeONLY_PM
_symmetry_space_group_name_H-M	'P1'
_cell_length_a	14.602600
_cell_length_b	16.630100
_cell_length_c	16.661700
_cell_angle_alpha	90.000000
_cell_angle_beta	90.000000
_cell_angle_gamma	90.000000
_symmetry_Int_Tables_number 1

loop_
_symmetry_equiv_pos_as_xyz
'x,y,z'

loop_
_atom_site_label
_atom_site_type_symbol
_atom_site_fract_x
_atom_site_fract_y
_atom_site_fract_z
O11	O1	0.631600	0.965700	0.636200
O21	O2	0.604500	0.065700	0.721800
O31	O3	0.855400	0.748600	0.725300
O41	O4	0.933500	0.780000	0.833500
C11	C1	0.733800	0.970200	0.987000
H11	H1	0.779900	0.949400	0.007400
H21	H2	0.682300	0.945300	0.012700
O51	O5	0.554100	0.096000	0.523500
O61	O6	0.455300	0.144600	0.615100
O71	O7	0.274200	0.426500	0.415500
O81	O8	0.268600	0.384800	0.535800
C21	C2	0.463700	0.231600	0.262200
H31	H3	0.436000	0.277700	0.237400
H41	H4	0.436200	0.185100	0.238100
C31	C3	0.636100	0.997500	0.703500
C41	C4	0.869500	0.794700	0.787100
C51	C5	0.686300	0.954100	0.768000
C61	C6	0.746100	0.891200	0.749100
H51	H5	0.749900	0.872400	0.696600
C71	C7	0.799000	0.857400	0.807500
C81	C8	0.787700	0.880200	0.887900
H61	H6	0.819100	0.857100	0.924200
C91	C9	0.726900	0.938800	0.908400
C101	C10	0.681200	0.981700	0.846800
H71	H7	0.648100	0.027800	0.858900
C111	C11	0.489900	0.142600	0.543700
C121	C12	0.298600	0.380500	0.465900
C131	C13	0.450600	0.194100	0.482700
C141	C14	0.391100	0.257500	0.504300
H81	H8	0.375300	0.265500	0.557800
C151	C15	0.355600	0.308700	0.444200
C161	C16	0.378800	0.293200	0.364200
H91	H9	0.354900	0.325700	0.323900
C171	C17	0.435900	0.231300	0.343800
C181	C18	0.476000	0.187100	0.403300
H101	H10	0.518200	0.154100	0.390900
O91	O9	0.733800	0.029800	0.013000
O101	O10	0.536300	0.231600	0.237800
O111	O11	0.131600	0.465700	0.636200
O121	O12	0.104500	0.565700	0.721800
O131	O13	0.355400	0.248600	0.725300
O141	O14	0.433500	0.280000	0.833500
C191	C19	0.233800	0.470200	0.987000
H111	H11	0.279900	0.449400	0.007400
H121	H12	0.182300	0.445300	0.012700
O151	O15	0.054100	0.596000	0.523500
O161	O16	0.955300	0.644600	0.615100
O171	O17	0.774200	0.926500	0.415500
O181	O18	0.768600	0.884800	0.535800
C201	C20	0.963700	0.731600	0.262200
H131	H13	0.936000	0.777700	0.237400
H141	H14	0.936200	0.685100	0.238100
C211	C21	0.136100	0.497500	0.703500
C221	C22	0.369500	0.294700	0.787100
C231	C23	0.186300	0.454100	0.768000
C241	C24	0.246100	0.391200	0.749100
H151	H15	0.249900	0.372400	0.696600
C251	C25	0.299000	0.357400	0.807500
C261	C26	0.287700	0.380200	0.887900
H161	H16	0.319100	0.357100	0.924200
C271	C27	0.226900	0.438800	0.908400
C281	C28	0.181200	0.481700	0.846800
H171	H17	0.148100	0.527800	0.858900
C291	C29	0.989900	0.642600	0.543700
C301	C30	0.798600	0.880500	0.465900
C311	C31	0.950600	0.694100	0.482700
C321	C32	0.891100	0.757500	0.504300
H181	H18	0.875300	0.765500	0.557800
C331	C33	0.855600	0.808700	0.444200
C341	C34	0.878800	0.793200	0.364200
H191	H19	0.854900	0.825700	0.323900
C351	C35	0.935900	0.731300	0.343800
C361	C36	0.976000	0.687100	0.403300
H201	H20	0.018200	0.654100	0.390900
O191	O19	0.233800	0.529800	0.013000
O201	O20	0.036300	0.731600	0.237800
O211	O21	0.368400	0.034300	0.136200
O221	O22	0.395500	0.934300	0.221800
O231	O23	0.144600	0.251400	0.225300
O241	O24	0.066500	0.220000	0.333500
C371	C37	0.266200	0.029800	0.487000
H211	H21	0.220100	0.050600	0.507400
H221	H22	0.317700	0.054700	0.512700
O251	O25	0.445900	0.904000	0.023500
O261	O26	0.544700	0.855400	0.115100
O271	O27	0.725800	0.573500	0.915500
O281	O28	0.731400	0.615200	0.035800
C381	C38	0.536300	0.768400	0.762200
H231	H23	0.564000	0.722300	0.737400
H241	H24	0.563800	0.814900	0.738100
C391	C39	0.363900	0.002500	0.203500
C401	C40	0.130500	0.205300	0.287100
C411	C41	0.313700	0.045900	0.268000
C421	C42	0.253900	0.108800	0.249100
H251	H25	0.250100	0.127600	0.196600
C431	C43	0.201000	0.142600	0.307500
C441	C44	0.212300	0.119800	0.387900
H261	H26	0.180900	0.142900	0.424200
C451	C45	0.273100	0.061200	0.408400
C461	C46	0.318800	0.018300	0.346800
H271	H27	0.351900	0.972200	0.358900
C471	C47	0.510100	0.857400	0.043700
C481	C48	0.701400	0.619500	0.965900
C491	C49	0.549400	0.805900	0.982700
C501	C50	0.608900	0.742500	0.004300
H281	H28	0.624700	0.734500	0.057800
C511	C51	0.644400	0.691300	0.944200
C521	C52	0.621200	0.706800	0.864200
H291	H29	0.645100	0.674300	0.823900
C531	C53	0.564100	0.768700	0.843800
C541	C54	0.524000	0.812900	0.903300
H301	H30	0.481800	0.845900	0.890900
O291	O29	0.266200	0.970200	0.513000
O301	O30	0.463700	0.768400	0.737800
O311	O31	0.868400	0.534300	0.136200
O321	O32	0.895500	0.434300	0.221800
O331	O33	0.644600	0.751400	0.225300
O341	O34	0.566500	0.720000	0.333500
C551	C55	0.766200	0.529800	0.487000
H311	H31	0.720100	0.550600	0.507400
H321	H32	0.817700	0.554700	0.512700
O351	O35	0.945900	0.404000	0.023500
O361	O36	0.044700	0.355400	0.115100
O371	O37	0.225800	0.073500	0.915500
O381	O38	0.231400	0.115200	0.035800
C561	C56	0.036300	0.268400	0.762200
H331	H33	0.064000	0.222300	0.737400
H341	H34	0.063800	0.314900	0.738100
C571	C57	0.863900	0.502500	0.203500
C581	C58	0.630500	0.705300	0.287100
C591	C59	0.813700	0.545900	0.268000
C601	C60	0.753900	0.608800	0.249100
H351	H35	0.750100	0.627600	0.196600
C611	C61	0.701000	0.642600	0.307500
C621	C62	0.712300	0.619800	0.387900
H361	H36	0.680900	0.642900	0.424200
C631	C63	0.773100	0.561200	0.408400
C641	C64	0.818800	0.518300	0.346800
H371	H37	0.851900	0.472200	0.358900
C651	C65	0.010100	0.357400	0.043700
C661	C66	0.201400	0.119500	0.965900
C671	C67	0.049400	0.305900	0.982700
C681	C68	0.108900	0.242500	0.004300
H381	H38	0.124700	0.234500	0.057800
C691	C69	0.144400	0.191300	0.944200
C701	C70	0.121200	0.206800	0.864200
H391	H39	0.145100	0.174300	0.823900
C711	C71	0.064100	0.268700	0.843800
C721	C72	0.024000	0.312900	0.903300
H401	H40	0.981800	0.345900	0.890900
O391	O39	0.766200	0.470200	0.513000
O401	O40	0.963700	0.268400	0.737800
O411	O41	0.368400	0.965700	0.863800
O421	O42	0.395500	0.065700	0.778200
O431	O43	0.144600	0.748600	0.774700
O441	O44	0.066500	0.780000	0.666500
H411	H41	0.220100	0.949400	0.492600
H421	H42	0.317700	0.945300	0.487300
O451	O45	0.445900	0.096000	0.976500
O461	O46	0.544700	0.144600	0.884900
O471	O47	0.725800	0.426500	0.084500
O481	O48	0.731400	0.384800	0.964200
H431	H43	0.564000	0.277700	0.262600
H441	H44	0.563800	0.185100	0.261900
C731	C73	0.363900	0.997500	0.796500
C741	C74	0.130500	0.794700	0.712900
C751	C75	0.313700	0.954100	0.732000
C761	C76	0.253900	0.891200	0.750900
H451	H45	0.250100	0.872400	0.803400
C771	C77	0.201000	0.857400	0.692500
C781	C78	0.212300	0.880200	0.612100
H461	H46	0.180900	0.857100	0.575800
C791	C79	0.273100	0.938800	0.591600
C801	C80	0.318800	0.981700	0.653200
H471	H47	0.351900	0.027800	0.641100
C811	C81	0.510100	0.142600	0.956300
C821	C82	0.701400	0.380500	0.034100
C831	C83	0.549400	0.194100	0.017300
C841	C84	0.608900	0.257500	0.995700
H481	H48	0.624700	0.265500	0.942200
C851	C85	0.644400	0.308700	0.055800
C861	C86	0.621200	0.293200	0.135800
H491	H49	0.645100	0.325700	0.176100
C871	C87	0.564100	0.231300	0.156200
C881	C88	0.524000	0.187100	0.096700
H501	H50	0.481800	0.154100	0.109100
O491	O49	0.868400	0.465700	0.863800
O501	O50	0.895500	0.565700	0.778200
O511	O51	0.644600	0.248600	0.774700
O521	O52	0.566500	0.280000	0.666500
H511	H51	0.720100	0.449400	0.492600
H521	H52	0.817700	0.445300	0.487300
O531	O53	0.945900	0.596000	0.976500
O541	O54	0.044700	0.644600	0.884900
O551	O55	0.225800	0.926500	0.084500
O561	O56	0.231400	0.884800	0.964200
H531	H53	0.064000	0.777700	0.262600
H541	H54	0.063800	0.685100	0.261900
C891	C89	0.863900	0.497500	0.796500
C901	C90	0.630500	0.294700	0.712900
C911	C91	0.813700	0.454100	0.732000
C921	C92	0.753900	0.391200	0.750900
H551	H55	0.750100	0.372400	0.803400
C931	C93	0.701000	0.357400	0.692500
C941	C94	0.712300	0.380200	0.612100
H561	H56	0.680900	0.357100	0.575800
C951	C95	0.773100	0.438800	0.591600
C961	C96	0.818800	0.481700	0.653200
H571	H57	0.851900	0.527800	0.641100
C971	C97	0.010100	0.642600	0.956300
C981	C98	0.201400	0.880500	0.034100
C991	C99	0.049400	0.694100	0.017300
C1001	C100	0.108900	0.757500	0.995700
H581	H58	0.124700	0.765500	0.942200
C1011	C101	0.144400	0.808700	0.055800
C1021	C102	0.121200	0.793200	0.135800
H591	H59	0.145100	0.825700	0.176100
C1031	C103	0.064100	0.731300	0.156200
C1041	C104	0.024000	0.687100	0.096700
H601	H60	0.981800	0.654100	0.109100
O571	O57	0.631600	0.034300	0.363800
O581	O58	0.604500	0.934300	0.278200
O591	O59	0.855400	0.251400	0.274700
O601	O60	0.933500	0.220000	0.166500
H611	H61	0.779900	0.050600	0.992600
H621	H62	0.682300	0.054700	0.987300
O611	O61	0.554100	0.904000	0.476500
O621	O62	0.455300	0.855400	0.384900
O631	O63	0.274200	0.573500	0.584500
O641	O64	0.268600	0.615200	0.464200
H631	H63	0.436000	0.722300	0.762600
H641	H64	0.436200	0.814900	0.761900
C1051	C105	0.636100	0.002500	0.296500
C1061	C106	0.869500	0.205300	0.212900
C1071	C107	0.686300	0.045900	0.232000
C1081	C108	0.746100	0.108800	0.250900
H651	H65	0.749900	0.127600	0.303400
C1091	C109	0.799000	0.142600	0.192500
C1101	C110	0.787700	0.119800	0.112100
H661	H66	0.819100	0.142900	0.075800
C1111	C111	0.726900	0.061200	0.091600
C1121	C112	0.681200	0.018300	0.153200
H671	H67	0.648100	0.972200	0.141100
C1131	C113	0.489900	0.857400	0.456300
C1141	C114	0.298600	0.619500	0.534100
C1151	C115	0.450600	0.805900	0.517300
C1161	C116	0.391100	0.742500	0.495700
H681	H68	0.375300	0.734500	0.442200
C1171	C117	0.355600	0.691300	0.555800
C1181	C118	0.378800	0.706800	0.635800
H691	H69	0.354900	0.674300	0.676100
C1191	C119	0.435900	0.768700	0.656200
C1201	C120	0.476000	0.812900	0.596700
H701	H70	0.518200	0.845900	0.609100
O651	O65	0.131600	0.534300	0.363800
O661	O66	0.104500	0.434300	0.278200
O671	O67	0.355400	0.751400	0.274700
O681	O68	0.433500	0.720000	0.166500
H711	H71	0.279900	0.550600	0.992600
H721	H72	0.182300	0.554700	0.987300
O691	O69	0.054100	0.404000	0.476500
O701	O70	0.955300	0.355400	0.384900
O711	O71	0.774200	0.073500	0.584500
O721	O72	0.768600	0.115200	0.464200
H731	H73	0.936000	0.222300	0.762600
H741	H74	0.936200	0.314900	0.761900
C1211	C121	0.136100	0.502500	0.296500
C1221	C122	0.369500	0.705300	0.212900
C1231	C123	0.186300	0.545900	0.232000
C1241	C124	0.246100	0.608800	0.250900
H751	H75	0.249900	0.627600	0.303400
C1251	C125	0.299000	0.642600	0.192500
C1261	C126	0.287700	0.619800	0.112100
H761	H76	0.319100	0.642900	0.075800
C1271	C127	0.226900	0.561200	0.091600
C1281	C128	0.181200	0.518300	0.153200
H771	H77	0.148100	0.472200	0.141100
C1291	C129	0.989900	0.357400	0.456300
C1301	C130	0.798600	0.119500	0.534100
C1311	C131	0.950600	0.305900	0.517300
C1321	C132	0.891100	0.242500	0.495700
H781	H78	0.875300	0.234500	0.442200
C1331	C133	0.855600	0.191300	0.555800
C1341	C134	0.878800	0.206800	0.635800
H791	H79	0.854900	0.174300	0.676100
C1351	C135	0.935900	0.268700	0.656200
C1361	C136	0.976000	0.312900	0.596700
H801	H80	0.018200	0.345900	0.609100
Sm11	Sm1	0.500000	0.168010	0.750000
Sm21	Sm2	0.000000	0.668010	0.750000
Sm31	Sm3	0.500000	0.831990	0.250000
Sm41	Sm4	0.000000	0.331990	0.250000
Sm51	Sm5	0.662130	0.000000	0.500000
Sm61	Sm6	0.162130	0.500000	0.500000
Sm71	Sm7	0.337870	0.000000	0.000000
Sm81	Sm8	0.837870	0.500000	0.000000
