data_HIFTOG02_freeONLY_PM
_symmetry_space_group_name_H-M	'P1'
_cell_length_a	18.380000
_cell_length_b	18.380000
_cell_length_c	18.380000
_cell_angle_alpha	60.259500
_cell_angle_beta	60.259500
_cell_angle_gamma	60.259500
_symmetry_Int_Tables_number 1

loop_
_symmetry_equiv_pos_as_xyz
'x,y,z'

loop_
_atom_site_label
_atom_site_type_symbol
_atom_site_fract_x
_atom_site_fract_y
_atom_site_fract_z
Zn11	Zn1	0.609330	0.783290	0.609330
Zn21	Zn2	0.196140	0.022020	0.196140
Zn31	Zn3	0.609330	0.609330	0.783290
Zn41	Zn4	0.196140	0.196140	0.022020
Zn51	Zn5	0.783290	0.609330	0.609330
Zn61	Zn6	0.022020	0.196140	0.196140
Zn71	Zn7	0.608790	0.608790	0.608790
Zn81	Zn8	0.196610	0.196610	0.196610
H11	H1	0.839300	0.055100	0.356700
H21	H2	0.750900	0.965400	0.444800
H31	H3	0.356700	0.839300	0.055100
H41	H4	0.444800	0.750900	0.965400
H51	H5	0.055100	0.356700	0.839300
H61	H6	0.965400	0.444800	0.750900
H71	H7	0.055100	0.839300	0.356700
H81	H8	0.965400	0.750900	0.444800
H91	H9	0.839300	0.356700	0.055100
H101	H10	0.750900	0.444800	0.965400
H111	H11	0.356700	0.055100	0.839300
H121	H12	0.444800	0.965400	0.750900
H131	H13	0.358500	0.055000	0.358500
H141	H14	0.447600	0.966200	0.447600
H151	H15	0.358000	0.839700	0.358000
H161	H16	0.446300	0.751600	0.446300
H171	H17	0.358500	0.358500	0.055000
H181	H18	0.447600	0.447600	0.966200
H191	H19	0.358000	0.358000	0.839700
H201	H20	0.446300	0.446300	0.751600
H211	H21	0.055000	0.358500	0.358500
H221	H22	0.966200	0.447600	0.447600
H231	H23	0.839700	0.358000	0.358000
H241	H24	0.751600	0.446300	0.446300
C11	C1	0.865570	0.993570	0.374470
C21	C2	0.812350	0.939450	0.427750
C31	C3	0.374470	0.865570	0.993570
C41	C4	0.427750	0.812350	0.939450
C51	C5	0.993570	0.374470	0.865570
C61	C6	0.939450	0.427750	0.812350
C71	C7	0.993570	0.865570	0.374470
C81	C8	0.939450	0.812350	0.427750
C91	C9	0.865570	0.374470	0.993570
C101	C10	0.812350	0.427750	0.939450
C111	C11	0.374470	0.993570	0.865570
C121	C12	0.427750	0.939450	0.812350
C131	C13	0.290930	0.014430	0.290930
C141	C14	0.349340	0.956140	0.349340
C151	C15	0.376010	0.993610	0.376010
C161	C16	0.429800	0.940000	0.429800
C171	C17	0.375760	0.865860	0.375760
C181	C18	0.429030	0.812930	0.429030
C191	C19	0.456530	0.848830	0.456530
C201	C20	0.514390	0.791190	0.514390
C211	C21	0.290930	0.290930	0.014430
C221	C22	0.349340	0.349340	0.956140
C231	C23	0.376010	0.376010	0.993610
C241	C24	0.429800	0.429800	0.940000
C251	C25	0.375760	0.375760	0.865860
C261	C26	0.429030	0.429030	0.812930
C271	C27	0.456530	0.456530	0.848830
C281	C28	0.514390	0.514390	0.791190
C291	C29	0.014430	0.290930	0.290930
C301	C30	0.956140	0.349340	0.349340
C311	C31	0.993610	0.376010	0.376010
C321	C32	0.940000	0.429800	0.429800
C331	C33	0.865860	0.375760	0.375760
C341	C34	0.812930	0.429030	0.429030
C351	C35	0.848830	0.456530	0.456530
C361	C36	0.791190	0.514390	0.514390
C371	C37	0.014600	0.014600	0.290900
C381	C38	0.956260	0.956260	0.348360
C391	C39	0.849250	0.849250	0.454950
C401	C40	0.790990	0.790990	0.514590
C411	C41	0.290900	0.014600	0.014600
C421	C42	0.348360	0.956260	0.956260
C431	C43	0.454950	0.849250	0.849250
C441	C44	0.514590	0.790990	0.790990
C451	C45	0.014600	0.290900	0.014600
C461	C46	0.956260	0.348360	0.956260
C471	C47	0.849250	0.454950	0.849250
C481	C48	0.790990	0.514590	0.790990
O11	O1	0.707870	0.829670	0.536770
O21	O2	0.976150	0.097050	0.268350
O31	O3	0.536770	0.707870	0.829670
O41	O4	0.268350	0.976150	0.097050
O51	O5	0.829670	0.536770	0.707870
O61	O6	0.097050	0.268350	0.976150
O71	O7	0.829670	0.707870	0.536770
O81	O8	0.097050	0.976150	0.268350
O91	O9	0.707870	0.536770	0.829670
O101	O10	0.976150	0.268350	0.097050
O111	O11	0.536770	0.829670	0.707870
O121	O12	0.268350	0.097050	0.976150
O131	O13	0.536960	0.829510	0.536960
O141	O14	0.536250	0.708050	0.536250
O151	O15	0.269270	0.097530	0.269270
O161	O16	0.268600	0.976350	0.268600
O171	O17	0.536960	0.536960	0.829510
O181	O18	0.536250	0.536250	0.708050
O191	O19	0.269270	0.269270	0.097530
O201	O20	0.268600	0.268600	0.976350
O211	O21	0.829510	0.536960	0.536960
O221	O22	0.708050	0.536250	0.536250
O231	O23	0.097530	0.269270	0.269270
O241	O24	0.976350	0.268600	0.268600
O251	O25	0.652530	0.652530	0.652530
O261	O26	0.152740	0.152740	0.152740
Zn91	Zn9	0.216710	0.390670	0.390670
Zn101	Zn10	0.977980	0.803860	0.803860
Zn111	Zn11	0.390670	0.390670	0.216710
Zn121	Zn12	0.803860	0.803860	0.977980
Zn131	Zn13	0.390670	0.216710	0.390670
Zn141	Zn14	0.803860	0.977980	0.803860
Zn151	Zn15	0.391210	0.391210	0.391210
Zn161	Zn16	0.803390	0.803390	0.803390
H251	H25	0.944900	0.160700	0.643300
H261	H26	0.034600	0.249100	0.555200
H271	H27	0.160700	0.643300	0.944900
H281	H28	0.249100	0.555200	0.034600
H291	H29	0.643300	0.944900	0.160700
H301	H30	0.555200	0.034600	0.249100
H311	H31	0.160700	0.944900	0.643300
H321	H32	0.249100	0.034600	0.555200
H331	H33	0.643300	0.160700	0.944900
H341	H34	0.555200	0.249100	0.034600
H351	H35	0.944900	0.643300	0.160700
H361	H36	0.034600	0.555200	0.249100
H371	H37	0.945000	0.641500	0.641500
H381	H38	0.033800	0.552400	0.552400
H391	H39	0.160300	0.642000	0.642000
H401	H40	0.248400	0.553700	0.553700
H411	H41	0.641500	0.641500	0.945000
H421	H42	0.552400	0.552400	0.033800
H431	H43	0.642000	0.642000	0.160300
H441	H44	0.553700	0.553700	0.248400
H451	H45	0.641500	0.945000	0.641500
H461	H46	0.552400	0.033800	0.552400
H471	H47	0.642000	0.160300	0.642000
H481	H48	0.553700	0.248400	0.553700
C491	C49	0.006430	0.134430	0.625530
C501	C50	0.060550	0.187650	0.572250
C511	C51	0.134430	0.625530	0.006430
C521	C52	0.187650	0.572250	0.060550
C531	C53	0.625530	0.006430	0.134430
C541	C54	0.572250	0.060550	0.187650
C551	C55	0.134430	0.006430	0.625530
C561	C56	0.187650	0.060550	0.572250
C571	C57	0.625530	0.134430	0.006430
C581	C58	0.572250	0.187650	0.060550
C591	C59	0.006430	0.625530	0.134430
C601	C60	0.060550	0.572250	0.187650
C611	C61	0.985570	0.709070	0.709070
C621	C62	0.043860	0.650660	0.650660
C631	C63	0.006390	0.623990	0.623990
C641	C64	0.060000	0.570200	0.570200
C651	C65	0.134140	0.624240	0.624240
C661	C66	0.187070	0.570970	0.570970
C671	C67	0.151170	0.543470	0.543470
C681	C68	0.208810	0.485610	0.485610
C691	C69	0.709070	0.709070	0.985570
C701	C70	0.650660	0.650660	0.043860
C711	C71	0.623990	0.623990	0.006390
C721	C72	0.570200	0.570200	0.060000
C731	C73	0.624240	0.624240	0.134140
C741	C74	0.570970	0.570970	0.187070
C751	C75	0.543470	0.543470	0.151170
C761	C76	0.485610	0.485610	0.208810
C771	C77	0.709070	0.985570	0.709070
C781	C78	0.650660	0.043860	0.650660
C791	C79	0.623990	0.006390	0.623990
C801	C80	0.570200	0.060000	0.570200
C811	C81	0.624240	0.134140	0.624240
C821	C82	0.570970	0.187070	0.570970
C831	C83	0.543470	0.151170	0.543470
C841	C84	0.485610	0.208810	0.485610
C851	C85	0.985400	0.985400	0.709100
C861	C86	0.043740	0.043740	0.651640
C871	C87	0.150750	0.150750	0.545050
C881	C88	0.209010	0.209010	0.485410
C891	C89	0.985400	0.709100	0.985400
C901	C90	0.043740	0.651640	0.043740
C911	C91	0.150750	0.545050	0.150750
C921	C92	0.209010	0.485410	0.209010
C931	C93	0.709100	0.985400	0.985400
C941	C94	0.651640	0.043740	0.043740
C951	C95	0.545050	0.150750	0.150750
C961	C96	0.485410	0.209010	0.209010
O271	O27	0.170330	0.292130	0.463230
O281	O28	0.902950	0.023850	0.731650
O291	O29	0.292130	0.463230	0.170330
O301	O30	0.023850	0.731650	0.902950
O311	O31	0.463230	0.170330	0.292130
O321	O32	0.731650	0.902950	0.023850
O331	O33	0.292130	0.170330	0.463230
O341	O34	0.023850	0.902950	0.731650
O351	O35	0.463230	0.292130	0.170330
O361	O36	0.731650	0.023850	0.902950
O371	O37	0.170330	0.463230	0.292130
O381	O38	0.902950	0.731650	0.023850
O391	O39	0.170490	0.463040	0.463040
O401	O40	0.291950	0.463750	0.463750
O411	O41	0.902470	0.730730	0.730730
O421	O42	0.023650	0.731400	0.731400
O431	O43	0.463040	0.463040	0.170490
O441	O44	0.463750	0.463750	0.291950
O451	O45	0.730730	0.730730	0.902470
O461	O46	0.731400	0.731400	0.023650
O471	O47	0.463040	0.170490	0.463040
O481	O48	0.463750	0.291950	0.463750
O491	O49	0.730730	0.902470	0.730730
O501	O50	0.731400	0.023650	0.731400
O511	O51	0.347470	0.347470	0.347470
O521	O52	0.847260	0.847260	0.847260
