data_HIFTOG01_freeONLY_PM
_symmetry_space_group_name_H-M	'P1'
_cell_length_a	18.314900
_cell_length_b	18.314900
_cell_length_c	18.314900
_cell_angle_alpha	60.329500
_cell_angle_beta	60.329500
_cell_angle_gamma	60.329500
_symmetry_Int_Tables_number 1

loop_
_symmetry_equiv_pos_as_xyz
'x,y,z'

loop_
_atom_site_label
_atom_site_type_symbol
_atom_site_fract_x
_atom_site_fract_y
_atom_site_fract_z
Zn11	Zn1	0.206090	0.206090	0.206090
Zn21	Zn2	0.793910	0.793910	0.793910
Zn31	Zn3	0.206770	0.379520	0.206770
Zn41	Zn4	0.206770	0.206770	0.379520
Zn51	Zn5	0.379520	0.206770	0.206770
Zn61	Zn6	0.620480	0.793230	0.793230
Zn71	Zn7	0.793230	0.793230	0.620480
Zn81	Zn8	0.793230	0.620480	0.793230
H11	H1	0.042600	0.343500	0.565300
H21	H2	0.565300	0.042600	0.343500
H31	H3	0.343500	0.565300	0.042600
H41	H4	0.656500	0.957400	0.434700
H51	H5	0.957400	0.434700	0.656500
H61	H6	0.434700	0.656500	0.957400
H71	H7	0.957400	0.656500	0.434700
H81	H8	0.434700	0.957400	0.656500
H91	H9	0.656500	0.434700	0.957400
H101	H10	0.343500	0.042600	0.565300
H111	H11	0.042600	0.565300	0.343500
H121	H12	0.565300	0.343500	0.042600
H131	H13	0.048800	0.558600	0.048800
H141	H14	0.041700	0.344500	0.041700
H151	H15	0.048800	0.048800	0.558600
H161	H16	0.041700	0.041700	0.344500
H171	H17	0.558600	0.048800	0.048800
H181	H18	0.344500	0.041700	0.041700
H191	H19	0.441400	0.951200	0.951200
H201	H20	0.655500	0.958300	0.958300
H211	H21	0.951200	0.951200	0.441400
H221	H22	0.958300	0.958300	0.655500
H231	H23	0.951200	0.441400	0.951200
H241	H24	0.958300	0.655500	0.958300
C11	C1	0.027700	0.405100	0.538700
C21	C2	0.538700	0.027700	0.405100
C31	C3	0.405100	0.538700	0.027700
C41	C4	0.594900	0.972300	0.461300
C51	C5	0.972300	0.461300	0.594900
C61	C6	0.461300	0.594900	0.972300
C71	C7	0.972300	0.594900	0.461300
C81	C8	0.461300	0.972300	0.594900
C91	C9	0.594900	0.461300	0.972300
C101	C10	0.405100	0.027700	0.538700
C111	C11	0.027700	0.538700	0.405100
C121	C12	0.538700	0.405100	0.027700
C131	C13	0.111300	0.390100	0.111300
C141	C14	0.053900	0.444000	0.053900
C151	C15	0.029400	0.535300	0.029400
C161	C16	0.025200	0.406000	0.025200
C171	C17	0.111300	0.111300	0.390100
C181	C18	0.053900	0.053900	0.444000
C191	C19	0.029400	0.029400	0.535300
C201	C20	0.025200	0.025200	0.406000
C211	C21	0.390100	0.111300	0.111300
C221	C22	0.444000	0.053900	0.053900
C231	C23	0.535300	0.029400	0.029400
C241	C24	0.406000	0.025200	0.025200
C251	C25	0.609900	0.888700	0.888700
C261	C26	0.556000	0.946100	0.946100
C271	C27	0.464700	0.970600	0.970600
C281	C28	0.594000	0.974800	0.974800
C291	C29	0.888700	0.888700	0.609900
C301	C30	0.946100	0.946100	0.556000
C311	C31	0.970600	0.970600	0.464700
C321	C32	0.974800	0.974800	0.594000
C331	C33	0.888700	0.609900	0.888700
C341	C34	0.946100	0.556000	0.946100
C351	C35	0.970600	0.464700	0.970600
C361	C36	0.974800	0.594000	0.974800
C371	C37	0.111700	0.389400	0.389400
C381	C38	0.059900	0.442450	0.442450
C391	C39	0.389400	0.111700	0.389400
C401	C40	0.442450	0.059900	0.442450
C411	C41	0.389400	0.389400	0.111700
C421	C42	0.442450	0.442450	0.059900
C431	C43	0.610600	0.888300	0.610600
C441	C44	0.557550	0.940100	0.557550
C451	C45	0.888300	0.610600	0.610600
C461	C46	0.940100	0.557550	0.557550
C471	C47	0.610600	0.610600	0.888300
C481	C48	0.557550	0.557550	0.940100
O11	O1	0.135290	0.427590	0.301190
O21	O2	0.301190	0.135290	0.427590
O31	O3	0.427590	0.301190	0.135290
O41	O4	0.572410	0.864710	0.698810
O51	O5	0.864710	0.698810	0.572410
O61	O6	0.698810	0.572410	0.864710
O71	O7	0.864710	0.572410	0.698810
O81	O8	0.698810	0.864710	0.572410
O91	O9	0.572410	0.698810	0.864710
O101	O10	0.427590	0.135290	0.301190
O111	O11	0.135290	0.301190	0.427590
O121	O12	0.301190	0.427590	0.135290
O131	O13	0.251530	0.251530	0.251530
O141	O14	0.748470	0.748470	0.748470
O151	O15	0.134100	0.302200	0.134100
O161	O16	0.133800	0.428200	0.133800
O171	O17	0.134100	0.134100	0.302200
O181	O18	0.133800	0.133800	0.428200
O191	O19	0.302200	0.134100	0.134100
O201	O20	0.428200	0.133800	0.133800
O211	O21	0.697800	0.865900	0.865900
O221	O22	0.571800	0.866200	0.866200
O231	O23	0.865900	0.865900	0.697800
O241	O24	0.866200	0.866200	0.571800
O251	O25	0.865900	0.697800	0.865900
O261	O26	0.866200	0.571800	0.866200
