data_HIGRIA_freeONLY_PM
_symmetry_space_group_name_H-M	'P1'
_cell_length_a	17.777100
_cell_length_b	17.777100
_cell_length_c	19.112900
_cell_angle_alpha	90.000000
_cell_angle_beta	90.000000
_cell_angle_gamma	120.000000
_symmetry_Int_Tables_number 1

loop_
_symmetry_equiv_pos_as_xyz
'x,y,z'

loop_
_atom_site_label
_atom_site_type_symbol
_atom_site_fract_x
_atom_site_fract_y
_atom_site_fract_z
Zn11	Zn1	0.872500	0.504400	0.328500
Zn21	Zn2	0.631900	0.127500	0.328500
Zn31	Zn3	0.495600	0.368100	0.328500
Zn41	Zn4	0.368100	0.495600	0.671500
Zn51	Zn5	0.504400	0.872500	0.671500
Zn61	Zn6	0.127500	0.631900	0.671500
Zn71	Zn7	0.666670	0.333340	0.265000
Zn81	Zn8	0.333330	0.666660	0.735000
Co11	Co1	0.666670	0.333340	0.076300
Co21	Co2	0.333330	0.666660	0.923700
H11	H1	0.129220	0.647370	0.426780
H21	H2	0.094760	0.711260	0.443080
H31	H3	0.135180	0.713450	0.369690
H41	H4	0.557710	0.537130	0.439440
H51	H5	0.799310	0.716020	0.502930
H61	H6	0.862030	0.652060	0.440370
H71	H7	0.859220	0.470450	0.999370
H81	H8	0.019900	0.629290	0.198230
H91	H9	0.085520	0.652170	0.089200
H101	H10	0.518150	0.870780	0.426780
H111	H11	0.616500	0.905240	0.443080
H121	H12	0.578270	0.864820	0.369690
H131	H13	0.979420	0.442290	0.439440
H141	H14	0.916710	0.200690	0.502930
H151	H15	0.790030	0.137970	0.440370
H161	H16	0.611230	0.140780	0.999370
H171	H17	0.609390	0.980100	0.198230
H181	H18	0.566650	0.914480	0.089200
H191	H19	0.352630	0.481850	0.426780
H201	H20	0.288740	0.383500	0.443080
H211	H21	0.286550	0.421730	0.369690
H221	H22	0.462870	0.020580	0.439440
H231	H23	0.283980	0.083290	0.502930
H241	H24	0.347940	0.209970	0.440370
H251	H25	0.529550	0.388770	0.999370
H261	H26	0.370710	0.390610	0.198230
H271	H27	0.347830	0.433350	0.089200
H281	H28	0.481850	0.352630	0.573220
H291	H29	0.383500	0.288740	0.556920
H301	H30	0.421730	0.286550	0.630310
H311	H31	0.020580	0.462870	0.560560
H321	H32	0.083290	0.283980	0.497070
H331	H33	0.209970	0.347940	0.559630
H341	H34	0.388770	0.529550	0.000630
H351	H35	0.390610	0.370710	0.801770
H361	H36	0.433350	0.347830	0.910800
H371	H37	0.647370	0.129220	0.573220
H381	H38	0.711260	0.094760	0.556920
H391	H39	0.713450	0.135180	0.630310
H401	H40	0.537130	0.557710	0.560560
H411	H41	0.716020	0.799310	0.497070
H421	H42	0.652060	0.862030	0.559630
H431	H43	0.470450	0.859220	0.000630
H441	H44	0.629290	0.019900	0.801770
H451	H45	0.652170	0.085520	0.910800
H461	H46	0.870780	0.518150	0.573220
H471	H47	0.905240	0.616500	0.556920
H481	H48	0.864820	0.578270	0.630310
H491	H49	0.442290	0.979420	0.560560
H501	H50	0.200690	0.916710	0.497070
H511	H51	0.137970	0.790030	0.559630
H521	H52	0.140780	0.611230	0.000630
H531	H53	0.980100	0.609390	0.801770
H541	H54	0.914480	0.566650	0.910800
C11	C1	0.012400	0.610430	0.380500
C21	C2	0.100900	0.676600	0.407500
C31	C3	0.655000	0.514000	0.409000
C41	C4	0.747490	0.555490	0.400000
C51	C5	0.617000	0.557000	0.443000
C61	C6	0.763420	0.665420	0.478000
C71	C7	0.802000	0.629000	0.440000
C81	C8	0.671830	0.632830	0.481000
C91	C9	0.904000	0.528000	0.166600
C101	C10	0.854720	0.482720	0.107400
C111	C11	0.890000	0.502200	0.038400
C121	C12	0.974000	0.572000	0.034300
C131	C13	0.989000	0.596000	0.160000
C141	C14	0.026000	0.613000	0.094360
C151	C15	0.598030	0.987600	0.380500
C161	C16	0.575700	0.899100	0.407500
C171	C17	0.859000	0.345000	0.409000
C181	C18	0.808000	0.252510	0.400000
C191	C19	0.940000	0.383000	0.443000
C201	C20	0.902000	0.236580	0.478000
C211	C21	0.827000	0.198000	0.440000
C221	C22	0.961000	0.328170	0.481000
C231	C23	0.624000	0.096000	0.166600
C241	C24	0.628000	0.145280	0.107400
C251	C25	0.612200	0.110000	0.038400
C261	C26	0.598000	0.026000	0.034300
C271	C27	0.607000	0.011000	0.160000
C281	C28	0.587000	0.974000	0.094360
C291	C29	0.389570	0.401970	0.380500
C301	C30	0.323400	0.424300	0.407500
C311	C31	0.486000	0.141000	0.409000
C321	C32	0.444510	0.192000	0.400000
C331	C33	0.443000	0.060000	0.443000
C341	C34	0.334580	0.098000	0.478000
C351	C35	0.371000	0.173000	0.440000
C361	C36	0.367170	0.039000	0.481000
C371	C37	0.472000	0.376000	0.166600
C381	C38	0.517280	0.372000	0.107400
C391	C39	0.497800	0.387800	0.038400
C401	C40	0.428000	0.402000	0.034300
C411	C41	0.404000	0.393000	0.160000
C421	C42	0.387000	0.413000	0.094360
C431	C43	0.401970	0.389570	0.619500
C441	C44	0.424300	0.323400	0.592500
C451	C45	0.141000	0.486000	0.591000
C461	C46	0.192000	0.444510	0.600000
C471	C47	0.060000	0.443000	0.557000
C481	C48	0.098000	0.334580	0.522000
C491	C49	0.173000	0.371000	0.560000
C501	C50	0.039000	0.367170	0.519000
C511	C51	0.376000	0.472000	0.833400
C521	C52	0.372000	0.517280	0.892600
C531	C53	0.387800	0.497800	0.961600
C541	C54	0.402000	0.428000	0.965700
C551	C55	0.393000	0.404000	0.840000
C561	C56	0.413000	0.387000	0.905640
C571	C57	0.610430	0.012400	0.619500
C581	C58	0.676600	0.100900	0.592500
C591	C59	0.514000	0.655000	0.591000
C601	C60	0.555490	0.747490	0.600000
C611	C61	0.557000	0.617000	0.557000
C621	C62	0.665420	0.763420	0.522000
C631	C63	0.629000	0.802000	0.560000
C641	C64	0.632830	0.671830	0.519000
C651	C65	0.528000	0.904000	0.833400
C661	C66	0.482720	0.854720	0.892600
C671	C67	0.502200	0.890000	0.961600
C681	C68	0.572000	0.974000	0.965700
C691	C69	0.596000	0.989000	0.840000
C701	C70	0.613000	0.026000	0.905640
C711	C71	0.987600	0.598030	0.619500
C721	C72	0.899100	0.575700	0.592500
C731	C73	0.345000	0.859000	0.591000
C741	C74	0.252510	0.808000	0.600000
C751	C75	0.383000	0.940000	0.557000
C761	C76	0.236580	0.902000	0.522000
C771	C77	0.198000	0.827000	0.560000
C781	C78	0.328170	0.961000	0.519000
C791	C79	0.096000	0.624000	0.833400
C801	C80	0.145280	0.628000	0.892600
C811	C81	0.110000	0.612200	0.961600
C821	C82	0.026000	0.598000	0.965700
C831	C83	0.011000	0.607000	0.840000
C841	C84	0.974000	0.587000	0.905640
N11	N1	0.761100	0.500100	0.360000
N21	N2	0.684660	0.438660	0.336000
N31	N3	0.618000	0.445000	0.366000
N41	N4	0.853000	0.486000	0.223500
N51	N5	0.778000	0.422000	0.199200
N61	N6	0.776010	0.417010	0.129300
N71	N7	0.739000	0.238900	0.360000
N81	N8	0.754000	0.315340	0.336000
N91	N9	0.827000	0.382000	0.366000
N101	N10	0.633000	0.147000	0.223500
N111	N11	0.644000	0.222000	0.199200
N121	N12	0.641000	0.223990	0.129300
N131	N13	0.499900	0.261000	0.360000
N141	N14	0.561340	0.246000	0.336000
N151	N15	0.555000	0.173000	0.366000
N161	N16	0.514000	0.367000	0.223500
N171	N17	0.578000	0.356000	0.199200
N181	N18	0.582990	0.359000	0.129300
N191	N19	0.261000	0.499900	0.640000
N201	N20	0.246000	0.561340	0.664000
N211	N21	0.173000	0.555000	0.634000
N221	N22	0.367000	0.514000	0.776500
N231	N23	0.356000	0.578000	0.800800
N241	N24	0.359000	0.582990	0.870700
N251	N25	0.500100	0.761100	0.640000
N261	N26	0.438660	0.684660	0.664000
N271	N27	0.445000	0.618000	0.634000
N281	N28	0.486000	0.853000	0.776500
N291	N29	0.422000	0.778000	0.800800
N301	N30	0.417010	0.776010	0.870700
N311	N31	0.238900	0.739000	0.640000
N321	N32	0.315340	0.754000	0.664000
N331	N33	0.382000	0.827000	0.634000
N341	N34	0.147000	0.633000	0.776500
N351	N35	0.222000	0.644000	0.800800
N361	N36	0.223990	0.641000	0.870700
O11	O1	0.941000	0.563000	0.427000
O21	O2	0.999000	0.601700	0.325200
O31	O3	0.622000	0.059000	0.427000
O41	O4	0.602700	0.001000	0.325200
O51	O5	0.437000	0.378000	0.427000
O61	O6	0.398300	0.397300	0.325200
O71	O7	0.378000	0.437000	0.573000
O81	O8	0.397300	0.398300	0.674800
O91	O9	0.563000	0.941000	0.573000
O101	O10	0.601700	0.999000	0.674800
O111	O11	0.059000	0.622000	0.573000
O121	O12	0.001000	0.602700	0.674800
