data_HIHFUB_freeONLY_PM
_symmetry_space_group_name_H-M	'P1'
_cell_length_a	24.302100
_cell_length_b	16.014200
_cell_length_c	22.001800
_cell_angle_alpha	90.000000
_cell_angle_beta	100.138000
_cell_angle_gamma	90.000000
_symmetry_Int_Tables_number 1

loop_
_symmetry_equiv_pos_as_xyz
'x,y,z'

loop_
_atom_site_label
_atom_site_type_symbol
_atom_site_fract_x
_atom_site_fract_y
_atom_site_fract_z
C11	C1	0.300100	0.229660	0.724460
O11	O1	0.265600	0.929920	0.124610
C21	C2	0.289160	0.619080	0.057940
C31	C3	0.293230	0.987100	0.153200
O21	O2	0.300170	0.993300	0.210330
C41	C4	0.310580	0.534290	0.045920
C51	C5	0.301520	0.467470	0.081960
H11	H1	0.281900	0.475200	0.114200
C61	C6	0.340610	0.520760	0.998910
H21	H2	0.347200	0.565100	0.973900
C71	C7	0.319520	0.237810	0.793170
C81	C8	0.393270	0.232100	0.881460
H31	H3	0.430800	0.222700	0.897600
C91	C9	0.282790	0.261000	0.831390
H41	H4	0.245400	0.270900	0.815000
Nd11	Nd1	0.758190	0.288430	0.095450
O31	O3	0.284130	0.638130	0.111680
Si11	Si1	0.380080	0.270930	0.005990
O41	O4	0.665420	0.210160	0.064990
O51	O5	0.334490	0.216630	0.689160
O61	O6	0.277710	0.671260	0.013900
O71	O7	0.661130	0.334320	0.106270
C101	C10	0.374610	0.222800	0.818200
H51	H5	0.399500	0.206400	0.792800
O81	O8	0.248010	0.236700	0.703890
C111	C11	0.457840	0.272230	0.027770
C121	C12	0.357120	0.255260	0.921070
C131	C13	0.354020	0.184950	0.049790
C141	C14	0.351870	0.374940	0.024400
C151	C15	0.636950	0.271310	0.079350
C161	C16	0.575120	0.270320	0.062430
C171	C17	0.546520	0.200300	0.038820
H61	H6	0.566200	0.151700	0.033800
C181	C18	0.303110	0.055800	0.055920
H71	H7	0.281400	0.013200	0.035400
C191	C19	0.489130	0.200730	0.022360
H81	H8	0.470800	0.152000	0.007300
O91	O9	0.844150	0.326930	0.057760
C201	C20	0.316050	0.054400	0.118740
C211	C21	0.360860	0.443270	0.988660
H91	H9	0.381200	0.436200	0.956900
C221	C22	0.367190	0.182000	0.114130
H101	H10	0.389800	0.223500	0.135000
C231	C23	0.487530	0.342890	0.051250
H111	H11	0.468100	0.392000	0.055500
C241	C24	0.301900	0.269400	0.894320
H121	H12	0.276700	0.285100	0.919500
C251	C25	0.321030	0.389390	0.071210
H131	H13	0.313500	0.345000	0.095700
C261	C26	0.347500	0.118800	0.147840
H141	H14	0.355700	0.120200	0.190700
C271	C27	0.545000	0.342300	0.068390
H151	H15	0.563600	0.390600	0.084000
C281	C28	0.321920	0.120100	0.021710
H161	H16	0.312500	0.119100	0.978900
C291	C29	0.800100	0.729660	0.724460
O101	O10	0.765600	0.429920	0.124610
C301	C30	0.789160	0.119080	0.057940
C311	C31	0.793230	0.487100	0.153200
O111	O11	0.800170	0.493300	0.210330
C321	C32	0.810580	0.034290	0.045920
C331	C33	0.801520	0.967470	0.081960
H171	H17	0.781900	0.975200	0.114200
C341	C34	0.840610	0.020760	0.998910
H181	H18	0.847200	0.065100	0.973900
C351	C35	0.819520	0.737810	0.793170
C361	C36	0.893270	0.732100	0.881460
H191	H19	0.930800	0.722700	0.897600
C371	C37	0.782790	0.761000	0.831390
H201	H20	0.745400	0.770900	0.815000
Nd21	Nd2	0.258190	0.788430	0.095450
O121	O12	0.784130	0.138130	0.111680
Si21	Si2	0.880080	0.770930	0.005990
O131	O13	0.165420	0.710160	0.064990
O141	O14	0.834490	0.716630	0.689160
O151	O15	0.777710	0.171260	0.013900
O161	O16	0.161130	0.834320	0.106270
C381	C38	0.874610	0.722800	0.818200
H211	H21	0.899500	0.706400	0.792800
O171	O17	0.748010	0.736700	0.703890
C391	C39	0.957840	0.772230	0.027770
C401	C40	0.857120	0.755260	0.921070
C411	C41	0.854020	0.684950	0.049790
C421	C42	0.851870	0.874940	0.024400
C431	C43	0.136950	0.771310	0.079350
C441	C44	0.075120	0.770320	0.062430
C451	C45	0.046520	0.700300	0.038820
H221	H22	0.066200	0.651700	0.033800
C461	C46	0.803110	0.555800	0.055920
H231	H23	0.781400	0.513200	0.035400
C471	C47	0.989130	0.700730	0.022360
H241	H24	0.970800	0.652000	0.007300
O181	O18	0.344150	0.826930	0.057760
C481	C48	0.816050	0.554400	0.118740
C491	C49	0.860860	0.943270	0.988660
H251	H25	0.881200	0.936200	0.956900
C501	C50	0.867190	0.682000	0.114130
H261	H26	0.889800	0.723500	0.135000
C511	C51	0.987530	0.842890	0.051250
H271	H27	0.968100	0.892000	0.055500
C521	C52	0.801900	0.769400	0.894320
H281	H28	0.776700	0.785100	0.919500
C531	C53	0.821030	0.889390	0.071210
H291	H29	0.813500	0.845000	0.095700
C541	C54	0.847500	0.618800	0.147840
H301	H30	0.855700	0.620200	0.190700
C551	C55	0.045000	0.842300	0.068390
H311	H31	0.063600	0.890600	0.084000
C561	C56	0.821920	0.620100	0.021710
H321	H32	0.812500	0.619100	0.978900
C571	C57	0.699900	0.229660	0.775540
O191	O19	0.734400	0.929920	0.375390
C581	C58	0.710840	0.619080	0.442060
C591	C59	0.706770	0.987100	0.346800
O201	O20	0.699830	0.993300	0.289670
C601	C60	0.689420	0.534290	0.454080
C611	C61	0.698480	0.467470	0.418040
H331	H33	0.718100	0.475200	0.385800
C621	C62	0.659390	0.520760	0.501090
H341	H34	0.652800	0.565100	0.526100
C631	C63	0.680480	0.237810	0.706830
C641	C64	0.606730	0.232100	0.618540
H351	H35	0.569200	0.222700	0.602400
C651	C65	0.717210	0.261000	0.668610
H361	H36	0.754600	0.270900	0.685000
Nd31	Nd3	0.241810	0.288430	0.404550
O211	O21	0.715870	0.638130	0.388320
Si31	Si3	0.619920	0.270930	0.494010
O221	O22	0.334580	0.210160	0.435010
O231	O23	0.665510	0.216630	0.810840
O241	O24	0.722290	0.671260	0.486100
O251	O25	0.338870	0.334320	0.393730
C661	C66	0.625390	0.222800	0.681800
H371	H37	0.600500	0.206400	0.707200
O261	O26	0.751990	0.236700	0.796110
C671	C67	0.542160	0.272230	0.472230
C681	C68	0.642880	0.255260	0.578930
C691	C69	0.645980	0.184950	0.450210
C701	C70	0.648130	0.374940	0.475600
C711	C71	0.363050	0.271310	0.420650
C721	C72	0.424880	0.270320	0.437570
C731	C73	0.453480	0.200300	0.461180
H381	H38	0.433800	0.151700	0.466200
C741	C74	0.696890	0.055800	0.444080
H391	H39	0.718600	0.013200	0.464600
C751	C75	0.510870	0.200730	0.477640
H401	H40	0.529200	0.152000	0.492700
O271	O27	0.155850	0.326930	0.442240
C761	C76	0.683950	0.054400	0.381260
C771	C77	0.639140	0.443270	0.511340
H411	H41	0.618800	0.436200	0.543100
C781	C78	0.632810	0.182000	0.385870
H421	H42	0.610200	0.223500	0.365000
C791	C79	0.512470	0.342890	0.448750
H431	H43	0.531900	0.392000	0.444500
C801	C80	0.698100	0.269400	0.605680
H441	H44	0.723300	0.285100	0.580500
C811	C81	0.678970	0.389390	0.428790
H451	H45	0.686500	0.345000	0.404300
C821	C82	0.652500	0.118800	0.352160
H461	H46	0.644300	0.120200	0.309300
C831	C83	0.455000	0.342300	0.431610
H471	H47	0.436400	0.390600	0.416000
C841	C84	0.678080	0.120100	0.478290
H481	H48	0.687500	0.119100	0.521100
C851	C85	0.199900	0.729660	0.775540
O281	O28	0.234400	0.429920	0.375390
C861	C86	0.210840	0.119080	0.442060
C871	C87	0.206770	0.487100	0.346800
O291	O29	0.199830	0.493300	0.289670
C881	C88	0.189420	0.034290	0.454080
C891	C89	0.198480	0.967470	0.418040
H491	H49	0.218100	0.975200	0.385800
C901	C90	0.159390	0.020760	0.501090
H501	H50	0.152800	0.065100	0.526100
C911	C91	0.180480	0.737810	0.706830
C921	C92	0.106730	0.732100	0.618540
H511	H51	0.069200	0.722700	0.602400
C931	C93	0.217210	0.761000	0.668610
H521	H52	0.254600	0.770900	0.685000
Nd41	Nd4	0.741810	0.788430	0.404550
O301	O30	0.215870	0.138130	0.388320
Si41	Si4	0.119920	0.770930	0.494010
O311	O31	0.834580	0.710160	0.435010
O321	O32	0.165510	0.716630	0.810840
O331	O33	0.222290	0.171260	0.486100
O341	O34	0.838870	0.834320	0.393730
C941	C94	0.125390	0.722800	0.681800
H531	H53	0.100500	0.706400	0.707200
O351	O35	0.251990	0.736700	0.796110
C951	C95	0.042160	0.772230	0.472230
C961	C96	0.142880	0.755260	0.578930
C971	C97	0.145980	0.684950	0.450210
C981	C98	0.148130	0.874940	0.475600
C991	C99	0.863050	0.771310	0.420650
C1001	C100	0.924880	0.770320	0.437570
C1011	C101	0.953480	0.700300	0.461180
H541	H54	0.933800	0.651700	0.466200
C1021	C102	0.196890	0.555800	0.444080
H551	H55	0.218600	0.513200	0.464600
C1031	C103	0.010870	0.700730	0.477640
H561	H56	0.029200	0.652000	0.492700
O361	O36	0.655850	0.826930	0.442240
C1041	C104	0.183950	0.554400	0.381260
C1051	C105	0.139140	0.943270	0.511340
H571	H57	0.118800	0.936200	0.543100
C1061	C106	0.132810	0.682000	0.385870
H581	H58	0.110200	0.723500	0.365000
C1071	C107	0.012470	0.842890	0.448750
H591	H59	0.031900	0.892000	0.444500
C1081	C108	0.198100	0.769400	0.605680
H601	H60	0.223300	0.785100	0.580500
C1091	C109	0.178970	0.889390	0.428790
H611	H61	0.186500	0.845000	0.404300
C1101	C110	0.152500	0.618800	0.352160
H621	H62	0.144300	0.620200	0.309300
C1111	C111	0.955000	0.842300	0.431610
H631	H63	0.936400	0.890600	0.416000
C1121	C112	0.178080	0.620100	0.478290
H641	H64	0.187500	0.619100	0.521100
C1131	C113	0.699900	0.770340	0.275540
O371	O37	0.734400	0.070080	0.875390
C1141	C114	0.710840	0.380920	0.942060
C1151	C115	0.706770	0.012900	0.846800
O381	O38	0.699830	0.006700	0.789670
C1161	C116	0.689420	0.465710	0.954080
C1171	C117	0.698480	0.532530	0.918040
H651	H65	0.718100	0.524800	0.885800
C1181	C118	0.659390	0.479240	0.001090
H661	H66	0.652800	0.434900	0.026100
C1191	C119	0.680480	0.762190	0.206830
C1201	C120	0.606730	0.767900	0.118540
H671	H67	0.569200	0.777300	0.102400
C1211	C121	0.717210	0.739000	0.168610
H681	H68	0.754600	0.729100	0.185000
Nd51	Nd5	0.241810	0.711570	0.904550
O391	O39	0.715870	0.361870	0.888320
Si51	Si5	0.619920	0.729070	0.994010
O401	O40	0.334580	0.789840	0.935010
O411	O41	0.665510	0.783370	0.310840
O421	O42	0.722290	0.328740	0.986100
O431	O43	0.338870	0.665680	0.893730
C1221	C122	0.625390	0.777200	0.181800
H691	H69	0.600500	0.793600	0.207200
O441	O44	0.751990	0.763300	0.296110
C1231	C123	0.542160	0.727770	0.972230
C1241	C124	0.642880	0.744740	0.078930
C1251	C125	0.645980	0.815050	0.950210
C1261	C126	0.648130	0.625060	0.975600
C1271	C127	0.363050	0.728690	0.920650
C1281	C128	0.424880	0.729680	0.937570
C1291	C129	0.453480	0.799700	0.961180
H701	H70	0.433800	0.848300	0.966200
C1301	C130	0.696890	0.944200	0.944080
H711	H71	0.718600	0.986800	0.964600
C1311	C131	0.510870	0.799270	0.977640
H721	H72	0.529200	0.848000	0.992700
O451	O45	0.155850	0.673070	0.942240
C1321	C132	0.683950	0.945600	0.881260
C1331	C133	0.639140	0.556730	0.011340
H731	H73	0.618800	0.563800	0.043100
C1341	C134	0.632810	0.818000	0.885870
H741	H74	0.610200	0.776500	0.865000
C1351	C135	0.512470	0.657110	0.948750
H751	H75	0.531900	0.608000	0.944500
C1361	C136	0.698100	0.730600	0.105680
H761	H76	0.723300	0.714900	0.080500
C1371	C137	0.678970	0.610610	0.928790
H771	H77	0.686500	0.655000	0.904300
C1381	C138	0.652500	0.881200	0.852160
H781	H78	0.644300	0.879800	0.809300
C1391	C139	0.455000	0.657700	0.931610
H791	H79	0.436400	0.609400	0.916000
C1401	C140	0.678080	0.879900	0.978290
H801	H80	0.687500	0.880900	0.021100
C1411	C141	0.199900	0.270340	0.275540
O461	O46	0.234400	0.570080	0.875390
C1421	C142	0.210840	0.880920	0.942060
C1431	C143	0.206770	0.512900	0.846800
O471	O47	0.199830	0.506700	0.789670
C1441	C144	0.189420	0.965710	0.954080
C1451	C145	0.198480	0.032530	0.918040
H811	H81	0.218100	0.024800	0.885800
C1461	C146	0.159390	0.979240	0.001090
H821	H82	0.152800	0.934900	0.026100
C1471	C147	0.180480	0.262190	0.206830
C1481	C148	0.106730	0.267900	0.118540
H831	H83	0.069200	0.277300	0.102400
C1491	C149	0.217210	0.239000	0.168610
H841	H84	0.254600	0.229100	0.185000
Nd61	Nd6	0.741810	0.211570	0.904550
O481	O48	0.215870	0.861870	0.888320
Si61	Si6	0.119920	0.229070	0.994010
O491	O49	0.834580	0.289840	0.935010
O501	O50	0.165510	0.283370	0.310840
O511	O51	0.222290	0.828740	0.986100
O521	O52	0.838870	0.165680	0.893730
C1501	C150	0.125390	0.277200	0.181800
H851	H85	0.100500	0.293600	0.207200
O531	O53	0.251990	0.263300	0.296110
C1511	C151	0.042160	0.227770	0.972230
C1521	C152	0.142880	0.244740	0.078930
C1531	C153	0.145980	0.315050	0.950210
C1541	C154	0.148130	0.125060	0.975600
C1551	C155	0.863050	0.228690	0.920650
C1561	C156	0.924880	0.229680	0.937570
C1571	C157	0.953480	0.299700	0.961180
H861	H86	0.933800	0.348300	0.966200
C1581	C158	0.196890	0.444200	0.944080
H871	H87	0.218600	0.486800	0.964600
C1591	C159	0.010870	0.299270	0.977640
H881	H88	0.029200	0.348000	0.992700
O541	O54	0.655850	0.173070	0.942240
C1601	C160	0.183950	0.445600	0.881260
C1611	C161	0.139140	0.056730	0.011340
H891	H89	0.118800	0.063800	0.043100
C1621	C162	0.132810	0.318000	0.885870
H901	H90	0.110200	0.276500	0.865000
C1631	C163	0.012470	0.157110	0.948750
H911	H91	0.031900	0.108000	0.944500
C1641	C164	0.198100	0.230600	0.105680
H921	H92	0.223300	0.214900	0.080500
C1651	C165	0.178970	0.110610	0.928790
H931	H93	0.186500	0.155000	0.904300
C1661	C166	0.152500	0.381200	0.852160
H941	H94	0.144300	0.379800	0.809300
C1671	C167	0.955000	0.157700	0.931610
H951	H95	0.936400	0.109400	0.916000
C1681	C168	0.178080	0.379900	0.978290
H961	H96	0.187500	0.380900	0.021100
C1691	C169	0.300100	0.770340	0.224460
O551	O55	0.265600	0.070080	0.624610
C1701	C170	0.289160	0.380920	0.557940
C1711	C171	0.293230	0.012900	0.653200
O561	O56	0.300170	0.006700	0.710330
C1721	C172	0.310580	0.465710	0.545920
C1731	C173	0.301520	0.532530	0.581960
H971	H97	0.281900	0.524800	0.614200
C1741	C174	0.340610	0.479240	0.498910
H981	H98	0.347200	0.434900	0.473900
C1751	C175	0.319520	0.762190	0.293170
C1761	C176	0.393270	0.767900	0.381460
H991	H99	0.430800	0.777300	0.397600
C1771	C177	0.282790	0.739000	0.331390
H1001	H100	0.245400	0.729100	0.315000
Nd71	Nd7	0.758190	0.711570	0.595450
O571	O57	0.284130	0.361870	0.611680
Si71	Si7	0.380080	0.729070	0.505990
O581	O58	0.665420	0.789840	0.564990
O591	O59	0.334490	0.783370	0.189160
O601	O60	0.277710	0.328740	0.513900
O611	O61	0.661130	0.665680	0.606270
C1781	C178	0.374610	0.777200	0.318200
H1011	H101	0.399500	0.793600	0.292800
O621	O62	0.248010	0.763300	0.203890
C1791	C179	0.457840	0.727770	0.527770
C1801	C180	0.357120	0.744740	0.421070
C1811	C181	0.354020	0.815050	0.549790
C1821	C182	0.351870	0.625060	0.524400
C1831	C183	0.636950	0.728690	0.579350
C1841	C184	0.575120	0.729680	0.562430
C1851	C185	0.546520	0.799700	0.538820
H1021	H102	0.566200	0.848300	0.533800
C1861	C186	0.303110	0.944200	0.555920
H1031	H103	0.281400	0.986800	0.535400
C1871	C187	0.489130	0.799270	0.522360
H1041	H104	0.470800	0.848000	0.507300
O631	O63	0.844150	0.673070	0.557760
C1881	C188	0.316050	0.945600	0.618740
C1891	C189	0.360860	0.556730	0.488660
H1051	H105	0.381200	0.563800	0.456900
C1901	C190	0.367190	0.818000	0.614130
H1061	H106	0.389800	0.776500	0.635000
C1911	C191	0.487530	0.657110	0.551250
H1071	H107	0.468100	0.608000	0.555500
C1921	C192	0.301900	0.730600	0.394320
H1081	H108	0.276700	0.714900	0.419500
C1931	C193	0.321030	0.610610	0.571210
H1091	H109	0.313500	0.655000	0.595700
C1941	C194	0.347500	0.881200	0.647840
H1101	H110	0.355700	0.879800	0.690700
C1951	C195	0.545000	0.657700	0.568390
H1111	H111	0.563600	0.609400	0.584000
C1961	C196	0.321920	0.879900	0.521710
H1121	H112	0.312500	0.880900	0.478900
C1971	C197	0.800100	0.270340	0.224460
O641	O64	0.765600	0.570080	0.624610
C1981	C198	0.789160	0.880920	0.557940
C1991	C199	0.793230	0.512900	0.653200
O651	O65	0.800170	0.506700	0.710330
C2001	C200	0.810580	0.965710	0.545920
C2011	C201	0.801520	0.032530	0.581960
H1131	H113	0.781900	0.024800	0.614200
C2021	C202	0.840610	0.979240	0.498910
H1141	H114	0.847200	0.934900	0.473900
C2031	C203	0.819520	0.262190	0.293170
C2041	C204	0.893270	0.267900	0.381460
H1151	H115	0.930800	0.277300	0.397600
C2051	C205	0.782790	0.239000	0.331390
H1161	H116	0.745400	0.229100	0.315000
Nd81	Nd8	0.258190	0.211570	0.595450
O661	O66	0.784130	0.861870	0.611680
Si81	Si8	0.880080	0.229070	0.505990
O671	O67	0.165420	0.289840	0.564990
O681	O68	0.834490	0.283370	0.189160
O691	O69	0.777710	0.828740	0.513900
O701	O70	0.161130	0.165680	0.606270
C2061	C206	0.874610	0.277200	0.318200
H1171	H117	0.899500	0.293600	0.292800
O711	O71	0.748010	0.263300	0.203890
C2071	C207	0.957840	0.227770	0.527770
C2081	C208	0.857120	0.244740	0.421070
C2091	C209	0.854020	0.315050	0.549790
C2101	C210	0.851870	0.125060	0.524400
C2111	C211	0.136950	0.228690	0.579350
C2121	C212	0.075120	0.229680	0.562430
C2131	C213	0.046520	0.299700	0.538820
H1181	H118	0.066200	0.348300	0.533800
C2141	C214	0.803110	0.444200	0.555920
H1191	H119	0.781400	0.486800	0.535400
C2151	C215	0.989130	0.299270	0.522360
H1201	H120	0.970800	0.348000	0.507300
O721	O72	0.344150	0.173070	0.557760
C2161	C216	0.816050	0.445600	0.618740
C2171	C217	0.860860	0.056730	0.488660
H1211	H121	0.881200	0.063800	0.456900
C2181	C218	0.867190	0.318000	0.614130
H1221	H122	0.889800	0.276500	0.635000
C2191	C219	0.987530	0.157110	0.551250
H1231	H123	0.968100	0.108000	0.555500
C2201	C220	0.801900	0.230600	0.394320
H1241	H124	0.776700	0.214900	0.419500
C2211	C221	0.821030	0.110610	0.571210
H1251	H125	0.813500	0.155000	0.595700
C2221	C222	0.847500	0.381200	0.647840
H1261	H126	0.855700	0.379800	0.690700
C2231	C223	0.045000	0.157700	0.568390
H1271	H127	0.063600	0.109400	0.584000
C2241	C224	0.821920	0.379900	0.521710
H1281	H128	0.812500	0.380900	0.478900
