data_HIHGIQ_freeONLY_PM
_symmetry_space_group_name_H-M	'P1'
_cell_length_a	16.034600
_cell_length_b	16.034600
_cell_length_c	26.471000
_cell_angle_alpha	84.311700
_cell_angle_beta	84.311700
_cell_angle_gamma	84.368300
_symmetry_Int_Tables_number 1

loop_
_symmetry_equiv_pos_as_xyz
'x,y,z'

loop_
_atom_site_label
_atom_site_type_symbol
_atom_site_fract_x
_atom_site_fract_y
_atom_site_fract_z
Co11	Co1	0.727220	0.321220	0.493490
Co21	Co2	0.897540	0.306180	0.470330
Co31	Co3	0.321220	0.727220	0.993490
Co41	Co4	0.306180	0.897540	0.970330
H11	H1	0.678000	0.559200	0.394100
H21	H2	0.675900	0.686900	0.344600
H31	H3	0.925800	0.664600	0.329400
H41	H4	0.927900	0.538100	0.377400
H51	H5	0.697600	0.823200	0.299600
H61	H6	0.714300	0.750500	0.263000
H71	H7	0.646800	0.920400	0.221400
H81	H8	0.708500	0.927100	0.171200
H91	H9	0.600700	0.698500	0.163200
H101	H10	0.494000	0.692000	0.111500
H111	H11	0.469400	0.940800	0.088700
H121	H12	0.574400	0.948200	0.142500
H131	H13	0.850600	0.914000	0.273800
H141	H14	0.823500	0.973300	0.226100
H151	H15	0.648300	0.052900	0.344100
H161	H16	0.674400	0.158600	0.391000
H171	H17	0.918200	0.132600	0.343300
H181	H18	0.890300	0.030700	0.290700
H191	H19	0.886600	0.796000	0.217000
H201	H20	0.819500	0.768300	0.184100
H211	H21	0.961500	0.732100	0.153500
H221	H22	0.087200	0.710200	0.100800
H231	H23	0.068700	0.950500	0.049600
H241	H24	0.939800	0.970600	0.095700
H251	H25	0.025800	0.393200	0.515100
H261	H26	0.167700	0.390300	0.517500
H271	H27	0.197300	0.205900	0.426800
H281	H28	0.052700	0.211500	0.427500
H291	H29	0.321900	0.249900	0.455700
H301	H30	0.302000	0.379600	0.512100
H311	H31	0.435100	0.456700	0.504800
H321	H32	0.575100	0.440700	0.518100
H331	H33	0.591200	0.208400	0.490500
H341	H34	0.447900	0.215700	0.482100
H351	H35	0.559200	0.678000	0.894100
H361	H36	0.686900	0.675900	0.844600
H371	H37	0.664600	0.925800	0.829400
H381	H38	0.538100	0.927900	0.877400
H391	H39	0.823200	0.697600	0.799600
H401	H40	0.750500	0.714300	0.763000
H411	H41	0.920400	0.646800	0.721400
H421	H42	0.927100	0.708500	0.671200
H431	H43	0.698500	0.600700	0.663200
H441	H44	0.692000	0.494000	0.611500
H451	H45	0.940800	0.469400	0.588700
H461	H46	0.948200	0.574400	0.642500
H471	H47	0.914000	0.850600	0.773800
H481	H48	0.973300	0.823500	0.726100
H491	H49	0.052900	0.648300	0.844100
H501	H50	0.158600	0.674400	0.891000
H511	H51	0.132600	0.918200	0.843300
H521	H52	0.030700	0.890300	0.790700
H531	H53	0.796000	0.886600	0.717000
H541	H54	0.768300	0.819500	0.684100
H551	H55	0.732100	0.961500	0.653500
H561	H56	0.710200	0.087200	0.600800
H571	H57	0.950500	0.068700	0.549600
H581	H58	0.970600	0.939800	0.595700
H591	H59	0.393200	0.025800	0.015100
H601	H60	0.390300	0.167700	0.017500
H611	H61	0.205900	0.197300	0.926800
H621	H62	0.211500	0.052700	0.927500
H631	H63	0.249900	0.321900	0.955700
H641	H64	0.379600	0.302000	0.012100
H651	H65	0.456700	0.435100	0.004800
H661	H66	0.440700	0.575100	0.018100
H671	H67	0.208400	0.591200	0.990500
H681	H68	0.215700	0.447900	0.982100
C11	C1	0.806120	0.453040	0.422860
C21	C2	0.803410	0.534790	0.390450
C31	C3	0.728360	0.580120	0.380640
C41	C4	0.726860	0.656680	0.350930
C51	C5	0.801090	0.687290	0.331000
C61	C6	0.875220	0.643020	0.341890
C71	C7	0.876510	0.567550	0.370880
C81	C8	0.739500	0.795480	0.276290
C91	C9	0.767780	0.858400	0.232690
C101	C10	0.690930	0.890230	0.200810
C111	C11	0.597940	0.824140	0.156370
C121	C12	0.574350	0.747630	0.148100
C131	C13	0.510610	0.744110	0.116940
C141	C14	0.471620	0.815500	0.094100
C151	C15	0.495640	0.891460	0.103660
C161	C16	0.559180	0.896180	0.135630
C171	C17	0.408810	0.810270	0.056600
C181	C18	0.803610	0.934330	0.254090
C191	C19	0.766570	0.035570	0.312070
C201	C20	0.702130	0.070530	0.342720
C211	C21	0.718570	0.132370	0.371310
C221	C22	0.799050	0.157550	0.372030
C231	C23	0.863480	0.118380	0.342660
C241	C24	0.847050	0.056510	0.311350
C251	C25	0.814630	0.220310	0.407520
C261	C26	0.839250	0.816190	0.197560
C271	C27	0.939260	0.854260	0.129210
C281	C28	0.982210	0.776010	0.131790
C291	C29	0.058830	0.763610	0.100700
C301	C30	0.091330	0.828530	0.070830
C311	C31	0.046910	0.905510	0.069770
C321	C32	0.970090	0.918070	0.098130
C331	C33	0.174940	0.816540	0.040730
C341	C34	0.060500	0.353960	0.497300
C351	C35	0.146050	0.352450	0.498880
C361	C36	0.200190	0.295490	0.473280
C371	C37	0.163670	0.244190	0.445900
C381	C38	0.075940	0.248320	0.446090
C391	C39	0.291160	0.291880	0.473250
C401	C40	0.332900	0.338500	0.493950
C411	C41	0.425100	0.336300	0.493200
C421	C42	0.465600	0.404800	0.502000
C431	C43	0.550200	0.396800	0.506700
C441	C44	0.559400	0.260200	0.491200
C451	C45	0.472600	0.263600	0.487900
C461	C46	0.453040	0.806120	0.922860
C471	C47	0.534790	0.803410	0.890450
C481	C48	0.580120	0.728360	0.880640
C491	C49	0.656680	0.726860	0.850930
C501	C50	0.687290	0.801090	0.831000
C511	C51	0.643020	0.875220	0.841890
C521	C52	0.567550	0.876510	0.870880
C531	C53	0.795480	0.739500	0.776290
C541	C54	0.858400	0.767780	0.732690
C551	C55	0.890230	0.690930	0.700810
C561	C56	0.824140	0.597940	0.656370
C571	C57	0.747630	0.574350	0.648100
C581	C58	0.744110	0.510610	0.616940
C591	C59	0.815500	0.471620	0.594100
C601	C60	0.891460	0.495640	0.603660
C611	C61	0.896180	0.559180	0.635630
C621	C62	0.810270	0.408810	0.556600
C631	C63	0.934330	0.803610	0.754090
C641	C64	0.035570	0.766570	0.812070
C651	C65	0.070530	0.702130	0.842720
C661	C66	0.132370	0.718570	0.871310
C671	C67	0.157550	0.799050	0.872030
C681	C68	0.118380	0.863480	0.842660
C691	C69	0.056510	0.847050	0.811350
C701	C70	0.220310	0.814630	0.907520
C711	C71	0.816190	0.839250	0.697560
C721	C72	0.854260	0.939260	0.629210
C731	C73	0.776010	0.982210	0.631790
C741	C74	0.763610	0.058830	0.600700
C751	C75	0.828530	0.091330	0.570830
C761	C76	0.905510	0.046910	0.569770
C771	C77	0.918070	0.970090	0.598130
C781	C78	0.816540	0.174940	0.540730
C791	C79	0.353960	0.060500	0.997300
C801	C80	0.352450	0.146050	0.998880
C811	C81	0.295490	0.200190	0.973280
C821	C82	0.244190	0.163670	0.945900
C831	C83	0.248320	0.075940	0.946090
C841	C84	0.291880	0.291160	0.973250
C851	C85	0.338500	0.332900	0.993950
C861	C86	0.336300	0.425100	0.993200
C871	C87	0.404800	0.465600	0.002000
C881	C88	0.396800	0.550200	0.006700
C891	C89	0.260200	0.559400	0.991200
C901	C90	0.263600	0.472600	0.987900
N11	N1	0.597000	0.327000	0.495000
N21	N2	0.025130	0.302090	0.471470
N31	N3	0.327000	0.597000	0.995000
N41	N4	0.302090	0.025130	0.971470
O11	O1	0.737180	0.428760	0.443810
O21	O2	0.877110	0.414190	0.427200
O31	O3	0.808520	0.762380	0.301980
O41	O4	0.663520	0.817580	0.186380
O51	O5	0.391140	0.736980	0.050140
O61	O6	0.378870	0.876210	0.033680
O71	O7	0.741040	0.974000	0.284240
O81	O8	0.889200	0.235160	0.411670
O91	O9	0.750630	0.252410	0.433080
O101	O10	0.864530	0.874030	0.157700
O111	O11	0.211420	0.744220	0.038620
O121	O12	0.202840	0.882680	0.017990
O131	O13	0.428760	0.737180	0.943810
O141	O14	0.414190	0.877110	0.927200
O151	O15	0.762380	0.808520	0.801980
O161	O16	0.817580	0.663520	0.686380
O171	O17	0.736980	0.391140	0.550140
O181	O18	0.876210	0.378870	0.533680
O191	O19	0.974000	0.741040	0.784240
O201	O20	0.235160	0.889200	0.911670
O211	O21	0.252410	0.750630	0.933080
O221	O22	0.874030	0.864530	0.657700
O231	O23	0.744220	0.211420	0.538620
O241	O24	0.882680	0.202840	0.517990
Co51	Co5	0.678780	0.272780	0.006510
Co61	Co6	0.693820	0.102460	0.029670
Co71	Co7	0.272780	0.678780	0.506510
Co81	Co8	0.102460	0.693820	0.529670
H691	H69	0.440800	0.322000	0.105900
H701	H70	0.313100	0.324100	0.155400
H711	H71	0.335400	0.074200	0.170600
H721	H72	0.461900	0.072100	0.122600
H731	H73	0.176800	0.302400	0.200400
H741	H74	0.249500	0.285700	0.237000
H751	H75	0.079600	0.353200	0.278600
H761	H76	0.072900	0.291500	0.328800
H771	H77	0.301500	0.399300	0.336800
H781	H78	0.308000	0.506000	0.388500
H791	H79	0.059200	0.530600	0.411300
H801	H80	0.051800	0.425600	0.357500
H811	H81	0.086000	0.149400	0.226200
H821	H82	0.026700	0.176500	0.273900
H831	H83	0.947100	0.351700	0.155900
H841	H84	0.841400	0.325600	0.109000
H851	H85	0.867400	0.081800	0.156700
H861	H86	0.969300	0.109700	0.209300
H871	H87	0.204000	0.113400	0.283000
H881	H88	0.231700	0.180500	0.315900
H891	H89	0.267900	0.038500	0.346500
H901	H90	0.289800	0.912800	0.399200
H911	H91	0.049500	0.931300	0.450400
H921	H92	0.029400	0.060200	0.404300
H931	H93	0.606800	0.974200	0.984900
H941	H94	0.609700	0.832300	0.982500
H951	H95	0.794100	0.802700	0.073200
H961	H96	0.788500	0.947300	0.072500
H971	H97	0.750100	0.678100	0.044300
H981	H98	0.620400	0.698000	0.987900
H991	H99	0.543300	0.564900	0.995200
H1001	H100	0.559300	0.424900	0.981900
H1011	H101	0.791600	0.408800	0.009500
H1021	H102	0.784300	0.552100	0.017900
H1031	H103	0.322000	0.440800	0.605900
H1041	H104	0.324100	0.313100	0.655400
H1051	H105	0.074200	0.335400	0.670600
H1061	H106	0.072100	0.461900	0.622600
H1071	H107	0.302400	0.176800	0.700400
H1081	H108	0.285700	0.249500	0.737000
H1091	H109	0.353200	0.079600	0.778600
H1101	H110	0.291500	0.072900	0.828800
H1111	H111	0.399300	0.301500	0.836800
H1121	H112	0.506000	0.308000	0.888500
H1131	H113	0.530600	0.059200	0.911300
H1141	H114	0.425600	0.051800	0.857500
H1151	H115	0.149400	0.086000	0.726200
H1161	H116	0.176500	0.026700	0.773900
H1171	H117	0.351700	0.947100	0.655900
H1181	H118	0.325600	0.841400	0.609000
H1191	H119	0.081800	0.867400	0.656700
H1201	H120	0.109700	0.969300	0.709300
H1211	H121	0.113400	0.204000	0.783000
H1221	H122	0.180500	0.231700	0.815900
H1231	H123	0.038500	0.267900	0.846500
H1241	H124	0.912800	0.289800	0.899200
H1251	H125	0.931300	0.049500	0.950400
H1261	H126	0.060200	0.029400	0.904300
H1271	H127	0.974200	0.606800	0.484900
H1281	H128	0.832300	0.609700	0.482500
H1291	H129	0.802700	0.794100	0.573200
H1301	H130	0.947300	0.788500	0.572500
H1311	H131	0.678100	0.750100	0.544300
H1321	H132	0.698000	0.620400	0.487900
H1331	H133	0.564900	0.543300	0.495200
H1341	H134	0.424900	0.559300	0.481900
H1351	H135	0.408800	0.791600	0.509500
H1361	H136	0.552100	0.784300	0.517900
C911	C91	0.546960	0.193880	0.077140
C921	C92	0.465210	0.196590	0.109550
C931	C93	0.419880	0.271640	0.119360
C941	C94	0.343320	0.273140	0.149070
C951	C95	0.312710	0.198910	0.169000
C961	C96	0.356980	0.124780	0.158110
C971	C97	0.432450	0.123490	0.129120
C981	C98	0.204520	0.260500	0.223710
C991	C99	0.141600	0.232220	0.267310
C1001	C100	0.109770	0.309070	0.299190
C1011	C101	0.175860	0.402060	0.343630
C1021	C102	0.252370	0.425650	0.351900
C1031	C103	0.255890	0.489390	0.383060
C1041	C104	0.184500	0.528380	0.405900
C1051	C105	0.108540	0.504360	0.396340
C1061	C106	0.103820	0.440820	0.364370
C1071	C107	0.189730	0.591190	0.443400
C1081	C108	0.065670	0.196390	0.245910
C1091	C109	0.964430	0.233430	0.187930
C1101	C110	0.929470	0.297870	0.157280
C1111	C111	0.867630	0.281430	0.128690
C1121	C112	0.842450	0.200950	0.127970
C1131	C113	0.881620	0.136520	0.157340
C1141	C114	0.943490	0.152950	0.188650
C1151	C115	0.779690	0.185370	0.092480
C1161	C116	0.183810	0.160750	0.302440
C1171	C117	0.145740	0.060740	0.370790
C1181	C118	0.223990	0.017790	0.368210
C1191	C119	0.236390	0.941170	0.399300
C1201	C120	0.171470	0.908670	0.429170
C1211	C121	0.094490	0.953090	0.430230
C1221	C122	0.081930	0.029910	0.401870
C1231	C123	0.183460	0.825060	0.459270
C1241	C124	0.646040	0.939500	0.002700
C1251	C125	0.647550	0.853950	0.001120
C1261	C126	0.704510	0.799810	0.026720
C1271	C127	0.755810	0.836330	0.054100
C1281	C128	0.751680	0.924060	0.053910
C1291	C129	0.708120	0.708840	0.026750
C1301	C130	0.661500	0.667100	0.006050
C1311	C131	0.663700	0.574900	0.006800
C1321	C132	0.595200	0.534400	0.998000
C1331	C133	0.603200	0.449800	0.993300
C1341	C134	0.739800	0.440600	0.008800
C1351	C135	0.736400	0.527400	0.012100
C1361	C136	0.193880	0.546960	0.577140
C1371	C137	0.196590	0.465210	0.609550
C1381	C138	0.271640	0.419880	0.619360
C1391	C139	0.273140	0.343320	0.649070
C1401	C140	0.198910	0.312710	0.669000
C1411	C141	0.124780	0.356980	0.658110
C1421	C142	0.123490	0.432450	0.629120
C1431	C143	0.260500	0.204520	0.723710
C1441	C144	0.232220	0.141600	0.767310
C1451	C145	0.309070	0.109770	0.799190
C1461	C146	0.402060	0.175860	0.843630
C1471	C147	0.425650	0.252370	0.851900
C1481	C148	0.489390	0.255890	0.883060
C1491	C149	0.528380	0.184500	0.905900
C1501	C150	0.504360	0.108540	0.896340
C1511	C151	0.440820	0.103820	0.864370
C1521	C152	0.591190	0.189730	0.943400
C1531	C153	0.196390	0.065670	0.745910
C1541	C154	0.233430	0.964430	0.687930
C1551	C155	0.297870	0.929470	0.657280
C1561	C156	0.281430	0.867630	0.628690
C1571	C157	0.200950	0.842450	0.627970
C1581	C158	0.136520	0.881620	0.657340
C1591	C159	0.152950	0.943490	0.688650
C1601	C160	0.185370	0.779690	0.592480
C1611	C161	0.160750	0.183810	0.802440
C1621	C162	0.060740	0.145740	0.870790
C1631	C163	0.017790	0.223990	0.868210
C1641	C164	0.941170	0.236390	0.899300
C1651	C165	0.908670	0.171470	0.929170
C1661	C166	0.953090	0.094490	0.930230
C1671	C167	0.029910	0.081930	0.901870
C1681	C168	0.825060	0.183460	0.959270
C1691	C169	0.939500	0.646040	0.502700
C1701	C170	0.853950	0.647550	0.501120
C1711	C171	0.799810	0.704510	0.526720
C1721	C172	0.836330	0.755810	0.554100
C1731	C173	0.924060	0.751680	0.553910
C1741	C174	0.708840	0.708120	0.526750
C1751	C175	0.667100	0.661500	0.506050
C1761	C176	0.574900	0.663700	0.506800
C1771	C177	0.534400	0.595200	0.498000
C1781	C178	0.449800	0.603200	0.493300
C1791	C179	0.440600	0.739800	0.508800
C1801	C180	0.527400	0.736400	0.512100
N51	N5	0.673000	0.403000	0.005000
N61	N6	0.697910	0.974870	0.028530
N71	N7	0.403000	0.673000	0.505000
N81	N8	0.974870	0.697910	0.528530
O251	O25	0.571240	0.262820	0.056190
O261	O26	0.585810	0.122890	0.072800
O271	O27	0.237620	0.191480	0.198020
O281	O28	0.182420	0.336480	0.313620
O291	O29	0.263020	0.608860	0.449860
O301	O30	0.123790	0.621130	0.466320
O311	O31	0.026000	0.258960	0.215760
O321	O32	0.764840	0.110800	0.088330
O331	O33	0.747590	0.249370	0.066920
O341	O34	0.125970	0.135470	0.342300
O351	O35	0.255780	0.788580	0.461380
O361	O36	0.117320	0.797160	0.482010
O371	O37	0.262820	0.571240	0.556190
O381	O38	0.122890	0.585810	0.572800
O391	O39	0.191480	0.237620	0.698020
O401	O40	0.336480	0.182420	0.813620
O411	O41	0.608860	0.263020	0.949860
O421	O42	0.621130	0.123790	0.966320
O431	O43	0.258960	0.026000	0.715760
O441	O44	0.110800	0.764840	0.588330
O451	O45	0.249370	0.747590	0.566920
O461	O46	0.135470	0.125970	0.842300
O471	O47	0.788580	0.255780	0.961380
O481	O48	0.797160	0.117320	0.982010
