data_HIMSAY_freeONLY_PM
_symmetry_space_group_name_H-M	'P1'
_cell_length_a	11.361000
_cell_length_b	12.645000
_cell_length_c	14.775000
_cell_angle_alpha	90.000000
_cell_angle_beta	90.000000
_cell_angle_gamma	90.000000
_symmetry_Int_Tables_number 1

loop_
_symmetry_equiv_pos_as_xyz
'x,y,z'

loop_
_atom_site_label
_atom_site_type_symbol
_atom_site_fract_x
_atom_site_fract_y
_atom_site_fract_z
Zn11	Zn1	0.500000	0.000000	0.750000
Zn21	Zn2	0.500000	0.000000	0.250000
H11	H1	0.693800	0.716700	0.863000
H21	H2	0.829600	0.579900	0.863300
H31	H3	0.707800	0.848800	0.720800
H41	H4	0.911700	0.843500	0.722000
H51	H5	0.306200	0.283300	0.863000
H61	H6	0.170400	0.420100	0.863300
H71	H7	0.292200	0.151200	0.720800
H81	H8	0.088300	0.156500	0.722000
H91	H9	0.306200	0.716700	0.637000
H101	H10	0.170400	0.579900	0.636700
H111	H11	0.292200	0.848800	0.779200
H121	H12	0.088300	0.843500	0.778000
H131	H13	0.693800	0.283300	0.637000
H141	H14	0.829600	0.420100	0.636700
H151	H15	0.707800	0.151200	0.779200
H161	H16	0.911700	0.156500	0.778000
H171	H17	0.306200	0.283300	0.137000
H181	H18	0.170400	0.420100	0.136700
H191	H19	0.292200	0.151200	0.279200
H201	H20	0.088300	0.156500	0.278000
H211	H21	0.693800	0.716700	0.137000
H221	H22	0.829600	0.579900	0.136700
H231	H23	0.707800	0.848800	0.279200
H241	H24	0.911700	0.843500	0.278000
H251	H25	0.693800	0.283300	0.363000
H261	H26	0.829600	0.420100	0.363300
H271	H27	0.707800	0.151200	0.220800
H281	H28	0.911700	0.156500	0.222000
H291	H29	0.306200	0.716700	0.363000
H301	H30	0.170400	0.579900	0.363300
H311	H31	0.292200	0.848800	0.220800
H321	H32	0.088300	0.843500	0.222000
C11	C1	0.536900	0.848000	0.919870
C21	C2	0.719750	0.687890	0.918960
C31	C3	0.801130	0.607460	0.918970
C41	C4	0.919130	0.408930	0.919160
C51	C5	0.750100	0.911920	0.733370
C61	C6	0.871800	0.908170	0.733310
C71	C7	0.463100	0.152000	0.919870
C81	C8	0.280250	0.312110	0.918960
C91	C9	0.198870	0.392540	0.918970
C101	C10	0.080870	0.591070	0.919160
C111	C11	0.249900	0.088080	0.733370
C121	C12	0.128200	0.091830	0.733310
C131	C13	0.463100	0.848000	0.580130
C141	C14	0.280250	0.687890	0.581040
C151	C15	0.198870	0.607460	0.581030
C161	C16	0.080870	0.408930	0.580840
C171	C17	0.249900	0.911920	0.766630
C181	C18	0.128200	0.908170	0.766690
C191	C19	0.536900	0.152000	0.580130
C201	C20	0.719750	0.312110	0.581040
C211	C21	0.801130	0.392540	0.581030
C221	C22	0.919130	0.591070	0.580840
C231	C23	0.750100	0.088080	0.766630
C241	C24	0.871800	0.091830	0.766690
C251	C25	0.463100	0.152000	0.080130
C261	C26	0.280250	0.312110	0.081040
C271	C27	0.198870	0.392540	0.081030
C281	C28	0.080870	0.591070	0.080840
C291	C29	0.249900	0.088080	0.266630
C301	C30	0.128200	0.091830	0.266690
C311	C31	0.536900	0.848000	0.080130
C321	C32	0.719750	0.687890	0.081040
C331	C33	0.801130	0.607460	0.081030
C341	C34	0.919130	0.408930	0.080840
C351	C35	0.750100	0.911920	0.266630
C361	C36	0.871800	0.908170	0.266690
C371	C37	0.536900	0.152000	0.419870
C381	C38	0.719750	0.312110	0.418960
C391	C39	0.801130	0.392540	0.418970
C401	C40	0.919130	0.591070	0.419160
C411	C41	0.750100	0.088080	0.233370
C421	C42	0.871800	0.091830	0.233310
C431	C43	0.463100	0.848000	0.419870
C441	C44	0.280250	0.687890	0.418960
C451	C45	0.198870	0.607460	0.418970
C461	C46	0.080870	0.408930	0.419160
C471	C47	0.249900	0.911920	0.233370
C481	C48	0.128200	0.908170	0.233310
C491	C49	0.934650	0.000000	0.750000
C501	C50	0.065350	0.000000	0.750000
C511	C51	0.065350	0.000000	0.250000
C521	C52	0.934650	0.000000	0.250000
C531	C53	0.582930	0.807640	0.000000
C541	C54	0.674430	0.728070	0.000000
C551	C55	0.841700	0.565800	0.000000
C561	C56	0.933300	0.478060	0.000000
C571	C57	0.417070	0.192360	0.000000
C581	C58	0.325570	0.271930	0.000000
C591	C59	0.158300	0.434200	0.000000
C601	C60	0.066700	0.521940	0.000000
C611	C61	0.417070	0.807640	0.500000
C621	C62	0.325570	0.728070	0.500000
C631	C63	0.158300	0.565800	0.500000
C641	C64	0.066700	0.478060	0.500000
C651	C65	0.582930	0.192360	0.500000
C661	C66	0.674430	0.271930	0.500000
C671	C67	0.841700	0.434200	0.500000
C681	C68	0.933300	0.521940	0.500000
N11	N1	0.500480	0.880250	0.852570
N21	N2	0.906300	0.358320	0.857310
N31	N3	0.499520	0.119750	0.852570
N41	N4	0.093700	0.641680	0.857310
N51	N5	0.499520	0.880250	0.647430
N61	N6	0.093700	0.358320	0.642690
N71	N7	0.500480	0.119750	0.647430
N81	N8	0.906300	0.641680	0.642690
N91	N9	0.499520	0.119750	0.147430
N101	N10	0.093700	0.641680	0.142690
N111	N11	0.500480	0.880250	0.147430
N121	N12	0.906300	0.358320	0.142690
N131	N13	0.500480	0.119750	0.352570
N141	N14	0.906300	0.641680	0.357310
N151	N15	0.499520	0.880250	0.352570
N161	N16	0.093700	0.358320	0.357310
N171	N17	0.689460	0.000000	0.750000
N181	N18	0.310540	0.000000	0.750000
N191	N19	0.310540	0.000000	0.250000
N201	N20	0.689460	0.000000	0.250000
