data_HIQNIG_freeONLY_PM
_symmetry_space_group_name_H-M	'P1'
_cell_length_a	9.053100
_cell_length_b	16.342000
_cell_length_c	19.218000
_cell_angle_alpha	90.000000
_cell_angle_beta	90.000000
_cell_angle_gamma	92.804000
_symmetry_Int_Tables_number 1

loop_
_symmetry_equiv_pos_as_xyz
'x,y,z'

loop_
_atom_site_label
_atom_site_type_symbol
_atom_site_fract_x
_atom_site_fract_y
_atom_site_fract_z
Zn11	Zn1	0.632410	0.596950	0.685540
Zn21	Zn2	0.367590	0.403050	0.314460
Zn31	Zn3	0.132410	0.096950	0.814460
Zn41	Zn4	0.867590	0.903050	0.185540
H11	H1	0.837000	0.303500	0.402100
H21	H2	0.914800	0.818700	0.731300
H31	H3	0.079300	0.262400	0.757800
H41	H4	0.033400	0.372900	0.864000
H51	H5	0.414800	0.318700	0.768700
H61	H6	0.917900	0.331400	0.691300
H71	H7	0.634000	0.473000	0.390400
H81	H8	0.843500	0.500600	0.093700
H91	H9	0.317400	0.566300	0.744500
H101	H10	0.582100	0.168600	0.191300
H111	H11	0.817400	0.066300	0.755500
H121	H12	0.715800	0.125300	0.102400
H131	H13	0.290000	0.346800	0.459500
H141	H14	0.215800	0.625300	0.397600
H151	H15	0.466600	0.127100	0.364000
H161	H16	0.398600	0.173900	0.426300
H171	H17	0.420700	0.237600	0.257800
H181	H18	0.533400	0.872900	0.636000
H191	H19	0.585200	0.681300	0.231300
H201	H20	0.366000	0.527000	0.609600
H211	H21	0.966600	0.627100	0.136000
H221	H22	0.349100	0.869000	0.313200
H231	H23	0.784200	0.374700	0.602400
H241	H24	0.734800	0.054000	0.990400
H251	H25	0.153000	0.614500	0.975900
H261	H26	0.182600	0.933700	0.244500
H271	H27	0.210000	0.153200	0.959500
H281	H28	0.395500	0.753100	0.564000
H291	H29	0.265200	0.946000	0.009600
H301	H30	0.082100	0.668600	0.308700
H311	H31	0.579300	0.762400	0.742200
H321	H32	0.604500	0.246900	0.436000
H331	H33	0.150900	0.631000	0.813200
H341	H34	0.101400	0.326100	0.926300
H351	H35	0.656500	0.999400	0.593700
H361	H36	0.653000	0.114500	0.524100
H371	H37	0.710000	0.653200	0.540500
H381	H38	0.347000	0.885500	0.475900
H391	H39	0.688200	0.085200	0.329800
H401	H40	0.590100	0.683000	0.440300
H411	H41	0.790000	0.846800	0.040500
H421	H42	0.284200	0.874700	0.897600
H431	H43	0.311800	0.914800	0.670200
H441	H44	0.424200	0.749900	0.377600
H451	H45	0.163000	0.696500	0.597900
H461	H46	0.650900	0.131000	0.686800
H471	H47	0.765200	0.446000	0.490400
H481	H48	0.895500	0.253100	0.936000
H491	H49	0.601400	0.826100	0.573700
H501	H50	0.909900	0.817000	0.940300
H511	H51	0.898600	0.673900	0.073700
H521	H52	0.234800	0.554000	0.509600
H531	H53	0.156500	0.499400	0.906300
H541	H54	0.575800	0.250100	0.622400
H551	H55	0.188200	0.585200	0.170200
H561	H56	0.090100	0.183000	0.059700
H571	H57	0.417900	0.831400	0.808700
H581	H58	0.337000	0.803500	0.097900
H591	H59	0.075800	0.750100	0.877600
H601	H60	0.866000	0.027000	0.890400
H611	H61	0.920700	0.737600	0.242200
H621	H62	0.409900	0.317000	0.559700
H631	H63	0.682600	0.433700	0.255500
H641	H64	0.104500	0.746900	0.064000
H651	H65	0.134000	0.973000	0.109600
H661	H66	0.811800	0.414800	0.829800
H671	H67	0.085200	0.181300	0.268700
H681	H68	0.663000	0.196500	0.902100
H691	H69	0.849100	0.369000	0.186800
H701	H70	0.924200	0.249900	0.122400
H711	H71	0.343500	0.000600	0.406300
H721	H72	0.847000	0.385500	0.024100
C11	C1	0.591900	0.450500	0.744100
C21	C2	0.761400	0.341200	0.199900
C31	C3	0.160300	0.880000	0.258500
C41	C4	0.350000	0.757500	0.125300
C51	C5	0.007500	0.764900	0.257100
C61	C6	0.500900	0.315000	0.794700
C71	C7	0.091100	0.568900	0.986200
C81	C8	0.499100	0.685000	0.205300
C91	C9	0.388000	0.365500	0.464800
C101	C10	0.410400	0.560500	0.575700
C111	C11	0.888900	0.122600	0.291400
C121	C12	0.507500	0.264900	0.242900
C131	C13	0.591100	0.068900	0.513800
C141	C14	0.502100	0.929700	0.542900
C151	C15	0.831100	0.224200	0.128500
C161	C16	0.002100	0.429700	0.957100
C171	C17	0.738600	0.158800	0.699900
C181	C18	0.150000	0.742500	0.625300
C191	C19	0.484800	0.145500	0.411300
C201	C20	0.839700	0.120000	0.741500
C211	C21	0.997900	0.570300	0.042900
C221	C22	0.092700	0.499300	0.944200
C231	C23	0.331100	0.724200	0.371500
C241	C24	0.091900	0.950500	0.755900
C251	C25	0.408100	0.549500	0.255900
C261	C26	0.089600	0.939500	0.075700
C271	C27	0.910400	0.060500	0.924300
C281	C28	0.492500	0.735100	0.757100
C291	C29	0.040100	0.153300	0.024900
C301	C30	0.603900	0.223300	0.202400
C311	C31	0.760200	0.127800	0.331200
C321	C32	0.396100	0.776700	0.797600
C331	C33	0.106700	0.871600	0.966000
C341	C34	0.698900	0.343300	0.591300
C351	C35	0.170300	0.922800	0.015800
C361	C36	0.893300	0.128400	0.034000
C371	C37	0.908100	0.049500	0.244100
C381	C38	0.592700	0.999300	0.555800
C391	C39	0.480500	0.752500	0.163300
C401	C40	0.301100	0.656700	0.408700
C411	C41	0.497900	0.070300	0.457100
C421	C42	0.239000	0.695800	0.127200
C431	C43	0.329700	0.577200	0.515800
C441	C44	0.238600	0.658800	0.800100
C451	C45	0.992500	0.235100	0.742900
C461	C46	0.908900	0.431100	0.013800
C471	C47	0.907300	0.500700	0.055800
C481	C48	0.668900	0.275800	0.628500
C491	C49	0.767300	0.238100	0.677900
C501	C50	0.339700	0.620000	0.758500
C511	C51	0.984800	0.645500	0.088700
C521	C52	0.540100	0.653300	0.475100
C531	C53	0.239800	0.872200	0.668800
C541	C54	0.097200	0.320900	0.342600
C551	C55	0.612000	0.634500	0.535200
C561	C56	0.606700	0.371600	0.534000
C571	C57	0.388900	0.622600	0.208600
C581	C58	0.111100	0.877400	0.708600
C591	C59	0.267300	0.738100	0.822100
C601	C60	0.015200	0.354500	0.911300
C611	C61	0.589600	0.439500	0.424300
C621	C62	0.260200	0.627800	0.168800
C631	C63	0.459900	0.346700	0.524900
C641	C64	0.902800	0.679100	0.657400
C651	C65	0.896100	0.276700	0.702400
C661	C66	0.829700	0.077200	0.984200
C671	C67	0.168900	0.775800	0.871500
C681	C68	0.959900	0.846700	0.975100
C691	C69	0.261000	0.804200	0.627200
C701	C70	0.261400	0.841200	0.300100
C711	C71	0.407300	0.000700	0.444200
C721	C72	0.519500	0.247500	0.836700
C731	C73	0.761000	0.304200	0.872800
C741	C74	0.402800	0.179100	0.842600
C751	C75	0.739800	0.372200	0.831200
C761	C76	0.019500	0.747500	0.663300
C771	C77	0.888000	0.865500	0.035200
C781	C78	0.112000	0.134500	0.964800
C791	C79	0.739000	0.195800	0.372800
C801	C80	0.650000	0.242500	0.874700
C811	C81	0.732700	0.261900	0.177900
C821	C82	0.198900	0.843300	0.908700
C831	C83	0.611100	0.377400	0.791400
C841	C84	0.999100	0.185000	0.294700
C851	C85	0.597200	0.820900	0.157400
C861	C86	0.850000	0.257500	0.374700
C871	C87	0.801100	0.156700	0.091300
C881	C88	0.980500	0.252500	0.336700
C891	C89	0.393300	0.628400	0.466000
C901	C90	0.515200	0.854500	0.588700
C911	C91	0.660300	0.380000	0.241500
C921	C92	0.000900	0.815000	0.705300
C931	C93	0.232700	0.761900	0.322100
C941	C94	0.408900	0.931100	0.486200
C951	C95	0.670300	0.422800	0.484200
C961	C96	0.103900	0.723300	0.297600
N11	N1	0.548300	0.590700	0.586460
N21	N2	0.466300	0.656200	0.738000
N31	N3	0.033700	0.843800	0.238000
N41	N4	0.889700	0.296300	0.910700
N51	N5	0.451700	0.409300	0.413540
N61	N6	0.533700	0.343800	0.262000
N71	N7	0.610300	0.203700	0.410700
N81	N8	0.951700	0.909300	0.086460
N91	N9	0.110300	0.703700	0.089300
N101	N10	0.389700	0.796300	0.589300
N111	N11	0.048300	0.090700	0.913540
N121	N12	0.966300	0.156200	0.762000
O11	O1	0.301900	0.495400	0.259460
O21	O2	0.523800	0.543700	0.289660
O31	O3	0.577900	0.879800	0.119000
O41	O4	0.801900	0.995400	0.240540
O51	O5	0.922100	0.620200	0.619000
O61	O6	0.077900	0.379800	0.381000
O71	O7	0.198100	0.004600	0.759460
O81	O8	0.023800	0.043700	0.210340
O91	O9	0.284200	0.187100	0.807880
O101	O10	0.422100	0.120200	0.881000
O111	O11	0.715800	0.812900	0.192120
O121	O12	0.784200	0.687100	0.692120
O131	O13	0.698100	0.504600	0.740540
O141	O14	0.215800	0.312900	0.307880
O151	O15	0.976200	0.956300	0.789660
O161	O16	0.476200	0.456300	0.710340
