data_HIQWOV_freeONLY_PM
_symmetry_space_group_name_H-M	'P1'
_cell_length_a	29.370000
_cell_length_b	20.998000
_cell_length_c	27.360000
_cell_angle_alpha	90.000000
_cell_angle_beta	90.000000
_cell_angle_gamma	90.000000
_symmetry_Int_Tables_number 1

loop_
_symmetry_equiv_pos_as_xyz
'x,y,z'

loop_
_atom_site_label
_atom_site_type_symbol
_atom_site_fract_x
_atom_site_fract_y
_atom_site_fract_z
Cd11	Cd1	0.070520	0.251510	0.068940
Na11	Na1	0.032670	0.124170	0.134530
O11	O1	0.186900	0.273100	0.375900
O21	O2	0.001400	0.222300	0.144000
O31	O3	0.214500	0.179400	0.404200
O41	O4	0.136300	0.262300	0.131900
O51	O5	0.874800	0.488300	0.256600
O61	O6	0.102700	0.169300	0.112700
O71	O7	0.262800	0.003300	0.260000
O81	O8	0.028600	0.307900	0.119600
C11	C1	0.151800	0.113000	0.349700
H11	H1	0.170100	0.091100	0.371800
C21	C2	0.003400	0.282500	0.142600
C31	C3	0.186500	0.215300	0.376700
C41	C4	0.126500	0.212700	0.312800
H21	H2	0.127500	0.256800	0.310800
C51	C5	0.909900	0.388700	0.233200
O91	O9	0.039500	0.107400	0.220700
C61	C6	0.154900	0.178100	0.346500
O101	O10	0.850400	0.401000	0.287500
C71	C7	0.121500	0.079500	0.320000
H31	H3	0.118900	0.035500	0.322000
C81	C8	0.970000	0.382200	0.169200
H41	H4	0.988800	0.403400	0.147200
C91	C9	0.131600	0.201900	0.137100
C101	C10	0.095200	0.114600	0.287200
C111	C11	0.060400	0.073300	0.255800
C121	C12	0.096800	0.176400	0.282500
H51	H5	0.078600	0.196600	0.259400
C131	C13	0.223900	0.098700	0.229300
C141	C14	0.258300	0.057200	0.263800
C151	C15	0.909100	0.323100	0.231200
H61	H6	0.889500	0.298800	0.250400
C161	C16	0.970500	0.318900	0.172800
C171	C17	0.221900	0.169900	0.229900
H71	H7	0.239800	0.192800	0.251700
C181	C18	0.162900	0.167000	0.170500
C191	C19	0.874900	0.428900	0.261800
C201	C20	0.163100	0.102000	0.173400
H81	H8	0.142900	0.078300	0.154500
C211	C21	0.194800	0.200000	0.199200
H91	H9	0.196800	0.244000	0.196500
C221	C22	0.193400	0.071000	0.204500
H101	H10	0.191100	0.027000	0.207300
O111	O11	0.276300	0.094600	0.296800
C231	C23	0.939700	0.295800	0.198300
H111	H11	0.936400	0.252000	0.194800
C241	C24	0.937400	0.418500	0.202500
H121	H12	0.936900	0.462700	0.201200
O121	O12	0.057400	0.017600	0.259800
Cd21	Cd2	0.070520	0.751510	0.568940
Na21	Na2	0.032670	0.624170	0.634530
O131	O13	0.186900	0.773100	0.875900
O141	O14	0.001400	0.722300	0.644000
O151	O15	0.214500	0.679400	0.904200
O161	O16	0.136300	0.762300	0.631900
O171	O17	0.874800	0.988300	0.756600
O181	O18	0.102700	0.669300	0.612700
O191	O19	0.262800	0.503300	0.760000
O201	O20	0.028600	0.807900	0.619600
C251	C25	0.151800	0.613000	0.849700
H131	H13	0.170100	0.591100	0.871800
C261	C26	0.003400	0.782500	0.642600
C271	C27	0.186500	0.715300	0.876700
C281	C28	0.126500	0.712700	0.812800
H141	H14	0.127500	0.756800	0.810800
C291	C29	0.909900	0.888700	0.733200
O211	O21	0.039500	0.607400	0.720700
C301	C30	0.154900	0.678100	0.846500
O221	O22	0.850400	0.901000	0.787500
C311	C31	0.121500	0.579500	0.820000
H151	H15	0.118900	0.535500	0.822000
C321	C32	0.970000	0.882200	0.669200
H161	H16	0.988800	0.903400	0.647200
C331	C33	0.131600	0.701900	0.637100
C341	C34	0.095200	0.614600	0.787200
C351	C35	0.060400	0.573300	0.755800
C361	C36	0.096800	0.676400	0.782500
H171	H17	0.078600	0.696600	0.759400
C371	C37	0.223900	0.598700	0.729300
C381	C38	0.258300	0.557200	0.763800
C391	C39	0.909100	0.823100	0.731200
H181	H18	0.889500	0.798800	0.750400
C401	C40	0.970500	0.818900	0.672800
C411	C41	0.221900	0.669900	0.729900
H191	H19	0.239800	0.692800	0.751700
C421	C42	0.162900	0.667000	0.670500
C431	C43	0.874900	0.928900	0.761800
C441	C44	0.163100	0.602000	0.673400
H201	H20	0.142900	0.578300	0.654500
C451	C45	0.194800	0.700000	0.699200
H211	H21	0.196800	0.744000	0.696500
C461	C46	0.193400	0.571000	0.704500
H221	H22	0.191100	0.527000	0.707300
O231	O23	0.276300	0.594600	0.796800
C471	C47	0.939700	0.795800	0.698300
H231	H23	0.936400	0.752000	0.694800
C481	C48	0.937400	0.918500	0.702500
H241	H24	0.936900	0.962700	0.701200
O241	O24	0.057400	0.517600	0.759800
Cd31	Cd3	0.570520	0.251510	0.568940
Na31	Na3	0.532670	0.124170	0.634530
O251	O25	0.686900	0.273100	0.875900
O261	O26	0.501400	0.222300	0.644000
O271	O27	0.714500	0.179400	0.904200
O281	O28	0.636300	0.262300	0.631900
O291	O29	0.374800	0.488300	0.756600
O301	O30	0.602700	0.169300	0.612700
O311	O31	0.762800	0.003300	0.760000
O321	O32	0.528600	0.307900	0.619600
C491	C49	0.651800	0.113000	0.849700
H251	H25	0.670100	0.091100	0.871800
C501	C50	0.503400	0.282500	0.642600
C511	C51	0.686500	0.215300	0.876700
C521	C52	0.626500	0.212700	0.812800
H261	H26	0.627500	0.256800	0.810800
C531	C53	0.409900	0.388700	0.733200
O331	O33	0.539500	0.107400	0.720700
C541	C54	0.654900	0.178100	0.846500
O341	O34	0.350400	0.401000	0.787500
C551	C55	0.621500	0.079500	0.820000
H271	H27	0.618900	0.035500	0.822000
C561	C56	0.470000	0.382200	0.669200
H281	H28	0.488800	0.403400	0.647200
C571	C57	0.631600	0.201900	0.637100
C581	C58	0.595200	0.114600	0.787200
C591	C59	0.560400	0.073300	0.755800
C601	C60	0.596800	0.176400	0.782500
H291	H29	0.578600	0.196600	0.759400
C611	C61	0.723900	0.098700	0.729300
C621	C62	0.758300	0.057200	0.763800
C631	C63	0.409100	0.323100	0.731200
H301	H30	0.389500	0.298800	0.750400
C641	C64	0.470500	0.318900	0.672800
C651	C65	0.721900	0.169900	0.729900
H311	H31	0.739800	0.192800	0.751700
C661	C66	0.662900	0.167000	0.670500
C671	C67	0.374900	0.428900	0.761800
C681	C68	0.663100	0.102000	0.673400
H321	H32	0.642900	0.078300	0.654500
C691	C69	0.694800	0.200000	0.699200
H331	H33	0.696800	0.244000	0.696500
C701	C70	0.693400	0.071000	0.704500
H341	H34	0.691100	0.027000	0.707300
O351	O35	0.776300	0.094600	0.796800
C711	C71	0.439700	0.295800	0.698300
H351	H35	0.436400	0.252000	0.694800
C721	C72	0.437400	0.418500	0.702500
H361	H36	0.436900	0.462700	0.701200
O361	O36	0.557400	0.017600	0.759800
Cd41	Cd4	0.570520	0.751510	0.068940
Na41	Na4	0.532670	0.624170	0.134530
O371	O37	0.686900	0.773100	0.375900
O381	O38	0.501400	0.722300	0.144000
O391	O39	0.714500	0.679400	0.404200
O401	O40	0.636300	0.762300	0.131900
O411	O41	0.374800	0.988300	0.256600
O421	O42	0.602700	0.669300	0.112700
O431	O43	0.762800	0.503300	0.260000
O441	O44	0.528600	0.807900	0.119600
C731	C73	0.651800	0.613000	0.349700
H371	H37	0.670100	0.591100	0.371800
C741	C74	0.503400	0.782500	0.142600
C751	C75	0.686500	0.715300	0.376700
C761	C76	0.626500	0.712700	0.312800
H381	H38	0.627500	0.756800	0.310800
C771	C77	0.409900	0.888700	0.233200
O451	O45	0.539500	0.607400	0.220700
C781	C78	0.654900	0.678100	0.346500
O461	O46	0.350400	0.901000	0.287500
C791	C79	0.621500	0.579500	0.320000
H391	H39	0.618900	0.535500	0.322000
C801	C80	0.470000	0.882200	0.169200
H401	H40	0.488800	0.903400	0.147200
C811	C81	0.631600	0.701900	0.137100
C821	C82	0.595200	0.614600	0.287200
C831	C83	0.560400	0.573300	0.255800
C841	C84	0.596800	0.676400	0.282500
H411	H41	0.578600	0.696600	0.259400
C851	C85	0.723900	0.598700	0.229300
C861	C86	0.758300	0.557200	0.263800
C871	C87	0.409100	0.823100	0.231200
H421	H42	0.389500	0.798800	0.250400
C881	C88	0.470500	0.818900	0.172800
C891	C89	0.721900	0.669900	0.229900
H431	H43	0.739800	0.692800	0.251700
C901	C90	0.662900	0.667000	0.170500
C911	C91	0.374900	0.928900	0.261800
C921	C92	0.663100	0.602000	0.173400
H441	H44	0.642900	0.578300	0.154500
C931	C93	0.694800	0.700000	0.199200
H451	H45	0.696800	0.744000	0.196500
C941	C94	0.693400	0.571000	0.204500
H461	H46	0.691100	0.527000	0.207300
O471	O47	0.776300	0.594600	0.296800
C951	C95	0.439700	0.795800	0.198300
H471	H47	0.436400	0.752000	0.194800
C961	C96	0.437400	0.918500	0.202500
H481	H48	0.436900	0.962700	0.201200
O481	O48	0.557400	0.517600	0.259800
Cd51	Cd5	0.929480	0.748490	0.068940
Na51	Na5	0.967330	0.875830	0.134530
O491	O49	0.813100	0.726900	0.375900
O501	O50	0.998600	0.777700	0.144000
O511	O51	0.785500	0.820600	0.404200
O521	O52	0.863700	0.737700	0.131900
O531	O53	0.125200	0.511700	0.256600
O541	O54	0.897300	0.830700	0.112700
O551	O55	0.737200	0.996700	0.260000
O561	O56	0.971400	0.692100	0.119600
C971	C97	0.848200	0.887000	0.349700
H491	H49	0.829900	0.908900	0.371800
C981	C98	0.996600	0.717500	0.142600
C991	C99	0.813500	0.784700	0.376700
C1001	C100	0.873500	0.787300	0.312800
H501	H50	0.872500	0.743200	0.310800
C1011	C101	0.090100	0.611300	0.233200
O571	O57	0.960500	0.892600	0.220700
C1021	C102	0.845100	0.821900	0.346500
O581	O58	0.149600	0.599000	0.287500
C1031	C103	0.878500	0.920500	0.320000
H511	H51	0.881100	0.964500	0.322000
C1041	C104	0.030000	0.617800	0.169200
H521	H52	0.011200	0.596600	0.147200
C1051	C105	0.868400	0.798100	0.137100
C1061	C106	0.904800	0.885400	0.287200
C1071	C107	0.939600	0.926700	0.255800
C1081	C108	0.903200	0.823600	0.282500
H531	H53	0.921400	0.803400	0.259400
C1091	C109	0.776100	0.901300	0.229300
C1101	C110	0.741700	0.942800	0.263800
C1111	C111	0.090900	0.676900	0.231200
H541	H54	0.110500	0.701200	0.250400
C1121	C112	0.029500	0.681100	0.172800
C1131	C113	0.778100	0.830100	0.229900
H551	H55	0.760200	0.807200	0.251700
C1141	C114	0.837100	0.833000	0.170500
C1151	C115	0.125100	0.571100	0.261800
C1161	C116	0.836900	0.898000	0.173400
H561	H56	0.857100	0.921700	0.154500
C1171	C117	0.805200	0.800000	0.199200
H571	H57	0.803200	0.756000	0.196500
C1181	C118	0.806600	0.929000	0.204500
H581	H58	0.808900	0.973000	0.207300
O591	O59	0.723700	0.905400	0.296800
C1191	C119	0.060300	0.704200	0.198300
H591	H59	0.063600	0.748000	0.194800
C1201	C120	0.062600	0.581500	0.202500
H601	H60	0.063100	0.537300	0.201200
O601	O60	0.942600	0.982400	0.259800
Cd61	Cd6	0.929480	0.248490	0.568940
Na61	Na6	0.967330	0.375830	0.634530
O611	O61	0.813100	0.226900	0.875900
O621	O62	0.998600	0.277700	0.644000
O631	O63	0.785500	0.320600	0.904200
O641	O64	0.863700	0.237700	0.631900
O651	O65	0.125200	0.011700	0.756600
O661	O66	0.897300	0.330700	0.612700
O671	O67	0.737200	0.496700	0.760000
O681	O68	0.971400	0.192100	0.619600
C1211	C121	0.848200	0.387000	0.849700
H611	H61	0.829900	0.408900	0.871800
C1221	C122	0.996600	0.217500	0.642600
C1231	C123	0.813500	0.284700	0.876700
C1241	C124	0.873500	0.287300	0.812800
H621	H62	0.872500	0.243200	0.810800
C1251	C125	0.090100	0.111300	0.733200
O691	O69	0.960500	0.392600	0.720700
C1261	C126	0.845100	0.321900	0.846500
O701	O70	0.149600	0.099000	0.787500
C1271	C127	0.878500	0.420500	0.820000
H631	H63	0.881100	0.464500	0.822000
C1281	C128	0.030000	0.117800	0.669200
H641	H64	0.011200	0.096600	0.647200
C1291	C129	0.868400	0.298100	0.637100
C1301	C130	0.904800	0.385400	0.787200
C1311	C131	0.939600	0.426700	0.755800
C1321	C132	0.903200	0.323600	0.782500
H651	H65	0.921400	0.303400	0.759400
C1331	C133	0.776100	0.401300	0.729300
C1341	C134	0.741700	0.442800	0.763800
C1351	C135	0.090900	0.176900	0.731200
H661	H66	0.110500	0.201200	0.750400
C1361	C136	0.029500	0.181100	0.672800
C1371	C137	0.778100	0.330100	0.729900
H671	H67	0.760200	0.307200	0.751700
C1381	C138	0.837100	0.333000	0.670500
C1391	C139	0.125100	0.071100	0.761800
C1401	C140	0.836900	0.398000	0.673400
H681	H68	0.857100	0.421700	0.654500
C1411	C141	0.805200	0.300000	0.699200
H691	H69	0.803200	0.256000	0.696500
C1421	C142	0.806600	0.429000	0.704500
H701	H70	0.808900	0.473000	0.707300
O711	O71	0.723700	0.405400	0.796800
C1431	C143	0.060300	0.204200	0.698300
H711	H71	0.063600	0.248000	0.694800
C1441	C144	0.062600	0.081500	0.702500
H721	H72	0.063100	0.037300	0.701200
O721	O72	0.942600	0.482400	0.759800
Cd71	Cd7	0.429480	0.748490	0.568940
Na71	Na7	0.467330	0.875830	0.634530
O731	O73	0.313100	0.726900	0.875900
O741	O74	0.498600	0.777700	0.644000
O751	O75	0.285500	0.820600	0.904200
O761	O76	0.363700	0.737700	0.631900
O771	O77	0.625200	0.511700	0.756600
O781	O78	0.397300	0.830700	0.612700
O791	O79	0.237200	0.996700	0.760000
O801	O80	0.471400	0.692100	0.619600
C1451	C145	0.348200	0.887000	0.849700
H731	H73	0.329900	0.908900	0.871800
C1461	C146	0.496600	0.717500	0.642600
C1471	C147	0.313500	0.784700	0.876700
C1481	C148	0.373500	0.787300	0.812800
H741	H74	0.372500	0.743200	0.810800
C1491	C149	0.590100	0.611300	0.733200
O811	O81	0.460500	0.892600	0.720700
C1501	C150	0.345100	0.821900	0.846500
O821	O82	0.649600	0.599000	0.787500
C1511	C151	0.378500	0.920500	0.820000
H751	H75	0.381100	0.964500	0.822000
C1521	C152	0.530000	0.617800	0.669200
H761	H76	0.511200	0.596600	0.647200
C1531	C153	0.368400	0.798100	0.637100
C1541	C154	0.404800	0.885400	0.787200
C1551	C155	0.439600	0.926700	0.755800
C1561	C156	0.403200	0.823600	0.782500
H771	H77	0.421400	0.803400	0.759400
C1571	C157	0.276100	0.901300	0.729300
C1581	C158	0.241700	0.942800	0.763800
C1591	C159	0.590900	0.676900	0.731200
H781	H78	0.610500	0.701200	0.750400
C1601	C160	0.529500	0.681100	0.672800
C1611	C161	0.278100	0.830100	0.729900
H791	H79	0.260200	0.807200	0.751700
C1621	C162	0.337100	0.833000	0.670500
C1631	C163	0.625100	0.571100	0.761800
C1641	C164	0.336900	0.898000	0.673400
H801	H80	0.357100	0.921700	0.654500
C1651	C165	0.305200	0.800000	0.699200
H811	H81	0.303200	0.756000	0.696500
C1661	C166	0.306600	0.929000	0.704500
H821	H82	0.308900	0.973000	0.707300
O831	O83	0.223700	0.905400	0.796800
C1671	C167	0.560300	0.704200	0.698300
H831	H83	0.563600	0.748000	0.694800
C1681	C168	0.562600	0.581500	0.702500
H841	H84	0.563100	0.537300	0.701200
O841	O84	0.442600	0.982400	0.759800
Cd81	Cd8	0.429480	0.248490	0.068940
Na81	Na8	0.467330	0.375830	0.134530
O851	O85	0.313100	0.226900	0.375900
O861	O86	0.498600	0.277700	0.144000
O871	O87	0.285500	0.320600	0.404200
O881	O88	0.363700	0.237700	0.131900
O891	O89	0.625200	0.011700	0.256600
O901	O90	0.397300	0.330700	0.112700
O911	O91	0.237200	0.496700	0.260000
O921	O92	0.471400	0.192100	0.119600
C1691	C169	0.348200	0.387000	0.349700
H851	H85	0.329900	0.408900	0.371800
C1701	C170	0.496600	0.217500	0.142600
C1711	C171	0.313500	0.284700	0.376700
C1721	C172	0.373500	0.287300	0.312800
H861	H86	0.372500	0.243200	0.310800
C1731	C173	0.590100	0.111300	0.233200
O931	O93	0.460500	0.392600	0.220700
C1741	C174	0.345100	0.321900	0.346500
O941	O94	0.649600	0.099000	0.287500
C1751	C175	0.378500	0.420500	0.320000
H871	H87	0.381100	0.464500	0.322000
C1761	C176	0.530000	0.117800	0.169200
H881	H88	0.511200	0.096600	0.147200
C1771	C177	0.368400	0.298100	0.137100
C1781	C178	0.404800	0.385400	0.287200
C1791	C179	0.439600	0.426700	0.255800
C1801	C180	0.403200	0.323600	0.282500
H891	H89	0.421400	0.303400	0.259400
C1811	C181	0.276100	0.401300	0.229300
C1821	C182	0.241700	0.442800	0.263800
C1831	C183	0.590900	0.176900	0.231200
H901	H90	0.610500	0.201200	0.250400
C1841	C184	0.529500	0.181100	0.172800
C1851	C185	0.278100	0.330100	0.229900
H911	H91	0.260200	0.307200	0.251700
C1861	C186	0.337100	0.333000	0.170500
C1871	C187	0.625100	0.071100	0.261800
C1881	C188	0.336900	0.398000	0.173400
H921	H92	0.357100	0.421700	0.154500
C1891	C189	0.305200	0.300000	0.199200
H931	H93	0.303200	0.256000	0.196500
C1901	C190	0.306600	0.429000	0.204500
H941	H94	0.308900	0.473000	0.207300
O951	O95	0.223700	0.405400	0.296800
C1911	C191	0.560300	0.204200	0.198300
H951	H95	0.563600	0.248000	0.194800
C1921	C192	0.562600	0.081500	0.202500
H961	H96	0.563100	0.037300	0.201200
O961	O96	0.442600	0.482400	0.259800
Cd91	Cd9	0.320520	0.998490	0.318940
Na91	Na9	0.282670	0.125830	0.384530
O971	O97	0.436900	0.976900	0.625900
O981	O98	0.251400	0.027700	0.394000
O991	O99	0.464500	0.070600	0.654200
O1001	O100	0.386300	0.987700	0.381900
O1011	O101	0.124800	0.761700	0.506600
O1021	O102	0.352700	0.080700	0.362700
O1031	O103	0.512800	0.246700	0.510000
O1041	O104	0.278600	0.942100	0.369600
C1931	C193	0.401800	0.137000	0.599700
H971	H97	0.420100	0.158900	0.621800
C1941	C194	0.253400	0.967500	0.392600
C1951	C195	0.436500	0.034700	0.626700
C1961	C196	0.376500	0.037300	0.562800
H981	H98	0.377500	0.993200	0.560800
C1971	C197	0.159900	0.861300	0.483200
O1051	O105	0.289500	0.142600	0.470700
C1981	C198	0.404900	0.071900	0.596500
O1061	O106	0.100400	0.849000	0.537500
C1991	C199	0.371500	0.170500	0.570000
H991	H99	0.368900	0.214500	0.572000
C2001	C200	0.220000	0.867800	0.419200
H1001	H100	0.238800	0.846600	0.397200
C2011	C201	0.381600	0.048100	0.387100
C2021	C202	0.345200	0.135400	0.537200
C2031	C203	0.310400	0.176700	0.505800
C2041	C204	0.346800	0.073600	0.532500
H1011	H101	0.328600	0.053400	0.509400
C2051	C205	0.473900	0.151300	0.479300
C2061	C206	0.508300	0.192800	0.513800
C2071	C207	0.159100	0.926900	0.481200
H1021	H102	0.139500	0.951200	0.500400
C2081	C208	0.220500	0.931100	0.422800
C2091	C209	0.471900	0.080100	0.479900
H1031	H103	0.489800	0.057200	0.501700
C2101	C210	0.412900	0.083000	0.420500
C2111	C211	0.124900	0.821100	0.511800
C2121	C212	0.413100	0.148000	0.423400
H1041	H104	0.392900	0.171700	0.404500
C2131	C213	0.444800	0.050000	0.449200
H1051	H105	0.446800	0.006000	0.446500
C2141	C214	0.443400	0.179000	0.454500
H1061	H106	0.441100	0.223000	0.457300
O1071	O107	0.526300	0.155400	0.546800
C2151	C215	0.189700	0.954200	0.448300
H1071	H107	0.186400	0.998000	0.444800
C2161	C216	0.187400	0.831500	0.452500
H1081	H108	0.186900	0.787300	0.451200
O1081	O108	0.307400	0.232400	0.509800
Cd101	Cd10	0.320520	0.498490	0.818940
Na101	Na10	0.282670	0.625830	0.884530
O1091	O109	0.436900	0.476900	0.125900
O1101	O110	0.251400	0.527700	0.894000
O1111	O111	0.464500	0.570600	0.154200
O1121	O112	0.386300	0.487700	0.881900
O1131	O113	0.124800	0.261700	0.006600
O1141	O114	0.352700	0.580700	0.862700
O1151	O115	0.512800	0.746700	0.010000
O1161	O116	0.278600	0.442100	0.869600
C2171	C217	0.401800	0.637000	0.099700
H1091	H109	0.420100	0.658900	0.121800
C2181	C218	0.253400	0.467500	0.892600
C2191	C219	0.436500	0.534700	0.126700
C2201	C220	0.376500	0.537300	0.062800
H1101	H110	0.377500	0.493200	0.060800
C2211	C221	0.159900	0.361300	0.983200
O1171	O117	0.289500	0.642600	0.970700
C2221	C222	0.404900	0.571900	0.096500
O1181	O118	0.100400	0.349000	0.037500
C2231	C223	0.371500	0.670500	0.070000
H1111	H111	0.368900	0.714500	0.072000
C2241	C224	0.220000	0.367800	0.919200
H1121	H112	0.238800	0.346600	0.897200
C2251	C225	0.381600	0.548100	0.887100
C2261	C226	0.345200	0.635400	0.037200
C2271	C227	0.310400	0.676700	0.005800
C2281	C228	0.346800	0.573600	0.032500
H1131	H113	0.328600	0.553400	0.009400
C2291	C229	0.473900	0.651300	0.979300
C2301	C230	0.508300	0.692800	0.013800
C2311	C231	0.159100	0.426900	0.981200
H1141	H114	0.139500	0.451200	0.000400
C2321	C232	0.220500	0.431100	0.922800
C2331	C233	0.471900	0.580100	0.979900
H1151	H115	0.489800	0.557200	0.001700
C2341	C234	0.412900	0.583000	0.920500
C2351	C235	0.124900	0.321100	0.011800
C2361	C236	0.413100	0.648000	0.923400
H1161	H116	0.392900	0.671700	0.904500
C2371	C237	0.444800	0.550000	0.949200
H1171	H117	0.446800	0.506000	0.946500
C2381	C238	0.443400	0.679000	0.954500
H1181	H118	0.441100	0.723000	0.957300
O1191	O119	0.526300	0.655400	0.046800
C2391	C239	0.189700	0.454200	0.948300
H1191	H119	0.186400	0.498000	0.944800
C2401	C240	0.187400	0.331500	0.952500
H1201	H120	0.186900	0.287300	0.951200
O1201	O120	0.307400	0.732400	0.009800
Cd111	Cd11	0.820520	0.998490	0.818940
Na111	Na11	0.782670	0.125830	0.884530
O1211	O121	0.936900	0.976900	0.125900
O1221	O122	0.751400	0.027700	0.894000
O1231	O123	0.964500	0.070600	0.154200
O1241	O124	0.886300	0.987700	0.881900
O1251	O125	0.624800	0.761700	0.006600
O1261	O126	0.852700	0.080700	0.862700
O1271	O127	0.012800	0.246700	0.010000
O1281	O128	0.778600	0.942100	0.869600
C2411	C241	0.901800	0.137000	0.099700
H1211	H121	0.920100	0.158900	0.121800
C2421	C242	0.753400	0.967500	0.892600
C2431	C243	0.936500	0.034700	0.126700
C2441	C244	0.876500	0.037300	0.062800
H1221	H122	0.877500	0.993200	0.060800
C2451	C245	0.659900	0.861300	0.983200
O1291	O129	0.789500	0.142600	0.970700
C2461	C246	0.904900	0.071900	0.096500
O1301	O130	0.600400	0.849000	0.037500
C2471	C247	0.871500	0.170500	0.070000
H1231	H123	0.868900	0.214500	0.072000
C2481	C248	0.720000	0.867800	0.919200
H1241	H124	0.738800	0.846600	0.897200
C2491	C249	0.881600	0.048100	0.887100
C2501	C250	0.845200	0.135400	0.037200
C2511	C251	0.810400	0.176700	0.005800
C2521	C252	0.846800	0.073600	0.032500
H1251	H125	0.828600	0.053400	0.009400
C2531	C253	0.973900	0.151300	0.979300
C2541	C254	0.008300	0.192800	0.013800
C2551	C255	0.659100	0.926900	0.981200
H1261	H126	0.639500	0.951200	0.000400
C2561	C256	0.720500	0.931100	0.922800
C2571	C257	0.971900	0.080100	0.979900
H1271	H127	0.989800	0.057200	0.001700
C2581	C258	0.912900	0.083000	0.920500
C2591	C259	0.624900	0.821100	0.011800
C2601	C260	0.913100	0.148000	0.923400
H1281	H128	0.892900	0.171700	0.904500
C2611	C261	0.944800	0.050000	0.949200
H1291	H129	0.946800	0.006000	0.946500
C2621	C262	0.943400	0.179000	0.954500
H1301	H130	0.941100	0.223000	0.957300
O1311	O131	0.026300	0.155400	0.046800
C2631	C263	0.689700	0.954200	0.948300
H1311	H131	0.686400	0.998000	0.944800
C2641	C264	0.687400	0.831500	0.952500
H1321	H132	0.686900	0.787300	0.951200
O1321	O132	0.807400	0.232400	0.009800
Cd121	Cd12	0.820520	0.498490	0.318940
Na121	Na12	0.782670	0.625830	0.384530
O1331	O133	0.936900	0.476900	0.625900
O1341	O134	0.751400	0.527700	0.394000
O1351	O135	0.964500	0.570600	0.654200
O1361	O136	0.886300	0.487700	0.381900
O1371	O137	0.624800	0.261700	0.506600
O1381	O138	0.852700	0.580700	0.362700
O1391	O139	0.012800	0.746700	0.510000
O1401	O140	0.778600	0.442100	0.369600
C2651	C265	0.901800	0.637000	0.599700
H1331	H133	0.920100	0.658900	0.621800
C2661	C266	0.753400	0.467500	0.392600
C2671	C267	0.936500	0.534700	0.626700
C2681	C268	0.876500	0.537300	0.562800
H1341	H134	0.877500	0.493200	0.560800
C2691	C269	0.659900	0.361300	0.483200
O1411	O141	0.789500	0.642600	0.470700
C2701	C270	0.904900	0.571900	0.596500
O1421	O142	0.600400	0.349000	0.537500
C2711	C271	0.871500	0.670500	0.570000
H1351	H135	0.868900	0.714500	0.572000
C2721	C272	0.720000	0.367800	0.419200
H1361	H136	0.738800	0.346600	0.397200
C2731	C273	0.881600	0.548100	0.387100
C2741	C274	0.845200	0.635400	0.537200
C2751	C275	0.810400	0.676700	0.505800
C2761	C276	0.846800	0.573600	0.532500
H1371	H137	0.828600	0.553400	0.509400
C2771	C277	0.973900	0.651300	0.479300
C2781	C278	0.008300	0.692800	0.513800
C2791	C279	0.659100	0.426900	0.481200
H1381	H138	0.639500	0.451200	0.500400
C2801	C280	0.720500	0.431100	0.422800
C2811	C281	0.971900	0.580100	0.479900
H1391	H139	0.989800	0.557200	0.501700
C2821	C282	0.912900	0.583000	0.420500
C2831	C283	0.624900	0.321100	0.511800
C2841	C284	0.913100	0.648000	0.423400
H1401	H140	0.892900	0.671700	0.404500
C2851	C285	0.944800	0.550000	0.449200
H1411	H141	0.946800	0.506000	0.446500
C2861	C286	0.943400	0.679000	0.454500
H1421	H142	0.941100	0.723000	0.457300
O1431	O143	0.026300	0.655400	0.546800
C2871	C287	0.689700	0.454200	0.448300
H1431	H143	0.686400	0.498000	0.444800
C2881	C288	0.687400	0.331500	0.452500
H1441	H144	0.686900	0.287300	0.451200
O1441	O144	0.807400	0.732400	0.509800
Cd131	Cd13	0.179480	0.501510	0.318940
Na131	Na13	0.217330	0.374170	0.384530
O1451	O145	0.063100	0.523100	0.625900
O1461	O146	0.248600	0.472300	0.394000
O1471	O147	0.035500	0.429400	0.654200
O1481	O148	0.113700	0.512300	0.381900
O1491	O149	0.375200	0.738300	0.506600
O1501	O150	0.147300	0.419300	0.362700
O1511	O151	0.987200	0.253300	0.510000
O1521	O152	0.221400	0.557900	0.369600
C2891	C289	0.098200	0.363000	0.599700
H1451	H145	0.079900	0.341100	0.621800
C2901	C290	0.246600	0.532500	0.392600
C2911	C291	0.063500	0.465300	0.626700
C2921	C292	0.123500	0.462700	0.562800
H1461	H146	0.122500	0.506800	0.560800
C2931	C293	0.340100	0.638700	0.483200
O1531	O153	0.210500	0.357400	0.470700
C2941	C294	0.095100	0.428100	0.596500
O1541	O154	0.399600	0.651000	0.537500
C2951	C295	0.128500	0.329500	0.570000
H1471	H147	0.131100	0.285500	0.572000
C2961	C296	0.280000	0.632200	0.419200
H1481	H148	0.261200	0.653400	0.397200
C2971	C297	0.118400	0.451900	0.387100
C2981	C298	0.154800	0.364600	0.537200
C2991	C299	0.189600	0.323300	0.505800
C3001	C300	0.153200	0.426400	0.532500
H1491	H149	0.171400	0.446600	0.509400
C3011	C301	0.026100	0.348700	0.479300
C3021	C302	0.991700	0.307200	0.513800
C3031	C303	0.340900	0.573100	0.481200
H1501	H150	0.360500	0.548800	0.500400
C3041	C304	0.279500	0.568900	0.422800
C3051	C305	0.028100	0.419900	0.479900
H1511	H151	0.010200	0.442800	0.501700
C3061	C306	0.087100	0.417000	0.420500
C3071	C307	0.375100	0.678900	0.511800
C3081	C308	0.086900	0.352000	0.423400
H1521	H152	0.107100	0.328300	0.404500
C3091	C309	0.055200	0.450000	0.449200
H1531	H153	0.053200	0.494000	0.446500
C3101	C310	0.056600	0.321000	0.454500
H1541	H154	0.058900	0.277000	0.457300
O1551	O155	0.973700	0.344600	0.546800
C3111	C311	0.310300	0.545800	0.448300
H1551	H155	0.313600	0.502000	0.444800
C3121	C312	0.312600	0.668500	0.452500
H1561	H156	0.313100	0.712700	0.451200
O1561	O156	0.192600	0.267600	0.509800
Cd141	Cd14	0.179480	0.001510	0.818940
Na141	Na14	0.217330	0.874170	0.884530
O1571	O157	0.063100	0.023100	0.125900
O1581	O158	0.248600	0.972300	0.894000
O1591	O159	0.035500	0.929400	0.154200
O1601	O160	0.113700	0.012300	0.881900
O1611	O161	0.375200	0.238300	0.006600
O1621	O162	0.147300	0.919300	0.862700
O1631	O163	0.987200	0.753300	0.010000
O1641	O164	0.221400	0.057900	0.869600
C3131	C313	0.098200	0.863000	0.099700
H1571	H157	0.079900	0.841100	0.121800
C3141	C314	0.246600	0.032500	0.892600
C3151	C315	0.063500	0.965300	0.126700
C3161	C316	0.123500	0.962700	0.062800
H1581	H158	0.122500	0.006800	0.060800
C3171	C317	0.340100	0.138700	0.983200
O1651	O165	0.210500	0.857400	0.970700
C3181	C318	0.095100	0.928100	0.096500
O1661	O166	0.399600	0.151000	0.037500
C3191	C319	0.128500	0.829500	0.070000
H1591	H159	0.131100	0.785500	0.072000
C3201	C320	0.280000	0.132200	0.919200
H1601	H160	0.261200	0.153400	0.897200
C3211	C321	0.118400	0.951900	0.887100
C3221	C322	0.154800	0.864600	0.037200
C3231	C323	0.189600	0.823300	0.005800
C3241	C324	0.153200	0.926400	0.032500
H1611	H161	0.171400	0.946600	0.009400
C3251	C325	0.026100	0.848700	0.979300
C3261	C326	0.991700	0.807200	0.013800
C3271	C327	0.340900	0.073100	0.981200
H1621	H162	0.360500	0.048800	0.000400
C3281	C328	0.279500	0.068900	0.922800
C3291	C329	0.028100	0.919900	0.979900
H1631	H163	0.010200	0.942800	0.001700
C3301	C330	0.087100	0.917000	0.920500
C3311	C331	0.375100	0.178900	0.011800
C3321	C332	0.086900	0.852000	0.923400
H1641	H164	0.107100	0.828300	0.904500
C3331	C333	0.055200	0.950000	0.949200
H1651	H165	0.053200	0.994000	0.946500
C3341	C334	0.056600	0.821000	0.954500
H1661	H166	0.058900	0.777000	0.957300
O1671	O167	0.973700	0.844600	0.046800
C3351	C335	0.310300	0.045800	0.948300
H1671	H167	0.313600	0.002000	0.944800
C3361	C336	0.312600	0.168500	0.952500
H1681	H168	0.313100	0.212700	0.951200
O1681	O168	0.192600	0.767600	0.009800
Cd151	Cd15	0.679480	0.501510	0.818940
Na151	Na15	0.717330	0.374170	0.884530
O1691	O169	0.563100	0.523100	0.125900
O1701	O170	0.748600	0.472300	0.894000
O1711	O171	0.535500	0.429400	0.154200
O1721	O172	0.613700	0.512300	0.881900
O1731	O173	0.875200	0.738300	0.006600
O1741	O174	0.647300	0.419300	0.862700
O1751	O175	0.487200	0.253300	0.010000
O1761	O176	0.721400	0.557900	0.869600
C3371	C337	0.598200	0.363000	0.099700
H1691	H169	0.579900	0.341100	0.121800
C3381	C338	0.746600	0.532500	0.892600
C3391	C339	0.563500	0.465300	0.126700
C3401	C340	0.623500	0.462700	0.062800
H1701	H170	0.622500	0.506800	0.060800
C3411	C341	0.840100	0.638700	0.983200
O1771	O177	0.710500	0.357400	0.970700
C3421	C342	0.595100	0.428100	0.096500
O1781	O178	0.899600	0.651000	0.037500
C3431	C343	0.628500	0.329500	0.070000
H1711	H171	0.631100	0.285500	0.072000
C3441	C344	0.780000	0.632200	0.919200
H1721	H172	0.761200	0.653400	0.897200
C3451	C345	0.618400	0.451900	0.887100
C3461	C346	0.654800	0.364600	0.037200
C3471	C347	0.689600	0.323300	0.005800
C3481	C348	0.653200	0.426400	0.032500
H1731	H173	0.671400	0.446600	0.009400
C3491	C349	0.526100	0.348700	0.979300
C3501	C350	0.491700	0.307200	0.013800
C3511	C351	0.840900	0.573100	0.981200
H1741	H174	0.860500	0.548800	0.000400
C3521	C352	0.779500	0.568900	0.922800
C3531	C353	0.528100	0.419900	0.979900
H1751	H175	0.510200	0.442800	0.001700
C3541	C354	0.587100	0.417000	0.920500
C3551	C355	0.875100	0.678900	0.011800
C3561	C356	0.586900	0.352000	0.923400
H1761	H176	0.607100	0.328300	0.904500
C3571	C357	0.555200	0.450000	0.949200
H1771	H177	0.553200	0.494000	0.946500
C3581	C358	0.556600	0.321000	0.954500
H1781	H178	0.558900	0.277000	0.957300
O1791	O179	0.473700	0.344600	0.046800
C3591	C359	0.810300	0.545800	0.948300
H1791	H179	0.813600	0.502000	0.944800
C3601	C360	0.812600	0.668500	0.952500
H1801	H180	0.813100	0.712700	0.951200
O1801	O180	0.692600	0.267600	0.009800
Cd161	Cd16	0.679480	0.001510	0.318940
Na161	Na16	0.717330	0.874170	0.384530
O1811	O181	0.563100	0.023100	0.625900
O1821	O182	0.748600	0.972300	0.394000
O1831	O183	0.535500	0.929400	0.654200
O1841	O184	0.613700	0.012300	0.381900
O1851	O185	0.875200	0.238300	0.506600
O1861	O186	0.647300	0.919300	0.362700
O1871	O187	0.487200	0.753300	0.510000
O1881	O188	0.721400	0.057900	0.369600
C3611	C361	0.598200	0.863000	0.599700
H1811	H181	0.579900	0.841100	0.621800
C3621	C362	0.746600	0.032500	0.392600
C3631	C363	0.563500	0.965300	0.626700
C3641	C364	0.623500	0.962700	0.562800
H1821	H182	0.622500	0.006800	0.560800
C3651	C365	0.840100	0.138700	0.483200
O1891	O189	0.710500	0.857400	0.470700
C3661	C366	0.595100	0.928100	0.596500
O1901	O190	0.899600	0.151000	0.537500
C3671	C367	0.628500	0.829500	0.570000
H1831	H183	0.631100	0.785500	0.572000
C3681	C368	0.780000	0.132200	0.419200
H1841	H184	0.761200	0.153400	0.397200
C3691	C369	0.618400	0.951900	0.387100
C3701	C370	0.654800	0.864600	0.537200
C3711	C371	0.689600	0.823300	0.505800
C3721	C372	0.653200	0.926400	0.532500
H1851	H185	0.671400	0.946600	0.509400
C3731	C373	0.526100	0.848700	0.479300
C3741	C374	0.491700	0.807200	0.513800
C3751	C375	0.840900	0.073100	0.481200
H1861	H186	0.860500	0.048800	0.500400
C3761	C376	0.779500	0.068900	0.422800
C3771	C377	0.528100	0.919900	0.479900
H1871	H187	0.510200	0.942800	0.501700
C3781	C378	0.587100	0.917000	0.420500
C3791	C379	0.875100	0.178900	0.511800
C3801	C380	0.586900	0.852000	0.423400
H1881	H188	0.607100	0.828300	0.404500
C3811	C381	0.555200	0.950000	0.449200
H1891	H189	0.553200	0.994000	0.446500
C3821	C382	0.556600	0.821000	0.454500
H1901	H190	0.558900	0.777000	0.457300
O1911	O191	0.473700	0.844600	0.546800
C3831	C383	0.810300	0.045800	0.448300
H1911	H191	0.813600	0.002000	0.444800
C3841	C384	0.812600	0.168500	0.452500
H1921	H192	0.813100	0.212700	0.451200
O1921	O192	0.692600	0.767600	0.509800
Cd171	Cd17	0.000000	0.000000	0.204710
Cd181	Cd18	0.000000	0.500000	0.704710
Cd191	Cd19	0.500000	0.000000	0.704710
Cd201	Cd20	0.500000	0.500000	0.204710
Cd211	Cd21	0.250000	0.250000	0.454710
Cd221	Cd22	0.250000	0.750000	0.954710
Cd231	Cd23	0.750000	0.250000	0.954710
Cd241	Cd24	0.750000	0.750000	0.454710
