data_HIWKII_freeONLY_PM
_symmetry_space_group_name_H-M	'P1'
_cell_length_a	10.941300
_cell_length_b	10.941300
_cell_length_c	12.052000
_cell_angle_alpha	76.893200
_cell_angle_beta	76.893200
_cell_angle_gamma	86.985500
_symmetry_Int_Tables_number 1

loop_
_symmetry_equiv_pos_as_xyz
'x,y,z'

loop_
_atom_site_label
_atom_site_type_symbol
_atom_site_fract_x
_atom_site_fract_y
_atom_site_fract_z
Mn11	Mn1	0.692820	0.768500	0.857610
Mn21	Mn2	0.231500	0.307180	0.642390
Mn31	Mn3	0.307180	0.231500	0.142390
Mn41	Mn4	0.768500	0.692820	0.357610
Nb11	Nb1	0.705060	0.294940	0.750000
Nb21	Nb2	0.294940	0.705060	0.250000
H11	H1	0.901100	0.704700	0.948800
H21	H2	0.820700	0.757700	0.039700
H31	H3	0.887000	0.727800	0.683700
H41	H4	0.882600	0.860800	0.670200
H51	H5	0.507800	0.722000	0.579700
H61	H6	0.422200	0.634800	0.922900
H71	H7	0.295300	0.098900	0.551200
H81	H8	0.242300	0.179300	0.460300
H91	H9	0.272200	0.113000	0.816300
H101	H10	0.139200	0.117400	0.829800
H111	H11	0.278000	0.492200	0.920300
H121	H12	0.365200	0.577800	0.577100
H131	H13	0.098900	0.295300	0.051200
H141	H14	0.179300	0.242300	0.960300
H151	H15	0.113000	0.272200	0.316300
H161	H16	0.117400	0.139200	0.329800
H171	H17	0.492200	0.278000	0.420300
H181	H18	0.577800	0.365200	0.077100
H191	H19	0.704700	0.901100	0.448800
H201	H20	0.757700	0.820700	0.539700
H211	H21	0.727800	0.887000	0.183700
H221	H22	0.860800	0.882600	0.170200
H231	H23	0.722000	0.507800	0.079700
H241	H24	0.634800	0.422200	0.422900
C11	C1	0.687250	0.083730	0.799000
C21	C2	0.778010	0.233250	0.914300
C31	C3	0.731450	0.463030	0.599670
C41	C4	0.702900	0.471880	0.818990
C51	C5	0.460080	0.676660	0.649500
C61	C6	0.409080	0.625080	0.851800
C71	C7	0.916270	0.312750	0.701000
C81	C8	0.766750	0.221990	0.585700
C91	C9	0.536970	0.268550	0.900330
C101	C10	0.528120	0.297100	0.681010
C111	C11	0.323340	0.539920	0.850500
C121	C12	0.374920	0.590920	0.648200
C131	C13	0.312750	0.916270	0.201000
C141	C14	0.221990	0.766750	0.085700
C151	C15	0.268550	0.536970	0.400330
C161	C16	0.297100	0.528120	0.181010
C171	C17	0.539920	0.323340	0.350500
C181	C18	0.590920	0.374920	0.148200
C191	C19	0.083730	0.687250	0.299000
C201	C20	0.233250	0.778010	0.414300
C211	C21	0.463030	0.731450	0.099670
C221	C22	0.471880	0.702900	0.318990
C231	C23	0.676660	0.460080	0.149500
C241	C24	0.625080	0.409080	0.351800
N11	N1	0.682820	0.976120	0.823900
N21	N2	0.815100	0.200500	0.997100
N31	N3	0.743600	0.547480	0.521040
N41	N4	0.701360	0.562320	0.852480
N51	N5	0.475070	0.695590	0.751730
N61	N6	0.023880	0.317180	0.676100
N71	N7	0.799500	0.184900	0.502900
N81	N8	0.452520	0.256400	0.978960
N91	N9	0.437680	0.298640	0.647520
N101	N10	0.304410	0.524930	0.748270
N111	N11	0.317180	0.023880	0.176100
N121	N12	0.184900	0.799500	0.002900
N131	N13	0.256400	0.452520	0.478960
N141	N14	0.298640	0.437680	0.147520
N151	N15	0.524930	0.304410	0.248270
N161	N16	0.976120	0.682820	0.323900
N171	N17	0.200500	0.815100	0.497100
N181	N18	0.547480	0.743600	0.021040
N191	N19	0.562320	0.701360	0.352480
N201	N20	0.695590	0.475070	0.251730
O11	O1	0.829610	0.747190	0.965900
O21	O2	0.833520	0.792960	0.691500
O31	O3	0.552470	0.782790	0.751740
O41	O4	0.252810	0.170390	0.534100
O51	O5	0.207040	0.166480	0.808500
O61	O6	0.217210	0.447530	0.748260
O71	O7	0.170390	0.252810	0.034100
O81	O8	0.166480	0.207040	0.308500
O91	O9	0.447530	0.217210	0.248260
O101	O10	0.747190	0.829610	0.465900
O111	O11	0.792960	0.833520	0.191500
O121	O12	0.782790	0.552470	0.251740
