data_HIWLUW_freeONLY_PM
_symmetry_space_group_name_H-M	'P1'
_cell_length_a	8.559500
_cell_length_b	13.575900
_cell_length_c	9.323100
_cell_angle_alpha	90.000000
_cell_angle_beta	96.024000
_cell_angle_gamma	90.000000
_symmetry_Int_Tables_number 1

loop_
_symmetry_equiv_pos_as_xyz
'x,y,z'

loop_
_atom_site_label
_atom_site_type_symbol
_atom_site_fract_x
_atom_site_fract_y
_atom_site_fract_z
Zn11	Zn1	0.358850	0.018620	0.298440
Zn21	Zn2	0.595580	0.139690	0.907820
Zn31	Zn3	0.850520	0.759170	0.226910
P11	P1	0.641160	0.955410	0.129280
P21	P2	0.294320	0.202480	0.074690
P31	P3	0.214910	0.799880	0.256890
P41	P4	0.389970	0.122170	0.599780
O11	O1	0.693300	0.035500	0.029600
O21	O2	0.570500	0.995200	0.259000
O31	O3	0.780400	0.889900	0.170000
O41	O4	0.273000	0.131700	0.197600
O51	O5	0.159400	0.188400	0.955700
O61	O6	0.452800	0.203200	0.020000
O71	O7	0.063800	0.775000	0.324000
O81	O8	0.242200	0.734500	0.130300
O91	O9	0.222000	0.909700	0.221600
O101	O10	0.333200	0.035700	0.502700
O111	O11	0.500300	0.088100	0.726500
O121	O12	0.254400	0.181400	0.641100
H11	H1	0.535100	0.907700	0.064700
H21	H2	0.272300	0.288500	0.123400
H31	H3	0.344800	0.783500	0.341400
H41	H4	0.471900	0.180700	0.527900
Zn41	Zn4	0.641150	0.518620	0.701560
Zn51	Zn5	0.404420	0.639690	0.092180
Zn61	Zn6	0.149480	0.259170	0.773090
P51	P5	0.358840	0.455410	0.870720
P61	P6	0.705680	0.702480	0.925310
P71	P7	0.785090	0.299880	0.743110
P81	P8	0.610030	0.622170	0.400220
O131	O13	0.306700	0.535500	0.970400
O141	O14	0.429500	0.495200	0.741000
O151	O15	0.219600	0.389900	0.830000
O161	O16	0.727000	0.631700	0.802400
O171	O17	0.840600	0.688400	0.044300
O181	O18	0.547200	0.703200	0.980000
O191	O19	0.936200	0.275000	0.676000
O201	O20	0.757800	0.234500	0.869700
O211	O21	0.778000	0.409700	0.778400
O221	O22	0.666800	0.535700	0.497300
O231	O23	0.499700	0.588100	0.273500
O241	O24	0.745600	0.681400	0.358900
H51	H5	0.464900	0.407700	0.935300
H61	H6	0.727700	0.788500	0.876600
H71	H7	0.655200	0.283500	0.658600
H81	H8	0.528100	0.680700	0.472100
