data_HIWXER_freeONLY_PM
_symmetry_space_group_name_H-M	'P1'
_cell_length_a	8.441120
_cell_length_b	9.106600
_cell_length_c	14.232700
_cell_angle_alpha	71.709000
_cell_angle_beta	72.750100
_cell_angle_gamma	62.389300
_symmetry_Int_Tables_number 1

loop_
_symmetry_equiv_pos_as_xyz
'x,y,z'

loop_
_atom_site_label
_atom_site_type_symbol
_atom_site_fract_x
_atom_site_fract_y
_atom_site_fract_z
Zn11	Zn1	0.289890	0.921340	0.633320
Zn21	Zn2	0.410670	0.280100	0.529260
Zn31	Zn3	0.844550	0.578660	0.866680
Zn41	Zn4	0.220030	0.219900	0.970740
Zn51	Zn5	0.710110	0.078660	0.366680
Zn61	Zn6	0.589330	0.719900	0.470740
Zn71	Zn7	0.155450	0.421340	0.133320
Zn81	Zn8	0.779970	0.780100	0.029260
Zn91	Zn9	0.122200	0.250000	0.750000
Zn101	Zn10	0.877800	0.750000	0.250000
H11	H1	0.146000	0.230000	0.578000
H21	H2	0.371000	0.994000	0.450000
H31	H3	0.954000	0.270000	0.922000
H41	H4	0.815000	0.506000	0.050000
H51	H5	0.854000	0.770000	0.422000
H61	H6	0.629000	0.006000	0.550000
H71	H7	0.046000	0.730000	0.078000
H81	H8	0.185000	0.494000	0.950000
C11	C1	0.027690	0.811450	0.819570
C21	C2	0.181570	0.599550	0.725310
C31	C3	0.658710	0.688550	0.680430
C41	C4	0.506430	0.900450	0.774690
C51	C5	0.972310	0.188550	0.180430
C61	C6	0.818430	0.400450	0.274690
C71	C7	0.341290	0.311450	0.319570
C81	C8	0.493570	0.099550	0.225310
N11	N1	0.058370	0.657110	0.807150
N21	N2	0.092040	0.925710	0.758610
N31	N3	0.015620	0.058320	0.805040
N41	N4	0.911750	0.027940	0.889160
N51	N5	0.916790	0.873370	0.901050
N61	N6	0.282740	0.676860	0.655660
N71	N7	0.378720	0.578640	0.587720
N81	N8	0.340090	0.447080	0.615340
N91	N9	0.217540	0.453090	0.702230
N101	N10	0.522630	0.842890	0.692850
N111	N11	0.776360	0.574290	0.741390
N121	N12	0.878980	0.441680	0.694960
N131	N13	0.828850	0.472060	0.610840
N141	N14	0.691210	0.626630	0.598950
N151	N15	0.615260	0.823140	0.844340
N161	N16	0.545080	0.921360	0.912280
N171	N17	0.402510	0.052920	0.884660
N181	N18	0.372860	0.046910	0.797770
N191	N19	0.941630	0.342890	0.192850
N201	N20	0.907960	0.074290	0.241390
N211	N21	0.984380	0.941680	0.194960
N221	N22	0.088250	0.972060	0.110840
N231	N23	0.083210	0.126630	0.098950
N241	N24	0.717260	0.323140	0.344340
N251	N25	0.621280	0.421360	0.412280
N261	N26	0.659910	0.552920	0.384660
N271	N27	0.782460	0.546910	0.297770
N281	N28	0.477370	0.157110	0.307150
N291	N29	0.223640	0.425710	0.258610
N301	N30	0.121020	0.558320	0.305040
N311	N31	0.171150	0.527940	0.389160
N321	N32	0.308790	0.373370	0.401050
N331	N33	0.384740	0.176860	0.155660
N341	N34	0.454920	0.078640	0.087720
N351	N35	0.597490	0.947080	0.115340
N361	N36	0.627140	0.953090	0.202230
O11	O1	0.225450	0.179790	0.612310
O21	O2	0.362020	0.910910	0.488850
O31	O3	0.017550	0.320210	0.887690
O41	O4	0.761780	0.589090	0.011150
O51	O5	0.774550	0.820210	0.387690
O61	O6	0.637980	0.089090	0.511150
O71	O7	0.982450	0.679790	0.112310
O81	O8	0.238220	0.410910	0.988850
