data_HIYBUN_freeONLY_PM
_symmetry_space_group_name_H-M	'P1'
_cell_length_a	6.193640
_cell_length_b	24.979700
_cell_length_c	25.343400
_cell_angle_alpha	89.132000
_cell_angle_beta	82.981200
_cell_angle_gamma	82.878500
_symmetry_Int_Tables_number 1

loop_
_symmetry_equiv_pos_as_xyz
'x,y,z'

loop_
_atom_site_label
_atom_site_type_symbol
_atom_site_fract_x
_atom_site_fract_y
_atom_site_fract_z
Zn11	Zn1	0.432880	0.246940	0.722690
Zn21	Zn2	0.402510	0.753060	0.277310
Zn31	Zn3	0.905570	0.746940	0.777310
Zn41	Zn4	0.429820	0.253060	0.222690
Zn51	Zn5	0.690720	0.500000	0.500000
Zn61	Zn6	0.940720	0.000000	0.000000
H11	H1	0.272700	0.355000	0.765000
H21	H2	0.010100	0.427600	0.754800
H31	H3	0.764400	0.340200	0.648000
H41	H4	0.035400	0.269600	0.660800
H51	H5	0.989100	0.410600	0.549800
H61	H6	0.271000	0.403800	0.603200
H71	H7	0.129300	0.564400	0.632000
H81	H8	0.847500	0.566600	0.579400
H91	H9	0.540900	0.711600	0.719000
H101	H10	0.432200	0.632200	0.690200
H111	H11	0.955500	0.550200	0.749800
H121	H12	0.044900	0.631400	0.778200
H131	H13	0.392700	0.645000	0.235000
H141	H14	0.192500	0.572400	0.245200
H151	H15	0.752600	0.659800	0.352000
H161	H16	0.965800	0.730400	0.339200
H171	H17	0.949500	0.589400	0.450200
H181	H18	0.278000	0.596200	0.396800
H191	H19	0.325700	0.435600	0.368000
H201	H20	0.993500	0.433400	0.420600
H211	H21	0.971500	0.288400	0.281000
H221	H22	0.754600	0.367800	0.309800
H231	H23	0.255500	0.449800	0.250200
H241	H24	0.454500	0.368600	0.221800
H251	H25	0.787700	0.855000	0.735000
H261	H26	0.514900	0.927600	0.745200
H271	H27	0.162400	0.840200	0.852000
H281	H28	0.446200	0.769600	0.839200
H291	H29	0.288900	0.910600	0.950200
H301	H30	0.624200	0.903800	0.896800
H311	H31	0.511300	0.064400	0.868000
H321	H32	0.176900	0.066600	0.920600
H331	H33	0.009900	0.211600	0.781000
H341	H34	0.872400	0.132200	0.809800
H351	H35	0.455300	0.050200	0.750200
H361	H36	0.573100	0.131400	0.721800
H371	H37	0.377700	0.145000	0.265000
H381	H38	0.187700	0.072400	0.254800
H391	H39	0.854600	0.159800	0.148000
H401	H40	0.055000	0.230400	0.160800
H411	H41	0.149700	0.089400	0.049800
H421	H42	0.424800	0.096200	0.103200
H431	H43	0.443700	0.935600	0.132000
H441	H44	0.164100	0.933400	0.079400
H451	H45	0.002500	0.788400	0.219000
H461	H46	0.814400	0.867800	0.190200
H471	H47	0.255700	0.949800	0.249800
H481	H48	0.426300	0.868600	0.278200
C11	C1	0.169470	0.352220	0.740640
C21	C2	0.013870	0.395540	0.734720
C31	C3	0.862720	0.392040	0.699320
C41	C4	0.868660	0.344160	0.671720
C51	C5	0.030460	0.302360	0.679720
C61	C6	0.708000	0.440520	0.689880
C71	C7	0.625270	0.530620	0.698840
C81	C8	0.418190	0.483620	0.654400
C91	C9	0.018740	0.442080	0.566840
C101	C10	0.187570	0.437740	0.598320
C111	C11	0.232660	0.483800	0.622680
C121	C12	0.103110	0.532360	0.615420
C131	C13	0.936540	0.533340	0.583980
C141	C14	0.624270	0.678200	0.725660
C151	C15	0.558750	0.631220	0.708080
C161	C16	0.683150	0.582540	0.717360
C171	C17	0.866940	0.582900	0.743420
C181	C18	0.919450	0.631400	0.760100
C191	C19	0.262330	0.647780	0.259360
C201	C20	0.144130	0.604460	0.265280
C211	C21	0.954080	0.607960	0.300680
C221	C22	0.884540	0.655840	0.328280
C231	C23	0.012540	0.697640	0.320280
C241	C24	0.838400	0.559480	0.310120
C251	C25	0.854730	0.469380	0.301160
C261	C26	0.556210	0.516380	0.345600
C271	C27	0.027660	0.557920	0.433160
C281	C28	0.223630	0.562260	0.401680
C291	C29	0.339140	0.516200	0.377320
C301	C30	0.250890	0.467640	0.384580
C311	C31	0.053860	0.466660	0.416020
C321	C32	0.028130	0.321800	0.274340
C331	C33	0.898050	0.368780	0.291920
C341	C34	0.983050	0.417460	0.282640
C351	C35	0.193260	0.417100	0.256580
C361	C36	0.310950	0.368600	0.239900
C371	C37	0.660110	0.852220	0.759360
C381	C38	0.498590	0.895540	0.765280
C391	C39	0.312040	0.892040	0.800680
C401	C40	0.290380	0.844160	0.828280
C411	C41	0.460180	0.802360	0.820280
C421	C42	0.147880	0.940520	0.810120
C431	C43	0.074110	0.030620	0.801160
C441	C44	0.822590	0.983620	0.845600
C451	C45	0.335580	0.942080	0.933160
C461	C46	0.535890	0.937740	0.901680
C471	C47	0.605340	0.983800	0.877320
C481	C48	0.468530	0.032360	0.884580
C491	C49	0.270520	0.033340	0.916020
C501	C50	0.099930	0.178200	0.774340
C511	C51	0.016830	0.131220	0.791920
C521	C52	0.150510	0.082540	0.782640
C531	C53	0.360360	0.082900	0.756580
C541	C54	0.429550	0.131400	0.739900
C551	C55	0.271690	0.147780	0.240640
C561	C56	0.159410	0.104460	0.234720
C571	C57	0.004760	0.107960	0.199320
C581	C58	0.962820	0.155840	0.171720
C591	C59	0.082820	0.197640	0.179720
C601	C60	0.898520	0.059480	0.189880
C611	C61	0.905890	0.969380	0.198840
C621	C62	0.651810	0.016380	0.154400
C631	C63	0.210820	0.057920	0.066840
C641	C64	0.375310	0.062260	0.098320
C651	C65	0.466460	0.016200	0.122680
C661	C66	0.385470	0.967640	0.115420
C671	C67	0.219880	0.966660	0.083980
C681	C68	0.052470	0.821800	0.225660
C691	C69	0.939970	0.868780	0.208080
C701	C70	0.015690	0.917460	0.217360
C711	C71	0.199840	0.917100	0.243420
C721	C72	0.300850	0.868600	0.260100
Br11	Br1	0.629580	0.220230	0.639150
Br21	Br2	0.615810	0.278340	0.790240
Br31	Br3	0.475540	0.583510	0.515030
Br41	Br4	0.488960	0.779770	0.360850
Br51	Br5	0.684390	0.721660	0.209760
Br61	Br6	0.574080	0.416490	0.484970
Br71	Br7	0.018730	0.720230	0.860850
Br81	Br8	0.156050	0.778340	0.709760
Br91	Br9	0.740570	0.083510	0.984970
Br101	Br10	0.599810	0.279770	0.139150
Br111	Br11	0.644150	0.221660	0.290240
Br121	Br12	0.809050	0.916490	0.015030
N11	N1	0.180650	0.305940	0.713160
N21	N2	0.541370	0.436580	0.661680
N31	N3	0.452820	0.531580	0.671980
N41	N4	0.756030	0.486460	0.709480
N51	N5	0.895150	0.489000	0.559300
N61	N6	0.799550	0.678700	0.751600
N71	N7	0.199750	0.694060	0.286840
N81	N8	0.639630	0.563420	0.338320
N91	N9	0.656380	0.468420	0.328020
N101	N10	0.951970	0.513540	0.290520
N111	N11	0.943450	0.511000	0.440700
N121	N12	0.229850	0.321300	0.248400
N131	N13	0.643810	0.805940	0.786840
N141	N14	0.953050	0.936580	0.838320
N151	N15	0.874800	0.031580	0.828020
N161	N16	0.215510	0.986460	0.790520
N171	N17	0.204450	0.989000	0.940700
N181	N18	0.301150	0.178700	0.748400
N191	N19	0.236590	0.194060	0.213160
N201	N20	0.727950	0.063420	0.161680
N211	N21	0.734400	0.968420	0.171980
N221	N22	0.992490	0.013540	0.209480
N231	N23	0.134150	0.011000	0.059300
N241	N24	0.228250	0.821300	0.251600
