data_HOBGIP_freeONLY_PM
_symmetry_space_group_name_H-M	'P1'
_cell_length_a	6.487000
_cell_length_b	24.779000
_cell_length_c	7.805000
_cell_angle_alpha	90.000000
_cell_angle_beta	91.029000
_cell_angle_gamma	90.000000
_symmetry_Int_Tables_number 1

loop_
_symmetry_equiv_pos_as_xyz
'x,y,z'

loop_
_atom_site_label
_atom_site_type_symbol
_atom_site_fract_x
_atom_site_fract_y
_atom_site_fract_z
Ni11	Ni1	0.660400	0.451690	0.685200
Ni21	Ni2	0.838600	0.021130	0.808600
N11	N1	0.827000	0.380500	0.716000
C11	C1	0.749000	0.336600	0.788000
H11	H1	0.608800	0.337500	0.822500
C21	C2	0.861000	0.289300	0.817000
H21	H2	0.801600	0.259300	0.873700
C31	C3	0.062000	0.287700	0.759000
C41	C4	0.151000	0.334100	0.693000
H31	H3	0.292300	0.334800	0.663100
C51	C5	0.027000	0.379400	0.671000
H41	H4	0.085600	0.410900	0.622000
N21	N2	0.158000	0.235500	0.788000
N31	N3	0.658000	0.089500	0.771000
C61	C6	0.724000	0.133100	0.687000
H51	H5	0.856900	0.131700	0.638200
C71	C7	0.611000	0.180200	0.667000
H61	H6	0.664400	0.210000	0.605900
C81	C8	0.418000	0.182700	0.740000
C91	C9	0.343000	0.138200	0.827000
H71	H7	0.210800	0.138600	0.876500
C101	C10	0.469000	0.093400	0.839000
H81	H8	0.419100	0.063000	0.899400
N41	N4	0.317000	0.234900	0.712000
O11	O1	0.876000	0.489400	0.851300
C111	C11	0.909000	0.538500	0.875000
O21	O2	0.008000	0.558400	0.001200
C121	C12	0.843000	0.580200	0.740800
H91	H9	0.969400	0.597400	0.696600
H101	H10	0.762900	0.608600	0.798700
C131	C13	0.716000	0.559600	0.588100
H111	H11	0.661000	0.591100	0.521400
N51	N5	0.541000	0.526600	0.649000
H121	H12	0.435400	0.525900	0.568600
H131	H13	0.491000	0.540200	0.749900
C141	C14	0.851000	0.525000	0.471600
O31	O3	0.835000	0.475000	0.481500
O41	O4	0.957000	0.551900	0.372200
O51	O5	0.362000	0.491900	0.019800
C151	C15	0.379000	0.441900	0.991000
O61	O6	0.471000	0.424300	0.859600
C161	C16	0.342000	0.395600	0.116000
H141	H14	0.276900	0.365500	0.051400
H151	H15	0.477900	0.382700	0.158800
C171	C17	0.212000	0.407700	0.267000
H161	H16	0.156100	0.374000	0.318800
N61	N6	0.041000	0.442900	0.195000
H171	H17	0.926800	0.441200	0.262800
H181	H18	0.004000	0.432000	0.085800
C181	C18	0.352000	0.438800	0.396000
O71	O7	0.333000	0.488400	0.386100
O81	O8	0.467000	0.412800	0.493100
Ni31	Ni3	0.339600	0.951690	0.314800
Ni41	Ni4	0.161400	0.521130	0.191400
N71	N7	0.173000	0.880500	0.284000
C191	C19	0.251000	0.836600	0.212000
H191	H19	0.391200	0.837500	0.177500
C201	C20	0.139000	0.789300	0.183000
H201	H20	0.198400	0.759300	0.126300
C211	C21	0.938000	0.787700	0.241000
C221	C22	0.849000	0.834100	0.307000
H211	H21	0.707700	0.834800	0.336900
C231	C23	0.973000	0.879400	0.329000
H221	H22	0.914400	0.910900	0.378000
N81	N8	0.842000	0.735500	0.212000
N91	N9	0.342000	0.589500	0.229000
C241	C24	0.276000	0.633100	0.313000
H231	H23	0.143100	0.631700	0.361800
C251	C25	0.389000	0.680200	0.333000
H241	H24	0.335600	0.710000	0.394100
C261	C26	0.582000	0.682700	0.260000
C271	C27	0.657000	0.638200	0.173000
H251	H25	0.789200	0.638600	0.123500
C281	C28	0.531000	0.593400	0.161000
H261	H26	0.580900	0.563000	0.100600
N101	N10	0.683000	0.734900	0.288000
O91	O9	0.124000	0.989400	0.148700
C291	C29	0.091000	0.038500	0.125000
O101	O10	0.992000	0.058400	0.998800
C301	C30	0.157000	0.080200	0.259200
H271	H27	0.030600	0.097400	0.303400
H281	H28	0.237100	0.108600	0.201300
C311	C31	0.284000	0.059600	0.411900
H291	H29	0.339000	0.091100	0.478600
N111	N11	0.459000	0.026600	0.351000
H301	H30	0.564600	0.025900	0.431400
H311	H31	0.509000	0.040200	0.250100
C321	C32	0.149000	0.025000	0.528400
O111	O11	0.165000	0.975000	0.518500
O121	O12	0.043000	0.051900	0.627800
O131	O13	0.638000	0.991900	0.980200
C331	C33	0.621000	0.941900	0.009000
O141	O14	0.529000	0.924300	0.140400
C341	C34	0.658000	0.895600	0.884000
H321	H32	0.723100	0.865500	0.948600
H331	H33	0.522100	0.882700	0.841200
C351	C35	0.788000	0.907700	0.733000
H341	H34	0.843900	0.874000	0.681200
N121	N12	0.959000	0.942900	0.805000
H351	H35	0.073200	0.941200	0.737200
H361	H36	0.996000	0.932000	0.914200
C361	C36	0.648000	0.938800	0.604000
O151	O15	0.667000	0.988400	0.613900
O161	O16	0.533000	0.912800	0.506900
