data_HOFMAS_freeONLY_PM
_symmetry_space_group_name_H-M	'P1'
_cell_length_a	19.685000
_cell_length_b	14.332000
_cell_length_c	16.930000
_cell_angle_alpha	90.000000
_cell_angle_beta	121.205000
_cell_angle_gamma	90.000000
_symmetry_Int_Tables_number 1

loop_
_symmetry_equiv_pos_as_xyz
'x,y,z'

loop_
_atom_site_label
_atom_site_type_symbol
_atom_site_fract_x
_atom_site_fract_y
_atom_site_fract_z
Zn11	Zn1	0.243220	0.432390	0.368070
N11	N1	0.243300	0.494700	0.256100
N21	N2	0.035300	0.455600	0.372800
N31	N3	0.144400	0.418400	0.376100
N41	N4	0.472400	0.485600	0.589100
N51	N5	0.357000	0.432900	0.479300
O11	O1	0.239400	0.579500	0.392600
O21	O2	0.236100	0.719200	0.335700
O31	O3	0.356500	0.764400	0.285800
O41	O4	0.241300	0.796000	0.155000
C11	C1	0.242000	0.635200	0.336400
C21	C2	0.290300	0.741200	0.217300
C31	C3	0.250800	0.584900	0.262900
C41	C4	0.268800	0.639100	0.203100
C51	C5	0.266900	0.590300	0.131600
H11	H1	0.274100	0.621900	0.088500
C61	C6	0.254500	0.496000	0.123400
H21	H2	0.253600	0.464600	0.074700
C71	C7	0.243600	0.447000	0.184900
H31	H3	0.236500	0.382700	0.179300
C81	C8	0.100500	0.487700	0.377500
H41	H4	0.113700	0.550500	0.381400
C91	C9	0.104900	0.339200	0.371500
H51	H5	0.121600	0.279000	0.369200
C101	C10	0.038000	0.360500	0.370700
H61	H6	0.001100	0.318900	0.369100
C111	C11	0.973900	0.513800	0.373000
H71	H7	0.923300	0.501100	0.317200
H81	H8	0.986600	0.578900	0.371400
C121	C12	0.965400	0.498300	0.455100
H91	H9	0.928400	0.544500	0.452800
H101	H10	0.940900	0.437600	0.448000
C131	C13	0.396800	0.507000	0.526300
H111	H11	0.375300	0.566600	0.517100
C141	C14	0.409700	0.362300	0.514500
H121	H12	0.398900	0.301100	0.493300
C151	C15	0.480300	0.392600	0.584700
H131	H13	0.525200	0.356800	0.622300
C161	C16	0.530300	0.550800	0.657300
H141	H14	0.513100	0.614300	0.636800
H151	H15	0.581300	0.541800	0.662500
C171	C17	0.539400	0.536500	0.751500
H161	H16	0.572800	0.585700	0.792800
H171	H17	0.566100	0.477500	0.776900
Zn21	Zn2	0.743220	0.932390	0.368070
N61	N6	0.743300	0.994700	0.256100
N71	N7	0.535300	0.955600	0.372800
N81	N8	0.644400	0.918400	0.376100
N91	N9	0.972400	0.985600	0.589100
N101	N10	0.857000	0.932900	0.479300
O51	O5	0.739400	0.079500	0.392600
O61	O6	0.736100	0.219200	0.335700
O71	O7	0.856500	0.264400	0.285800
O81	O8	0.741300	0.296000	0.155000
C181	C18	0.742000	0.135200	0.336400
C191	C19	0.790300	0.241200	0.217300
C201	C20	0.750800	0.084900	0.262900
C211	C21	0.768800	0.139100	0.203100
C221	C22	0.766900	0.090300	0.131600
H181	H18	0.774100	0.121900	0.088500
C231	C23	0.754500	0.996000	0.123400
H191	H19	0.753600	0.964600	0.074700
C241	C24	0.743600	0.947000	0.184900
H201	H20	0.736500	0.882700	0.179300
C251	C25	0.600500	0.987700	0.377500
H211	H21	0.613700	0.050500	0.381400
C261	C26	0.604900	0.839200	0.371500
H221	H22	0.621600	0.779000	0.369200
C271	C27	0.538000	0.860500	0.370700
H231	H23	0.501100	0.818900	0.369100
C281	C28	0.473900	0.013800	0.373000
H241	H24	0.423300	0.001100	0.317200
H251	H25	0.486600	0.078900	0.371400
C291	C29	0.465400	0.998300	0.455100
H261	H26	0.428400	0.044500	0.452800
H271	H27	0.440900	0.937600	0.448000
C301	C30	0.896800	0.007000	0.526300
H281	H28	0.875300	0.066600	0.517100
C311	C31	0.909700	0.862300	0.514500
H291	H29	0.898900	0.801100	0.493300
C321	C32	0.980300	0.892600	0.584700
H301	H30	0.025200	0.856800	0.622300
C331	C33	0.030300	0.050800	0.657300
H311	H31	0.013100	0.114300	0.636800
H321	H32	0.081300	0.041800	0.662500
C341	C34	0.039400	0.036500	0.751500
H331	H33	0.072800	0.085700	0.792800
H341	H34	0.066100	0.977500	0.776900
Zn31	Zn3	0.756780	0.432390	0.131930
N111	N11	0.756700	0.494700	0.243900
N121	N12	0.964700	0.455600	0.127200
N131	N13	0.855600	0.418400	0.123900
N141	N14	0.527600	0.485600	0.910900
N151	N15	0.643000	0.432900	0.020700
O91	O9	0.760600	0.579500	0.107400
O101	O10	0.763900	0.719200	0.164300
O111	O11	0.643500	0.764400	0.214200
O121	O12	0.758700	0.796000	0.345000
C351	C35	0.758000	0.635200	0.163600
C361	C36	0.709700	0.741200	0.282700
C371	C37	0.749200	0.584900	0.237100
C381	C38	0.731200	0.639100	0.296900
C391	C39	0.733100	0.590300	0.368400
H351	H35	0.725900	0.621900	0.411500
C401	C40	0.745500	0.496000	0.376600
H361	H36	0.746400	0.464600	0.425300
C411	C41	0.756400	0.447000	0.315100
H371	H37	0.763500	0.382700	0.320700
C421	C42	0.899500	0.487700	0.122500
H381	H38	0.886300	0.550500	0.118600
C431	C43	0.895100	0.339200	0.128500
H391	H39	0.878400	0.279000	0.130800
C441	C44	0.962000	0.360500	0.129300
H401	H40	0.998900	0.318900	0.130900
C451	C45	0.026100	0.513800	0.127000
H411	H41	0.076700	0.501100	0.182800
H421	H42	0.013400	0.578900	0.128600
C461	C46	0.034600	0.498300	0.044900
H431	H43	0.071600	0.544500	0.047200
H441	H44	0.059100	0.437600	0.052000
C471	C47	0.603200	0.507000	0.973700
H451	H45	0.624700	0.566600	0.982900
C481	C48	0.590300	0.362300	0.985500
H461	H46	0.601100	0.301100	0.006700
C491	C49	0.519700	0.392600	0.915300
H471	H47	0.474800	0.356800	0.877700
C501	C50	0.469700	0.550800	0.842700
H481	H48	0.486900	0.614300	0.863200
H491	H49	0.418700	0.541800	0.837500
C511	C51	0.460600	0.536500	0.748500
H501	H50	0.427200	0.585700	0.707200
H511	H51	0.433900	0.477500	0.723100
Zn41	Zn4	0.256780	0.932390	0.131930
N161	N16	0.256700	0.994700	0.243900
N171	N17	0.464700	0.955600	0.127200
N181	N18	0.355600	0.918400	0.123900
N191	N19	0.027600	0.985600	0.910900
N201	N20	0.143000	0.932900	0.020700
O131	O13	0.260600	0.079500	0.107400
O141	O14	0.263900	0.219200	0.164300
O151	O15	0.143500	0.264400	0.214200
O161	O16	0.258700	0.296000	0.345000
C521	C52	0.258000	0.135200	0.163600
C531	C53	0.209700	0.241200	0.282700
C541	C54	0.249200	0.084900	0.237100
C551	C55	0.231200	0.139100	0.296900
C561	C56	0.233100	0.090300	0.368400
H521	H52	0.225900	0.121900	0.411500
C571	C57	0.245500	0.996000	0.376600
H531	H53	0.246400	0.964600	0.425300
C581	C58	0.256400	0.947000	0.315100
H541	H54	0.263500	0.882700	0.320700
C591	C59	0.399500	0.987700	0.122500
H551	H55	0.386300	0.050500	0.118600
C601	C60	0.395100	0.839200	0.128500
H561	H56	0.378400	0.779000	0.130800
C611	C61	0.462000	0.860500	0.129300
H571	H57	0.498900	0.818900	0.130900
C621	C62	0.526100	0.013800	0.127000
H581	H58	0.576700	0.001100	0.182800
H591	H59	0.513400	0.078900	0.128600
C631	C63	0.534600	0.998300	0.044900
H601	H60	0.571600	0.044500	0.047200
H611	H61	0.559100	0.937600	0.052000
C641	C64	0.103200	0.007000	0.973700
H621	H62	0.124700	0.066600	0.982900
C651	C65	0.090300	0.862300	0.985500
H631	H63	0.101100	0.801100	0.006700
C661	C66	0.019700	0.892600	0.915300
H641	H64	0.974800	0.856800	0.877700
C671	C67	0.969700	0.050800	0.842700
H651	H65	0.986900	0.114300	0.863200
H661	H66	0.918700	0.041800	0.837500
C681	C68	0.960600	0.036500	0.748500
H671	H67	0.927200	0.085700	0.707200
H681	H68	0.933900	0.977500	0.723100
Zn51	Zn5	0.756780	0.567610	0.631930
N211	N21	0.756700	0.505300	0.743900
N221	N22	0.964700	0.544400	0.627200
N231	N23	0.855600	0.581600	0.623900
N241	N24	0.527600	0.514400	0.410900
N251	N25	0.643000	0.567100	0.520700
O171	O17	0.760600	0.420500	0.607400
O181	O18	0.763900	0.280800	0.664300
O191	O19	0.643500	0.235600	0.714200
O201	O20	0.758700	0.204000	0.845000
C691	C69	0.758000	0.364800	0.663600
C701	C70	0.709700	0.258800	0.782700
C711	C71	0.749200	0.415100	0.737100
C721	C72	0.731200	0.360900	0.796900
C731	C73	0.733100	0.409700	0.868400
H691	H69	0.725900	0.378100	0.911500
C741	C74	0.745500	0.504000	0.876600
H701	H70	0.746400	0.535400	0.925300
C751	C75	0.756400	0.553000	0.815100
H711	H71	0.763500	0.617300	0.820700
C761	C76	0.899500	0.512300	0.622500
H721	H72	0.886300	0.449500	0.618600
C771	C77	0.895100	0.660800	0.628500
H731	H73	0.878400	0.721000	0.630800
C781	C78	0.962000	0.639500	0.629300
H741	H74	0.998900	0.681100	0.630900
C791	C79	0.026100	0.486200	0.627000
H751	H75	0.076700	0.498900	0.682800
H761	H76	0.013400	0.421100	0.628600
C801	C80	0.034600	0.501700	0.544900
H771	H77	0.071600	0.455500	0.547200
H781	H78	0.059100	0.562400	0.552000
C811	C81	0.603200	0.493000	0.473700
H791	H79	0.624700	0.433400	0.482900
C821	C82	0.590300	0.637700	0.485500
H801	H80	0.601100	0.698900	0.506700
C831	C83	0.519700	0.607400	0.415300
H811	H81	0.474800	0.643200	0.377700
C841	C84	0.469700	0.449200	0.342700
H821	H82	0.486900	0.385700	0.363200
H831	H83	0.418700	0.458200	0.337500
C851	C85	0.460600	0.463500	0.248500
H841	H84	0.427200	0.414300	0.207200
H851	H85	0.433900	0.522500	0.223100
Zn61	Zn6	0.256780	0.067610	0.631930
N261	N26	0.256700	0.005300	0.743900
N271	N27	0.464700	0.044400	0.627200
N281	N28	0.355600	0.081600	0.623900
N291	N29	0.027600	0.014400	0.410900
N301	N30	0.143000	0.067100	0.520700
O211	O21	0.260600	0.920500	0.607400
O221	O22	0.263900	0.780800	0.664300
O231	O23	0.143500	0.735600	0.714200
O241	O24	0.258700	0.704000	0.845000
C861	C86	0.258000	0.864800	0.663600
C871	C87	0.209700	0.758800	0.782700
C881	C88	0.249200	0.915100	0.737100
C891	C89	0.231200	0.860900	0.796900
C901	C90	0.233100	0.909700	0.868400
H861	H86	0.225900	0.878100	0.911500
C911	C91	0.245500	0.004000	0.876600
H871	H87	0.246400	0.035400	0.925300
C921	C92	0.256400	0.053000	0.815100
H881	H88	0.263500	0.117300	0.820700
C931	C93	0.399500	0.012300	0.622500
H891	H89	0.386300	0.949500	0.618600
C941	C94	0.395100	0.160800	0.628500
H901	H90	0.378400	0.221000	0.630800
C951	C95	0.462000	0.139500	0.629300
H911	H91	0.498900	0.181100	0.630900
C961	C96	0.526100	0.986200	0.627000
H921	H92	0.576700	0.998900	0.682800
H931	H93	0.513400	0.921100	0.628600
C971	C97	0.534600	0.001700	0.544900
H941	H94	0.571600	0.955500	0.547200
H951	H95	0.559100	0.062400	0.552000
C981	C98	0.103200	0.993000	0.473700
H961	H96	0.124700	0.933400	0.482900
C991	C99	0.090300	0.137700	0.485500
H971	H97	0.101100	0.198900	0.506700
C1001	C100	0.019700	0.107400	0.415300
H981	H98	0.974800	0.143200	0.377700
C1011	C101	0.969700	0.949200	0.342700
H991	H99	0.986900	0.885700	0.363200
H1001	H100	0.918700	0.958200	0.337500
C1021	C102	0.960600	0.963500	0.248500
H1011	H101	0.927200	0.914300	0.207200
H1021	H102	0.933900	0.022500	0.223100
Zn71	Zn7	0.243220	0.567610	0.868070
N311	N31	0.243300	0.505300	0.756100
N321	N32	0.035300	0.544400	0.872800
N331	N33	0.144400	0.581600	0.876100
N341	N34	0.472400	0.514400	0.089100
N351	N35	0.357000	0.567100	0.979300
O251	O25	0.239400	0.420500	0.892600
O261	O26	0.236100	0.280800	0.835700
O271	O27	0.356500	0.235600	0.785800
O281	O28	0.241300	0.204000	0.655000
C1031	C103	0.242000	0.364800	0.836400
C1041	C104	0.290300	0.258800	0.717300
C1051	C105	0.250800	0.415100	0.762900
C1061	C106	0.268800	0.360900	0.703100
C1071	C107	0.266900	0.409700	0.631600
H1031	H103	0.274100	0.378100	0.588500
C1081	C108	0.254500	0.504000	0.623400
H1041	H104	0.253600	0.535400	0.574700
C1091	C109	0.243600	0.553000	0.684900
H1051	H105	0.236500	0.617300	0.679300
C1101	C110	0.100500	0.512300	0.877500
H1061	H106	0.113700	0.449500	0.881400
C1111	C111	0.104900	0.660800	0.871500
H1071	H107	0.121600	0.721000	0.869200
C1121	C112	0.038000	0.639500	0.870700
H1081	H108	0.001100	0.681100	0.869100
C1131	C113	0.973900	0.486200	0.873000
H1091	H109	0.923300	0.498900	0.817200
H1101	H110	0.986600	0.421100	0.871400
C1141	C114	0.965400	0.501700	0.955100
H1111	H111	0.928400	0.455500	0.952800
H1121	H112	0.940900	0.562400	0.948000
C1151	C115	0.396800	0.493000	0.026300
H1131	H113	0.375300	0.433400	0.017100
C1161	C116	0.409700	0.637700	0.014500
H1141	H114	0.398900	0.698900	0.993300
C1171	C117	0.480300	0.607400	0.084700
H1151	H115	0.525200	0.643200	0.122300
C1181	C118	0.530300	0.449200	0.157300
H1161	H116	0.513100	0.385700	0.136800
H1171	H117	0.581300	0.458200	0.162500
C1191	C119	0.539400	0.463500	0.251500
H1181	H118	0.572800	0.414300	0.292800
H1191	H119	0.566100	0.522500	0.276900
Zn81	Zn8	0.743220	0.067610	0.868070
N361	N36	0.743300	0.005300	0.756100
N371	N37	0.535300	0.044400	0.872800
N381	N38	0.644400	0.081600	0.876100
N391	N39	0.972400	0.014400	0.089100
N401	N40	0.857000	0.067100	0.979300
O291	O29	0.739400	0.920500	0.892600
O301	O30	0.736100	0.780800	0.835700
O311	O31	0.856500	0.735600	0.785800
O321	O32	0.741300	0.704000	0.655000
C1201	C120	0.742000	0.864800	0.836400
C1211	C121	0.790300	0.758800	0.717300
C1221	C122	0.750800	0.915100	0.762900
C1231	C123	0.768800	0.860900	0.703100
C1241	C124	0.766900	0.909700	0.631600
H1201	H120	0.774100	0.878100	0.588500
C1251	C125	0.754500	0.004000	0.623400
H1211	H121	0.753600	0.035400	0.574700
C1261	C126	0.743600	0.053000	0.684900
H1221	H122	0.736500	0.117300	0.679300
C1271	C127	0.600500	0.012300	0.877500
H1231	H123	0.613700	0.949500	0.881400
C1281	C128	0.604900	0.160800	0.871500
H1241	H124	0.621600	0.221000	0.869200
C1291	C129	0.538000	0.139500	0.870700
H1251	H125	0.501100	0.181100	0.869100
C1301	C130	0.473900	0.986200	0.873000
H1261	H126	0.423300	0.998900	0.817200
H1271	H127	0.486600	0.921100	0.871400
C1311	C131	0.465400	0.001700	0.955100
H1281	H128	0.428400	0.955500	0.952800
H1291	H129	0.440900	0.062400	0.948000
C1321	C132	0.896800	0.993000	0.026300
H1301	H130	0.875300	0.933400	0.017100
C1331	C133	0.909700	0.137700	0.014500
H1311	H131	0.898900	0.198900	0.993300
C1341	C134	0.980300	0.107400	0.084700
H1321	H132	0.025200	0.143200	0.122300
C1351	C135	0.030300	0.949200	0.157300
H1331	H133	0.013100	0.885700	0.136800
H1341	H134	0.081300	0.958200	0.162500
C1361	C136	0.039400	0.963500	0.251500
H1351	H135	0.072800	0.914300	0.292800
H1361	H136	0.066100	0.022500	0.276900
