data_HOGJOD_freeONLY_PM
_symmetry_space_group_name_H-M	'P1'
_cell_length_a	17.481000
_cell_length_b	24.505000
_cell_length_c	21.049000
_cell_angle_alpha	90.000000
_cell_angle_beta	92.995000
_cell_angle_gamma	90.000000
_symmetry_Int_Tables_number 1

loop_
_symmetry_equiv_pos_as_xyz
'x,y,z'

loop_
_atom_site_label
_atom_site_type_symbol
_atom_site_fract_x
_atom_site_fract_y
_atom_site_fract_z
Ru11	Ru1	0.964380	0.532670	0.474020
Ru21	Ru2	0.557060	0.617620	0.278790
S11	S1	0.561920	0.759160	0.442410
F11	F1	0.172600	0.569300	0.209300
F21	F2	0.345100	0.467300	0.327400
F31	F3	0.151400	0.757900	0.609700
F41	F4	0.249200	0.635800	0.732900
F51	F5	0.191300	0.607700	0.468300
F61	F6	0.605800	0.333700	0.313200
F71	F7	0.589900	0.903300	0.305000
O11	O1	0.041000	0.536180	0.406100
O21	O2	0.112100	0.472040	0.456600
O31	O3	0.024200	0.591150	0.524900
O41	O4	0.093600	0.526440	0.576500
O51	O5	0.386000	0.616260	0.304200
O61	O6	0.498000	0.619120	0.360600
O71	O7	0.555400	0.533120	0.279980
O81	O8	0.556800	0.701620	0.277200
N11	N1	0.888500	0.594100	0.425900
N21	N2	0.668700	0.620100	0.338200
N31	N3	0.625600	0.714500	0.428000
N41	N4	0.610000	0.799300	0.491000
C11	C1	0.099800	0.505400	0.411000
C21	C2	0.156300	0.509100	0.361200
C31	C3	0.136400	0.537600	0.304900
C41	C4	0.189900	0.541400	0.258900
C51	C5	0.261100	0.516700	0.265900
C61	C6	0.278200	0.487300	0.321100
C71	C7	0.226500	0.483400	0.367900
C81	C8	0.076000	0.575800	0.565700
C91	C9	0.119300	0.617700	0.602700
C101	C10	0.113800	0.670500	0.586300
C111	C11	0.157700	0.710400	0.617500
C121	C12	0.206600	0.695400	0.670600
C131	C13	0.211500	0.639700	0.688100
C141	C14	0.165900	0.602300	0.654900
C151	C15	0.425800	0.618300	0.356000
C161	C16	0.384100	0.619900	0.417100
C171	C17	0.304600	0.613600	0.413900
C181	C18	0.268800	0.615500	0.469200
C191	C19	0.305400	0.625100	0.527800
C201	C20	0.385600	0.631500	0.530000
C211	C21	0.423700	0.628200	0.474800
C221	C22	0.558700	0.420000	0.282700
C231	C23	0.558700	0.363000	0.281800
C241	C24	0.556000	0.815400	0.283200
C251	C25	0.556600	0.872000	0.284900
C261	C26	0.836100	0.621800	0.425100
C271	C27	0.768300	0.653400	0.422200
C281	C28	0.711400	0.635000	0.376800
C291	C29	0.759600	0.699700	0.460700
C301	C30	0.689400	0.729200	0.460700
C311	C31	0.680000	0.777500	0.498100
H11	H1	0.087300	0.553800	0.298500
H21	H2	0.297100	0.519700	0.233800
H31	H3	0.239200	0.462800	0.405200
H41	H4	0.078800	0.680900	0.552400
H51	H5	0.235500	0.722300	0.693900
H61	H6	0.166500	0.565200	0.668100
H71	H7	0.276900	0.608200	0.374400
H81	H8	0.277600	0.627400	0.565300
H91	H9	0.413000	0.638000	0.569400
H101	H10	0.477900	0.631700	0.476200
H111	H11	0.598400	0.439500	0.305400
H121	H12	0.595700	0.796000	0.305900
Ru31	Ru3	0.464380	0.032670	0.474020
Ru41	Ru4	0.057060	0.117620	0.278790
S21	S2	0.061920	0.259160	0.442410
F81	F8	0.672600	0.069300	0.209300
F91	F9	0.845100	0.967300	0.327400
F101	F10	0.651400	0.257900	0.609700
F111	F11	0.749200	0.135800	0.732900
F121	F12	0.691300	0.107700	0.468300
F131	F13	0.105800	0.833700	0.313200
F141	F14	0.089900	0.403300	0.305000
O91	O9	0.541000	0.036180	0.406100
O101	O10	0.612100	0.972040	0.456600
O111	O11	0.524200	0.091150	0.524900
O121	O12	0.593600	0.026440	0.576500
O131	O13	0.886000	0.116260	0.304200
O141	O14	0.998000	0.119120	0.360600
O151	O15	0.055400	0.033120	0.279980
O161	O16	0.056800	0.201620	0.277200
N51	N5	0.388500	0.094100	0.425900
N61	N6	0.168700	0.120100	0.338200
N71	N7	0.125600	0.214500	0.428000
N81	N8	0.110000	0.299300	0.491000
C321	C32	0.599800	0.005400	0.411000
C331	C33	0.656300	0.009100	0.361200
C341	C34	0.636400	0.037600	0.304900
C351	C35	0.689900	0.041400	0.258900
C361	C36	0.761100	0.016700	0.265900
C371	C37	0.778200	0.987300	0.321100
C381	C38	0.726500	0.983400	0.367900
C391	C39	0.576000	0.075800	0.565700
C401	C40	0.619300	0.117700	0.602700
C411	C41	0.613800	0.170500	0.586300
C421	C42	0.657700	0.210400	0.617500
C431	C43	0.706600	0.195400	0.670600
C441	C44	0.711500	0.139700	0.688100
C451	C45	0.665900	0.102300	0.654900
C461	C46	0.925800	0.118300	0.356000
C471	C47	0.884100	0.119900	0.417100
C481	C48	0.804600	0.113600	0.413900
C491	C49	0.768800	0.115500	0.469200
C501	C50	0.805400	0.125100	0.527800
C511	C51	0.885600	0.131500	0.530000
C521	C52	0.923700	0.128200	0.474800
C531	C53	0.058700	0.920000	0.282700
C541	C54	0.058700	0.863000	0.281800
C551	C55	0.056000	0.315400	0.283200
C561	C56	0.056600	0.372000	0.284900
C571	C57	0.336100	0.121800	0.425100
C581	C58	0.268300	0.153400	0.422200
C591	C59	0.211400	0.135000	0.376800
C601	C60	0.259600	0.199700	0.460700
C611	C61	0.189400	0.229200	0.460700
C621	C62	0.180000	0.277500	0.498100
H131	H13	0.587300	0.053800	0.298500
H141	H14	0.797100	0.019700	0.233800
H151	H15	0.739200	0.962800	0.405200
H161	H16	0.578800	0.180900	0.552400
H171	H17	0.735500	0.222300	0.693900
H181	H18	0.666500	0.065200	0.668100
H191	H19	0.776900	0.108200	0.374400
H201	H20	0.777600	0.127400	0.565300
H211	H21	0.913000	0.138000	0.569400
H221	H22	0.977900	0.131700	0.476200
H231	H23	0.098400	0.939500	0.305400
H241	H24	0.095700	0.296000	0.305900
Ru51	Ru5	0.035620	0.532670	0.025980
Ru61	Ru6	0.442940	0.617620	0.221210
S31	S3	0.438080	0.759160	0.057590
F151	F15	0.827400	0.569300	0.290700
F161	F16	0.654900	0.467300	0.172600
F171	F17	0.848600	0.757900	0.890300
F181	F18	0.750800	0.635800	0.767100
F191	F19	0.808700	0.607700	0.031700
F201	F20	0.394200	0.333700	0.186800
F211	F21	0.410100	0.903300	0.195000
O171	O17	0.959000	0.536180	0.093900
O181	O18	0.887900	0.472040	0.043400
O191	O19	0.975800	0.591150	0.975100
O201	O20	0.906400	0.526440	0.923500
O211	O21	0.614000	0.616260	0.195800
O221	O22	0.502000	0.619120	0.139400
O231	O23	0.444600	0.533120	0.220020
O241	O24	0.443200	0.701620	0.222800
N91	N9	0.111500	0.594100	0.074100
N101	N10	0.331300	0.620100	0.161800
N111	N11	0.374400	0.714500	0.072000
N121	N12	0.390000	0.799300	0.009000
C631	C63	0.900200	0.505400	0.089000
C641	C64	0.843700	0.509100	0.138800
C651	C65	0.863600	0.537600	0.195100
C661	C66	0.810100	0.541400	0.241100
C671	C67	0.738900	0.516700	0.234100
C681	C68	0.721800	0.487300	0.178900
C691	C69	0.773500	0.483400	0.132100
C701	C70	0.924000	0.575800	0.934300
C711	C71	0.880700	0.617700	0.897300
C721	C72	0.886200	0.670500	0.913700
C731	C73	0.842300	0.710400	0.882500
C741	C74	0.793400	0.695400	0.829400
C751	C75	0.788500	0.639700	0.811900
C761	C76	0.834100	0.602300	0.845100
C771	C77	0.574200	0.618300	0.144000
C781	C78	0.615900	0.619900	0.082900
C791	C79	0.695400	0.613600	0.086100
C801	C80	0.731200	0.615500	0.030800
C811	C81	0.694600	0.625100	0.972200
C821	C82	0.614400	0.631500	0.970000
C831	C83	0.576300	0.628200	0.025200
C841	C84	0.441300	0.420000	0.217300
C851	C85	0.441300	0.363000	0.218200
C861	C86	0.444000	0.815400	0.216800
C871	C87	0.443400	0.872000	0.215100
C881	C88	0.163900	0.621800	0.074900
C891	C89	0.231700	0.653400	0.077800
C901	C90	0.288600	0.635000	0.123200
C911	C91	0.240400	0.699700	0.039300
C921	C92	0.310600	0.729200	0.039300
C931	C93	0.320000	0.777500	0.001900
H251	H25	0.912700	0.553800	0.201500
H261	H26	0.702900	0.519700	0.266200
H271	H27	0.760800	0.462800	0.094800
H281	H28	0.921200	0.680900	0.947600
H291	H29	0.764500	0.722300	0.806100
H301	H30	0.833500	0.565200	0.831900
H311	H31	0.723100	0.608200	0.125600
H321	H32	0.722400	0.627400	0.934700
H331	H33	0.587000	0.638000	0.930600
H341	H34	0.522100	0.631700	0.023800
H351	H35	0.401600	0.439500	0.194600
H361	H36	0.404300	0.796000	0.194100
Ru71	Ru7	0.535620	0.032670	0.025980
Ru81	Ru8	0.942940	0.117620	0.221210
S41	S4	0.938080	0.259160	0.057590
F221	F22	0.327400	0.069300	0.290700
F231	F23	0.154900	0.967300	0.172600
F241	F24	0.348600	0.257900	0.890300
F251	F25	0.250800	0.135800	0.767100
F261	F26	0.308700	0.107700	0.031700
F271	F27	0.894200	0.833700	0.186800
F281	F28	0.910100	0.403300	0.195000
O251	O25	0.459000	0.036180	0.093900
O261	O26	0.387900	0.972040	0.043400
O271	O27	0.475800	0.091150	0.975100
O281	O28	0.406400	0.026440	0.923500
O291	O29	0.114000	0.116260	0.195800
O301	O30	0.002000	0.119120	0.139400
O311	O31	0.944600	0.033120	0.220020
O321	O32	0.943200	0.201620	0.222800
N131	N13	0.611500	0.094100	0.074100
N141	N14	0.831300	0.120100	0.161800
N151	N15	0.874400	0.214500	0.072000
N161	N16	0.890000	0.299300	0.009000
C941	C94	0.400200	0.005400	0.089000
C951	C95	0.343700	0.009100	0.138800
C961	C96	0.363600	0.037600	0.195100
C971	C97	0.310100	0.041400	0.241100
C981	C98	0.238900	0.016700	0.234100
C991	C99	0.221800	0.987300	0.178900
C1001	C100	0.273500	0.983400	0.132100
C1011	C101	0.424000	0.075800	0.934300
C1021	C102	0.380700	0.117700	0.897300
C1031	C103	0.386200	0.170500	0.913700
C1041	C104	0.342300	0.210400	0.882500
C1051	C105	0.293400	0.195400	0.829400
C1061	C106	0.288500	0.139700	0.811900
C1071	C107	0.334100	0.102300	0.845100
C1081	C108	0.074200	0.118300	0.144000
C1091	C109	0.115900	0.119900	0.082900
C1101	C110	0.195400	0.113600	0.086100
C1111	C111	0.231200	0.115500	0.030800
C1121	C112	0.194600	0.125100	0.972200
C1131	C113	0.114400	0.131500	0.970000
C1141	C114	0.076300	0.128200	0.025200
C1151	C115	0.941300	0.920000	0.217300
C1161	C116	0.941300	0.863000	0.218200
C1171	C117	0.944000	0.315400	0.216800
C1181	C118	0.943400	0.372000	0.215100
C1191	C119	0.663900	0.121800	0.074900
C1201	C120	0.731700	0.153400	0.077800
C1211	C121	0.788600	0.135000	0.123200
C1221	C122	0.740400	0.199700	0.039300
C1231	C123	0.810600	0.229200	0.039300
C1241	C124	0.820000	0.277500	0.001900
H371	H37	0.412700	0.053800	0.201500
H381	H38	0.202900	0.019700	0.266200
H391	H39	0.260800	0.962800	0.094800
H401	H40	0.421200	0.180900	0.947600
H411	H41	0.264500	0.222300	0.806100
H421	H42	0.333500	0.065200	0.831900
H431	H43	0.223100	0.108200	0.125600
H441	H44	0.222400	0.127400	0.934700
H451	H45	0.087000	0.138000	0.930600
H461	H46	0.022100	0.131700	0.023800
H471	H47	0.901600	0.939500	0.194600
H481	H48	0.904300	0.296000	0.194100
Ru91	Ru9	0.035620	0.467330	0.525980
Ru101	Ru10	0.442940	0.382380	0.721210
S51	S5	0.438080	0.240840	0.557590
F291	F29	0.827400	0.430700	0.790700
F301	F30	0.654900	0.532700	0.672600
F311	F31	0.848600	0.242100	0.390300
F321	F32	0.750800	0.364200	0.267100
F331	F33	0.808700	0.392300	0.531700
F341	F34	0.394200	0.666300	0.686800
F351	F35	0.410100	0.096700	0.695000
O331	O33	0.959000	0.463820	0.593900
O341	O34	0.887900	0.527960	0.543400
O351	O35	0.975800	0.408850	0.475100
O361	O36	0.906400	0.473560	0.423500
O371	O37	0.614000	0.383740	0.695800
O381	O38	0.502000	0.380880	0.639400
O391	O39	0.444600	0.466880	0.720020
O401	O40	0.443200	0.298380	0.722800
N171	N17	0.111500	0.405900	0.574100
N181	N18	0.331300	0.379900	0.661800
N191	N19	0.374400	0.285500	0.572000
N201	N20	0.390000	0.200700	0.509000
C1251	C125	0.900200	0.494600	0.589000
C1261	C126	0.843700	0.490900	0.638800
C1271	C127	0.863600	0.462400	0.695100
C1281	C128	0.810100	0.458600	0.741100
C1291	C129	0.738900	0.483300	0.734100
C1301	C130	0.721800	0.512700	0.678900
C1311	C131	0.773500	0.516600	0.632100
C1321	C132	0.924000	0.424200	0.434300
C1331	C133	0.880700	0.382300	0.397300
C1341	C134	0.886200	0.329500	0.413700
C1351	C135	0.842300	0.289600	0.382500
C1361	C136	0.793400	0.304600	0.329400
C1371	C137	0.788500	0.360300	0.311900
C1381	C138	0.834100	0.397700	0.345100
C1391	C139	0.574200	0.381700	0.644000
C1401	C140	0.615900	0.380100	0.582900
C1411	C141	0.695400	0.386400	0.586100
C1421	C142	0.731200	0.384500	0.530800
C1431	C143	0.694600	0.374900	0.472200
C1441	C144	0.614400	0.368500	0.470000
C1451	C145	0.576300	0.371800	0.525200
C1461	C146	0.441300	0.580000	0.717300
C1471	C147	0.441300	0.637000	0.718200
C1481	C148	0.444000	0.184600	0.716800
C1491	C149	0.443400	0.128000	0.715100
C1501	C150	0.163900	0.378200	0.574900
C1511	C151	0.231700	0.346600	0.577800
C1521	C152	0.288600	0.365000	0.623200
C1531	C153	0.240400	0.300300	0.539300
C1541	C154	0.310600	0.270800	0.539300
C1551	C155	0.320000	0.222500	0.501900
H491	H49	0.912700	0.446200	0.701500
H501	H50	0.702900	0.480300	0.766200
H511	H51	0.760800	0.537200	0.594800
H521	H52	0.921200	0.319100	0.447600
H531	H53	0.764500	0.277700	0.306100
H541	H54	0.833500	0.434800	0.331900
H551	H55	0.723100	0.391800	0.625600
H561	H56	0.722400	0.372600	0.434700
H571	H57	0.587000	0.362000	0.430600
H581	H58	0.522100	0.368300	0.523800
H591	H59	0.401600	0.560500	0.694600
H601	H60	0.404300	0.204000	0.694100
Ru111	Ru11	0.535620	0.967330	0.525980
Ru121	Ru12	0.942940	0.882380	0.721210
S61	S6	0.938080	0.740840	0.557590
F361	F36	0.327400	0.930700	0.790700
F371	F37	0.154900	0.032700	0.672600
F381	F38	0.348600	0.742100	0.390300
F391	F39	0.250800	0.864200	0.267100
F401	F40	0.308700	0.892300	0.531700
F411	F41	0.894200	0.166300	0.686800
F421	F42	0.910100	0.596700	0.695000
O411	O41	0.459000	0.963820	0.593900
O421	O42	0.387900	0.027960	0.543400
O431	O43	0.475800	0.908850	0.475100
O441	O44	0.406400	0.973560	0.423500
O451	O45	0.114000	0.883740	0.695800
O461	O46	0.002000	0.880880	0.639400
O471	O47	0.944600	0.966880	0.720020
O481	O48	0.943200	0.798380	0.722800
N211	N21	0.611500	0.905900	0.574100
N221	N22	0.831300	0.879900	0.661800
N231	N23	0.874400	0.785500	0.572000
N241	N24	0.890000	0.700700	0.509000
C1561	C156	0.400200	0.994600	0.589000
C1571	C157	0.343700	0.990900	0.638800
C1581	C158	0.363600	0.962400	0.695100
C1591	C159	0.310100	0.958600	0.741100
C1601	C160	0.238900	0.983300	0.734100
C1611	C161	0.221800	0.012700	0.678900
C1621	C162	0.273500	0.016600	0.632100
C1631	C163	0.424000	0.924200	0.434300
C1641	C164	0.380700	0.882300	0.397300
C1651	C165	0.386200	0.829500	0.413700
C1661	C166	0.342300	0.789600	0.382500
C1671	C167	0.293400	0.804600	0.329400
C1681	C168	0.288500	0.860300	0.311900
C1691	C169	0.334100	0.897700	0.345100
C1701	C170	0.074200	0.881700	0.644000
C1711	C171	0.115900	0.880100	0.582900
C1721	C172	0.195400	0.886400	0.586100
C1731	C173	0.231200	0.884500	0.530800
C1741	C174	0.194600	0.874900	0.472200
C1751	C175	0.114400	0.868500	0.470000
C1761	C176	0.076300	0.871800	0.525200
C1771	C177	0.941300	0.080000	0.717300
C1781	C178	0.941300	0.137000	0.718200
C1791	C179	0.944000	0.684600	0.716800
C1801	C180	0.943400	0.628000	0.715100
C1811	C181	0.663900	0.878200	0.574900
C1821	C182	0.731700	0.846600	0.577800
C1831	C183	0.788600	0.865000	0.623200
C1841	C184	0.740400	0.800300	0.539300
C1851	C185	0.810600	0.770800	0.539300
C1861	C186	0.820000	0.722500	0.501900
H611	H61	0.412700	0.946200	0.701500
H621	H62	0.202900	0.980300	0.766200
H631	H63	0.260800	0.037200	0.594800
H641	H64	0.421200	0.819100	0.447600
H651	H65	0.264500	0.777700	0.306100
H661	H66	0.333500	0.934800	0.331900
H671	H67	0.223100	0.891800	0.625600
H681	H68	0.222400	0.872600	0.434700
H691	H69	0.087000	0.862000	0.430600
H701	H70	0.022100	0.868300	0.523800
H711	H71	0.901600	0.060500	0.694600
H721	H72	0.904300	0.704000	0.694100
Ru131	Ru13	0.964380	0.467330	0.974020
Ru141	Ru14	0.557060	0.382380	0.778790
S71	S7	0.561920	0.240840	0.942410
F431	F43	0.172600	0.430700	0.709300
F441	F44	0.345100	0.532700	0.827400
F451	F45	0.151400	0.242100	0.109700
F461	F46	0.249200	0.364200	0.232900
F471	F47	0.191300	0.392300	0.968300
F481	F48	0.605800	0.666300	0.813200
F491	F49	0.589900	0.096700	0.805000
O491	O49	0.041000	0.463820	0.906100
O501	O50	0.112100	0.527960	0.956600
O511	O51	0.024200	0.408850	0.024900
O521	O52	0.093600	0.473560	0.076500
O531	O53	0.386000	0.383740	0.804200
O541	O54	0.498000	0.380880	0.860600
O551	O55	0.555400	0.466880	0.779980
O561	O56	0.556800	0.298380	0.777200
N251	N25	0.888500	0.405900	0.925900
N261	N26	0.668700	0.379900	0.838200
N271	N27	0.625600	0.285500	0.928000
N281	N28	0.610000	0.200700	0.991000
C1871	C187	0.099800	0.494600	0.911000
C1881	C188	0.156300	0.490900	0.861200
C1891	C189	0.136400	0.462400	0.804900
C1901	C190	0.189900	0.458600	0.758900
C1911	C191	0.261100	0.483300	0.765900
C1921	C192	0.278200	0.512700	0.821100
C1931	C193	0.226500	0.516600	0.867900
C1941	C194	0.076000	0.424200	0.065700
C1951	C195	0.119300	0.382300	0.102700
C1961	C196	0.113800	0.329500	0.086300
C1971	C197	0.157700	0.289600	0.117500
C1981	C198	0.206600	0.304600	0.170600
C1991	C199	0.211500	0.360300	0.188100
C2001	C200	0.165900	0.397700	0.154900
C2011	C201	0.425800	0.381700	0.856000
C2021	C202	0.384100	0.380100	0.917100
C2031	C203	0.304600	0.386400	0.913900
C2041	C204	0.268800	0.384500	0.969200
C2051	C205	0.305400	0.374900	0.027800
C2061	C206	0.385600	0.368500	0.030000
C2071	C207	0.423700	0.371800	0.974800
C2081	C208	0.558700	0.580000	0.782700
C2091	C209	0.558700	0.637000	0.781800
C2101	C210	0.556000	0.184600	0.783200
C2111	C211	0.556600	0.128000	0.784900
C2121	C212	0.836100	0.378200	0.925100
C2131	C213	0.768300	0.346600	0.922200
C2141	C214	0.711400	0.365000	0.876800
C2151	C215	0.759600	0.300300	0.960700
C2161	C216	0.689400	0.270800	0.960700
C2171	C217	0.680000	0.222500	0.998100
H731	H73	0.087300	0.446200	0.798500
H741	H74	0.297100	0.480300	0.733800
H751	H75	0.239200	0.537200	0.905200
H761	H76	0.078800	0.319100	0.052400
H771	H77	0.235500	0.277700	0.193900
H781	H78	0.166500	0.434800	0.168100
H791	H79	0.276900	0.391800	0.874400
H801	H80	0.277600	0.372600	0.065300
H811	H81	0.413000	0.362000	0.069400
H821	H82	0.477900	0.368300	0.976200
H831	H83	0.598400	0.560500	0.805400
H841	H84	0.595700	0.204000	0.805900
Ru151	Ru15	0.464380	0.967330	0.974020
Ru161	Ru16	0.057060	0.882380	0.778790
S81	S8	0.061920	0.740840	0.942410
F501	F50	0.672600	0.930700	0.709300
F511	F51	0.845100	0.032700	0.827400
F521	F52	0.651400	0.742100	0.109700
F531	F53	0.749200	0.864200	0.232900
F541	F54	0.691300	0.892300	0.968300
F551	F55	0.105800	0.166300	0.813200
F561	F56	0.089900	0.596700	0.805000
O571	O57	0.541000	0.963820	0.906100
O581	O58	0.612100	0.027960	0.956600
O591	O59	0.524200	0.908850	0.024900
O601	O60	0.593600	0.973560	0.076500
O611	O61	0.886000	0.883740	0.804200
O621	O62	0.998000	0.880880	0.860600
O631	O63	0.055400	0.966880	0.779980
O641	O64	0.056800	0.798380	0.777200
N291	N29	0.388500	0.905900	0.925900
N301	N30	0.168700	0.879900	0.838200
N311	N31	0.125600	0.785500	0.928000
N321	N32	0.110000	0.700700	0.991000
C2181	C218	0.599800	0.994600	0.911000
C2191	C219	0.656300	0.990900	0.861200
C2201	C220	0.636400	0.962400	0.804900
C2211	C221	0.689900	0.958600	0.758900
C2221	C222	0.761100	0.983300	0.765900
C2231	C223	0.778200	0.012700	0.821100
C2241	C224	0.726500	0.016600	0.867900
C2251	C225	0.576000	0.924200	0.065700
C2261	C226	0.619300	0.882300	0.102700
C2271	C227	0.613800	0.829500	0.086300
C2281	C228	0.657700	0.789600	0.117500
C2291	C229	0.706600	0.804600	0.170600
C2301	C230	0.711500	0.860300	0.188100
C2311	C231	0.665900	0.897700	0.154900
C2321	C232	0.925800	0.881700	0.856000
C2331	C233	0.884100	0.880100	0.917100
C2341	C234	0.804600	0.886400	0.913900
C2351	C235	0.768800	0.884500	0.969200
C2361	C236	0.805400	0.874900	0.027800
C2371	C237	0.885600	0.868500	0.030000
C2381	C238	0.923700	0.871800	0.974800
C2391	C239	0.058700	0.080000	0.782700
C2401	C240	0.058700	0.137000	0.781800
C2411	C241	0.056000	0.684600	0.783200
C2421	C242	0.056600	0.628000	0.784900
C2431	C243	0.336100	0.878200	0.925100
C2441	C244	0.268300	0.846600	0.922200
C2451	C245	0.211400	0.865000	0.876800
C2461	C246	0.259600	0.800300	0.960700
C2471	C247	0.189400	0.770800	0.960700
C2481	C248	0.180000	0.722500	0.998100
H851	H85	0.587300	0.946200	0.798500
H861	H86	0.797100	0.980300	0.733800
H871	H87	0.739200	0.037200	0.905200
H881	H88	0.578800	0.819100	0.052400
H891	H89	0.735500	0.777700	0.193900
H901	H90	0.666500	0.934800	0.168100
H911	H91	0.776900	0.891800	0.874400
H921	H92	0.777600	0.872600	0.065300
H931	H93	0.913000	0.862000	0.069400
H941	H94	0.977900	0.868300	0.976200
H951	H95	0.098400	0.060500	0.805400
H961	H96	0.095700	0.704000	0.805900
C2491	C249	0.500000	0.508800	0.250000
C2501	C250	0.500000	0.447600	0.250000
C2511	C251	0.500000	0.333400	0.250000
C2521	C252	0.500000	0.724700	0.250000
C2531	C253	0.500000	0.786900	0.250000
C2541	C254	0.500000	0.900500	0.250000
H971	H97	0.500000	0.294700	0.250000
H981	H98	0.500000	0.939200	0.250000
C2551	C255	0.000000	0.008800	0.250000
C2561	C256	0.000000	0.947600	0.250000
C2571	C257	0.000000	0.833400	0.250000
C2581	C258	0.000000	0.224700	0.250000
C2591	C259	0.000000	0.286900	0.250000
C2601	C260	0.000000	0.400500	0.250000
H991	H99	0.000000	0.794700	0.250000
H1001	H100	0.000000	0.439200	0.250000
C2611	C261	0.500000	0.491200	0.750000
C2621	C262	0.500000	0.552400	0.750000
C2631	C263	0.500000	0.666600	0.750000
C2641	C264	0.500000	0.275300	0.750000
C2651	C265	0.500000	0.213100	0.750000
C2661	C266	0.500000	0.099500	0.750000
H1011	H101	0.500000	0.705300	0.750000
H1021	H102	0.500000	0.060800	0.750000
C2671	C267	0.000000	0.991200	0.750000
C2681	C268	0.000000	0.052400	0.750000
C2691	C269	0.000000	0.166600	0.750000
C2701	C270	0.000000	0.775300	0.750000
C2711	C271	0.000000	0.713100	0.750000
C2721	C272	0.000000	0.599500	0.750000
H1031	H103	0.000000	0.205300	0.750000
H1041	H104	0.000000	0.560800	0.750000
