data_HOGQAX_freeONLY_PM
_symmetry_space_group_name_H-M	'P1'
_cell_length_a	18.825000
_cell_length_b	15.373000
_cell_length_c	9.047000
_cell_angle_alpha	90.000000
_cell_angle_beta	90.000000
_cell_angle_gamma	90.000000
_symmetry_Int_Tables_number 1

loop_
_symmetry_equiv_pos_as_xyz
'x,y,z'

loop_
_atom_site_label
_atom_site_type_symbol
_atom_site_fract_x
_atom_site_fract_y
_atom_site_fract_z
C11	C1	0.986400	0.844300	0.646100
C21	C2	0.000600	0.844900	0.812100
C31	C3	0.156600	0.987500	0.422100
C41	C4	0.153800	0.041400	0.565600
C51	C5	0.155000	0.652500	0.854300
C61	C6	0.117200	0.578900	0.933600
C71	C7	0.154900	0.515000	0.000200
H11	H1	0.204300	0.517100	0.997600
C81	C8	0.122300	0.446900	0.071600
C91	C9	0.048600	0.443200	0.070900
H21	H2	0.026100	0.397100	0.118100
C101	C10	0.007600	0.506300	0.001600
C111	C11	0.043000	0.575600	0.934800
H31	H3	0.017000	0.620100	0.890800
C121	C12	0.164300	0.372700	0.138600
C131	C13	0.928600	0.499600	0.998900
C141	C14	0.894800	0.420700	0.011200
H41	H4	0.922100	0.370700	0.023000
C151	C15	0.820300	0.412900	0.006400
C161	C16	0.780300	0.487300	0.991200
H51	H5	0.731000	0.483500	0.992900
C171	C17	0.812000	0.566500	0.973700
C181	C18	0.885400	0.573200	0.979900
H61	H6	0.906500	0.627600	0.971300
C191	C19	0.769200	0.646700	0.940200
C201	C20	0.786500	0.329600	0.036700
Yb11	Yb1	0.834640	0.822240	0.795650
Yb21	Yb2	0.152710	0.847720	0.682510
O11	O1	0.922500	0.850800	0.603600
O21	O2	0.949600	0.821500	0.894500
O31	O3	0.060500	0.871500	0.850500
O41	O4	0.040800	0.837200	0.564200
O51	O5	0.158600	0.907000	0.437300
O61	O6	0.156000	0.028700	0.302200
O71	O7	0.145200	0.999100	0.684600
O81	O8	0.161300	0.121200	0.554300
O91	O9	0.119400	0.714400	0.805500
O101	O10	0.221500	0.644200	0.844100
O111	O11	0.230000	0.379800	0.141700
O121	O12	0.129100	0.308900	0.185200
O131	O13	0.821900	0.262400	0.029700
O141	O14	0.720600	0.329900	0.071100
O151	O15	0.705500	0.636300	0.908600
O161	O16	0.801200	0.716800	0.946300
C211	C21	0.013600	0.155700	0.146100
C221	C22	0.999400	0.155100	0.312100
C231	C23	0.843400	0.012500	0.922100
C241	C24	0.846200	0.958600	0.065600
C251	C25	0.845000	0.347500	0.354300
C261	C26	0.882800	0.421100	0.433600
C271	C27	0.845100	0.485000	0.500200
H71	H7	0.795700	0.482900	0.497600
C281	C28	0.877700	0.553100	0.571600
C291	C29	0.951400	0.556800	0.570900
H81	H8	0.973900	0.602900	0.618100
C301	C30	0.992400	0.493700	0.501600
C311	C31	0.957000	0.424400	0.434800
H91	H9	0.983000	0.379900	0.390800
C321	C32	0.835700	0.627300	0.638600
C331	C33	0.071400	0.500400	0.498900
C341	C34	0.105200	0.579300	0.511200
H101	H10	0.077900	0.629300	0.523000
C351	C35	0.179700	0.587100	0.506400
C361	C36	0.219700	0.512700	0.491200
H111	H11	0.269000	0.516500	0.492900
C371	C37	0.188000	0.433500	0.473700
C381	C38	0.114600	0.426800	0.479900
H121	H12	0.093500	0.372400	0.471300
C391	C39	0.230800	0.353300	0.440200
C401	C40	0.213500	0.670400	0.536700
Yb31	Yb3	0.165360	0.177760	0.295650
Yb41	Yb4	0.847290	0.152280	0.182510
O171	O17	0.077500	0.149200	0.103600
O181	O18	0.050400	0.178500	0.394500
O191	O19	0.939500	0.128500	0.350500
O201	O20	0.959200	0.162800	0.064200
O211	O21	0.841400	0.093000	0.937300
O221	O22	0.844000	0.971300	0.802200
O231	O23	0.854800	0.000900	0.184600
O241	O24	0.838700	0.878800	0.054300
O251	O25	0.880600	0.285600	0.305500
O261	O26	0.778500	0.355800	0.344100
O271	O27	0.770000	0.620200	0.641700
O281	O28	0.870900	0.691100	0.685200
O291	O29	0.178100	0.737600	0.529700
O301	O30	0.279400	0.670100	0.571100
O311	O31	0.294500	0.363700	0.408600
O321	O32	0.198800	0.283200	0.446300
C411	C41	0.486400	0.655700	0.646100
C421	C42	0.500600	0.655100	0.812100
C431	C43	0.656600	0.512500	0.422100
C441	C44	0.653800	0.458600	0.565600
C451	C45	0.655000	0.847500	0.854300
C461	C46	0.617200	0.921100	0.933600
C471	C47	0.654900	0.985000	0.000200
H131	H13	0.704300	0.982900	0.997600
C481	C48	0.622300	0.053100	0.071600
C491	C49	0.548600	0.056800	0.070900
H141	H14	0.526100	0.102900	0.118100
C501	C50	0.507600	0.993700	0.001600
C511	C51	0.543000	0.924400	0.934800
H151	H15	0.517000	0.879900	0.890800
C521	C52	0.664300	0.127300	0.138600
C531	C53	0.428600	0.000400	0.998900
C541	C54	0.394800	0.079300	0.011200
H161	H16	0.422100	0.129300	0.023000
C551	C55	0.320300	0.087100	0.006400
C561	C56	0.280300	0.012700	0.991200
H171	H17	0.231000	0.016500	0.992900
C571	C57	0.312000	0.933500	0.973700
C581	C58	0.385400	0.926800	0.979900
H181	H18	0.406500	0.872400	0.971300
C591	C59	0.269200	0.853300	0.940200
C601	C60	0.286500	0.170400	0.036700
Yb51	Yb5	0.334640	0.677760	0.795650
Yb61	Yb6	0.652710	0.652280	0.682510
O331	O33	0.422500	0.649200	0.603600
O341	O34	0.449600	0.678500	0.894500
O351	O35	0.560500	0.628500	0.850500
O361	O36	0.540800	0.662800	0.564200
O371	O37	0.658600	0.593000	0.437300
O381	O38	0.656000	0.471300	0.302200
O391	O39	0.645200	0.500900	0.684600
O401	O40	0.661300	0.378800	0.554300
O411	O41	0.619400	0.785600	0.805500
O421	O42	0.721500	0.855800	0.844100
O431	O43	0.730000	0.120200	0.141700
O441	O44	0.629100	0.191100	0.185200
O451	O45	0.321900	0.237600	0.029700
O461	O46	0.220600	0.170100	0.071100
O471	O47	0.205500	0.863700	0.908600
O481	O48	0.301200	0.783200	0.946300
C611	C61	0.513600	0.344300	0.146100
C621	C62	0.499400	0.344900	0.312100
C631	C63	0.343400	0.487500	0.922100
C641	C64	0.346200	0.541400	0.065600
C651	C65	0.345000	0.152500	0.354300
C661	C66	0.382800	0.078900	0.433600
C671	C67	0.345100	0.015000	0.500200
H191	H19	0.295700	0.017100	0.497600
C681	C68	0.377700	0.946900	0.571600
C691	C69	0.451400	0.943200	0.570900
H201	H20	0.473900	0.897100	0.618100
C701	C70	0.492400	0.006300	0.501600
C711	C71	0.457000	0.075600	0.434800
H211	H21	0.483000	0.120100	0.390800
C721	C72	0.335700	0.872700	0.638600
C731	C73	0.571400	0.999600	0.498900
C741	C74	0.605200	0.920700	0.511200
H221	H22	0.577900	0.870700	0.523000
C751	C75	0.679700	0.912900	0.506400
C761	C76	0.719700	0.987300	0.491200
H231	H23	0.769000	0.983500	0.492900
C771	C77	0.688000	0.066500	0.473700
C781	C78	0.614600	0.073200	0.479900
H241	H24	0.593500	0.127600	0.471300
C791	C79	0.730800	0.146700	0.440200
C801	C80	0.713500	0.829600	0.536700
Yb71	Yb7	0.665360	0.322240	0.295650
Yb81	Yb8	0.347290	0.347720	0.182510
O491	O49	0.577500	0.350800	0.103600
O501	O50	0.550400	0.321500	0.394500
O511	O51	0.439500	0.371500	0.350500
O521	O52	0.459200	0.337200	0.064200
O531	O53	0.341400	0.407000	0.937300
O541	O54	0.344000	0.528700	0.802200
O551	O55	0.354800	0.499100	0.184600
O561	O56	0.338700	0.621200	0.054300
O571	O57	0.380600	0.214400	0.305500
O581	O58	0.278500	0.144200	0.344100
O591	O59	0.270000	0.879800	0.641700
O601	O60	0.370900	0.808900	0.685200
O611	O61	0.678100	0.762400	0.529700
O621	O62	0.779400	0.829900	0.571100
O631	O63	0.794500	0.136300	0.408600
O641	O64	0.698800	0.216800	0.446300
