data_HOGTOM_freeONLY_PM
_symmetry_space_group_name_H-M	'P1'
_cell_length_a	13.424000
_cell_length_b	13.424000
_cell_length_c	14.752000
_cell_angle_alpha	90.000000
_cell_angle_beta	90.000000
_cell_angle_gamma	120.000000
_symmetry_Int_Tables_number 1

loop_
_symmetry_equiv_pos_as_xyz
'x,y,z'

loop_
_atom_site_label
_atom_site_type_symbol
_atom_site_fract_x
_atom_site_fract_y
_atom_site_fract_z
O11	O1	0.198500	0.442400	0.127800
O21	O2	0.361400	0.549000	0.059300
O31	O3	0.436300	0.614400	0.774000
O41	O4	0.528800	0.599300	0.895500
N11	N1	0.348000	0.387600	0.943000
C11	C1	0.270600	0.449500	0.069900
C21	C2	0.256800	0.354000	0.008000
C31	C3	0.339000	0.448000	0.860000
C41	C4	0.436200	0.559100	0.842000
O51	O5	0.557600	0.756100	0.127800
O61	O6	0.451000	0.812400	0.059300
O71	O7	0.385600	0.821900	0.774000
O81	O8	0.400700	0.929500	0.895500
N21	N2	0.612400	0.960400	0.943000
C51	C5	0.550500	0.821100	0.069900
C61	C6	0.646000	0.902800	0.008000
C71	C7	0.552000	0.891000	0.860000
C81	C8	0.440900	0.877100	0.842000
O91	O9	0.243900	0.801500	0.127800
O101	O10	0.187600	0.638600	0.059300
O111	O11	0.178100	0.563700	0.774000
O121	O12	0.070500	0.471200	0.895500
N31	N3	0.039600	0.652000	0.943000
C91	C9	0.178900	0.729400	0.069900
C101	C10	0.097200	0.743200	0.008000
C111	C11	0.109000	0.661000	0.860000
C121	C12	0.122900	0.563800	0.842000
O131	O13	0.442400	0.198500	0.372200
O141	O14	0.549000	0.361400	0.440700
O151	O15	0.614400	0.436300	0.726000
O161	O16	0.599300	0.528800	0.604500
N41	N4	0.387600	0.348000	0.557000
C131	C13	0.449500	0.270600	0.430100
C141	C14	0.354000	0.256800	0.492000
C151	C15	0.448000	0.339000	0.640000
C161	C16	0.559100	0.436200	0.658000
O171	O17	0.756100	0.557600	0.372200
O181	O18	0.812400	0.451000	0.440700
O191	O19	0.821900	0.385600	0.726000
O201	O20	0.929500	0.400700	0.604500
N51	N5	0.960400	0.612400	0.557000
C171	C17	0.821100	0.550500	0.430100
C181	C18	0.902800	0.646000	0.492000
C191	C19	0.891000	0.552000	0.640000
C201	C20	0.877100	0.440900	0.658000
O211	O21	0.801500	0.243900	0.372200
O221	O22	0.638600	0.187600	0.440700
O231	O23	0.563700	0.178100	0.726000
O241	O24	0.471200	0.070500	0.604500
N61	N6	0.652000	0.039600	0.557000
C211	C21	0.729400	0.178900	0.430100
C221	C22	0.743200	0.097200	0.492000
C231	C23	0.661000	0.109000	0.640000
C241	C24	0.563800	0.122900	0.658000
O251	O25	0.801500	0.557600	0.872200
O261	O26	0.638600	0.451000	0.940700
O271	O27	0.563700	0.385600	0.226000
O281	O28	0.471200	0.400700	0.104500
N71	N7	0.652000	0.612400	0.057000
C251	C25	0.729400	0.550500	0.930100
C261	C26	0.743200	0.646000	0.992000
C271	C27	0.661000	0.552000	0.140000
C281	C28	0.563800	0.440900	0.158000
O291	O29	0.442400	0.243900	0.872200
O301	O30	0.549000	0.187600	0.940700
O311	O31	0.614400	0.178100	0.226000
O321	O32	0.599300	0.070500	0.104500
N81	N8	0.387600	0.039600	0.057000
C291	C29	0.449500	0.178900	0.930100
C301	C30	0.354000	0.097200	0.992000
C311	C31	0.448000	0.109000	0.140000
C321	C32	0.559100	0.122900	0.158000
O331	O33	0.756100	0.198500	0.872200
O341	O34	0.812400	0.361400	0.940700
O351	O35	0.821900	0.436300	0.226000
O361	O36	0.929500	0.528800	0.104500
N91	N9	0.960400	0.348000	0.057000
C331	C33	0.821100	0.270600	0.930100
C341	C34	0.902800	0.256800	0.992000
C351	C35	0.891000	0.339000	0.140000
C361	C36	0.877100	0.436200	0.158000
O371	O37	0.557600	0.801500	0.627800
O381	O38	0.451000	0.638600	0.559300
O391	O39	0.385600	0.563700	0.274000
O401	O40	0.400700	0.471200	0.395500
N101	N10	0.612400	0.652000	0.443000
C371	C37	0.550500	0.729400	0.569900
C381	C38	0.646000	0.743200	0.508000
C391	C39	0.552000	0.661000	0.360000
C401	C40	0.440900	0.563800	0.342000
O411	O41	0.243900	0.442400	0.627800
O421	O42	0.187600	0.549000	0.559300
O431	O43	0.178100	0.614400	0.274000
O441	O44	0.070500	0.599300	0.395500
N111	N11	0.039600	0.387600	0.443000
C411	C41	0.178900	0.449500	0.569900
C421	C42	0.097200	0.354000	0.508000
C431	C43	0.109000	0.448000	0.360000
C441	C44	0.122900	0.559100	0.342000
O451	O45	0.198500	0.756100	0.627800
O461	O46	0.361400	0.812400	0.559300
O471	O47	0.436300	0.821900	0.274000
O481	O48	0.528800	0.929500	0.395500
N121	N12	0.348000	0.960400	0.443000
C451	C45	0.270600	0.821100	0.569900
C461	C46	0.256800	0.902800	0.508000
C471	C47	0.339000	0.891000	0.360000
C481	C48	0.436200	0.877100	0.342000
Pr11	Pr1	0.333330	0.666670	0.168800
Pr21	Pr2	0.666670	0.333330	0.331200
Pr31	Pr3	0.666670	0.333330	0.831200
Pr41	Pr4	0.333330	0.666670	0.668800
Cu11	Cu1	0.500000	0.500000	0.000000
Cu21	Cu2	0.500000	0.000000	0.000000
Cu31	Cu3	0.000000	0.500000	0.000000
Cu41	Cu4	0.500000	0.500000	0.500000
Cu51	Cu5	0.000000	0.500000	0.500000
Cu61	Cu6	0.500000	0.000000	0.500000
