data_HOJNUR_freeONLY_PM
_symmetry_space_group_name_H-M	'P1'
_cell_length_a	8.864100
_cell_length_b	20.698000
_cell_length_c	34.229000
_cell_angle_alpha	90.000000
_cell_angle_beta	90.000000
_cell_angle_gamma	90.000000
_symmetry_Int_Tables_number 1

loop_
_symmetry_equiv_pos_as_xyz
'x,y,z'

loop_
_atom_site_label
_atom_site_type_symbol
_atom_site_fract_x
_atom_site_fract_y
_atom_site_fract_z
O11	O1	0.241000	0.333100	0.679100
C11	C1	0.102500	0.320400	0.682200
O21	O2	0.007200	0.336100	0.657500
C21	C2	0.049700	0.283000	0.717200
C31	C3	0.149300	0.265100	0.745800
C41	C4	0.100700	0.231200	0.778200
O31	O3	0.244600	0.457600	0.634500
C51	C5	0.258500	0.591500	0.625600
H11	H1	0.253000	0.275800	0.743200
H21	H2	0.171800	0.216800	0.797000
H31	H3	0.351400	0.568800	0.626900
O41	O4	0.241000	0.833100	0.179100
C61	C6	0.102500	0.820400	0.182200
O51	O5	0.007200	0.836100	0.157500
C71	C7	0.049700	0.783000	0.217200
C81	C8	0.149300	0.765100	0.245800
C91	C9	0.100700	0.731200	0.278200
O61	O6	0.244600	0.957600	0.134500
C101	C10	0.258500	0.091500	0.125600
H41	H4	0.253000	0.775800	0.243200
H51	H5	0.171800	0.716800	0.297000
H61	H6	0.351400	0.068800	0.126900
O71	O7	0.741000	0.333100	0.179100
C111	C11	0.602500	0.320400	0.182200
O81	O8	0.507200	0.336100	0.157500
C121	C12	0.549700	0.283000	0.217200
C131	C13	0.649300	0.265100	0.245800
C141	C14	0.600700	0.231200	0.278200
O91	O9	0.744600	0.457600	0.134500
C151	C15	0.758500	0.591500	0.125600
H71	H7	0.753000	0.275800	0.243200
H81	H8	0.671800	0.216800	0.297000
H91	H9	0.851400	0.568800	0.126900
O101	O10	0.741000	0.833100	0.679100
C161	C16	0.602500	0.820400	0.682200
O111	O11	0.507200	0.836100	0.657500
C171	C17	0.549700	0.783000	0.717200
C181	C18	0.649300	0.765100	0.745800
C191	C19	0.600700	0.731200	0.778200
O121	O12	0.744600	0.957600	0.634500
C201	C20	0.758500	0.091500	0.625600
H101	H10	0.753000	0.775800	0.743200
H111	H11	0.671800	0.716800	0.797000
H121	H12	0.851400	0.068800	0.626900
O131	O13	0.509000	0.416900	0.679100
C211	C21	0.647500	0.429600	0.682200
O141	O14	0.742800	0.413900	0.657500
C221	C22	0.700300	0.467000	0.717200
C231	C23	0.600700	0.484900	0.745800
C241	C24	0.649300	0.518800	0.778200
O151	O15	0.505400	0.292400	0.634500
C251	C25	0.491500	0.158500	0.625600
H131	H13	0.497000	0.474200	0.743200
H141	H14	0.578200	0.533200	0.797000
H151	H15	0.398600	0.181200	0.626900
O161	O16	0.509000	0.916900	0.179100
C261	C26	0.647500	0.929600	0.182200
O171	O17	0.742800	0.913900	0.157500
C271	C27	0.700300	0.967000	0.217200
C281	C28	0.600700	0.984900	0.245800
C291	C29	0.649300	0.018800	0.278200
O181	O18	0.505400	0.792400	0.134500
C301	C30	0.491500	0.658500	0.125600
H161	H16	0.497000	0.974200	0.243200
H171	H17	0.578200	0.033200	0.297000
H181	H18	0.398600	0.681200	0.126900
O191	O19	0.009000	0.416900	0.179100
C311	C31	0.147500	0.429600	0.182200
O201	O20	0.242800	0.413900	0.157500
C321	C32	0.200300	0.467000	0.217200
C331	C33	0.100700	0.484900	0.245800
C341	C34	0.149300	0.518800	0.278200
O211	O21	0.005400	0.292400	0.134500
C351	C35	0.991500	0.158500	0.125600
H191	H19	0.997000	0.474200	0.243200
H201	H20	0.078200	0.533200	0.297000
H211	H21	0.898600	0.181200	0.126900
O221	O22	0.009000	0.916900	0.679100
C361	C36	0.147500	0.929600	0.682200
O231	O23	0.242800	0.913900	0.657500
C371	C37	0.200300	0.967000	0.717200
C381	C38	0.100700	0.984900	0.745800
C391	C39	0.149300	0.018800	0.778200
O241	O24	0.005400	0.792400	0.634500
C401	C40	0.991500	0.658500	0.625600
H221	H22	0.997000	0.974200	0.743200
H231	H23	0.078200	0.033200	0.797000
H241	H24	0.898600	0.681200	0.626900
O251	O25	0.509000	0.333100	0.070900
C411	C41	0.647500	0.320400	0.067800
O261	O26	0.742800	0.336100	0.092500
C421	C42	0.700300	0.283000	0.032800
C431	C43	0.600700	0.265100	0.004200
C441	C44	0.649300	0.231200	0.971800
O271	O27	0.505400	0.457600	0.115500
C451	C45	0.491500	0.591500	0.124400
H251	H25	0.497000	0.275800	0.006800
H261	H26	0.578200	0.216800	0.953000
H271	H27	0.398600	0.568800	0.123100
O281	O28	0.509000	0.833100	0.570900
C461	C46	0.647500	0.820400	0.567800
O291	O29	0.742800	0.836100	0.592500
C471	C47	0.700300	0.783000	0.532800
C481	C48	0.600700	0.765100	0.504200
C491	C49	0.649300	0.731200	0.471800
O301	O30	0.505400	0.957600	0.615500
C501	C50	0.491500	0.091500	0.624400
H281	H28	0.497000	0.775800	0.506800
H291	H29	0.578200	0.716800	0.453000
H301	H30	0.398600	0.068800	0.623100
O311	O31	0.009000	0.333100	0.570900
C511	C51	0.147500	0.320400	0.567800
O321	O32	0.242800	0.336100	0.592500
C521	C52	0.200300	0.283000	0.532800
C531	C53	0.100700	0.265100	0.504200
C541	C54	0.149300	0.231200	0.471800
O331	O33	0.005400	0.457600	0.615500
C551	C55	0.991500	0.591500	0.624400
H311	H31	0.997000	0.275800	0.506800
H321	H32	0.078200	0.216800	0.453000
H331	H33	0.898600	0.568800	0.623100
O341	O34	0.009000	0.833100	0.070900
C561	C56	0.147500	0.820400	0.067800
O351	O35	0.242800	0.836100	0.092500
C571	C57	0.200300	0.783000	0.032800
C581	C58	0.100700	0.765100	0.004200
C591	C59	0.149300	0.731200	0.971800
O361	O36	0.005400	0.957600	0.115500
C601	C60	0.991500	0.091500	0.124400
H341	H34	0.997000	0.775800	0.006800
H351	H35	0.078200	0.716800	0.953000
H361	H36	0.898600	0.068800	0.123100
O371	O37	0.241000	0.416900	0.070900
C611	C61	0.102500	0.429600	0.067800
O381	O38	0.007200	0.413900	0.092500
C621	C62	0.049700	0.467000	0.032800
C631	C63	0.149300	0.484900	0.004200
C641	C64	0.100700	0.518800	0.971800
O391	O39	0.244600	0.292400	0.115500
C651	C65	0.258500	0.158500	0.124400
H371	H37	0.253000	0.474200	0.006800
H381	H38	0.171800	0.533200	0.953000
H391	H39	0.351400	0.181200	0.123100
O401	O40	0.241000	0.916900	0.570900
C661	C66	0.102500	0.929600	0.567800
O411	O41	0.007200	0.913900	0.592500
C671	C67	0.049700	0.967000	0.532800
C681	C68	0.149300	0.984900	0.504200
C691	C69	0.100700	0.018800	0.471800
O421	O42	0.244600	0.792400	0.615500
C701	C70	0.258500	0.658500	0.624400
H401	H40	0.253000	0.974200	0.506800
H411	H41	0.171800	0.033200	0.453000
H421	H42	0.351400	0.681200	0.623100
O431	O43	0.741000	0.416900	0.570900
C711	C71	0.602500	0.429600	0.567800
O441	O44	0.507200	0.413900	0.592500
C721	C72	0.549700	0.467000	0.532800
C731	C73	0.649300	0.484900	0.504200
C741	C74	0.600700	0.518800	0.471800
O451	O45	0.744600	0.292400	0.615500
C751	C75	0.758500	0.158500	0.624400
H431	H43	0.753000	0.474200	0.506800
H441	H44	0.671800	0.533200	0.453000
H451	H45	0.851400	0.181200	0.623100
O461	O46	0.741000	0.916900	0.070900
C761	C76	0.602500	0.929600	0.067800
O471	O47	0.507200	0.913900	0.092500
C771	C77	0.549700	0.967000	0.032800
C781	C78	0.649300	0.984900	0.004200
C791	C79	0.600700	0.018800	0.971800
O481	O48	0.744600	0.792400	0.115500
C801	C80	0.758500	0.658500	0.124400
H461	H46	0.753000	0.974200	0.006800
H471	H47	0.671800	0.033200	0.953000
H481	H48	0.851400	0.681200	0.123100
O491	O49	0.759000	0.666900	0.320900
C811	C81	0.897500	0.679600	0.317800
O501	O50	0.992800	0.663900	0.342500
C821	C82	0.950300	0.717000	0.282800
C831	C83	0.850700	0.734900	0.254200
C841	C84	0.899300	0.768800	0.221800
O511	O51	0.755400	0.542400	0.365500
C851	C85	0.741500	0.408500	0.374400
H491	H49	0.747000	0.724200	0.256800
H501	H50	0.828200	0.783200	0.203000
H511	H51	0.648600	0.431200	0.373100
O521	O52	0.759000	0.166900	0.820900
C861	C86	0.897500	0.179600	0.817800
O531	O53	0.992800	0.163900	0.842500
C871	C87	0.950300	0.217000	0.782800
C881	C88	0.850700	0.234900	0.754200
C891	C89	0.899300	0.268800	0.721800
O541	O54	0.755400	0.042400	0.865500
C901	C90	0.741500	0.908500	0.874400
H521	H52	0.747000	0.224200	0.756800
H531	H53	0.828200	0.283200	0.703000
H541	H54	0.648600	0.931200	0.873100
O551	O55	0.259000	0.666900	0.820900
C911	C91	0.397500	0.679600	0.817800
O561	O56	0.492800	0.663900	0.842500
C921	C92	0.450300	0.717000	0.782800
C931	C93	0.350700	0.734900	0.754200
C941	C94	0.399300	0.768800	0.721800
O571	O57	0.255400	0.542400	0.865500
C951	C95	0.241500	0.408500	0.874400
H551	H55	0.247000	0.724200	0.756800
H561	H56	0.328200	0.783200	0.703000
H571	H57	0.148600	0.431200	0.873100
O581	O58	0.259000	0.166900	0.320900
C961	C96	0.397500	0.179600	0.317800
O591	O59	0.492800	0.163900	0.342500
C971	C97	0.450300	0.217000	0.282800
C981	C98	0.350700	0.234900	0.254200
C991	C99	0.399300	0.268800	0.221800
O601	O60	0.255400	0.042400	0.365500
C1001	C100	0.241500	0.908500	0.374400
H581	H58	0.247000	0.224200	0.256800
H591	H59	0.328200	0.283200	0.203000
H601	H60	0.148600	0.931200	0.373100
O611	O61	0.491000	0.583100	0.320900
C1011	C101	0.352500	0.570400	0.317800
O621	O62	0.257200	0.586100	0.342500
C1021	C102	0.299700	0.533000	0.282800
C1031	C103	0.399300	0.515100	0.254200
C1041	C104	0.350700	0.481200	0.221800
O631	O63	0.494600	0.707600	0.365500
C1051	C105	0.508500	0.841500	0.374400
H611	H61	0.503000	0.525800	0.256800
H621	H62	0.421800	0.466800	0.203000
H631	H63	0.601400	0.818800	0.373100
O641	O64	0.491000	0.083100	0.820900
C1061	C106	0.352500	0.070400	0.817800
O651	O65	0.257200	0.086100	0.842500
C1071	C107	0.299700	0.033000	0.782800
C1081	C108	0.399300	0.015100	0.754200
C1091	C109	0.350700	0.981200	0.721800
O661	O66	0.494600	0.207600	0.865500
C1101	C110	0.508500	0.341500	0.874400
H641	H64	0.503000	0.025800	0.756800
H651	H65	0.421800	0.966800	0.703000
H661	H66	0.601400	0.318800	0.873100
O671	O67	0.991000	0.583100	0.820900
C1111	C111	0.852500	0.570400	0.817800
O681	O68	0.757200	0.586100	0.842500
C1121	C112	0.799700	0.533000	0.782800
C1131	C113	0.899300	0.515100	0.754200
C1141	C114	0.850700	0.481200	0.721800
O691	O69	0.994600	0.707600	0.865500
C1151	C115	0.008500	0.841500	0.874400
H671	H67	0.003000	0.525800	0.756800
H681	H68	0.921800	0.466800	0.703000
H691	H69	0.101400	0.818800	0.873100
O701	O70	0.991000	0.083100	0.320900
C1161	C116	0.852500	0.070400	0.317800
O711	O71	0.757200	0.086100	0.342500
C1171	C117	0.799700	0.033000	0.282800
C1181	C118	0.899300	0.015100	0.254200
C1191	C119	0.850700	0.981200	0.221800
O721	O72	0.994600	0.207600	0.365500
C1201	C120	0.008500	0.341500	0.374400
H701	H70	0.003000	0.025800	0.256800
H711	H71	0.921800	0.966800	0.203000
H721	H72	0.101400	0.318800	0.373100
O731	O73	0.491000	0.666900	0.929100
C1211	C121	0.352500	0.679600	0.932200
O741	O74	0.257200	0.663900	0.907500
C1221	C122	0.299700	0.717000	0.967200
C1231	C123	0.399300	0.734900	0.995800
C1241	C124	0.350700	0.768800	0.028200
O751	O75	0.494600	0.542400	0.884500
C1251	C125	0.508500	0.408500	0.875600
H731	H73	0.503000	0.724200	0.993200
H741	H74	0.421800	0.783200	0.047000
H751	H75	0.601400	0.431200	0.876900
O761	O76	0.491000	0.166900	0.429100
C1261	C126	0.352500	0.179600	0.432200
O771	O77	0.257200	0.163900	0.407500
C1271	C127	0.299700	0.217000	0.467200
C1281	C128	0.399300	0.234900	0.495800
C1291	C129	0.350700	0.268800	0.528200
O781	O78	0.494600	0.042400	0.384500
C1301	C130	0.508500	0.908500	0.375600
H761	H76	0.503000	0.224200	0.493200
H771	H77	0.421800	0.283200	0.547000
H781	H78	0.601400	0.931200	0.376900
O791	O79	0.991000	0.666900	0.429100
C1311	C131	0.852500	0.679600	0.432200
O801	O80	0.757200	0.663900	0.407500
C1321	C132	0.799700	0.717000	0.467200
C1331	C133	0.899300	0.734900	0.495800
C1341	C134	0.850700	0.768800	0.528200
O811	O81	0.994600	0.542400	0.384500
C1351	C135	0.008500	0.408500	0.375600
H791	H79	0.003000	0.724200	0.493200
H801	H80	0.921800	0.783200	0.547000
H811	H81	0.101400	0.431200	0.376900
O821	O82	0.991000	0.166900	0.929100
C1361	C136	0.852500	0.179600	0.932200
O831	O83	0.757200	0.163900	0.907500
C1371	C137	0.799700	0.217000	0.967200
C1381	C138	0.899300	0.234900	0.995800
C1391	C139	0.850700	0.268800	0.028200
O841	O84	0.994600	0.042400	0.884500
C1401	C140	0.008500	0.908500	0.875600
H821	H82	0.003000	0.224200	0.993200
H831	H83	0.921800	0.283200	0.047000
H841	H84	0.101400	0.931200	0.876900
O851	O85	0.759000	0.583100	0.929100
C1411	C141	0.897500	0.570400	0.932200
O861	O86	0.992800	0.586100	0.907500
C1421	C142	0.950300	0.533000	0.967200
C1431	C143	0.850700	0.515100	0.995800
C1441	C144	0.899300	0.481200	0.028200
O871	O87	0.755400	0.707600	0.884500
C1451	C145	0.741500	0.841500	0.875600
H851	H85	0.747000	0.525800	0.993200
H861	H86	0.828200	0.466800	0.047000
H871	H87	0.648600	0.818800	0.876900
O881	O88	0.759000	0.083100	0.429100
C1461	C146	0.897500	0.070400	0.432200
O891	O89	0.992800	0.086100	0.407500
C1471	C147	0.950300	0.033000	0.467200
C1481	C148	0.850700	0.015100	0.495800
C1491	C149	0.899300	0.981200	0.528200
O901	O90	0.755400	0.207600	0.384500
C1501	C150	0.741500	0.341500	0.375600
H881	H88	0.747000	0.025800	0.493200
H891	H89	0.828200	0.966800	0.547000
H901	H90	0.648600	0.318800	0.376900
O911	O91	0.259000	0.583100	0.429100
C1511	C151	0.397500	0.570400	0.432200
O921	O92	0.492800	0.586100	0.407500
C1521	C152	0.450300	0.533000	0.467200
C1531	C153	0.350700	0.515100	0.495800
C1541	C154	0.399300	0.481200	0.528200
O931	O93	0.255400	0.707600	0.384500
C1551	C155	0.241500	0.841500	0.375600
H911	H91	0.247000	0.525800	0.493200
H921	H92	0.328200	0.466800	0.547000
H931	H93	0.148600	0.818800	0.376900
O941	O94	0.259000	0.083100	0.929100
C1561	C156	0.397500	0.070400	0.932200
O951	O95	0.492800	0.086100	0.907500
C1571	C157	0.450300	0.033000	0.967200
C1581	C158	0.350700	0.015100	0.995800
C1591	C159	0.399300	0.981200	0.028200
O961	O96	0.255400	0.207600	0.884500
C1601	C160	0.241500	0.341500	0.875600
H941	H94	0.247000	0.025800	0.993200
H951	H95	0.328200	0.966800	0.047000
H961	H96	0.148600	0.318800	0.876900
Sc11	Sc1	0.375000	0.375000	0.635440
Sc21	Sc2	0.375000	0.875000	0.135440
Sc31	Sc3	0.875000	0.375000	0.135440
Sc41	Sc4	0.875000	0.875000	0.635440
Sc51	Sc5	0.375000	0.375000	0.114560
Sc61	Sc6	0.375000	0.875000	0.614560
Sc71	Sc7	0.875000	0.375000	0.614560
Sc81	Sc8	0.875000	0.875000	0.114560
Sc91	Sc9	0.625000	0.625000	0.364560
Sc101	Sc10	0.625000	0.125000	0.864560
Sc111	Sc11	0.125000	0.625000	0.864560
Sc121	Sc12	0.125000	0.125000	0.364560
Sc131	Sc13	0.625000	0.625000	0.885440
Sc141	Sc14	0.625000	0.125000	0.385440
Sc151	Sc15	0.125000	0.625000	0.385440
Sc161	Sc16	0.125000	0.125000	0.885440
C1611	C161	0.125000	0.485800	0.625000
C1621	C162	0.125000	0.558000	0.625000
C1631	C163	0.125000	0.985800	0.125000
C1641	C164	0.125000	0.058000	0.125000
C1651	C165	0.625000	0.985800	0.625000
C1661	C166	0.625000	0.058000	0.625000
C1671	C167	0.625000	0.264200	0.625000
C1681	C168	0.625000	0.192000	0.625000
C1691	C169	0.625000	0.764200	0.125000
C1701	C170	0.625000	0.692000	0.125000
C1711	C171	0.625000	0.485800	0.125000
C1721	C172	0.625000	0.558000	0.125000
C1731	C173	0.125000	0.264200	0.125000
C1741	C174	0.125000	0.192000	0.125000
C1751	C175	0.125000	0.764200	0.625000
C1761	C176	0.125000	0.692000	0.625000
C1771	C177	0.875000	0.514200	0.375000
C1781	C178	0.875000	0.442000	0.375000
C1791	C179	0.875000	0.014200	0.875000
C1801	C180	0.875000	0.942000	0.875000
C1811	C181	0.375000	0.735800	0.375000
C1821	C182	0.375000	0.808000	0.375000
C1831	C183	0.375000	0.235800	0.875000
C1841	C184	0.375000	0.308000	0.875000
C1851	C185	0.375000	0.514200	0.875000
C1861	C186	0.375000	0.442000	0.875000
C1871	C187	0.375000	0.014200	0.375000
C1881	C188	0.375000	0.942000	0.375000
C1891	C189	0.875000	0.735800	0.875000
C1901	C190	0.875000	0.808000	0.875000
C1911	C191	0.875000	0.235800	0.375000
C1921	C192	0.875000	0.308000	0.375000
