data_HOJNOL_freeONLY_PM
_symmetry_space_group_name_H-M	'P1'
_cell_length_a	8.856700
_cell_length_b	20.693000
_cell_length_c	34.249000
_cell_angle_alpha	90.000000
_cell_angle_beta	90.000000
_cell_angle_gamma	90.000000
_symmetry_Int_Tables_number 1

loop_
_symmetry_equiv_pos_as_xyz
'x,y,z'

loop_
_atom_site_label
_atom_site_type_symbol
_atom_site_fract_x
_atom_site_fract_y
_atom_site_fract_z
O11	O1	0.240400	0.333400	0.679400
C11	C1	0.102200	0.319900	0.682200
O21	O2	0.006100	0.335200	0.657300
C21	C2	0.049700	0.283900	0.717500
C31	C3	0.150400	0.262400	0.744900
C41	C4	0.100900	0.229100	0.777500
O31	O3	0.244500	0.457600	0.635400
C51	C5	0.258500	0.591670	0.625200
H11	H1	0.254100	0.273200	0.742300
H21	H2	0.172000	0.214800	0.796400
H31	H3	0.351400	0.568900	0.626500
O41	O4	0.240400	0.833400	0.179400
C61	C6	0.102200	0.819900	0.182200
O51	O5	0.006100	0.835200	0.157300
C71	C7	0.049700	0.783900	0.217500
C81	C8	0.150400	0.762400	0.244900
C91	C9	0.100900	0.729100	0.277500
O61	O6	0.244500	0.957600	0.135400
C101	C10	0.258500	0.091670	0.125200
H41	H4	0.254100	0.773200	0.242300
H51	H5	0.172000	0.714800	0.296400
H61	H6	0.351400	0.068900	0.126500
O71	O7	0.740400	0.333400	0.179400
C111	C11	0.602200	0.319900	0.182200
O81	O8	0.506100	0.335200	0.157300
C121	C12	0.549700	0.283900	0.217500
C131	C13	0.650400	0.262400	0.244900
C141	C14	0.600900	0.229100	0.277500
O91	O9	0.744500	0.457600	0.135400
C151	C15	0.758500	0.591670	0.125200
H71	H7	0.754100	0.273200	0.242300
H81	H8	0.672000	0.214800	0.296400
H91	H9	0.851400	0.568900	0.126500
O101	O10	0.740400	0.833400	0.679400
C161	C16	0.602200	0.819900	0.682200
O111	O11	0.506100	0.835200	0.657300
C171	C17	0.549700	0.783900	0.717500
C181	C18	0.650400	0.762400	0.744900
C191	C19	0.600900	0.729100	0.777500
O121	O12	0.744500	0.957600	0.635400
C201	C20	0.758500	0.091670	0.625200
H101	H10	0.754100	0.773200	0.742300
H111	H11	0.672000	0.714800	0.796400
H121	H12	0.851400	0.068900	0.626500
O131	O13	0.509600	0.416600	0.679400
C211	C21	0.647800	0.430100	0.682200
O141	O14	0.743900	0.414800	0.657300
C221	C22	0.700300	0.466100	0.717500
C231	C23	0.599600	0.487600	0.744900
C241	C24	0.649100	0.520900	0.777500
O151	O15	0.505500	0.292400	0.635400
C251	C25	0.491500	0.158330	0.625200
H131	H13	0.495900	0.476800	0.742300
H141	H14	0.578000	0.535200	0.796400
H151	H15	0.398600	0.181100	0.626500
O161	O16	0.509600	0.916600	0.179400
C261	C26	0.647800	0.930100	0.182200
O171	O17	0.743900	0.914800	0.157300
C271	C27	0.700300	0.966100	0.217500
C281	C28	0.599600	0.987600	0.244900
C291	C29	0.649100	0.020900	0.277500
O181	O18	0.505500	0.792400	0.135400
C301	C30	0.491500	0.658330	0.125200
H161	H16	0.495900	0.976800	0.242300
H171	H17	0.578000	0.035200	0.296400
H181	H18	0.398600	0.681100	0.126500
O191	O19	0.009600	0.416600	0.179400
C311	C31	0.147800	0.430100	0.182200
O201	O20	0.243900	0.414800	0.157300
C321	C32	0.200300	0.466100	0.217500
C331	C33	0.099600	0.487600	0.244900
C341	C34	0.149100	0.520900	0.277500
O211	O21	0.005500	0.292400	0.135400
C351	C35	0.991500	0.158330	0.125200
H191	H19	0.995900	0.476800	0.242300
H201	H20	0.078000	0.535200	0.296400
H211	H21	0.898600	0.181100	0.126500
O221	O22	0.009600	0.916600	0.679400
C361	C36	0.147800	0.930100	0.682200
O231	O23	0.243900	0.914800	0.657300
C371	C37	0.200300	0.966100	0.717500
C381	C38	0.099600	0.987600	0.744900
C391	C39	0.149100	0.020900	0.777500
O241	O24	0.005500	0.792400	0.635400
C401	C40	0.991500	0.658330	0.625200
H221	H22	0.995900	0.976800	0.742300
H231	H23	0.078000	0.035200	0.796400
H241	H24	0.898600	0.681100	0.626500
O251	O25	0.509600	0.333400	0.070600
C411	C41	0.647800	0.319900	0.067800
O261	O26	0.743900	0.335200	0.092700
C421	C42	0.700300	0.283900	0.032500
C431	C43	0.599600	0.262400	0.005100
C441	C44	0.649100	0.229100	0.972500
O271	O27	0.505500	0.457600	0.114600
C451	C45	0.491500	0.591670	0.124800
H251	H25	0.495900	0.273200	0.007700
H261	H26	0.578000	0.214800	0.953600
H271	H27	0.398600	0.568900	0.123500
O281	O28	0.509600	0.833400	0.570600
C461	C46	0.647800	0.819900	0.567800
O291	O29	0.743900	0.835200	0.592700
C471	C47	0.700300	0.783900	0.532500
C481	C48	0.599600	0.762400	0.505100
C491	C49	0.649100	0.729100	0.472500
O301	O30	0.505500	0.957600	0.614600
C501	C50	0.491500	0.091670	0.624800
H281	H28	0.495900	0.773200	0.507700
H291	H29	0.578000	0.714800	0.453600
H301	H30	0.398600	0.068900	0.623500
O311	O31	0.009600	0.333400	0.570600
C511	C51	0.147800	0.319900	0.567800
O321	O32	0.243900	0.335200	0.592700
C521	C52	0.200300	0.283900	0.532500
C531	C53	0.099600	0.262400	0.505100
C541	C54	0.149100	0.229100	0.472500
O331	O33	0.005500	0.457600	0.614600
C551	C55	0.991500	0.591670	0.624800
H311	H31	0.995900	0.273200	0.507700
H321	H32	0.078000	0.214800	0.453600
H331	H33	0.898600	0.568900	0.623500
O341	O34	0.009600	0.833400	0.070600
C561	C56	0.147800	0.819900	0.067800
O351	O35	0.243900	0.835200	0.092700
C571	C57	0.200300	0.783900	0.032500
C581	C58	0.099600	0.762400	0.005100
C591	C59	0.149100	0.729100	0.972500
O361	O36	0.005500	0.957600	0.114600
C601	C60	0.991500	0.091670	0.124800
H341	H34	0.995900	0.773200	0.007700
H351	H35	0.078000	0.714800	0.953600
H361	H36	0.898600	0.068900	0.123500
O371	O37	0.240400	0.416600	0.070600
C611	C61	0.102200	0.430100	0.067800
O381	O38	0.006100	0.414800	0.092700
C621	C62	0.049700	0.466100	0.032500
C631	C63	0.150400	0.487600	0.005100
C641	C64	0.100900	0.520900	0.972500
O391	O39	0.244500	0.292400	0.114600
C651	C65	0.258500	0.158330	0.124800
H371	H37	0.254100	0.476800	0.007700
H381	H38	0.172000	0.535200	0.953600
H391	H39	0.351400	0.181100	0.123500
O401	O40	0.240400	0.916600	0.570600
C661	C66	0.102200	0.930100	0.567800
O411	O41	0.006100	0.914800	0.592700
C671	C67	0.049700	0.966100	0.532500
C681	C68	0.150400	0.987600	0.505100
C691	C69	0.100900	0.020900	0.472500
O421	O42	0.244500	0.792400	0.614600
C701	C70	0.258500	0.658330	0.624800
H401	H40	0.254100	0.976800	0.507700
H411	H41	0.172000	0.035200	0.453600
H421	H42	0.351400	0.681100	0.623500
O431	O43	0.740400	0.416600	0.570600
C711	C71	0.602200	0.430100	0.567800
O441	O44	0.506100	0.414800	0.592700
C721	C72	0.549700	0.466100	0.532500
C731	C73	0.650400	0.487600	0.505100
C741	C74	0.600900	0.520900	0.472500
O451	O45	0.744500	0.292400	0.614600
C751	C75	0.758500	0.158330	0.624800
H431	H43	0.754100	0.476800	0.507700
H441	H44	0.672000	0.535200	0.453600
H451	H45	0.851400	0.181100	0.623500
O461	O46	0.740400	0.916600	0.070600
C761	C76	0.602200	0.930100	0.067800
O471	O47	0.506100	0.914800	0.092700
C771	C77	0.549700	0.966100	0.032500
C781	C78	0.650400	0.987600	0.005100
C791	C79	0.600900	0.020900	0.972500
O481	O48	0.744500	0.792400	0.114600
C801	C80	0.758500	0.658330	0.124800
H461	H46	0.754100	0.976800	0.007700
H471	H47	0.672000	0.035200	0.953600
H481	H48	0.851400	0.681100	0.123500
O491	O49	0.759600	0.666600	0.320600
C811	C81	0.897800	0.680100	0.317800
O501	O50	0.993900	0.664800	0.342700
C821	C82	0.950300	0.716100	0.282500
C831	C83	0.849600	0.737600	0.255100
C841	C84	0.899100	0.770900	0.222500
O511	O51	0.755500	0.542400	0.364600
C851	C85	0.741500	0.408330	0.374800
H491	H49	0.745900	0.726800	0.257700
H501	H50	0.828000	0.785200	0.203600
H511	H51	0.648600	0.431100	0.373500
O521	O52	0.759600	0.166600	0.820600
C861	C86	0.897800	0.180100	0.817800
O531	O53	0.993900	0.164800	0.842700
C871	C87	0.950300	0.216100	0.782500
C881	C88	0.849600	0.237600	0.755100
C891	C89	0.899100	0.270900	0.722500
O541	O54	0.755500	0.042400	0.864600
C901	C90	0.741500	0.908330	0.874800
H521	H52	0.745900	0.226800	0.757700
H531	H53	0.828000	0.285200	0.703600
H541	H54	0.648600	0.931100	0.873500
O551	O55	0.259600	0.666600	0.820600
C911	C91	0.397800	0.680100	0.817800
O561	O56	0.493900	0.664800	0.842700
C921	C92	0.450300	0.716100	0.782500
C931	C93	0.349600	0.737600	0.755100
C941	C94	0.399100	0.770900	0.722500
O571	O57	0.255500	0.542400	0.864600
C951	C95	0.241500	0.408330	0.874800
H551	H55	0.245900	0.726800	0.757700
H561	H56	0.328000	0.785200	0.703600
H571	H57	0.148600	0.431100	0.873500
O581	O58	0.259600	0.166600	0.320600
C961	C96	0.397800	0.180100	0.317800
O591	O59	0.493900	0.164800	0.342700
C971	C97	0.450300	0.216100	0.282500
C981	C98	0.349600	0.237600	0.255100
C991	C99	0.399100	0.270900	0.222500
O601	O60	0.255500	0.042400	0.364600
C1001	C100	0.241500	0.908330	0.374800
H581	H58	0.245900	0.226800	0.257700
H591	H59	0.328000	0.285200	0.203600
H601	H60	0.148600	0.931100	0.373500
O611	O61	0.490400	0.583400	0.320600
C1011	C101	0.352200	0.569900	0.317800
O621	O62	0.256100	0.585200	0.342700
C1021	C102	0.299700	0.533900	0.282500
C1031	C103	0.400400	0.512400	0.255100
C1041	C104	0.350900	0.479100	0.222500
O631	O63	0.494500	0.707600	0.364600
C1051	C105	0.508500	0.841670	0.374800
H611	H61	0.504100	0.523200	0.257700
H621	H62	0.422000	0.464800	0.203600
H631	H63	0.601400	0.818900	0.373500
O641	O64	0.490400	0.083400	0.820600
C1061	C106	0.352200	0.069900	0.817800
O651	O65	0.256100	0.085200	0.842700
C1071	C107	0.299700	0.033900	0.782500
C1081	C108	0.400400	0.012400	0.755100
C1091	C109	0.350900	0.979100	0.722500
O661	O66	0.494500	0.207600	0.864600
C1101	C110	0.508500	0.341670	0.874800
H641	H64	0.504100	0.023200	0.757700
H651	H65	0.422000	0.964800	0.703600
H661	H66	0.601400	0.318900	0.873500
O671	O67	0.990400	0.583400	0.820600
C1111	C111	0.852200	0.569900	0.817800
O681	O68	0.756100	0.585200	0.842700
C1121	C112	0.799700	0.533900	0.782500
C1131	C113	0.900400	0.512400	0.755100
C1141	C114	0.850900	0.479100	0.722500
O691	O69	0.994500	0.707600	0.864600
C1151	C115	0.008500	0.841670	0.874800
H671	H67	0.004100	0.523200	0.757700
H681	H68	0.922000	0.464800	0.703600
H691	H69	0.101400	0.818900	0.873500
O701	O70	0.990400	0.083400	0.320600
C1161	C116	0.852200	0.069900	0.317800
O711	O71	0.756100	0.085200	0.342700
C1171	C117	0.799700	0.033900	0.282500
C1181	C118	0.900400	0.012400	0.255100
C1191	C119	0.850900	0.979100	0.222500
O721	O72	0.994500	0.207600	0.364600
C1201	C120	0.008500	0.341670	0.374800
H701	H70	0.004100	0.023200	0.257700
H711	H71	0.922000	0.964800	0.203600
H721	H72	0.101400	0.318900	0.373500
O731	O73	0.490400	0.666600	0.929400
C1211	C121	0.352200	0.680100	0.932200
O741	O74	0.256100	0.664800	0.907300
C1221	C122	0.299700	0.716100	0.967500
C1231	C123	0.400400	0.737600	0.994900
C1241	C124	0.350900	0.770900	0.027500
O751	O75	0.494500	0.542400	0.885400
C1251	C125	0.508500	0.408330	0.875200
H731	H73	0.504100	0.726800	0.992300
H741	H74	0.422000	0.785200	0.046400
H751	H75	0.601400	0.431100	0.876500
O761	O76	0.490400	0.166600	0.429400
C1261	C126	0.352200	0.180100	0.432200
O771	O77	0.256100	0.164800	0.407300
C1271	C127	0.299700	0.216100	0.467500
C1281	C128	0.400400	0.237600	0.494900
C1291	C129	0.350900	0.270900	0.527500
O781	O78	0.494500	0.042400	0.385400
C1301	C130	0.508500	0.908330	0.375200
H761	H76	0.504100	0.226800	0.492300
H771	H77	0.422000	0.285200	0.546400
H781	H78	0.601400	0.931100	0.376500
O791	O79	0.990400	0.666600	0.429400
C1311	C131	0.852200	0.680100	0.432200
O801	O80	0.756100	0.664800	0.407300
C1321	C132	0.799700	0.716100	0.467500
C1331	C133	0.900400	0.737600	0.494900
C1341	C134	0.850900	0.770900	0.527500
O811	O81	0.994500	0.542400	0.385400
C1351	C135	0.008500	0.408330	0.375200
H791	H79	0.004100	0.726800	0.492300
H801	H80	0.922000	0.785200	0.546400
H811	H81	0.101400	0.431100	0.376500
O821	O82	0.990400	0.166600	0.929400
C1361	C136	0.852200	0.180100	0.932200
O831	O83	0.756100	0.164800	0.907300
C1371	C137	0.799700	0.216100	0.967500
C1381	C138	0.900400	0.237600	0.994900
C1391	C139	0.850900	0.270900	0.027500
O841	O84	0.994500	0.042400	0.885400
C1401	C140	0.008500	0.908330	0.875200
H821	H82	0.004100	0.226800	0.992300
H831	H83	0.922000	0.285200	0.046400
H841	H84	0.101400	0.931100	0.876500
O851	O85	0.759600	0.583400	0.929400
C1411	C141	0.897800	0.569900	0.932200
O861	O86	0.993900	0.585200	0.907300
C1421	C142	0.950300	0.533900	0.967500
C1431	C143	0.849600	0.512400	0.994900
C1441	C144	0.899100	0.479100	0.027500
O871	O87	0.755500	0.707600	0.885400
C1451	C145	0.741500	0.841670	0.875200
H851	H85	0.745900	0.523200	0.992300
H861	H86	0.828000	0.464800	0.046400
H871	H87	0.648600	0.818900	0.876500
O881	O88	0.759600	0.083400	0.429400
C1461	C146	0.897800	0.069900	0.432200
O891	O89	0.993900	0.085200	0.407300
C1471	C147	0.950300	0.033900	0.467500
C1481	C148	0.849600	0.012400	0.494900
C1491	C149	0.899100	0.979100	0.527500
O901	O90	0.755500	0.207600	0.385400
C1501	C150	0.741500	0.341670	0.375200
H881	H88	0.745900	0.023200	0.492300
H891	H89	0.828000	0.964800	0.546400
H901	H90	0.648600	0.318900	0.376500
O911	O91	0.259600	0.583400	0.429400
C1511	C151	0.397800	0.569900	0.432200
O921	O92	0.493900	0.585200	0.407300
C1521	C152	0.450300	0.533900	0.467500
C1531	C153	0.349600	0.512400	0.494900
C1541	C154	0.399100	0.479100	0.527500
O931	O93	0.255500	0.707600	0.385400
C1551	C155	0.241500	0.841670	0.375200
H911	H91	0.245900	0.523200	0.492300
H921	H92	0.328000	0.464800	0.546400
H931	H93	0.148600	0.818900	0.376500
O941	O94	0.259600	0.083400	0.929400
C1561	C156	0.397800	0.069900	0.932200
O951	O95	0.493900	0.085200	0.907300
C1571	C157	0.450300	0.033900	0.967500
C1581	C158	0.349600	0.012400	0.994900
C1591	C159	0.399100	0.979100	0.027500
O961	O96	0.255500	0.207600	0.885400
C1601	C160	0.241500	0.341670	0.875200
H941	H94	0.245900	0.023200	0.992300
H951	H95	0.328000	0.964800	0.046400
H961	H96	0.148600	0.318900	0.876500
Sc11	Sc1	0.375000	0.375000	0.635380
Sc21	Sc2	0.375000	0.875000	0.135380
Sc31	Sc3	0.875000	0.375000	0.135380
Sc41	Sc4	0.875000	0.875000	0.635380
Sc51	Sc5	0.375000	0.375000	0.114620
Sc61	Sc6	0.375000	0.875000	0.614620
Sc71	Sc7	0.875000	0.375000	0.614620
Sc81	Sc8	0.875000	0.875000	0.114620
Sc91	Sc9	0.625000	0.625000	0.364620
Sc101	Sc10	0.625000	0.125000	0.864620
Sc111	Sc11	0.125000	0.625000	0.864620
Sc121	Sc12	0.125000	0.125000	0.364620
Sc131	Sc13	0.625000	0.625000	0.885380
Sc141	Sc14	0.625000	0.125000	0.385380
Sc151	Sc15	0.125000	0.625000	0.385380
Sc161	Sc16	0.125000	0.125000	0.885380
C1611	C161	0.125000	0.486100	0.625000
C1621	C162	0.125000	0.558400	0.625000
C1631	C163	0.125000	0.986100	0.125000
C1641	C164	0.125000	0.058400	0.125000
C1651	C165	0.625000	0.986100	0.625000
C1661	C166	0.625000	0.058400	0.625000
C1671	C167	0.625000	0.263900	0.625000
C1681	C168	0.625000	0.191600	0.625000
C1691	C169	0.625000	0.763900	0.125000
C1701	C170	0.625000	0.691600	0.125000
C1711	C171	0.625000	0.486100	0.125000
C1721	C172	0.625000	0.558400	0.125000
C1731	C173	0.125000	0.263900	0.125000
C1741	C174	0.125000	0.191600	0.125000
C1751	C175	0.125000	0.763900	0.625000
C1761	C176	0.125000	0.691600	0.625000
C1771	C177	0.875000	0.513900	0.375000
C1781	C178	0.875000	0.441600	0.375000
C1791	C179	0.875000	0.013900	0.875000
C1801	C180	0.875000	0.941600	0.875000
C1811	C181	0.375000	0.736100	0.375000
C1821	C182	0.375000	0.808400	0.375000
C1831	C183	0.375000	0.236100	0.875000
C1841	C184	0.375000	0.308400	0.875000
C1851	C185	0.375000	0.513900	0.875000
C1861	C186	0.375000	0.441600	0.875000
C1871	C187	0.375000	0.013900	0.375000
C1881	C188	0.375000	0.941600	0.375000
C1891	C189	0.875000	0.736100	0.875000
C1901	C190	0.875000	0.808400	0.875000
C1911	C191	0.875000	0.236100	0.375000
C1921	C192	0.875000	0.308400	0.375000
