data_HOJPED_freeONLY_PM
_symmetry_space_group_name_H-M	'P1'
_cell_length_a	8.824400
_cell_length_b	20.622300
_cell_length_c	34.123000
_cell_angle_alpha	90.000000
_cell_angle_beta	90.000000
_cell_angle_gamma	90.000000
_symmetry_Int_Tables_number 1

loop_
_symmetry_equiv_pos_as_xyz
'x,y,z'

loop_
_atom_site_label
_atom_site_type_symbol
_atom_site_fract_x
_atom_site_fract_y
_atom_site_fract_z
O11	O1	0.242000	0.332600	0.679200
C11	C1	0.103400	0.320000	0.682100
O21	O2	0.008100	0.335500	0.657000
C21	C2	0.049500	0.284400	0.717800
C31	C3	0.149800	0.264800	0.745800
C41	C4	0.101100	0.230100	0.777900
O31	O3	0.244900	0.457500	0.634300
C51	C5	0.259300	0.591490	0.624900
H11	H1	0.253500	0.275600	0.743200
H21	H2	0.172200	0.215800	0.796800
H31	H3	0.352200	0.568700	0.626200
O41	O4	0.242000	0.832600	0.179200
C61	C6	0.103400	0.820000	0.182100
O51	O5	0.008100	0.835500	0.157000
C71	C7	0.049500	0.784400	0.217800
C81	C8	0.149800	0.764800	0.245800
C91	C9	0.101100	0.730100	0.277900
O61	O6	0.244900	0.957500	0.134300
C101	C10	0.259300	0.091490	0.124900
H41	H4	0.253500	0.775600	0.243200
H51	H5	0.172200	0.715800	0.296800
H61	H6	0.352200	0.068700	0.126200
O71	O7	0.742000	0.332600	0.179200
C111	C11	0.603400	0.320000	0.182100
O81	O8	0.508100	0.335500	0.157000
C121	C12	0.549500	0.284400	0.217800
C131	C13	0.649800	0.264800	0.245800
C141	C14	0.601100	0.230100	0.277900
O91	O9	0.744900	0.457500	0.134300
C151	C15	0.759300	0.591490	0.124900
H71	H7	0.753500	0.275600	0.243200
H81	H8	0.672200	0.215800	0.296800
H91	H9	0.852200	0.568700	0.126200
O101	O10	0.742000	0.832600	0.679200
C161	C16	0.603400	0.820000	0.682100
O111	O11	0.508100	0.835500	0.657000
C171	C17	0.549500	0.784400	0.717800
C181	C18	0.649800	0.764800	0.745800
C191	C19	0.601100	0.730100	0.777900
O121	O12	0.744900	0.957500	0.634300
C201	C20	0.759300	0.091490	0.624900
H101	H10	0.753500	0.775600	0.743200
H111	H11	0.672200	0.715800	0.796800
H121	H12	0.852200	0.068700	0.626200
O131	O13	0.508000	0.417400	0.679200
C211	C21	0.646600	0.430000	0.682100
O141	O14	0.741900	0.414500	0.657000
C221	C22	0.700500	0.465600	0.717800
C231	C23	0.600200	0.485200	0.745800
C241	C24	0.648900	0.519900	0.777900
O151	O15	0.505100	0.292500	0.634300
C251	C25	0.490700	0.158510	0.624900
H131	H13	0.496500	0.474400	0.743200
H141	H14	0.577800	0.534200	0.796800
H151	H15	0.397800	0.181300	0.626200
O161	O16	0.508000	0.917400	0.179200
C261	C26	0.646600	0.930000	0.182100
O171	O17	0.741900	0.914500	0.157000
C271	C27	0.700500	0.965600	0.217800
C281	C28	0.600200	0.985200	0.245800
C291	C29	0.648900	0.019900	0.277900
O181	O18	0.505100	0.792500	0.134300
C301	C30	0.490700	0.658510	0.124900
H161	H16	0.496500	0.974400	0.243200
H171	H17	0.577800	0.034200	0.296800
H181	H18	0.397800	0.681300	0.126200
O191	O19	0.008000	0.417400	0.179200
C311	C31	0.146600	0.430000	0.182100
O201	O20	0.241900	0.414500	0.157000
C321	C32	0.200500	0.465600	0.217800
C331	C33	0.100200	0.485200	0.245800
C341	C34	0.148900	0.519900	0.277900
O211	O21	0.005100	0.292500	0.134300
C351	C35	0.990700	0.158510	0.124900
H191	H19	0.996500	0.474400	0.243200
H201	H20	0.077800	0.534200	0.296800
H211	H21	0.897800	0.181300	0.126200
O221	O22	0.008000	0.917400	0.679200
C361	C36	0.146600	0.930000	0.682100
O231	O23	0.241900	0.914500	0.657000
C371	C37	0.200500	0.965600	0.717800
C381	C38	0.100200	0.985200	0.745800
C391	C39	0.148900	0.019900	0.777900
O241	O24	0.005100	0.792500	0.634300
C401	C40	0.990700	0.658510	0.624900
H221	H22	0.996500	0.974400	0.743200
H231	H23	0.077800	0.034200	0.796800
H241	H24	0.897800	0.681300	0.626200
O251	O25	0.508000	0.332600	0.070800
C411	C41	0.646600	0.320000	0.067900
O261	O26	0.741900	0.335500	0.093000
C421	C42	0.700500	0.284400	0.032200
C431	C43	0.600200	0.264800	0.004200
C441	C44	0.648900	0.230100	0.972100
O271	O27	0.505100	0.457500	0.115700
C451	C45	0.490700	0.591490	0.125100
H251	H25	0.496500	0.275600	0.006800
H261	H26	0.577800	0.215800	0.953200
H271	H27	0.397800	0.568700	0.123800
O281	O28	0.508000	0.832600	0.570800
C461	C46	0.646600	0.820000	0.567900
O291	O29	0.741900	0.835500	0.593000
C471	C47	0.700500	0.784400	0.532200
C481	C48	0.600200	0.764800	0.504200
C491	C49	0.648900	0.730100	0.472100
O301	O30	0.505100	0.957500	0.615700
C501	C50	0.490700	0.091490	0.625100
H281	H28	0.496500	0.775600	0.506800
H291	H29	0.577800	0.715800	0.453200
H301	H30	0.397800	0.068700	0.623800
O311	O31	0.008000	0.332600	0.570800
C511	C51	0.146600	0.320000	0.567900
O321	O32	0.241900	0.335500	0.593000
C521	C52	0.200500	0.284400	0.532200
C531	C53	0.100200	0.264800	0.504200
C541	C54	0.148900	0.230100	0.472100
O331	O33	0.005100	0.457500	0.615700
C551	C55	0.990700	0.591490	0.625100
H311	H31	0.996500	0.275600	0.506800
H321	H32	0.077800	0.215800	0.453200
H331	H33	0.897800	0.568700	0.623800
O341	O34	0.008000	0.832600	0.070800
C561	C56	0.146600	0.820000	0.067900
O351	O35	0.241900	0.835500	0.093000
C571	C57	0.200500	0.784400	0.032200
C581	C58	0.100200	0.764800	0.004200
C591	C59	0.148900	0.730100	0.972100
O361	O36	0.005100	0.957500	0.115700
C601	C60	0.990700	0.091490	0.125100
H341	H34	0.996500	0.775600	0.006800
H351	H35	0.077800	0.715800	0.953200
H361	H36	0.897800	0.068700	0.123800
O371	O37	0.242000	0.417400	0.070800
C611	C61	0.103400	0.430000	0.067900
O381	O38	0.008100	0.414500	0.093000
C621	C62	0.049500	0.465600	0.032200
C631	C63	0.149800	0.485200	0.004200
C641	C64	0.101100	0.519900	0.972100
O391	O39	0.244900	0.292500	0.115700
C651	C65	0.259300	0.158510	0.125100
H371	H37	0.253500	0.474400	0.006800
H381	H38	0.172200	0.534200	0.953200
H391	H39	0.352200	0.181300	0.123800
O401	O40	0.242000	0.917400	0.570800
C661	C66	0.103400	0.930000	0.567900
O411	O41	0.008100	0.914500	0.593000
C671	C67	0.049500	0.965600	0.532200
C681	C68	0.149800	0.985200	0.504200
C691	C69	0.101100	0.019900	0.472100
O421	O42	0.244900	0.792500	0.615700
C701	C70	0.259300	0.658510	0.625100
H401	H40	0.253500	0.974400	0.506800
H411	H41	0.172200	0.034200	0.453200
H421	H42	0.352200	0.681300	0.623800
O431	O43	0.742000	0.417400	0.570800
C711	C71	0.603400	0.430000	0.567900
O441	O44	0.508100	0.414500	0.593000
C721	C72	0.549500	0.465600	0.532200
C731	C73	0.649800	0.485200	0.504200
C741	C74	0.601100	0.519900	0.472100
O451	O45	0.744900	0.292500	0.615700
C751	C75	0.759300	0.158510	0.625100
H431	H43	0.753500	0.474400	0.506800
H441	H44	0.672200	0.534200	0.453200
H451	H45	0.852200	0.181300	0.623800
O461	O46	0.742000	0.917400	0.070800
C761	C76	0.603400	0.930000	0.067900
O471	O47	0.508100	0.914500	0.093000
C771	C77	0.549500	0.965600	0.032200
C781	C78	0.649800	0.985200	0.004200
C791	C79	0.601100	0.019900	0.972100
O481	O48	0.744900	0.792500	0.115700
C801	C80	0.759300	0.658510	0.125100
H461	H46	0.753500	0.974400	0.006800
H471	H47	0.672200	0.034200	0.953200
H481	H48	0.852200	0.681300	0.123800
O491	O49	0.758000	0.667400	0.320800
C811	C81	0.896600	0.680000	0.317900
O501	O50	0.991900	0.664500	0.343000
C821	C82	0.950500	0.715600	0.282200
C831	C83	0.850200	0.735200	0.254200
C841	C84	0.898900	0.769900	0.222100
O511	O51	0.755100	0.542500	0.365700
C851	C85	0.740700	0.408510	0.375100
H491	H49	0.746500	0.724400	0.256800
H501	H50	0.827800	0.784200	0.203200
H511	H51	0.647800	0.431300	0.373800
O521	O52	0.758000	0.167400	0.820800
C861	C86	0.896600	0.180000	0.817900
O531	O53	0.991900	0.164500	0.843000
C871	C87	0.950500	0.215600	0.782200
C881	C88	0.850200	0.235200	0.754200
C891	C89	0.898900	0.269900	0.722100
O541	O54	0.755100	0.042500	0.865700
C901	C90	0.740700	0.908510	0.875100
H521	H52	0.746500	0.224400	0.756800
H531	H53	0.827800	0.284200	0.703200
H541	H54	0.647800	0.931300	0.873800
O551	O55	0.258000	0.667400	0.820800
C911	C91	0.396600	0.680000	0.817900
O561	O56	0.491900	0.664500	0.843000
C921	C92	0.450500	0.715600	0.782200
C931	C93	0.350200	0.735200	0.754200
C941	C94	0.398900	0.769900	0.722100
O571	O57	0.255100	0.542500	0.865700
C951	C95	0.240700	0.408510	0.875100
H551	H55	0.246500	0.724400	0.756800
H561	H56	0.327800	0.784200	0.703200
H571	H57	0.147800	0.431300	0.873800
O581	O58	0.258000	0.167400	0.320800
C961	C96	0.396600	0.180000	0.317900
O591	O59	0.491900	0.164500	0.343000
C971	C97	0.450500	0.215600	0.282200
C981	C98	0.350200	0.235200	0.254200
C991	C99	0.398900	0.269900	0.222100
O601	O60	0.255100	0.042500	0.365700
C1001	C100	0.240700	0.908510	0.375100
H581	H58	0.246500	0.224400	0.256800
H591	H59	0.327800	0.284200	0.203200
H601	H60	0.147800	0.931300	0.373800
O611	O61	0.492000	0.582600	0.320800
C1011	C101	0.353400	0.570000	0.317900
O621	O62	0.258100	0.585500	0.343000
C1021	C102	0.299500	0.534400	0.282200
C1031	C103	0.399800	0.514800	0.254200
C1041	C104	0.351100	0.480100	0.222100
O631	O63	0.494900	0.707500	0.365700
C1051	C105	0.509300	0.841490	0.375100
H611	H61	0.503500	0.525600	0.256800
H621	H62	0.422200	0.465800	0.203200
H631	H63	0.602200	0.818700	0.373800
O641	O64	0.492000	0.082600	0.820800
C1061	C106	0.353400	0.070000	0.817900
O651	O65	0.258100	0.085500	0.843000
C1071	C107	0.299500	0.034400	0.782200
C1081	C108	0.399800	0.014800	0.754200
C1091	C109	0.351100	0.980100	0.722100
O661	O66	0.494900	0.207500	0.865700
C1101	C110	0.509300	0.341490	0.875100
H641	H64	0.503500	0.025600	0.756800
H651	H65	0.422200	0.965800	0.703200
H661	H66	0.602200	0.318700	0.873800
O671	O67	0.992000	0.582600	0.820800
C1111	C111	0.853400	0.570000	0.817900
O681	O68	0.758100	0.585500	0.843000
C1121	C112	0.799500	0.534400	0.782200
C1131	C113	0.899800	0.514800	0.754200
C1141	C114	0.851100	0.480100	0.722100
O691	O69	0.994900	0.707500	0.865700
C1151	C115	0.009300	0.841490	0.875100
H671	H67	0.003500	0.525600	0.756800
H681	H68	0.922200	0.465800	0.703200
H691	H69	0.102200	0.818700	0.873800
O701	O70	0.992000	0.082600	0.320800
C1161	C116	0.853400	0.070000	0.317900
O711	O71	0.758100	0.085500	0.343000
C1171	C117	0.799500	0.034400	0.282200
C1181	C118	0.899800	0.014800	0.254200
C1191	C119	0.851100	0.980100	0.222100
O721	O72	0.994900	0.207500	0.365700
C1201	C120	0.009300	0.341490	0.375100
H701	H70	0.003500	0.025600	0.256800
H711	H71	0.922200	0.965800	0.203200
H721	H72	0.102200	0.318700	0.373800
O731	O73	0.492000	0.667400	0.929200
C1211	C121	0.353400	0.680000	0.932100
O741	O74	0.258100	0.664500	0.907000
C1221	C122	0.299500	0.715600	0.967800
C1231	C123	0.399800	0.735200	0.995800
C1241	C124	0.351100	0.769900	0.027900
O751	O75	0.494900	0.542500	0.884300
C1251	C125	0.509300	0.408510	0.874900
H731	H73	0.503500	0.724400	0.993200
H741	H74	0.422200	0.784200	0.046800
H751	H75	0.602200	0.431300	0.876200
O761	O76	0.492000	0.167400	0.429200
C1261	C126	0.353400	0.180000	0.432100
O771	O77	0.258100	0.164500	0.407000
C1271	C127	0.299500	0.215600	0.467800
C1281	C128	0.399800	0.235200	0.495800
C1291	C129	0.351100	0.269900	0.527900
O781	O78	0.494900	0.042500	0.384300
C1301	C130	0.509300	0.908510	0.374900
H761	H76	0.503500	0.224400	0.493200
H771	H77	0.422200	0.284200	0.546800
H781	H78	0.602200	0.931300	0.376200
O791	O79	0.992000	0.667400	0.429200
C1311	C131	0.853400	0.680000	0.432100
O801	O80	0.758100	0.664500	0.407000
C1321	C132	0.799500	0.715600	0.467800
C1331	C133	0.899800	0.735200	0.495800
C1341	C134	0.851100	0.769900	0.527900
O811	O81	0.994900	0.542500	0.384300
C1351	C135	0.009300	0.408510	0.374900
H791	H79	0.003500	0.724400	0.493200
H801	H80	0.922200	0.784200	0.546800
H811	H81	0.102200	0.431300	0.376200
O821	O82	0.992000	0.167400	0.929200
C1361	C136	0.853400	0.180000	0.932100
O831	O83	0.758100	0.164500	0.907000
C1371	C137	0.799500	0.215600	0.967800
C1381	C138	0.899800	0.235200	0.995800
C1391	C139	0.851100	0.269900	0.027900
O841	O84	0.994900	0.042500	0.884300
C1401	C140	0.009300	0.908510	0.874900
H821	H82	0.003500	0.224400	0.993200
H831	H83	0.922200	0.284200	0.046800
H841	H84	0.102200	0.931300	0.876200
O851	O85	0.758000	0.582600	0.929200
C1411	C141	0.896600	0.570000	0.932100
O861	O86	0.991900	0.585500	0.907000
C1421	C142	0.950500	0.534400	0.967800
C1431	C143	0.850200	0.514800	0.995800
C1441	C144	0.898900	0.480100	0.027900
O871	O87	0.755100	0.707500	0.884300
C1451	C145	0.740700	0.841490	0.874900
H851	H85	0.746500	0.525600	0.993200
H861	H86	0.827800	0.465800	0.046800
H871	H87	0.647800	0.818700	0.876200
O881	O88	0.758000	0.082600	0.429200
C1461	C146	0.896600	0.070000	0.432100
O891	O89	0.991900	0.085500	0.407000
C1471	C147	0.950500	0.034400	0.467800
C1481	C148	0.850200	0.014800	0.495800
C1491	C149	0.898900	0.980100	0.527900
O901	O90	0.755100	0.207500	0.384300
C1501	C150	0.740700	0.341490	0.374900
H881	H88	0.746500	0.025600	0.493200
H891	H89	0.827800	0.965800	0.546800
H901	H90	0.647800	0.318700	0.376200
O911	O91	0.258000	0.582600	0.429200
C1511	C151	0.396600	0.570000	0.432100
O921	O92	0.491900	0.585500	0.407000
C1521	C152	0.450500	0.534400	0.467800
C1531	C153	0.350200	0.514800	0.495800
C1541	C154	0.398900	0.480100	0.527900
O931	O93	0.255100	0.707500	0.384300
C1551	C155	0.240700	0.841490	0.374900
H911	H91	0.246500	0.525600	0.493200
H921	H92	0.327800	0.465800	0.546800
H931	H93	0.147800	0.818700	0.376200
O941	O94	0.258000	0.082600	0.929200
C1561	C156	0.396600	0.070000	0.932100
O951	O95	0.491900	0.085500	0.907000
C1571	C157	0.450500	0.034400	0.967800
C1581	C158	0.350200	0.014800	0.995800
C1591	C159	0.398900	0.980100	0.027900
O961	O96	0.255100	0.207500	0.884300
C1601	C160	0.240700	0.341490	0.874900
H941	H94	0.246500	0.025600	0.993200
H951	H95	0.327800	0.965800	0.046800
H961	H96	0.147800	0.318700	0.876200
Sc11	Sc1	0.375000	0.375000	0.635180
Sc21	Sc2	0.375000	0.875000	0.135180
Sc31	Sc3	0.875000	0.375000	0.135180
Sc41	Sc4	0.875000	0.875000	0.635180
Sc51	Sc5	0.375000	0.375000	0.114820
Sc61	Sc6	0.375000	0.875000	0.614820
Sc71	Sc7	0.875000	0.375000	0.614820
Sc81	Sc8	0.875000	0.875000	0.114820
Sc91	Sc9	0.625000	0.625000	0.364820
Sc101	Sc10	0.625000	0.125000	0.864820
Sc111	Sc11	0.125000	0.625000	0.864820
Sc121	Sc12	0.125000	0.125000	0.364820
Sc131	Sc13	0.625000	0.625000	0.885180
Sc141	Sc14	0.625000	0.125000	0.385180
Sc151	Sc15	0.125000	0.625000	0.385180
Sc161	Sc16	0.125000	0.125000	0.885180
C1611	C161	0.125000	0.486000	0.625000
C1621	C162	0.125000	0.558200	0.625000
C1631	C163	0.125000	0.986000	0.125000
C1641	C164	0.125000	0.058200	0.125000
C1651	C165	0.625000	0.986000	0.625000
C1661	C166	0.625000	0.058200	0.625000
C1671	C167	0.625000	0.264000	0.625000
C1681	C168	0.625000	0.191800	0.625000
C1691	C169	0.625000	0.764000	0.125000
C1701	C170	0.625000	0.691800	0.125000
C1711	C171	0.625000	0.486000	0.125000
C1721	C172	0.625000	0.558200	0.125000
C1731	C173	0.125000	0.264000	0.125000
C1741	C174	0.125000	0.191800	0.125000
C1751	C175	0.125000	0.764000	0.625000
C1761	C176	0.125000	0.691800	0.625000
C1771	C177	0.875000	0.514000	0.375000
C1781	C178	0.875000	0.441800	0.375000
C1791	C179	0.875000	0.014000	0.875000
C1801	C180	0.875000	0.941800	0.875000
C1811	C181	0.375000	0.736000	0.375000
C1821	C182	0.375000	0.808200	0.375000
C1831	C183	0.375000	0.236000	0.875000
C1841	C184	0.375000	0.308200	0.875000
C1851	C185	0.375000	0.514000	0.875000
C1861	C186	0.375000	0.441800	0.875000
C1871	C187	0.375000	0.014000	0.375000
C1881	C188	0.375000	0.941800	0.375000
C1891	C189	0.875000	0.736000	0.875000
C1901	C190	0.875000	0.808200	0.875000
C1911	C191	0.875000	0.236000	0.375000
C1921	C192	0.875000	0.308200	0.375000
