data_HOKGUJ_freeONLY_PM
_symmetry_space_group_name_H-M	'P1'
_cell_length_a	16.444000
_cell_length_b	16.444000
_cell_length_c	14.178000
_cell_angle_alpha	90.000000
_cell_angle_beta	90.000000
_cell_angle_gamma	90.000000
_symmetry_Int_Tables_number 1

loop_
_symmetry_equiv_pos_as_xyz
'x,y,z'

loop_
_atom_site_label
_atom_site_type_symbol
_atom_site_fract_x
_atom_site_fract_y
_atom_site_fract_z
Co11	Co1	0.669500	0.346300	0.607300
O11	O1	0.578500	0.374600	0.295500
O21	O2	0.676500	0.468400	0.421200
N11	N1	0.673700	0.222700	0.333200
C11	C1	0.629000	0.157700	0.359000
C21	C2	0.636000	0.087000	0.308000
C31	C3	0.694000	0.081000	0.242000
N21	N2	0.739700	0.145000	0.217300
C41	C4	0.773400	0.285900	0.235300
H11	H1	0.535100	0.337500	0.317800
H21	H2	0.897000	0.458000	0.175000
H31	H3	0.798000	0.470000	0.291000
H41	H4	0.573000	0.363200	0.225200
H51	H5	0.910300	0.336900	0.091000
Co21	Co2	0.169500	0.846300	0.107300
O31	O3	0.078500	0.874600	0.795500
O41	O4	0.176500	0.968400	0.921200
N31	N3	0.173700	0.722700	0.833200
C51	C5	0.129000	0.657700	0.859000
C61	C6	0.136000	0.587000	0.808000
C71	C7	0.194000	0.581000	0.742000
N41	N4	0.239700	0.645000	0.717300
C81	C8	0.273400	0.785900	0.735300
H61	H6	0.035100	0.837500	0.817800
H71	H7	0.397000	0.958000	0.675000
H81	H8	0.298000	0.970000	0.791000
H91	H9	0.073000	0.863200	0.725200
H101	H10	0.410300	0.836900	0.591000
Co31	Co3	0.330500	0.653700	0.607300
O51	O5	0.421500	0.625400	0.295500
O61	O6	0.323500	0.531600	0.421200
N51	N5	0.326300	0.777300	0.333200
C91	C9	0.371000	0.842300	0.359000
C101	C10	0.364000	0.913000	0.308000
C111	C11	0.306000	0.919000	0.242000
N61	N6	0.260300	0.855000	0.217300
C121	C12	0.226600	0.714100	0.235300
H111	H11	0.464900	0.662500	0.317800
H121	H12	0.103000	0.542000	0.175000
H131	H13	0.202000	0.530000	0.291000
H141	H14	0.427000	0.636800	0.225200
H151	H15	0.089700	0.663100	0.091000
Co41	Co4	0.830500	0.153700	0.107300
O71	O7	0.921500	0.125400	0.795500
O81	O8	0.823500	0.031600	0.921200
N71	N7	0.826300	0.277300	0.833200
C131	C13	0.871000	0.342300	0.859000
C141	C14	0.864000	0.413000	0.808000
C151	C15	0.806000	0.419000	0.742000
N81	N8	0.760300	0.355000	0.717300
C161	C16	0.726600	0.214100	0.735300
H161	H16	0.964900	0.162500	0.817800
H171	H17	0.603000	0.042000	0.675000
H181	H18	0.702000	0.030000	0.791000
H191	H19	0.927000	0.136800	0.725200
H201	H20	0.589700	0.163100	0.591000
Co51	Co5	0.653700	0.669500	0.607300
O91	O9	0.625400	0.578500	0.295500
O101	O10	0.531600	0.676500	0.421200
N91	N9	0.777300	0.673700	0.333200
C171	C17	0.842300	0.629000	0.359000
C181	C18	0.913000	0.636000	0.308000
C191	C19	0.919000	0.694000	0.242000
N101	N10	0.855000	0.739700	0.217300
C201	C20	0.714100	0.773400	0.235300
H211	H21	0.662500	0.535100	0.317800
H221	H22	0.542000	0.897000	0.175000
H231	H23	0.530000	0.798000	0.291000
H241	H24	0.636800	0.573000	0.225200
H251	H25	0.663100	0.910300	0.091000
Co61	Co6	0.153700	0.169500	0.107300
O111	O11	0.125400	0.078500	0.795500
O121	O12	0.031600	0.176500	0.921200
N111	N11	0.277300	0.173700	0.833200
C211	C21	0.342300	0.129000	0.859000
C221	C22	0.413000	0.136000	0.808000
C231	C23	0.419000	0.194000	0.742000
N121	N12	0.355000	0.239700	0.717300
C241	C24	0.214100	0.273400	0.735300
H261	H26	0.162500	0.035100	0.817800
H271	H27	0.042000	0.397000	0.675000
H281	H28	0.030000	0.298000	0.791000
H291	H29	0.136800	0.073000	0.725200
H301	H30	0.163100	0.410300	0.591000
Co71	Co7	0.346300	0.330500	0.607300
O131	O13	0.374600	0.421500	0.295500
O141	O14	0.468400	0.323500	0.421200
N131	N13	0.222700	0.326300	0.333200
C251	C25	0.157700	0.371000	0.359000
C261	C26	0.087000	0.364000	0.308000
C271	C27	0.081000	0.306000	0.242000
N141	N14	0.145000	0.260300	0.217300
C281	C28	0.285900	0.226600	0.235300
H311	H31	0.337500	0.464900	0.317800
H321	H32	0.458000	0.103000	0.175000
H331	H33	0.470000	0.202000	0.291000
H341	H34	0.363200	0.427000	0.225200
H351	H35	0.336900	0.089700	0.091000
Co81	Co8	0.846300	0.830500	0.107300
O151	O15	0.874600	0.921500	0.795500
O161	O16	0.968400	0.823500	0.921200
N151	N15	0.722700	0.826300	0.833200
C291	C29	0.657700	0.871000	0.859000
C301	C30	0.587000	0.864000	0.808000
C311	C31	0.581000	0.806000	0.742000
N161	N16	0.645000	0.760300	0.717300
C321	C32	0.785900	0.726600	0.735300
H361	H36	0.837500	0.964900	0.817800
H371	H37	0.958000	0.603000	0.675000
H381	H38	0.970000	0.702000	0.791000
H391	H39	0.863200	0.927000	0.725200
H401	H40	0.836900	0.589700	0.591000
Co91	Co9	0.330500	0.653700	0.392700
O171	O17	0.421500	0.625400	0.704500
O181	O18	0.323500	0.531600	0.578800
N171	N17	0.326300	0.777300	0.666800
C331	C33	0.371000	0.842300	0.641000
C341	C34	0.364000	0.913000	0.692000
C351	C35	0.306000	0.919000	0.758000
N181	N18	0.260300	0.855000	0.782700
C361	C36	0.226600	0.714100	0.764700
H411	H41	0.464900	0.662500	0.682200
H421	H42	0.103000	0.542000	0.825000
H431	H43	0.202000	0.530000	0.709000
H441	H44	0.427000	0.636800	0.774800
H451	H45	0.089700	0.663100	0.909000
Co101	Co10	0.830500	0.153700	0.892700
O191	O19	0.921500	0.125400	0.204500
O201	O20	0.823500	0.031600	0.078800
N191	N19	0.826300	0.277300	0.166800
C371	C37	0.871000	0.342300	0.141000
C381	C38	0.864000	0.413000	0.192000
C391	C39	0.806000	0.419000	0.258000
N201	N20	0.760300	0.355000	0.282700
C401	C40	0.726600	0.214100	0.264700
H461	H46	0.964900	0.162500	0.182200
H471	H47	0.603000	0.042000	0.325000
H481	H48	0.702000	0.030000	0.209000
H491	H49	0.927000	0.136800	0.274800
H501	H50	0.589700	0.163100	0.409000
Co111	Co11	0.669500	0.346300	0.392700
O211	O21	0.578500	0.374600	0.704500
O221	O22	0.676500	0.468400	0.578800
N211	N21	0.673700	0.222700	0.666800
C411	C41	0.629000	0.157700	0.641000
C421	C42	0.636000	0.087000	0.692000
C431	C43	0.694000	0.081000	0.758000
N221	N22	0.739700	0.145000	0.782700
C441	C44	0.773400	0.285900	0.764700
H511	H51	0.535100	0.337500	0.682200
H521	H52	0.897000	0.458000	0.825000
H531	H53	0.798000	0.470000	0.709000
H541	H54	0.573000	0.363200	0.774800
H551	H55	0.910300	0.336900	0.909000
Co121	Co12	0.169500	0.846300	0.892700
O231	O23	0.078500	0.874600	0.204500
O241	O24	0.176500	0.968400	0.078800
N231	N23	0.173700	0.722700	0.166800
C451	C45	0.129000	0.657700	0.141000
C461	C46	0.136000	0.587000	0.192000
C471	C47	0.194000	0.581000	0.258000
N241	N24	0.239700	0.645000	0.282700
C481	C48	0.273400	0.785900	0.264700
H561	H56	0.035100	0.837500	0.182200
H571	H57	0.397000	0.958000	0.325000
H581	H58	0.298000	0.970000	0.209000
H591	H59	0.073000	0.863200	0.274800
H601	H60	0.410300	0.836900	0.409000
Co131	Co13	0.346300	0.330500	0.392700
O251	O25	0.374600	0.421500	0.704500
O261	O26	0.468400	0.323500	0.578800
N251	N25	0.222700	0.326300	0.666800
C491	C49	0.157700	0.371000	0.641000
C501	C50	0.087000	0.364000	0.692000
C511	C51	0.081000	0.306000	0.758000
N261	N26	0.145000	0.260300	0.782700
C521	C52	0.285900	0.226600	0.764700
H611	H61	0.337500	0.464900	0.682200
H621	H62	0.458000	0.103000	0.825000
H631	H63	0.470000	0.202000	0.709000
H641	H64	0.363200	0.427000	0.774800
H651	H65	0.336900	0.089700	0.909000
Co141	Co14	0.846300	0.830500	0.892700
O271	O27	0.874600	0.921500	0.204500
O281	O28	0.968400	0.823500	0.078800
N271	N27	0.722700	0.826300	0.166800
C531	C53	0.657700	0.871000	0.141000
C541	C54	0.587000	0.864000	0.192000
C551	C55	0.581000	0.806000	0.258000
N281	N28	0.645000	0.760300	0.282700
C561	C56	0.785900	0.726600	0.264700
H661	H66	0.837500	0.964900	0.182200
H671	H67	0.958000	0.603000	0.325000
H681	H68	0.970000	0.702000	0.209000
H691	H69	0.863200	0.927000	0.274800
H701	H70	0.836900	0.589700	0.409000
Co151	Co15	0.653700	0.669500	0.392700
O291	O29	0.625400	0.578500	0.704500
O301	O30	0.531600	0.676500	0.578800
N291	N29	0.777300	0.673700	0.666800
C571	C57	0.842300	0.629000	0.641000
C581	C58	0.913000	0.636000	0.692000
C591	C59	0.919000	0.694000	0.758000
N301	N30	0.855000	0.739700	0.782700
C601	C60	0.714100	0.773400	0.764700
H711	H71	0.662500	0.535100	0.682200
H721	H72	0.542000	0.897000	0.825000
H731	H73	0.530000	0.798000	0.709000
H741	H74	0.636800	0.573000	0.774800
H751	H75	0.663100	0.910300	0.909000
Co161	Co16	0.153700	0.169500	0.892700
O311	O31	0.125400	0.078500	0.204500
O321	O32	0.031600	0.176500	0.078800
N311	N31	0.277300	0.173700	0.166800
C611	C61	0.342300	0.129000	0.141000
C621	C62	0.413000	0.136000	0.192000
C631	C63	0.419000	0.194000	0.258000
N321	N32	0.355000	0.239700	0.282700
C641	C64	0.214100	0.273400	0.264700
H761	H76	0.162500	0.035100	0.182200
H771	H77	0.042000	0.397000	0.325000
H781	H78	0.030000	0.298000	0.209000
H791	H79	0.136800	0.073000	0.274800
H801	H80	0.163100	0.410300	0.409000
O331	O33	0.746600	0.316600	0.500000
O341	O34	0.677300	0.584300	0.500000
C651	C65	0.677000	0.505000	0.500000
H811	H81	0.761900	0.267500	0.500000
O351	O35	0.246600	0.816600	0.000000
O361	O36	0.177300	0.084300	0.000000
C661	C66	0.177000	0.005000	0.000000
H821	H82	0.261900	0.767500	0.000000
O371	O37	0.253400	0.683400	0.500000
O381	O38	0.322700	0.415700	0.500000
C671	C67	0.323000	0.495000	0.500000
H831	H83	0.238100	0.732500	0.500000
O391	O39	0.753400	0.183400	0.000000
O401	O40	0.822700	0.915700	0.000000
C681	C68	0.823000	0.995000	0.000000
H841	H84	0.738100	0.232500	0.000000
O411	O41	0.683400	0.746600	0.500000
O421	O42	0.415700	0.677300	0.500000
C691	C69	0.495000	0.677000	0.500000
H851	H85	0.732500	0.761900	0.500000
O431	O43	0.183400	0.246600	0.000000
O441	O44	0.915700	0.177300	0.000000
C701	C70	0.995000	0.177000	0.000000
H861	H86	0.232500	0.261900	0.000000
O451	O45	0.316600	0.253400	0.500000
O461	O46	0.584300	0.322700	0.500000
C711	C71	0.505000	0.323000	0.500000
H871	H87	0.267500	0.238100	0.500000
O471	O47	0.816600	0.753400	0.000000
O481	O48	0.084300	0.822700	0.000000
C721	C72	0.005000	0.823000	0.000000
H881	H88	0.767500	0.738100	0.000000
