data_HOMXIR_manual_PM
_symmetry_space_group_name_H-M	'P1'
_cell_length_a	17.509100
_cell_length_b	41.255500
_cell_length_c	41.255500
_cell_angle_alpha	120.000000
_cell_angle_beta	90.000000
_cell_angle_gamma	90.000000
_symmetry_Int_Tables_number 1

loop_
_symmetry_equiv_pos_as_xyz
'x,y,z'

loop_
_atom_site_label
_atom_site_type_symbol
_atom_site_fract_x
_atom_site_fract_y
_atom_site_fract_z
Zn11	Zn1	0.837330	0.595220	0.968530
Zn21	Zn2	0.831480	0.373550	0.405450
Zn31	Zn3	0.835700	0.031320	0.627760
Zn41	Zn4	0.337440	0.404550	0.031590
Zn51	Zn5	0.331590	0.627330	0.595460
Zn61	Zn6	0.338670	0.968690	0.371850
Zn71	Zn7	0.165860	0.404810	0.031600
Zn81	Zn8	0.160130	0.626650	0.595510
Zn91	Zn9	0.167070	0.968060	0.373430
Zn101	Zn10	0.665810	0.594900	0.968330
Zn111	Zn11	0.660050	0.373500	0.404960
Zn121	Zn12	0.664510	0.031740	0.626060
Zn131	Zn13	0.752460	0.570170	0.896930
Zn141	Zn14	0.751610	0.522290	0.932950
Zn151	Zn15	0.744730	0.326890	0.430120
Zn161	Zn16	0.745820	0.410730	0.477990
Zn171	Zn17	0.750300	0.103040	0.673400
Zn181	Zn18	0.753840	0.067090	0.589580
Zn191	Zn19	0.252070	0.429350	0.103010
Zn201	Zn20	0.251520	0.477440	0.067220
Zn211	Zn21	0.244550	0.673450	0.570350
Zn221	Zn22	0.246070	0.589570	0.522730
Zn231	Zn23	0.253180	0.896980	0.325510
Zn241	Zn24	0.257020	0.932210	0.409110
C11	C1	0.898330	0.603640	0.909690
C21	C2	0.967330	0.612160	0.893840
C31	C3	0.031130	0.630310	0.916520
C41	C4	0.099380	0.634280	0.900920
C51	C5	0.106430	0.619810	0.862040
C61	C6	0.041800	0.602410	0.839520
C71	C7	0.973300	0.598840	0.855200
C81	C8	0.181000	0.621870	0.844870
C91	C9	0.181830	0.625550	0.812680
C101	C10	0.309930	0.642610	0.749030
C111	C11	0.887360	0.532890	0.973810
C121	C12	0.945430	0.516300	0.987730
C131	C13	0.939970	0.478640	0.978730
C141	C14	0.007210	0.537710	0.009890
C151	C15	0.726100	0.423830	0.809580
C161	C16	0.725190	0.393240	0.773020
C171	C17	0.309300	0.642830	0.715090
C181	C18	0.891090	0.305950	0.396920
C191	C19	0.959410	0.281210	0.387950
C201	C20	0.023280	0.285270	0.369700
C211	C21	0.091400	0.265710	0.366050
C221	C22	0.099350	0.241700	0.381020
C231	C23	0.035670	0.236390	0.398840
C241	C24	0.966330	0.254780	0.402230
C251	C25	0.174470	0.222790	0.378780
C261	C26	0.176360	0.186840	0.374930
C271	C27	0.307250	0.106630	0.356580
C281	C28	0.882460	0.440610	0.467970
C291	C29	0.940930	0.470890	0.484600
C301	C30	0.935550	0.499580	0.522230
C311	C31	0.002780	0.471480	0.463140
C321	C32	0.705990	0.321660	0.570620
C331	C33	0.705950	0.327280	0.539900
C341	C34	0.308790	0.072520	0.356430
C351	C35	0.895840	0.090620	0.694870
C361	C36	0.964190	0.106460	0.719560
C371	C37	0.028120	0.084190	0.715520
C381	C38	0.096360	0.100180	0.734910
C391	C39	0.104300	0.139190	0.758720
C401	C40	0.040580	0.162280	0.763990
C411	C41	0.971150	0.147210	0.745770
C421	C42	0.179430	0.155940	0.777500
C431	C43	0.181260	0.188090	0.813390
C441	C44	0.311620	0.250850	0.893420
C451	C45	0.887930	0.025000	0.560140
C461	C46	0.944610	0.009920	0.529620
C471	C47	0.950340	0.016770	0.498120
C481	C48	0.006410	0.989590	0.526070
C491	C49	0.720920	0.249100	0.679340
C501	C50	0.720440	0.212810	0.673710
C511	C51	0.312250	0.284850	0.927530
C521	C52	0.398750	0.396790	0.090770
C531	C53	0.468000	0.389040	0.107050
C541	C54	0.531370	0.370110	0.084460
C551	C55	0.599680	0.366600	0.100330
C561	C56	0.607310	0.382400	0.139390
C571	C57	0.543250	0.400850	0.161860
C581	C58	0.474630	0.403880	0.145930
C591	C59	0.681610	0.379900	0.156510
C601	C60	0.682160	0.377180	0.189280
C611	C61	0.810810	0.389000	0.267660
C621	C62	0.387370	0.467000	0.026450
C631	C63	0.445490	0.483610	0.012570
C641	C64	0.440150	0.521290	0.021630
C651	C65	0.507210	0.462180	0.990370
C661	C66	0.224390	0.575560	0.190540
C671	C67	0.223580	0.606180	0.227070
C681	C68	0.809990	0.388260	0.301300
C691	C69	0.391390	0.694460	0.603000
C701	C70	0.460330	0.718870	0.611480
C711	C71	0.523530	0.714720	0.630220
C721	C72	0.591870	0.734230	0.634330
C731	C73	0.599670	0.758260	0.619460
C741	C74	0.535620	0.763090	0.601520
C751	C75	0.466960	0.743850	0.597770
C761	C76	0.674530	0.777340	0.621720
C771	C77	0.676020	0.813190	0.625330
C781	C78	0.805940	0.893730	0.643660
C791	C79	0.382640	0.559920	0.533150
C801	C80	0.441030	0.529570	0.516440
C811	C81	0.435560	0.501000	0.478740
C821	C82	0.502940	0.528810	0.537770
C831	C83	0.206050	0.678300	0.429730
C841	C84	0.206060	0.672790	0.460510
C851	C85	0.806930	0.927830	0.643790
C861	C86	0.398960	0.909660	0.304490
C871	C87	0.467890	0.893810	0.280090
C881	C88	0.531440	0.916580	0.284460
C891	C89	0.599810	0.901020	0.265010
C901	C90	0.607210	0.862110	0.240880
C911	C91	0.542800	0.839510	0.235860
C921	C92	0.474180	0.855130	0.254990
C931	C93	0.681990	0.845040	0.221910
C941	C94	0.683270	0.812740	0.186130
C951	C95	0.812600	0.749140	0.105970
C961	C96	0.391650	0.973900	0.438980
C971	C97	0.449570	0.987970	0.469540
C981	C98	0.443930	0.978730	0.498010
C991	C99	0.510990	0.010490	0.470680
C1001	C100	0.225400	0.750200	0.318530
C1011	C101	0.225160	0.786440	0.324030
C1021	C102	0.812680	0.715040	0.071960
C1031	C103	0.105740	0.396100	0.090540
C1041	C104	0.037370	0.387180	0.106370
C1051	C105	0.973250	0.369100	0.084180
C1061	C106	0.905240	0.365480	0.100220
C1071	C107	0.897590	0.380360	0.139220
C1081	C108	0.961530	0.398010	0.162210
C1091	C109	0.030780	0.401330	0.147070
C1101	C110	0.822480	0.378270	0.156040
C1111	C111	0.820580	0.374610	0.188280
C1121	C112	0.689120	0.357170	0.250760
C1131	C113	0.115030	0.467500	0.027190
C1141	C114	0.056640	0.484230	0.013580
C1151	C115	0.062040	0.521900	0.022630
C1161	C116	0.994790	0.462830	0.991470
C1171	C117	0.287600	0.568970	0.249240
C1181	C118	0.286870	0.538230	0.212950
C1191	C119	0.687480	0.357310	0.284870
C1201	C120	0.098360	0.693790	0.603610
C1211	C121	0.029090	0.717910	0.611520
C1221	C122	0.965570	0.714140	0.630290
C1231	C123	0.897320	0.733600	0.633860
C1241	C124	0.889850	0.757080	0.618280
C1251	C125	0.954110	0.761270	0.600060
C1261	C126	0.022660	0.742210	0.596960
C1271	C127	0.815410	0.776590	0.620620
C1281	C128	0.814520	0.812100	0.623320
C1291	C129	0.685050	0.878250	0.611110
C1301	C130	0.110340	0.559170	0.533040
C1311	C131	0.052240	0.528710	0.516480
C1321	C132	0.057670	0.499990	0.478860
C1331	C133	0.990440	0.528090	0.537950
C1341	C134	0.274050	0.614440	0.424320
C1351	C135	0.275640	0.620370	0.393710
C1361	C136	0.685220	0.912750	0.612080
C1371	C137	0.105660	0.909280	0.306010
C1381	C138	0.036420	0.893120	0.281880
C1391	C139	0.973210	0.915790	0.285540
C1401	C140	0.905060	0.900030	0.265940
C1411	C141	0.897310	0.860990	0.242470
C1421	C142	0.961270	0.838440	0.238400
C1431	C143	0.029790	0.854280	0.257570
C1441	C144	0.822820	0.844000	0.222870
C1451	C145	0.821680	0.811060	0.187450
C1461	C146	0.690500	0.733300	0.121610
C1471	C147	0.120680	0.971480	0.440540
C1481	C148	0.064210	0.984310	0.471190
C1491	C149	0.067860	0.975050	0.500920
C1501	C150	0.000300	0.005800	0.474540
C1511	C151	0.288800	0.809090	0.383540
C1521	C152	0.290510	0.772570	0.377670
C1531	C153	0.689780	0.699690	0.087220
C1541	C154	0.605140	0.602370	0.908700
C1551	C155	0.535940	0.610270	0.892430
C1561	C156	0.472930	0.629510	0.915140
C1571	C157	0.404650	0.633280	0.899430
C1581	C158	0.396570	0.617460	0.860380
C1591	C159	0.460350	0.598830	0.837760
C1601	C160	0.529010	0.595500	0.853550
C1611	C161	0.321850	0.619980	0.843520
C1621	C162	0.320250	0.622560	0.810630
C1631	C163	0.187890	0.611090	0.733410
C1641	C164	0.615150	0.532350	0.973040
C1651	C165	0.556770	0.515660	0.986720
C1661	C166	0.562070	0.477970	0.977630
C1671	C167	0.495010	0.537090	0.008890
C1681	C168	0.789850	0.430410	0.750980
C1691	C169	0.789250	0.461110	0.787290
C1701	C170	0.186470	0.612170	0.699950
C1711	C171	0.598250	0.306630	0.397290
C1721	C172	0.528920	0.282620	0.389500
C1731	C173	0.465460	0.286410	0.370700
C1741	C174	0.397160	0.267000	0.367140
C1751	C175	0.389640	0.243560	0.382750
C1761	C176	0.453780	0.239400	0.401060
C1771	C177	0.522380	0.258400	0.404150
C1781	C178	0.315340	0.223910	0.380210
C1791	C179	0.314790	0.188330	0.377300
C1801	C180	0.186240	0.121700	0.389030
C1811	C181	0.610240	0.441130	0.467470
C1821	C182	0.552220	0.471660	0.484170
C1831	C183	0.557750	0.500260	0.521860
C1841	C184	0.490370	0.472460	0.462840
C1851	C185	0.775930	0.385050	0.575810
C1861	C186	0.777670	0.378980	0.606330
C1871	C187	0.186960	0.087190	0.388030
C1881	C188	0.602870	0.090870	0.693110
C1891	C189	0.533580	0.107120	0.717160
C1901	C190	0.470190	0.084540	0.713470
C1911	C191	0.402030	0.100390	0.733030
C1921	C192	0.394540	0.139430	0.756510
C1931	C193	0.458630	0.161900	0.760570
C1941	C194	0.527120	0.145980	0.741420
C1951	C195	0.320260	0.156530	0.776240
C1961	C196	0.319650	0.189320	0.811760
C1971	C197	0.189880	0.267340	0.878100
C1981	C198	0.617170	0.027630	0.558620
C1991	C199	0.559590	0.014040	0.527950
C2001	C200	0.565330	0.023350	0.499500
C2011	C201	0.498090	0.991580	0.526780
C2021	C202	0.787590	0.190550	0.615130
C2031	C203	0.789600	0.227160	0.621170
C2041	C204	0.189700	0.300840	0.912590
C2051	C205	0.754750	0.491470	0.854980
C2061	C206	0.757210	0.458210	0.816960
C2071	C207	0.756860	0.396130	0.743120
C2081	C208	0.754940	0.363840	0.703910
C2091	C209	0.747060	0.369910	0.673390
C2101	C210	0.743260	0.363590	0.508820
C2111	C211	0.741140	0.358920	0.542110
C2121	C212	0.743010	0.347070	0.604140
C2131	C213	0.747040	0.339920	0.636290
C2141	C214	0.751230	0.303120	0.630060
C2151	C215	0.753810	0.145040	0.636680
C2161	C216	0.753650	0.183130	0.641580
C2171	C217	0.756230	0.257010	0.653420
C2181	C218	0.756650	0.296160	0.660080
C2191	C219	0.760660	0.326850	0.696780
C2201	C220	0.253280	0.508000	0.145160
C2211	C221	0.255260	0.541170	0.183220
C2221	C222	0.255190	0.603320	0.256990
C2231	C223	0.254290	0.635840	0.296070
C2241	C224	0.245500	0.630030	0.326790
C2251	C225	0.242830	0.636440	0.491620
C2261	C226	0.240410	0.640940	0.458220
C2271	C227	0.242080	0.652560	0.396050
C2281	C228	0.246610	0.659830	0.364010
C2291	C229	0.252990	0.696570	0.370550
C2301	C230	0.256710	0.854420	0.361600
C2311	C231	0.256690	0.816300	0.356580
C2321	C232	0.258780	0.742560	0.345040
C2331	C233	0.258770	0.703630	0.338780
C2341	C234	0.261940	0.672520	0.302500
C2351	C235	0.251560	0.619090	0.859910
C2361	C236	0.250680	0.625060	0.794610
C2371	C237	0.249460	0.626460	0.758750
C2381	C238	0.247410	0.627760	0.690180
C2391	C239	0.246780	0.627770	0.654020
C2401	C240	0.244560	0.240940	0.381410
C2411	C241	0.245860	0.169470	0.374930
C2421	C242	0.246290	0.132090	0.373240
C2431	C243	0.248580	0.062320	0.372060
C2441	C244	0.250290	0.026190	0.372080
C2451	C245	0.249500	0.140530	0.759300
C2461	C246	0.250640	0.205710	0.830630
C2471	C247	0.250650	0.241560	0.867880
C2481	C248	0.251140	0.310190	0.937610
C2491	C249	0.251540	0.346300	0.973790
C2501	C250	0.752360	0.380930	0.140560
C2511	C251	0.751060	0.374800	0.205780
C2521	C252	0.750500	0.373360	0.241630
C2531	C253	0.748020	0.372730	0.310520
C2541	C254	0.746750	0.372820	0.346720
C2551	C255	0.744780	0.759430	0.619360
C2561	C256	0.745360	0.830730	0.625420
C2571	C257	0.745320	0.868070	0.626970
C2581	C258	0.746490	0.937830	0.628090
C2591	C259	0.747810	0.973910	0.627910
C2601	C260	0.752300	0.860280	0.239900
C2611	C261	0.752370	0.794810	0.168780
C2621	C262	0.751760	0.758820	0.131630
C2631	C263	0.751140	0.689950	0.062090
C2641	C264	0.751260	0.653660	0.026060
O11	O1	0.837730	0.591290	0.890110
O21	O2	0.832800	0.512570	0.953470
O31	O3	0.902520	0.606850	0.941950
O41	O4	0.893150	0.566960	0.982130
O51	O5	0.309850	0.628340	0.638920
O61	O6	0.830750	0.299120	0.409800
O71	O7	0.827420	0.440780	0.488130
O81	O8	0.895500	0.334810	0.393360
O91	O9	0.888230	0.414870	0.433930
O101	O10	0.314280	0.010940	0.370940
O111	O11	0.835640	0.110370	0.701540
O121	O12	0.834980	0.045810	0.559730
O131	O13	0.900080	0.058080	0.666220
O141	O14	0.892590	0.016930	0.586090
O151	O15	0.314980	0.361140	0.989190
O161	O16	0.337930	0.408930	0.110180
O171	O17	0.332850	0.487310	0.046860
O181	O18	0.402890	0.393220	0.058350
O191	O19	0.393100	0.432890	0.018030
O201	O20	0.809640	0.373720	0.362660
O211	O21	0.330770	0.701300	0.590290
O221	O22	0.327770	0.559740	0.512910
O231	O23	0.395710	0.665760	0.606810
O241	O24	0.388290	0.585700	0.567230
O251	O25	0.811640	0.989250	0.629050
O261	O26	0.338610	0.889940	0.297560
O271	O27	0.338290	0.952950	0.438770
O281	O28	0.403070	0.942110	0.333310
O291	O29	0.396030	0.982650	0.413490
O301	O30	0.814660	0.638610	0.010830
O311	O31	0.166060	0.408920	0.110260
O321	O32	0.170000	0.487630	0.047280
O331	O33	0.101460	0.392590	0.058120
O341	O34	0.109260	0.433410	0.018770
O351	O35	0.683030	0.372410	0.361460
O361	O36	0.158780	0.700940	0.591080
O371	O37	0.165080	0.559170	0.512800
O381	O38	0.094580	0.664990	0.607330
O391	O39	0.104400	0.584930	0.567070
O401	O40	0.685190	0.988690	0.626140
O411	O41	0.166670	0.889940	0.298380
O421	O42	0.176400	0.951450	0.439860
O431	O43	0.101390	0.941490	0.335220
O441	O44	0.112620	0.980420	0.415350
O451	O45	0.688020	0.637960	0.011200
O461	O46	0.665760	0.589760	0.889150
O471	O47	0.670000	0.512150	0.952890
O481	O48	0.601100	0.606420	0.941350
O491	O49	0.609460	0.566440	0.981450
O501	O50	0.183250	0.626710	0.638440
O511	O51	0.658870	0.299380	0.409580
O521	O52	0.664690	0.440980	0.487780
O531	O53	0.594370	0.335430	0.393610
O541	O54	0.604500	0.415480	0.433330
O551	O55	0.187750	0.011250	0.373680
O561	O56	0.663740	0.110280	0.700550
O571	O57	0.672670	0.047660	0.558960
O581	O58	0.598770	0.058490	0.664150
O591	O59	0.610090	0.019110	0.584170
O601	O60	0.188350	0.362080	0.988600
O611	O61	0.751780	0.570640	0.941700
O621	O62	0.755150	0.523640	0.858100
O631	O63	0.752370	0.487620	0.883680
O641	O64	0.745470	0.371180	0.429630
O651	O65	0.742870	0.334510	0.476670
O661	O66	0.745320	0.396120	0.512630
O671	O67	0.751050	0.058280	0.629170
O681	O68	0.750660	0.141850	0.665660
O691	O69	0.756590	0.116360	0.604130
O701	O70	0.251710	0.429040	0.058340
O711	O71	0.253420	0.475800	0.141940
O721	O72	0.251780	0.511960	0.116520
O731	O73	0.245530	0.629240	0.571020
O741	O74	0.242090	0.665590	0.523710
O751	O75	0.245520	0.603980	0.487940
O761	O76	0.253920	0.941520	0.369980
O771	O77	0.253570	0.857820	0.332740
O781	O78	0.259470	0.882960	0.394210
H11	H1	0.028780	0.640970	0.946400
H21	H2	0.146830	0.648560	0.919440
H31	H3	0.044680	0.590270	0.809450
H41	H4	0.925900	0.584260	0.836740
H51	H5	0.128310	0.629380	0.801960
H61	H6	0.357720	0.655540	0.767770
H71	H7	0.893260	0.461250	0.961730
H81	H8	0.013380	0.566750	0.017370
H91	H9	0.700540	0.420910	0.831890
H101	H10	0.698110	0.367600	0.768140
H111	H11	0.356920	0.655340	0.708550
H121	H12	0.021260	0.304250	0.358730
H131	H13	0.138680	0.269720	0.351510
H141	H14	0.039870	0.218640	0.411140
H151	H15	0.918980	0.250620	0.416640
H161	H16	0.123230	0.172050	0.371320
H171	H17	0.353830	0.112740	0.343250
H181	H18	0.888770	0.500060	0.539640
H191	H19	0.008860	0.449880	0.434110
H201	H20	0.676680	0.297370	0.567970
H211	H21	0.677800	0.306900	0.514360
H221	H22	0.356770	0.053830	0.343560
H231	H23	0.026070	0.054220	0.696680
H241	H24	0.143720	0.081690	0.730930
H251	H25	0.044810	0.192350	0.781590
H261	H26	0.923770	0.165740	0.749880
H271	H27	0.128110	0.199120	0.828220
H281	H28	0.358820	0.231760	0.887410
H291	H29	0.692610	0.270900	0.703940
H301	H30	0.693040	0.207860	0.694390
H311	H31	0.360180	0.291050	0.946340
H321	H32	0.528540	0.358340	0.054420
H331	H33	0.646650	0.351480	0.081840
H341	H34	0.546530	0.414100	0.192030
H351	H35	0.427600	0.419190	0.164310
H361	H36	0.628430	0.377150	0.202130
H371	H37	0.858360	0.402590	0.262570
H381	H38	0.393500	0.538700	0.038670
H391	H39	0.513300	0.433120	0.982840
H401	H40	0.199100	0.578500	0.168180
H411	H41	0.196830	0.631860	0.231880
H421	H42	0.857290	0.400670	0.320580
H431	H43	0.520660	0.695810	0.641250
H441	H44	0.638820	0.730250	0.649050
H451	H45	0.539130	0.780800	0.589140
H461	H46	0.420000	0.747460	0.582790
H471	H47	0.622690	0.827760	0.628700
H481	H48	0.852680	0.887790	0.657050
H491	H49	0.388760	0.500630	0.461400
H501	H50	0.509110	0.550320	0.566830
H511	H51	0.177630	0.702840	0.432480
H521	H52	0.178750	0.693450	0.486170
H531	H53	0.854690	0.946680	0.656670
H541	H54	0.528850	0.946490	0.303490
H551	H55	0.647100	0.919600	0.269160
H561	H56	0.545980	0.809420	0.218110
H571	H57	0.426950	0.836620	0.251220
H581	H58	0.629920	0.801820	0.171460
H591	H59	0.860150	0.768000	0.111800
H601	H60	0.397470	0.961460	0.498130
H611	H61	0.517210	0.018150	0.449250
H621	H62	0.198290	0.728270	0.293600
H631	H63	0.199170	0.791210	0.302950
H641	H64	0.860570	0.708530	0.053080
H651	H65	0.975010	0.358230	0.054260
H661	H66	0.857790	0.351060	0.081750
H671	H67	0.957630	0.410250	0.192260
H681	H68	0.078310	0.415620	0.165560
H691	H69	0.873700	0.370990	0.199460
H701	H70	0.642290	0.343960	0.231450
H711	H71	0.108810	0.539270	0.039610
H721	H72	0.988660	0.433780	0.983950
H731	H73	0.314240	0.565790	0.271170
H741	H74	0.311860	0.512140	0.208060
H751	H75	0.639250	0.344770	0.290940
H761	H76	0.968210	0.695680	0.641850
H771	H77	0.850220	0.730090	0.648820
H781	H78	0.951030	0.778370	0.587010
H791	H79	0.069790	0.745430	0.581800
H801	H80	0.868120	0.825190	0.623570
H811	H81	0.638070	0.859290	0.597140
H821	H82	0.104410	0.499530	0.461450
H831	H83	0.984310	0.549710	0.566970
H841	H84	0.301330	0.589750	0.421880
H851	H85	0.305050	0.600150	0.368580
H861	H86	0.638080	0.919410	0.599410
H871	H87	0.976080	0.945800	0.303970
H881	H88	0.858270	0.918610	0.269330
H891	H89	0.957970	0.808300	0.221310
H901	H90	0.076730	0.835830	0.254440
H911	H91	0.875130	0.797890	0.174480
H921	H92	0.643330	0.738800	0.140610
H931	H93	0.112600	0.958260	0.503310
H941	H94	0.314040	0.831560	0.408760
H951	H95	0.317820	0.767890	0.398500
H961	H96	0.641830	0.680820	0.080670
H971	H97	0.475980	0.641310	0.945180
H981	H98	0.357990	0.648590	0.918050
H991	H99	0.456770	0.585660	0.807610
H1001	H100	0.575790	0.580040	0.835070
H1011	H101	0.373540	0.622420	0.797370
H1021	H102	0.140990	0.597460	0.738920
H1031	H103	0.608760	0.460580	0.960610
H1041	H104	0.488960	0.566150	0.016440
H1051	H105	0.816660	0.433600	0.729100
H1061	H106	0.814510	0.487160	0.792220
H1071	H107	0.138280	0.599950	0.681230
H1081	H108	0.468210	0.304810	0.359090
H1091	H109	0.350110	0.270480	0.352140
H1101	H110	0.450590	0.222330	0.414150
H1111	H111	0.569470	0.255200	0.419340
H1121	H112	0.368510	0.175350	0.377110
H1131	H113	0.139010	0.140510	0.402950
H1141	H114	0.604530	0.500600	0.539200
H1151	H115	0.484130	0.450940	0.433780
H1161	H116	0.803940	0.409540	0.578160
H1171	H117	0.807930	0.398910	0.631300
H1181	H118	0.139950	0.080360	0.400620
H1191	H119	0.472910	0.054520	0.695050
H1201	H120	0.355080	0.081880	0.729620
H1211	H121	0.455490	0.192050	0.777660
H1221	H122	0.574180	0.164360	0.744560
H1231	H123	0.373300	0.202260	0.824670
H1241	H124	0.142670	0.262140	0.859200
H1251	H125	0.611900	0.040610	0.499480
H1261	H126	0.491710	0.983840	0.548140
H1271	H127	0.814150	0.168220	0.590250
H1281	H128	0.818390	0.232050	0.600800
H1291	H129	0.142070	0.319910	0.919300
H1301	H130	0.739290	0.398120	0.678550
H1311	H131	0.749910	0.279760	0.601750
H1321	H132	0.769460	0.321910	0.719910
H1331	H133	0.236340	0.601910	0.321620
H1341	H134	0.253940	0.719930	0.398850
H1351	H135	0.271310	0.676840	0.279010
H1361	H136	0.251740	0.614950	0.883810
H1371	H137	0.244010	0.269040	0.385690
H1381	H138	0.248900	0.116650	0.731230
H1391	H139	0.752860	0.385090	0.116670
H1401	H140	0.744460	0.731390	0.615230
H1411	H141	0.752060	0.884240	0.267910
