data_HORHAY_freeONLY_PM
_symmetry_space_group_name_H-M	'P1'
_cell_length_a	21.559400
_cell_length_b	21.559400
_cell_length_c	14.919500
_cell_angle_alpha	90.000000
_cell_angle_beta	90.000000
_cell_angle_gamma	120.000000
_symmetry_Int_Tables_number 1

loop_
_symmetry_equiv_pos_as_xyz
'x,y,z'

loop_
_atom_site_label
_atom_site_type_symbol
_atom_site_fract_x
_atom_site_fract_y
_atom_site_fract_z
N11	N1	0.075100	0.208100	0.141400
N21	N2	0.021500	0.097900	0.089700
N31	N3	0.174900	0.164800	0.328800
N41	N4	0.101100	0.071900	0.410700
C11	C1	0.148800	0.308300	0.246100
C21	C2	0.134300	0.359200	0.279300
H11	H1	0.112100	0.376700	0.241800
C31	C3	0.182200	0.281200	0.301600
C41	C4	0.129200	0.284200	0.148800
H21	H2	0.172000	0.292900	0.116700
H31	H3	0.111100	0.312500	0.120600
C51	C5	0.078100	0.162100	0.083100
H41	H4	0.115600	0.174200	0.043100
C61	C6	0.980600	0.103200	0.156200
H51	H5	0.936900	0.065900	0.176100
C71	C7	0.013500	0.170800	0.188400
H61	H6	0.997100	0.188300	0.234000
C81	C8	0.203300	0.227700	0.270200
H71	H7	0.185500	0.212400	0.209800
H81	H8	0.255100	0.250600	0.268600
C91	C9	0.107700	0.124400	0.359100
H91	H9	0.070300	0.132500	0.345300
C101	C10	0.167000	0.078600	0.411000
H101	H10	0.178800	0.048100	0.441100
C111	C11	0.212700	0.134900	0.362400
H111	H11	0.261000	0.150700	0.353100
N51	N5	0.741770	0.541430	0.474730
N61	N6	0.688170	0.431230	0.423030
N71	N7	0.841570	0.498130	0.662130
N81	N8	0.767770	0.405230	0.744030
C121	C12	0.815470	0.641630	0.579430
C131	C13	0.800970	0.692530	0.612630
H121	H12	0.778770	0.710030	0.575130
C141	C14	0.848870	0.614530	0.634930
C151	C15	0.795870	0.617530	0.482130
H131	H13	0.838670	0.626230	0.450030
H141	H14	0.777770	0.645830	0.453930
C161	C16	0.744770	0.495430	0.416430
H151	H15	0.782270	0.507530	0.376430
C171	C17	0.647270	0.436530	0.489530
H161	H16	0.603570	0.399230	0.509430
C181	C18	0.680170	0.504130	0.521730
H171	H17	0.663770	0.521630	0.567330
C191	C19	0.869970	0.561030	0.603530
H181	H18	0.852170	0.545730	0.543130
H191	H19	0.921770	0.583930	0.601930
C201	C20	0.774370	0.457730	0.692430
H201	H20	0.736970	0.465830	0.678630
C211	C21	0.833670	0.411930	0.744330
H211	H21	0.845470	0.381430	0.774430
C221	C22	0.879370	0.468230	0.695730
H221	H22	0.927670	0.484030	0.686430
N91	N9	0.408430	0.874770	0.808070
N101	N10	0.354830	0.764570	0.756370
N111	N11	0.508230	0.831470	0.995470
N121	N12	0.434430	0.738570	0.077370
C231	C23	0.482130	0.974970	0.912770
C241	C24	0.467630	0.025870	0.945970
H231	H23	0.445430	0.043370	0.908470
C251	C25	0.515530	0.947870	0.968270
C261	C26	0.462530	0.950870	0.815470
H241	H24	0.505330	0.959570	0.783370
H251	H25	0.444430	0.979170	0.787270
C271	C27	0.411430	0.828770	0.749770
H261	H26	0.448930	0.840870	0.709770
C281	C28	0.313930	0.769870	0.822870
H271	H27	0.270230	0.732570	0.842770
C291	C29	0.346830	0.837470	0.855070
H281	H28	0.330430	0.854970	0.900670
C301	C30	0.536630	0.894370	0.936870
H291	H29	0.518830	0.879070	0.876470
H301	H30	0.588430	0.917270	0.935270
C311	C31	0.441030	0.791070	0.025770
H311	H31	0.403630	0.799170	0.011970
C321	C32	0.500330	0.745270	0.077670
H321	H32	0.512130	0.714770	0.107770
C331	C33	0.546030	0.801570	0.029070
H331	H33	0.594330	0.817370	0.019770
N131	N13	0.791900	0.867000	0.141400
N141	N14	0.902100	0.923600	0.089700
N151	N15	0.835200	0.010100	0.328800
N161	N16	0.928100	0.029200	0.410700
C341	C34	0.691700	0.840500	0.246100
C351	C35	0.640800	0.775100	0.279300
H341	H34	0.623300	0.735400	0.241800
C361	C36	0.718800	0.901000	0.301600
C371	C37	0.715800	0.845000	0.148800
H351	H35	0.707100	0.879100	0.116700
H361	H36	0.687500	0.798600	0.120600
C381	C38	0.837900	0.916000	0.083100
H371	H37	0.825800	0.941400	0.043100
C391	C39	0.896800	0.877400	0.156200
H381	H38	0.934100	0.871000	0.176100
C401	C40	0.829200	0.842700	0.188400
H391	H39	0.811700	0.808800	0.234000
C411	C41	0.772300	0.975600	0.270200
H401	H40	0.787600	0.973100	0.209800
H411	H41	0.749400	0.004500	0.268600
C421	C42	0.875600	0.983300	0.359100
H421	H42	0.867500	0.937800	0.345300
C431	C43	0.921400	0.088400	0.411000
H431	H43	0.951900	0.130700	0.441100
C441	C44	0.865100	0.077800	0.362400
H441	H44	0.849300	0.110300	0.353100
N171	N17	0.458570	0.200330	0.474730
N181	N18	0.568770	0.256930	0.423030
N191	N19	0.501870	0.343430	0.662130
N201	N20	0.594770	0.362530	0.744030
C451	C45	0.358370	0.173830	0.579430
C461	C46	0.307470	0.108430	0.612630
H451	H45	0.289970	0.068730	0.575130
C471	C47	0.385470	0.234330	0.634930
C481	C48	0.382470	0.178330	0.482130
H461	H46	0.373770	0.212430	0.450030
H471	H47	0.354170	0.131930	0.453930
C491	C49	0.504570	0.249330	0.416430
H481	H48	0.492470	0.274730	0.376430
C501	C50	0.563470	0.210730	0.489530
H491	H49	0.600770	0.204330	0.509430
C511	C51	0.495870	0.176030	0.521730
H501	H50	0.478370	0.142130	0.567330
C521	C52	0.438970	0.308930	0.603530
H511	H51	0.454270	0.306430	0.543130
H521	H52	0.416070	0.337830	0.601930
C531	C53	0.542270	0.316630	0.692430
H531	H53	0.534170	0.271130	0.678630
C541	C54	0.588070	0.421730	0.744330
H541	H54	0.618570	0.464030	0.774430
C551	C55	0.531770	0.411130	0.695730
H551	H55	0.515970	0.443630	0.686430
N211	N21	0.125230	0.533670	0.808070
N221	N22	0.235430	0.590270	0.756370
N231	N23	0.168530	0.676770	0.995470
N241	N24	0.261430	0.695870	0.077370
C561	C56	0.025030	0.507170	0.912770
C571	C57	0.974130	0.441770	0.945970
H561	H56	0.956630	0.402070	0.908470
C581	C58	0.052130	0.567670	0.968270
C591	C59	0.049130	0.511670	0.815470
H571	H57	0.040430	0.545770	0.783370
H581	H58	0.020830	0.465270	0.787270
C601	C60	0.171230	0.582670	0.749770
H591	H59	0.159130	0.608070	0.709770
C611	C61	0.230130	0.544070	0.822870
H601	H60	0.267430	0.537670	0.842770
C621	C62	0.162530	0.509370	0.855070
H611	H61	0.145030	0.475470	0.900670
C631	C63	0.105630	0.642270	0.936870
H621	H62	0.120930	0.639770	0.876470
H631	H63	0.082730	0.671170	0.935270
C641	C64	0.208930	0.649970	0.025770
H641	H64	0.200830	0.604470	0.011970
C651	C65	0.254730	0.755070	0.077670
H651	H65	0.285230	0.797370	0.107770
C661	C66	0.198430	0.744470	0.029070
H661	H66	0.182630	0.776970	0.019770
N251	N25	0.133000	0.924900	0.141400
N261	N26	0.076400	0.978500	0.089700
N271	N27	0.989900	0.825100	0.328800
N281	N28	0.970800	0.898900	0.410700
C671	C67	0.159500	0.851200	0.246100
C681	C68	0.224900	0.865700	0.279300
H671	H67	0.264600	0.887900	0.241800
C691	C69	0.099000	0.817800	0.301600
C701	C70	0.155000	0.870800	0.148800
H681	H68	0.120900	0.828000	0.116700
H691	H69	0.201400	0.888900	0.120600
C711	C71	0.084000	0.921900	0.083100
H701	H70	0.058600	0.884400	0.043100
C721	C72	0.122600	0.019400	0.156200
H711	H71	0.129000	0.063100	0.176100
C731	C73	0.157300	0.986500	0.188400
H721	H72	0.191200	0.002900	0.234000
C741	C74	0.024400	0.796700	0.270200
H731	H73	0.026900	0.814500	0.209800
H741	H74	0.995500	0.744900	0.268600
C751	C75	0.016700	0.892300	0.359100
H751	H75	0.062200	0.929700	0.345300
C761	C76	0.911600	0.833000	0.411000
H761	H76	0.869300	0.821200	0.441100
C771	C77	0.922200	0.787300	0.362400
H771	H77	0.889700	0.739000	0.353100
N291	N29	0.799670	0.258230	0.474730
N301	N30	0.743070	0.311830	0.423030
N311	N31	0.656570	0.158430	0.662130
N321	N32	0.637470	0.232230	0.744030
C781	C78	0.826170	0.184530	0.579430
C791	C79	0.891570	0.199030	0.612630
H781	H78	0.931270	0.221230	0.575130
C801	C80	0.765670	0.151130	0.634930
C811	C81	0.821670	0.204130	0.482130
H791	H79	0.787570	0.161330	0.450030
H801	H80	0.868070	0.222230	0.453930
C821	C82	0.750670	0.255230	0.416430
H811	H81	0.725270	0.217730	0.376430
C831	C83	0.789270	0.352730	0.489530
H821	H82	0.795670	0.396430	0.509430
C841	C84	0.823970	0.319830	0.521730
H831	H83	0.857870	0.336230	0.567330
C851	C85	0.691070	0.130030	0.603530
H841	H84	0.693570	0.147830	0.543130
H851	H85	0.662170	0.078230	0.601930
C861	C86	0.683370	0.225630	0.692430
H861	H86	0.728870	0.263030	0.678630
C871	C87	0.578270	0.166330	0.744330
H871	H87	0.535970	0.154530	0.774430
C881	C88	0.588870	0.120630	0.695730
H881	H88	0.556370	0.072330	0.686430
N331	N33	0.466330	0.591570	0.808070
N341	N34	0.409730	0.645170	0.756370
N351	N35	0.323230	0.491770	0.995470
N361	N36	0.304130	0.565570	0.077370
C891	C89	0.492830	0.517870	0.912770
C901	C90	0.558230	0.532370	0.945970
H891	H89	0.597930	0.554570	0.908470
C911	C91	0.432330	0.484470	0.968270
C921	C92	0.488330	0.537470	0.815470
H901	H90	0.454230	0.494670	0.783370
H911	H91	0.534730	0.555570	0.787270
C931	C93	0.417330	0.588570	0.749770
H921	H92	0.391930	0.551070	0.709770
C941	C94	0.455930	0.686070	0.822870
H931	H93	0.462330	0.729770	0.842770
C951	C95	0.490630	0.653170	0.855070
H941	H94	0.524530	0.669570	0.900670
C961	C96	0.357730	0.463370	0.936870
H951	H95	0.360230	0.481170	0.876470
H961	H96	0.328830	0.411570	0.935270
C971	C97	0.350030	0.558970	0.025770
H971	H97	0.395530	0.596370	0.011970
C981	C98	0.244930	0.499670	0.077670
H981	H98	0.202630	0.487870	0.107770
C991	C99	0.255530	0.453970	0.029070
H991	H99	0.223030	0.405670	0.019770
N371	N37	0.924900	0.791900	0.858600
N381	N38	0.978500	0.902100	0.910300
N391	N39	0.825100	0.835200	0.671200
N401	N40	0.898900	0.928100	0.589300
C1001	C100	0.851200	0.691700	0.753900
C1011	C101	0.865700	0.640800	0.720700
H1001	H100	0.887900	0.623300	0.758200
C1021	C102	0.817800	0.718800	0.698400
C1031	C103	0.870800	0.715800	0.851200
H1011	H101	0.828000	0.707100	0.883300
H1021	H102	0.888900	0.687500	0.879400
C1041	C104	0.921900	0.837900	0.916900
H1031	H103	0.884400	0.825800	0.956900
C1051	C105	0.019400	0.896800	0.843800
H1041	H104	0.063100	0.934100	0.823900
C1061	C106	0.986500	0.829200	0.811600
H1051	H105	0.002900	0.811700	0.766000
C1071	C107	0.796700	0.772300	0.729800
H1061	H106	0.814500	0.787600	0.790200
H1071	H107	0.744900	0.749400	0.731400
C1081	C108	0.892300	0.875600	0.640900
H1081	H108	0.929700	0.867500	0.654700
C1091	C109	0.833000	0.921400	0.589000
H1091	H109	0.821200	0.951900	0.558900
C1101	C110	0.787300	0.865100	0.637600
H1101	H110	0.739000	0.849300	0.646900
N411	N41	0.591570	0.125230	0.191930
N421	N42	0.645170	0.235430	0.243630
N431	N43	0.491770	0.168530	0.004530
N441	N44	0.565570	0.261430	0.922630
C1111	C111	0.517870	0.025030	0.087230
C1121	C112	0.532370	0.974130	0.054030
H1111	H111	0.554570	0.956630	0.091530
C1131	C113	0.484470	0.052130	0.031730
C1141	C114	0.537470	0.049130	0.184530
H1121	H112	0.494670	0.040430	0.216630
H1131	H113	0.555570	0.020830	0.212730
C1151	C115	0.588570	0.171230	0.250230
H1141	H114	0.551070	0.159130	0.290230
C1161	C116	0.686070	0.230130	0.177130
H1151	H115	0.729770	0.267430	0.157230
C1171	C117	0.653170	0.162530	0.144930
H1161	H116	0.669570	0.145030	0.099330
C1181	C118	0.463370	0.105630	0.063130
H1171	H117	0.481170	0.120930	0.123530
H1181	H118	0.411570	0.082730	0.064730
C1191	C119	0.558970	0.208930	0.974230
H1191	H119	0.596370	0.200830	0.988030
C1201	C120	0.499670	0.254730	0.922330
H1201	H120	0.487870	0.285230	0.892230
C1211	C121	0.453970	0.198430	0.970930
H1211	H121	0.405670	0.182630	0.980230
N451	N45	0.258230	0.458570	0.525270
N461	N46	0.311830	0.568770	0.576970
N471	N47	0.158430	0.501870	0.337870
N481	N48	0.232230	0.594770	0.255970
C1221	C122	0.184530	0.358370	0.420570
C1231	C123	0.199030	0.307470	0.387370
H1221	H122	0.221230	0.289970	0.424870
C1241	C124	0.151130	0.385470	0.365070
C1251	C125	0.204130	0.382470	0.517870
H1231	H123	0.161330	0.373770	0.549970
H1241	H124	0.222230	0.354170	0.546070
C1261	C126	0.255230	0.504570	0.583570
H1251	H125	0.217730	0.492470	0.623570
C1271	C127	0.352730	0.563470	0.510470
H1261	H126	0.396430	0.600770	0.490570
C1281	C128	0.319830	0.495870	0.478270
H1271	H127	0.336230	0.478370	0.432670
C1291	C129	0.130030	0.438970	0.396470
H1281	H128	0.147830	0.454270	0.456870
H1291	H129	0.078230	0.416070	0.398070
C1301	C130	0.225630	0.542270	0.307570
H1301	H130	0.263030	0.534170	0.321370
C1311	C131	0.166330	0.588070	0.255670
H1311	H131	0.154530	0.618570	0.225570
C1321	C132	0.120630	0.531770	0.304270
H1321	H132	0.072330	0.515970	0.313570
N491	N49	0.208100	0.133000	0.858600
N501	N50	0.097900	0.076400	0.910300
N511	N51	0.164800	0.989900	0.671200
N521	N52	0.071900	0.970800	0.589300
C1331	C133	0.308300	0.159500	0.753900
C1341	C134	0.359200	0.224900	0.720700
H1331	H133	0.376700	0.264600	0.758200
C1351	C135	0.281200	0.099000	0.698400
C1361	C136	0.284200	0.155000	0.851200
H1341	H134	0.292900	0.120900	0.883300
H1351	H135	0.312500	0.201400	0.879400
C1371	C137	0.162100	0.084000	0.916900
H1361	H136	0.174200	0.058600	0.956900
C1381	C138	0.103200	0.122600	0.843800
H1371	H137	0.065900	0.129000	0.823900
C1391	C139	0.170800	0.157300	0.811600
H1381	H138	0.188300	0.191200	0.766000
C1401	C140	0.227700	0.024400	0.729800
H1391	H139	0.212400	0.026900	0.790200
H1401	H140	0.250600	0.995500	0.731400
C1411	C141	0.124400	0.016700	0.640900
H1411	H141	0.132500	0.062200	0.654700
C1421	C142	0.078600	0.911600	0.589000
H1421	H142	0.048100	0.869300	0.558900
C1431	C143	0.134900	0.922200	0.637600
H1431	H143	0.150700	0.889700	0.646900
N531	N53	0.874770	0.466330	0.191930
N541	N54	0.764570	0.409730	0.243630
N551	N55	0.831470	0.323230	0.004530
N561	N56	0.738570	0.304130	0.922630
C1441	C144	0.974970	0.492830	0.087230
C1451	C145	0.025870	0.558230	0.054030
H1441	H144	0.043370	0.597930	0.091530
C1461	C146	0.947870	0.432330	0.031730
C1471	C147	0.950870	0.488330	0.184530
H1451	H145	0.959570	0.454230	0.216630
H1461	H146	0.979170	0.534730	0.212730
C1481	C148	0.828770	0.417330	0.250230
H1471	H147	0.840870	0.391930	0.290230
C1491	C149	0.769870	0.455930	0.177130
H1481	H148	0.732570	0.462330	0.157230
C1501	C150	0.837470	0.490630	0.144930
H1491	H149	0.854970	0.524530	0.099330
C1511	C151	0.894370	0.357730	0.063130
H1501	H150	0.879070	0.360230	0.123530
H1511	H151	0.917270	0.328830	0.064730
C1521	C152	0.791070	0.350030	0.974230
H1521	H152	0.799170	0.395530	0.988030
C1531	C153	0.745270	0.244930	0.922330
H1531	H153	0.714770	0.202630	0.892230
C1541	C154	0.801570	0.255530	0.970930
H1541	H154	0.817370	0.223030	0.980230
N571	N57	0.541430	0.799670	0.525270
N581	N58	0.431230	0.743070	0.576970
N591	N59	0.498130	0.656570	0.337870
N601	N60	0.405230	0.637470	0.255970
C1551	C155	0.641630	0.826170	0.420570
C1561	C156	0.692530	0.891570	0.387370
H1551	H155	0.710030	0.931270	0.424870
C1571	C157	0.614530	0.765670	0.365070
C1581	C158	0.617530	0.821670	0.517870
H1561	H156	0.626230	0.787570	0.549970
H1571	H157	0.645830	0.868070	0.546070
C1591	C159	0.495430	0.750670	0.583570
H1581	H158	0.507530	0.725270	0.623570
C1601	C160	0.436530	0.789270	0.510470
H1591	H159	0.399230	0.795670	0.490570
C1611	C161	0.504130	0.823970	0.478270
H1601	H160	0.521630	0.857870	0.432670
C1621	C162	0.561030	0.691070	0.396470
H1611	H161	0.545730	0.693570	0.456870
H1621	H162	0.583930	0.662170	0.398070
C1631	C163	0.457730	0.683370	0.307570
H1631	H163	0.465830	0.728870	0.321370
C1641	C164	0.411930	0.578270	0.255670
H1641	H164	0.381430	0.535970	0.225570
C1651	C165	0.468230	0.588870	0.304270
H1651	H165	0.484030	0.556370	0.313570
N611	N61	0.867000	0.075100	0.858600
N621	N62	0.923600	0.021500	0.910300
N631	N63	0.010100	0.174900	0.671200
N641	N64	0.029200	0.101100	0.589300
C1661	C166	0.840500	0.148800	0.753900
C1671	C167	0.775100	0.134300	0.720700
H1661	H166	0.735400	0.112100	0.758200
C1681	C168	0.901000	0.182200	0.698400
C1691	C169	0.845000	0.129200	0.851200
H1671	H167	0.879100	0.172000	0.883300
H1681	H168	0.798600	0.111100	0.879400
C1701	C170	0.916000	0.078100	0.916900
H1691	H169	0.941400	0.115600	0.956900
C1711	C171	0.877400	0.980600	0.843800
H1701	H170	0.871000	0.936900	0.823900
C1721	C172	0.842700	0.013500	0.811600
H1711	H171	0.808800	0.997100	0.766000
C1731	C173	0.975600	0.203300	0.729800
H1721	H172	0.973100	0.185500	0.790200
H1731	H173	0.004500	0.255100	0.731400
C1741	C174	0.983300	0.107700	0.640900
H1741	H174	0.937800	0.070300	0.654700
C1751	C175	0.088400	0.167000	0.589000
H1751	H175	0.130700	0.178800	0.558900
C1761	C176	0.077800	0.212700	0.637600
H1761	H176	0.110300	0.261000	0.646900
N651	N65	0.533670	0.408430	0.191930
N661	N66	0.590270	0.354830	0.243630
N671	N67	0.676770	0.508230	0.004530
N681	N68	0.695870	0.434430	0.922630
C1771	C177	0.507170	0.482130	0.087230
C1781	C178	0.441770	0.467630	0.054030
H1771	H177	0.402070	0.445430	0.091530
C1791	C179	0.567670	0.515530	0.031730
C1801	C180	0.511670	0.462530	0.184530
H1781	H178	0.545770	0.505330	0.216630
H1791	H179	0.465270	0.444430	0.212730
C1811	C181	0.582670	0.411430	0.250230
H1801	H180	0.608070	0.448930	0.290230
C1821	C182	0.544070	0.313930	0.177130
H1811	H181	0.537670	0.270230	0.157230
C1831	C183	0.509370	0.346830	0.144930
H1821	H182	0.475470	0.330430	0.099330
C1841	C184	0.642270	0.536630	0.063130
H1831	H183	0.639770	0.518830	0.123530
H1841	H184	0.671170	0.588430	0.064730
C1851	C185	0.649970	0.441030	0.974230
H1851	H185	0.604470	0.403630	0.988030
C1861	C186	0.755070	0.500330	0.922330
H1861	H186	0.797370	0.512130	0.892230
C1871	C187	0.744470	0.546030	0.970930
H1871	H187	0.776970	0.594330	0.980230
N691	N69	0.200330	0.741770	0.525270
N701	N70	0.256930	0.688170	0.576970
N711	N71	0.343430	0.841570	0.337870
N721	N72	0.362530	0.767770	0.255970
C1881	C188	0.173830	0.815470	0.420570
C1891	C189	0.108430	0.800970	0.387370
H1881	H188	0.068730	0.778770	0.424870
C1901	C190	0.234330	0.848870	0.365070
C1911	C191	0.178330	0.795870	0.517870
H1891	H189	0.212430	0.838670	0.549970
H1901	H190	0.131930	0.777770	0.546070
C1921	C192	0.249330	0.744770	0.583570
H1911	H191	0.274730	0.782270	0.623570
C1931	C193	0.210730	0.647270	0.510470
H1921	H192	0.204330	0.603570	0.490570
C1941	C194	0.176030	0.680170	0.478270
H1931	H193	0.142130	0.663770	0.432670
C1951	C195	0.308930	0.869970	0.396470
H1941	H194	0.306430	0.852170	0.456870
H1951	H195	0.337830	0.921770	0.398070
C1961	C196	0.316630	0.774370	0.307570
H1961	H196	0.271130	0.736970	0.321370
C1971	C197	0.421730	0.833670	0.255670
H1971	H197	0.464030	0.845470	0.225570
C1981	C198	0.411130	0.879370	0.304270
H1981	H198	0.443630	0.927670	0.313570
Cd11	Cd1	0.000000	0.000000	0.500000
Cd21	Cd2	0.666670	0.333330	0.833330
Cd31	Cd3	0.333330	0.666670	0.166670
Cd41	Cd4	0.000000	0.000000	0.000000
Cd51	Cd5	0.666670	0.333330	0.333330
Cd61	Cd6	0.333330	0.666670	0.666670
