data_HOVGIK_freeONLY_PM
_symmetry_space_group_name_H-M	'P1'
_cell_length_a	11.159700
_cell_length_b	22.075000
_cell_length_c	17.434000
_cell_angle_alpha	90.000000
_cell_angle_beta	99.424000
_cell_angle_gamma	90.000000
_symmetry_Int_Tables_number 1

loop_
_symmetry_equiv_pos_as_xyz
'x,y,z'

loop_
_atom_site_label
_atom_site_type_symbol
_atom_site_fract_x
_atom_site_fract_y
_atom_site_fract_z
Cd11	Cd1	0.367630	0.442610	0.471280
O11	O1	0.346000	0.543500	0.460200
O21	O2	0.823000	0.928340	0.120100
O31	O3	0.497000	0.603900	0.444600
O41	O4	0.721400	0.849970	0.063700
N11	N1	0.932200	0.502500	0.741100
N21	N2	0.056100	0.441800	0.815400
H11	H1	0.115900	0.418500	0.833500
N31	N3	0.463600	0.446900	0.363300
N41	N4	0.725100	0.435600	0.146600
H21	H2	0.763100	0.406800	0.173600
N51	N5	0.589800	0.510000	0.108500
N61	N6	0.256200	0.453500	0.572100
N71	N7	0.882300	0.495400	0.806700
N81	N8	0.666600	0.503300	0.056000
C11	C1	0.571100	0.460000	0.231300
C21	C2	0.412500	0.481300	0.303100
H31	H3	0.339800	0.500900	0.306500
N91	N9	0.032700	0.385800	0.045000
C31	C3	0.628100	0.468200	0.161700
C41	C4	0.111400	0.464900	0.686800
C51	C5	0.209000	0.425000	0.696100
H41	H4	0.227200	0.401700	0.740900
C61	C6	0.035600	0.469800	0.747800
C71	C7	0.462700	0.488900	0.237100
H51	H5	0.424500	0.513100	0.196700
C81	C8	0.947100	0.439200	0.928300
C91	C9	0.088200	0.498400	0.618500
H61	H6	0.022900	0.525100	0.609900
C101	C10	0.960500	0.458300	0.849500
C111	C11	0.567600	0.419000	0.357800
H71	H7	0.604200	0.395200	0.399100
C121	C12	0.623400	0.424100	0.292600
H81	H8	0.695400	0.403600	0.290200
C131	C13	0.163200	0.491700	0.563800
H91	H9	0.147900	0.515000	0.518800
C141	C14	0.844000	0.439400	0.038500
C151	C15	0.035700	0.403700	0.971800
H101	H10	0.101300	0.391600	0.948800
C161	C16	0.848800	0.457300	0.963000
H111	H11	0.787300	0.481100	0.935800
C171	C17	0.900300	0.829500	0.152500
C181	C18	0.746400	0.458900	0.080600
C191	C19	0.278500	0.420600	0.637400
H121	H12	0.343500	0.393700	0.643700
C201	C20	0.387900	0.586200	0.432700
C211	C21	0.937500	0.404000	0.076700
H131	H13	0.934000	0.392200	0.127500
C221	C22	0.148800	0.704000	0.279200
C231	C23	0.810900	0.871500	0.109800
C241	C24	0.088800	0.808500	0.237000
H141	H14	0.159700	0.822800	0.267100
C251	C25	0.064300	0.746500	0.233200
C261	C26	0.350300	0.674300	0.336700
H151	H15	0.433800	0.680600	0.342800
C271	C27	0.006200	0.848900	0.195600
H161	H16	0.024000	0.890100	0.197400
C281	C28	0.957100	0.725800	0.187800
H171	H17	0.940100	0.684500	0.184400
C291	C29	0.273200	0.712200	0.288400
H181	H18	0.305200	0.743400	0.262000
C301	C30	0.305100	0.627000	0.376400
C311	C31	0.103600	0.655600	0.316300
H191	H19	0.020400	0.648400	0.308500
C321	C32	0.181800	0.617400	0.365200
H201	H20	0.150300	0.585300	0.390300
C331	C33	0.876500	0.766800	0.148000
H211	H21	0.805400	0.752900	0.117800
Cd21	Cd2	0.632370	0.942610	0.028720
O51	O5	0.654000	0.043500	0.039800
O61	O6	0.177000	0.428340	0.379900
O71	O7	0.503000	0.103900	0.055400
O81	O8	0.278600	0.349970	0.436300
N101	N10	0.067800	0.002500	0.758900
N111	N11	0.943900	0.941800	0.684600
H221	H22	0.884100	0.918500	0.666500
N121	N12	0.536400	0.946900	0.136700
N131	N13	0.274900	0.935600	0.353400
H231	H23	0.236900	0.906800	0.326400
N141	N14	0.410200	0.010000	0.391500
N151	N15	0.743800	0.953500	0.927900
N161	N16	0.117700	0.995400	0.693300
N171	N17	0.333400	0.003300	0.444000
C341	C34	0.428900	0.960000	0.268700
C351	C35	0.587500	0.981300	0.196900
H241	H24	0.660200	0.000900	0.193500
N181	N18	0.967300	0.885800	0.455000
C361	C36	0.371900	0.968200	0.338300
C371	C37	0.888600	0.964900	0.813200
C381	C38	0.791000	0.925000	0.803900
H251	H25	0.772800	0.901700	0.759100
C391	C39	0.964400	0.969800	0.752200
C401	C40	0.537300	0.988900	0.262900
H261	H26	0.575500	0.013100	0.303300
C411	C41	0.052900	0.939200	0.571700
C421	C42	0.911800	0.998400	0.881500
H271	H27	0.977100	0.025100	0.890100
C431	C43	0.039500	0.958300	0.650500
C441	C44	0.432400	0.919000	0.142200
H281	H28	0.395800	0.895200	0.100900
C451	C45	0.376600	0.924100	0.207400
H291	H29	0.304600	0.903600	0.209800
C461	C46	0.836800	0.991700	0.936200
H301	H30	0.852100	0.015000	0.981200
C471	C47	0.156000	0.939400	0.461500
C481	C48	0.964300	0.903700	0.528200
H311	H31	0.898700	0.891600	0.551200
C491	C49	0.151200	0.957300	0.537000
H321	H32	0.212700	0.981100	0.564200
C501	C50	0.099700	0.329500	0.347500
C511	C51	0.253600	0.958900	0.419400
C521	C52	0.721500	0.920600	0.862600
H331	H33	0.656500	0.893700	0.856300
C531	C53	0.612100	0.086200	0.067300
C541	C54	0.062500	0.904000	0.423300
H341	H34	0.066000	0.892200	0.372500
C551	C55	0.851200	0.204000	0.220800
C561	C56	0.189100	0.371500	0.390200
C571	C57	0.911200	0.308500	0.263000
H351	H35	0.840300	0.322800	0.232900
C581	C58	0.935700	0.246500	0.266800
C591	C59	0.649700	0.174300	0.163300
H361	H36	0.566200	0.180600	0.157200
C601	C60	0.993800	0.348900	0.304400
H371	H37	0.976000	0.390100	0.302600
C611	C61	0.042900	0.225800	0.312200
H381	H38	0.059900	0.184500	0.315600
C621	C62	0.726800	0.212200	0.211600
H391	H39	0.694800	0.243400	0.238000
C631	C63	0.694900	0.127000	0.123600
C641	C64	0.896400	0.155600	0.183700
H401	H40	0.979600	0.148400	0.191500
C651	C65	0.818200	0.117400	0.134800
H411	H41	0.849700	0.085300	0.109700
C661	C66	0.123500	0.266800	0.352000
H421	H42	0.194600	0.252900	0.382200
Cd31	Cd3	0.632370	0.557390	0.528720
O91	O9	0.654000	0.456500	0.539800
O101	O10	0.177000	0.071660	0.879900
O111	O11	0.503000	0.396100	0.555400
O121	O12	0.278600	0.150030	0.936300
N191	N19	0.067800	0.497500	0.258900
N201	N20	0.943900	0.558200	0.184600
H431	H43	0.884100	0.581500	0.166500
N211	N21	0.536400	0.553100	0.636700
N221	N22	0.274900	0.564400	0.853400
H441	H44	0.236900	0.593200	0.826400
N231	N23	0.410200	0.490000	0.891500
N241	N24	0.743800	0.546500	0.427900
N251	N25	0.117700	0.504600	0.193300
N261	N26	0.333400	0.496700	0.944000
C671	C67	0.428900	0.540000	0.768700
C681	C68	0.587500	0.518700	0.696900
H451	H45	0.660200	0.499100	0.693500
N271	N27	0.967300	0.614200	0.955000
C691	C69	0.371900	0.531800	0.838300
C701	C70	0.888600	0.535100	0.313200
C711	C71	0.791000	0.575000	0.303900
H461	H46	0.772800	0.598300	0.259100
C721	C72	0.964400	0.530200	0.252200
C731	C73	0.537300	0.511100	0.762900
H471	H47	0.575500	0.486900	0.803300
C741	C74	0.052900	0.560800	0.071700
C751	C75	0.911800	0.501600	0.381500
H481	H48	0.977100	0.474900	0.390100
C761	C76	0.039500	0.541700	0.150500
C771	C77	0.432400	0.581000	0.642200
H491	H49	0.395800	0.604800	0.600900
C781	C78	0.376600	0.575900	0.707400
H501	H50	0.304600	0.596400	0.709800
C791	C79	0.836800	0.508300	0.436200
H511	H51	0.852100	0.485000	0.481200
C801	C80	0.156000	0.560600	0.961500
C811	C81	0.964300	0.596300	0.028200
H521	H52	0.898700	0.608400	0.051200
C821	C82	0.151200	0.542700	0.037000
H531	H53	0.212700	0.518900	0.064200
C831	C83	0.099700	0.170500	0.847500
C841	C84	0.253600	0.541100	0.919400
C851	C85	0.721500	0.579400	0.362600
H541	H54	0.656500	0.606300	0.356300
C861	C86	0.612100	0.413800	0.567300
C871	C87	0.062500	0.596000	0.923300
H551	H55	0.066000	0.607800	0.872500
C881	C88	0.851200	0.296000	0.720800
C891	C89	0.189100	0.128500	0.890200
C901	C90	0.911200	0.191500	0.763000
H561	H56	0.840300	0.177200	0.732900
C911	C91	0.935700	0.253500	0.766800
C921	C92	0.649700	0.325700	0.663300
H571	H57	0.566200	0.319400	0.657200
C931	C93	0.993800	0.151100	0.804400
H581	H58	0.976000	0.109900	0.802600
C941	C94	0.042900	0.274200	0.812200
H591	H59	0.059900	0.315500	0.815600
C951	C95	0.726800	0.287800	0.711600
H601	H60	0.694800	0.256600	0.738000
C961	C96	0.694900	0.373000	0.623600
C971	C97	0.896400	0.344400	0.683700
H611	H61	0.979600	0.351600	0.691500
C981	C98	0.818200	0.382600	0.634800
H621	H62	0.849700	0.414700	0.609700
C991	C99	0.123500	0.233200	0.852000
H631	H63	0.194600	0.247100	0.882200
Cd41	Cd4	0.367630	0.057390	0.971280
O131	O13	0.346000	0.956500	0.960200
O141	O14	0.823000	0.571660	0.620100
O151	O15	0.497000	0.896100	0.944600
O161	O16	0.721400	0.650030	0.563700
N281	N28	0.932200	0.997500	0.241100
N291	N29	0.056100	0.058200	0.315400
H641	H64	0.115900	0.081500	0.333500
N301	N30	0.463600	0.053100	0.863300
N311	N31	0.725100	0.064400	0.646600
H651	H65	0.763100	0.093200	0.673600
N321	N32	0.589800	0.990000	0.608500
N331	N33	0.256200	0.046500	0.072100
N341	N34	0.882300	0.004600	0.306700
N351	N35	0.666600	0.996700	0.556000
C1001	C100	0.571100	0.040000	0.731300
C1011	C101	0.412500	0.018700	0.803100
H661	H66	0.339800	0.999100	0.806500
N361	N36	0.032700	0.114200	0.545000
C1021	C102	0.628100	0.031800	0.661700
C1031	C103	0.111400	0.035100	0.186800
C1041	C104	0.209000	0.075000	0.196100
H671	H67	0.227200	0.098300	0.240900
C1051	C105	0.035600	0.030200	0.247800
C1061	C106	0.462700	0.011100	0.737100
H681	H68	0.424500	0.986900	0.696700
C1071	C107	0.947100	0.060800	0.428300
C1081	C108	0.088200	0.001600	0.118500
H691	H69	0.022900	0.974900	0.109900
C1091	C109	0.960500	0.041700	0.349500
C1101	C110	0.567600	0.081000	0.857800
H701	H70	0.604200	0.104800	0.899100
C1111	C111	0.623400	0.075900	0.792600
H711	H71	0.695400	0.096400	0.790200
C1121	C112	0.163200	0.008300	0.063800
H721	H72	0.147900	0.985000	0.018800
C1131	C113	0.844000	0.060600	0.538500
C1141	C114	0.035700	0.096300	0.471800
H731	H73	0.101300	0.108400	0.448800
C1151	C115	0.848800	0.042700	0.463000
H741	H74	0.787300	0.018900	0.435800
C1161	C116	0.900300	0.670500	0.652500
C1171	C117	0.746400	0.041100	0.580600
C1181	C118	0.278500	0.079400	0.137400
H751	H75	0.343500	0.106300	0.143700
C1191	C119	0.387900	0.913800	0.932700
C1201	C120	0.937500	0.096000	0.576700
H761	H76	0.934000	0.107800	0.627500
C1211	C121	0.148800	0.796000	0.779200
C1221	C122	0.810900	0.628500	0.609800
C1231	C123	0.088800	0.691500	0.737000
H771	H77	0.159700	0.677200	0.767100
C1241	C124	0.064300	0.753500	0.733200
C1251	C125	0.350300	0.825700	0.836700
H781	H78	0.433800	0.819400	0.842800
C1261	C126	0.006200	0.651100	0.695600
H791	H79	0.024000	0.609900	0.697400
C1271	C127	0.957100	0.774200	0.687800
H801	H80	0.940100	0.815500	0.684400
C1281	C128	0.273200	0.787800	0.788400
H811	H81	0.305200	0.756600	0.762000
C1291	C129	0.305100	0.873000	0.876400
C1301	C130	0.103600	0.844400	0.816300
H821	H82	0.020400	0.851600	0.808500
C1311	C131	0.181800	0.882600	0.865200
H831	H83	0.150300	0.914700	0.890300
C1321	C132	0.876500	0.733200	0.648000
H841	H84	0.805400	0.747100	0.617800
