data_HOWPOZ_freeONLY_PM
_symmetry_space_group_name_H-M	'P1'
_cell_length_a	13.199000
_cell_length_b	13.645000
_cell_length_c	20.033000
_cell_angle_alpha	90.000000
_cell_angle_beta	90.000000
_cell_angle_gamma	90.000000
_symmetry_Int_Tables_number 1

loop_
_symmetry_equiv_pos_as_xyz
'x,y,z'

loop_
_atom_site_label
_atom_site_type_symbol
_atom_site_fract_x
_atom_site_fract_y
_atom_site_fract_z
Cd11	Cd1	0.133710	0.561580	0.648900
Cd21	Cd2	0.366290	0.561580	0.351100
Cd31	Cd3	0.366290	0.061580	0.148900
Cd41	Cd4	0.133710	0.061580	0.851100
H11	H1	0.793500	0.161700	0.733100
H21	H2	0.909100	0.062200	0.784300
H31	H3	0.124900	0.250700	0.753900
H41	H4	0.424900	0.953800	0.006400
H51	H5	0.399000	0.872300	0.059000
H61	H6	0.302100	0.078400	0.981200
H71	H7	0.340700	0.953900	0.900400
H81	H8	0.260400	0.872300	0.884100
H91	H9	0.221500	0.754800	0.965800
H101	H10	0.706500	0.161700	0.266900
H111	H11	0.590900	0.062200	0.215700
H121	H12	0.375100	0.250700	0.246100
H131	H13	0.075100	0.953800	0.993600
H141	H14	0.101000	0.872300	0.941000
H151	H15	0.197900	0.078400	0.018800
H161	H16	0.159300	0.953900	0.099600
H171	H17	0.239600	0.872300	0.115900
H181	H18	0.278500	0.754800	0.034200
H191	H19	0.706500	0.661700	0.233100
H201	H20	0.590900	0.562200	0.284300
H211	H21	0.375100	0.750700	0.253900
H221	H22	0.075100	0.453800	0.506400
H231	H23	0.101000	0.372300	0.559000
H241	H24	0.197900	0.578400	0.481200
H251	H25	0.159300	0.453900	0.400400
H261	H26	0.239600	0.372300	0.384100
H271	H27	0.278500	0.254800	0.465800
H281	H28	0.793500	0.661700	0.766900
H291	H29	0.909100	0.562200	0.715700
H301	H30	0.124900	0.750700	0.746100
H311	H31	0.424900	0.453800	0.493600
H321	H32	0.399000	0.372300	0.441000
H331	H33	0.302100	0.578400	0.518800
H341	H34	0.340700	0.453900	0.599600
H351	H35	0.260400	0.372300	0.615900
H361	H36	0.221500	0.254800	0.534200
C11	C1	0.037100	0.887900	0.813000
C21	C2	0.994700	0.796600	0.783900
C31	C3	0.889800	0.771700	0.788300
C41	C4	0.808800	0.339000	0.685900
C51	C5	0.860600	0.681900	0.763100
C61	C6	0.930600	0.622400	0.732300
C71	C7	0.057300	0.233200	0.749000
C81	C8	0.129400	0.913800	0.975700
C91	C9	0.212400	0.913300	0.080600
C101	C10	0.462900	0.887900	0.187000
C111	C11	0.505300	0.796600	0.216100
C121	C12	0.610200	0.771700	0.211700
C131	C13	0.691200	0.339000	0.314100
C141	C14	0.639400	0.681900	0.236900
C151	C15	0.569400	0.622400	0.267700
C161	C16	0.442700	0.233200	0.251000
C171	C17	0.370600	0.913800	0.024300
C181	C18	0.287600	0.913300	0.919400
C191	C19	0.462900	0.387900	0.313000
C201	C20	0.505300	0.296600	0.283900
C211	C21	0.610200	0.271700	0.288300
C221	C22	0.691200	0.839000	0.185900
C231	C23	0.639400	0.181900	0.263100
C241	C24	0.569400	0.122400	0.232300
C251	C25	0.442700	0.733200	0.249000
C261	C26	0.370600	0.413800	0.475700
C271	C27	0.287600	0.413300	0.580600
C281	C28	0.037100	0.387900	0.687000
C291	C29	0.994700	0.296600	0.716100
C301	C30	0.889800	0.271700	0.711700
C311	C31	0.808800	0.839000	0.814100
C321	C32	0.860600	0.181900	0.736900
C331	C33	0.930600	0.122400	0.767700
C341	C34	0.057300	0.733200	0.751000
C351	C35	0.129400	0.413800	0.524300
C361	C36	0.212400	0.413300	0.419400
C371	C37	0.250000	0.036600	0.000000
C381	C38	0.250000	0.796800	0.000000
C391	C39	0.250000	0.536600	0.500000
C401	C40	0.250000	0.296800	0.500000
N11	N1	0.027000	0.646700	0.725300
N21	N2	0.205900	0.976600	0.946900
N31	N3	0.170600	0.852400	0.028700
N41	N4	0.473000	0.646700	0.274700
N51	N5	0.294100	0.976600	0.053100
N61	N6	0.329400	0.852400	0.971300
N71	N7	0.473000	0.146700	0.225300
N81	N8	0.294100	0.476600	0.446900
N91	N9	0.329400	0.352400	0.528700
N101	N10	0.027000	0.146700	0.774700
N111	N11	0.205900	0.476600	0.553100
N121	N12	0.170600	0.352400	0.471300
O11	O1	0.125900	0.913100	0.796000
O21	O2	0.985600	0.438600	0.647900
O31	O3	0.768200	0.313900	0.630700
O41	O4	0.780100	0.408700	0.719700
O51	O5	0.052200	0.160600	0.927900
O61	O6	0.374100	0.913100	0.204000
O71	O7	0.514400	0.438600	0.352100
O81	O8	0.731800	0.313900	0.369300
O91	O9	0.719900	0.408700	0.280300
O101	O10	0.447800	0.160600	0.072100
O111	O11	0.374100	0.413100	0.296000
O121	O12	0.514400	0.938600	0.147900
O131	O13	0.731800	0.813900	0.130700
O141	O14	0.719900	0.908700	0.219700
O151	O15	0.447800	0.660600	0.427900
O161	O16	0.125900	0.413100	0.704000
O171	O17	0.985600	0.938600	0.852100
O181	O18	0.768200	0.813900	0.869300
O191	O19	0.780100	0.908700	0.780300
O201	O20	0.052200	0.660600	0.572100
Cd51	Cd5	0.633710	0.938420	0.851100
Cd61	Cd6	0.866290	0.938420	0.148900
Cd71	Cd7	0.866290	0.438420	0.351100
Cd81	Cd8	0.633710	0.438420	0.648900
H371	H37	0.293500	0.338300	0.766900
H381	H38	0.409100	0.437800	0.715700
H391	H39	0.624900	0.249300	0.746100
H401	H40	0.924900	0.546200	0.493600
H411	H41	0.899000	0.627700	0.441000
H421	H42	0.802100	0.421600	0.518800
H431	H43	0.840700	0.546100	0.599600
H441	H44	0.760400	0.627700	0.615900
H451	H45	0.721500	0.745200	0.534200
H461	H46	0.206500	0.338300	0.233100
H471	H47	0.090900	0.437800	0.284300
H481	H48	0.875100	0.249300	0.253900
H491	H49	0.575100	0.546200	0.506400
H501	H50	0.601000	0.627700	0.559000
H511	H51	0.697900	0.421600	0.481200
H521	H52	0.659300	0.546100	0.400400
H531	H53	0.739600	0.627700	0.384100
H541	H54	0.778500	0.745200	0.465800
H551	H55	0.206500	0.838300	0.266900
H561	H56	0.090900	0.937800	0.215700
H571	H57	0.875100	0.749300	0.246100
H581	H58	0.575100	0.046200	0.993600
H591	H59	0.601000	0.127700	0.941000
H601	H60	0.697900	0.921600	0.018800
H611	H61	0.659300	0.046100	0.099600
H621	H62	0.739600	0.127700	0.115900
H631	H63	0.778500	0.245200	0.034200
H641	H64	0.293500	0.838300	0.733100
H651	H65	0.409100	0.937800	0.784300
H661	H66	0.624900	0.749300	0.753900
H671	H67	0.924900	0.046200	0.006400
H681	H68	0.899000	0.127700	0.059000
H691	H69	0.802100	0.921600	0.981200
H701	H70	0.840700	0.046100	0.900400
H711	H71	0.760400	0.127700	0.884100
H721	H72	0.721500	0.245200	0.965800
C411	C41	0.537100	0.612100	0.687000
C421	C42	0.494700	0.703400	0.716100
C431	C43	0.389800	0.728300	0.711700
C441	C44	0.308800	0.161000	0.814100
C451	C45	0.360600	0.818100	0.736900
C461	C46	0.430600	0.877600	0.767700
C471	C47	0.557300	0.266800	0.751000
C481	C48	0.629400	0.586200	0.524300
C491	C49	0.712400	0.586700	0.419400
C501	C50	0.962900	0.612100	0.313000
C511	C51	0.005300	0.703400	0.283900
C521	C52	0.110200	0.728300	0.288300
C531	C53	0.191200	0.161000	0.185900
C541	C54	0.139400	0.818100	0.263100
C551	C55	0.069400	0.877600	0.232300
C561	C56	0.942700	0.266800	0.249000
C571	C57	0.870600	0.586200	0.475700
C581	C58	0.787600	0.586700	0.580600
C591	C59	0.962900	0.112100	0.187000
C601	C60	0.005300	0.203400	0.216100
C611	C61	0.110200	0.228300	0.211700
C621	C62	0.191200	0.661000	0.314100
C631	C63	0.139400	0.318100	0.236900
C641	C64	0.069400	0.377600	0.267700
C651	C65	0.942700	0.766800	0.251000
C661	C66	0.870600	0.086200	0.024300
C671	C67	0.787600	0.086700	0.919400
C681	C68	0.537100	0.112100	0.813000
C691	C69	0.494700	0.203400	0.783900
C701	C70	0.389800	0.228300	0.788300
C711	C71	0.308800	0.661000	0.685900
C721	C72	0.360600	0.318100	0.763100
C731	C73	0.430600	0.377600	0.732300
C741	C74	0.557300	0.766800	0.749000
C751	C75	0.629400	0.086200	0.975700
C761	C76	0.712400	0.086700	0.080600
C771	C77	0.750000	0.463400	0.500000
C781	C78	0.750000	0.703200	0.500000
C791	C79	0.750000	0.963400	0.000000
C801	C80	0.750000	0.203200	0.000000
N131	N13	0.527000	0.853300	0.774700
N141	N14	0.705900	0.523400	0.553100
N151	N15	0.670600	0.647600	0.471300
N161	N16	0.973000	0.853300	0.225300
N171	N17	0.794100	0.523400	0.446900
N181	N18	0.829400	0.647600	0.528700
N191	N19	0.973000	0.353300	0.274700
N201	N20	0.794100	0.023400	0.053100
N211	N21	0.829400	0.147600	0.971300
N221	N22	0.527000	0.353300	0.725300
N231	N23	0.705900	0.023400	0.946900
N241	N24	0.670600	0.147600	0.028700
O211	O21	0.625900	0.586900	0.704000
O221	O22	0.485600	0.061400	0.852100
O231	O23	0.268200	0.186100	0.869300
O241	O24	0.280100	0.091300	0.780300
O251	O25	0.552200	0.339400	0.572100
O261	O26	0.874100	0.586900	0.296000
O271	O27	0.014400	0.061400	0.147900
O281	O28	0.231800	0.186100	0.130700
O291	O29	0.219900	0.091300	0.219700
O301	O30	0.947800	0.339400	0.427900
O311	O31	0.874100	0.086900	0.204000
O321	O32	0.014400	0.561400	0.352100
O331	O33	0.231800	0.686100	0.369300
O341	O34	0.219900	0.591300	0.280300
O351	O35	0.947800	0.839400	0.072100
O361	O36	0.625900	0.086900	0.796000
O371	O37	0.485600	0.561400	0.647900
O381	O38	0.268200	0.686100	0.630700
O391	O39	0.280100	0.591300	0.719700
O401	O40	0.552200	0.839400	0.927900
