data_HOXJIO_charged_PM
_symmetry_space_group_name_H-M	'P1'
_cell_length_a	13.047900
_cell_length_b	19.147700
_cell_length_c	19.935500
_cell_angle_alpha	73.216000
_cell_angle_beta	84.320000
_cell_angle_gamma	73.012000
_symmetry_Int_Tables_number 1

loop_
_symmetry_equiv_pos_as_xyz
'x,y,z'

loop_
_atom_site_label
_atom_site_type_symbol
_atom_site_fract_x
_atom_site_fract_y
_atom_site_fract_z
Ag11	Ag1	0.696370	0.514260	0.789540
Ag21	Ag2	0.726610	0.172150	0.479530
Ag31	Ag3	0.980570	0.019420	0.523870
Ag41	Ag4	0.303630	0.485740	0.210460
Ag51	Ag5	0.273390	0.827850	0.520470
Ag61	Ag6	0.019430	0.980580	0.476130
H11	H1	0.548300	0.803100	0.123200
H21	H2	0.561300	0.858400	0.195200
H31	H3	0.703900	0.063500	0.123000
H41	H4	0.706000	0.119000	0.020000
H51	H5	0.667600	0.996800	0.858200
H61	H6	0.633400	0.899200	0.890100
H71	H7	0.703600	0.668700	0.963000
H81	H8	0.750900	0.606300	0.875500
H91	H9	0.573500	0.792800	0.737500
H101	H10	0.528300	0.855200	0.826300
H111	H11	0.603000	0.747400	0.654400
H121	H12	0.646800	0.676900	0.621700
H131	H13	0.552100	0.677300	0.679200
H141	H14	0.421600	0.739300	0.972200
H151	H15	0.378000	0.624300	0.003800
H161	H16	0.565600	0.549100	0.173000
H171	H17	0.616800	0.661900	0.139000
H181	H18	0.559700	0.416800	0.195400
H191	H19	0.548400	0.364900	0.148000
H201	H20	0.618500	0.423800	0.120400
H211	H21	0.637000	0.789200	0.313100
H221	H22	0.584500	0.746100	0.426900
H231	H23	0.455600	0.963600	0.434000
H241	H24	0.516400	0.004100	0.321400
H251	H25	0.412000	0.935200	0.548000
H261	H26	0.446600	0.871300	0.620200
H271	H27	0.536300	0.896700	0.565600
H281	H28	0.785700	0.912500	0.318900
H291	H29	0.871100	0.954300	0.392000
H301	H30	0.729000	0.172400	0.288000
H311	H31	0.651200	0.130400	0.211200
H321	H32	0.874300	0.205400	0.312500
H331	H33	0.965400	0.188000	0.367900
H341	H34	0.982700	0.139000	0.312800
H351	H35	0.862100	0.167400	0.972100
H361	H36	0.919500	0.277600	0.932000
H371	H37	0.704300	0.360000	0.777600
H381	H38	0.649900	0.249000	0.814100
H391	H39	0.880300	0.405700	0.705600
H401	H40	0.972000	0.438100	0.722400
H411	H41	0.983900	0.348900	0.748000
H421	H42	0.891900	0.121900	0.809300
H431	H43	0.951300	0.143900	0.694600
H441	H44	0.680800	0.114800	0.636600
H451	H45	0.621700	0.092700	0.752900
H461	H46	0.985400	0.197300	0.587500
H471	H47	0.969400	0.214400	0.505100
H481	H48	0.879200	0.257700	0.551000
H491	H49	0.648000	0.476000	0.674000
H501	H50	0.546000	0.505000	0.676000
H511	H51	0.451700	0.196900	0.876800
H521	H52	0.438700	0.141600	0.804800
H531	H53	0.296100	0.936500	0.877000
H541	H54	0.294000	0.881000	0.980000
H551	H55	0.332400	0.003200	0.141800
H561	H56	0.366600	0.100800	0.109900
H571	H57	0.296400	0.331300	0.037000
H581	H58	0.249100	0.393700	0.124500
H591	H59	0.426500	0.207200	0.262500
H601	H60	0.471700	0.144800	0.173700
H611	H61	0.397000	0.252600	0.345600
H621	H62	0.353200	0.323100	0.378300
H631	H63	0.447900	0.322700	0.320800
H641	H64	0.578400	0.260700	0.027800
H651	H65	0.622000	0.375700	0.996200
H661	H66	0.434400	0.450900	0.827000
H671	H67	0.383200	0.338100	0.861000
H681	H68	0.440300	0.583200	0.804600
H691	H69	0.451600	0.635100	0.852000
H701	H70	0.381500	0.576200	0.879600
H711	H71	0.363000	0.210800	0.686900
H721	H72	0.415500	0.253900	0.573100
H731	H73	0.544400	0.036400	0.566000
H741	H74	0.483600	0.995900	0.678600
H751	H75	0.588000	0.064800	0.452000
H761	H76	0.553400	0.128700	0.379800
H771	H77	0.463700	0.103300	0.434400
H781	H78	0.214300	0.087500	0.681100
H791	H79	0.128900	0.045700	0.608000
H801	H80	0.271000	0.827600	0.712000
H811	H81	0.348800	0.869600	0.788800
H821	H82	0.125700	0.794600	0.687500
H831	H83	0.034600	0.812000	0.632100
H841	H84	0.017300	0.861000	0.687200
H851	H85	0.137900	0.832600	0.027900
H861	H86	0.080500	0.722400	0.068000
H871	H87	0.295700	0.640000	0.222400
H881	H88	0.350100	0.751000	0.185900
H891	H89	0.119700	0.594300	0.294400
H901	H90	0.028000	0.561900	0.277600
H911	H91	0.016100	0.651100	0.252000
H921	H92	0.108100	0.878100	0.190700
H931	H93	0.048700	0.856100	0.305400
H941	H94	0.319200	0.885200	0.363400
H951	H95	0.378300	0.907300	0.247100
H961	H96	0.014600	0.802700	0.412500
H971	H97	0.030600	0.785600	0.494900
H981	H98	0.120800	0.742300	0.449000
H991	H99	0.352000	0.524000	0.326000
H1001	H100	0.454000	0.495000	0.324000
C11	C1	0.592100	0.811100	0.957500
C21	C2	0.561400	0.783000	0.028000
C31	C3	0.566300	0.822800	0.075500
C41	C4	0.596100	0.890100	0.056500
C51	C5	0.610100	0.927800	0.108100
C61	C6	0.591700	0.899900	0.180000
C71	C7	0.615400	0.929600	0.229900
C81	C8	0.663100	0.990300	0.208200
C91	C9	0.675700	0.021000	0.137600
C101	C10	0.649300	0.993100	0.085900
C111	C11	0.668800	0.026100	0.011300
C121	C12	0.700200	0.093200	0.987100
C131	C13	0.723100	0.123400	0.917400
C141	C14	0.713800	0.085300	0.868000
C151	C15	0.677200	0.021000	0.891600
C161	C16	0.653600	0.990000	0.962400
C171	C17	0.619400	0.921000	0.984800
C181	C18	0.616900	0.879200	0.938100
C191	C19	0.612100	0.769000	0.903300
C201	C20	0.677800	0.694400	0.917000
C211	C21	0.706100	0.657000	0.865200
C221	C22	0.668000	0.694900	0.797900
C231	C23	0.601000	0.767800	0.783300
C241	C24	0.573800	0.804800	0.836500
C251	C25	0.618300	0.692200	0.664200
C261	C26	0.528400	0.710600	0.051500
C271	C27	0.453600	0.700000	0.011800
C281	C28	0.427300	0.632000	0.031000
C291	C29	0.471800	0.575300	0.089300
C301	C30	0.539100	0.586700	0.131000
C311	C31	0.568300	0.654400	0.111000
C321	C32	0.554300	0.414900	0.147300
C331	C33	0.582300	0.900300	0.304400
C341	C34	0.600600	0.825100	0.338000
C351	C35	0.569300	0.799100	0.405200
C361	C36	0.513800	0.851600	0.442600
C371	C37	0.493900	0.927500	0.409900
C381	C38	0.528800	0.951200	0.342800
C391	C39	0.465200	0.888000	0.570400
C401	C40	0.710200	0.016900	0.258400
C411	C41	0.775100	0.965300	0.312000
C421	C42	0.825400	0.989800	0.355900
C431	C43	0.807100	0.066600	0.345800
C441	C44	0.741600	0.119700	0.293400
C451	C45	0.694300	0.094700	0.248500
C461	C46	0.929800	0.165400	0.342200
C471	C47	0.753400	0.195600	0.895600
C481	C48	0.831300	0.205600	0.931500
C491	C49	0.864500	0.271600	0.908100
C501	C50	0.818500	0.327500	0.851400
C511	C51	0.737500	0.320100	0.816400
C521	C52	0.705200	0.254400	0.838300
C531	C53	0.933200	0.399500	0.740100
C541	C54	0.749500	0.105300	0.792900
C551	C55	0.848900	0.120400	0.774300
C561	C56	0.884300	0.132800	0.706500
C571	C57	0.823600	0.129500	0.654100
C581	C58	0.724200	0.115600	0.671700
C591	C59	0.689000	0.103100	0.740900
C601	C60	0.932900	0.209600	0.550900
C611	C61	0.780600	0.391400	0.304900
C621	C62	0.226400	0.102600	0.358000
C631	C63	0.407900	0.188900	0.042500
C641	C64	0.438600	0.217000	0.972000
C651	C65	0.433700	0.177200	0.924500
C661	C66	0.403900	0.109900	0.943500
C671	C67	0.389900	0.072200	0.891900
C681	C68	0.408300	0.100100	0.820000
C691	C69	0.384600	0.070400	0.770100
C701	C70	0.336900	0.009700	0.791800
C711	C71	0.324300	0.979000	0.862400
C721	C72	0.350700	0.006900	0.914100
C731	C73	0.331200	0.973900	0.988700
C741	C74	0.299800	0.906800	0.012900
C751	C75	0.276900	0.876600	0.082600
C761	C76	0.286200	0.914700	0.132000
C771	C77	0.322800	0.979000	0.108400
C781	C78	0.346400	0.010000	0.037600
C791	C79	0.380600	0.079000	0.015200
C801	C80	0.383100	0.120800	0.061900
C811	C81	0.387900	0.231000	0.096700
C821	C82	0.322200	0.305600	0.083000
C831	C83	0.293900	0.343000	0.134800
C841	C84	0.332000	0.305100	0.202100
C851	C85	0.399000	0.232200	0.216700
C861	C86	0.426200	0.195200	0.163500
C871	C87	0.381700	0.307800	0.335800
C881	C88	0.471600	0.289400	0.948500
C891	C89	0.546400	0.300000	0.988200
C901	C90	0.572700	0.368000	0.969000
C911	C91	0.528200	0.424700	0.910700
C921	C92	0.460900	0.413300	0.869000
C931	C93	0.431700	0.345600	0.889000
C941	C94	0.445700	0.585100	0.852700
C951	C95	0.417700	0.099700	0.695600
C961	C96	0.399400	0.174900	0.662000
C971	C97	0.430700	0.200900	0.594800
C981	C98	0.486200	0.148400	0.557400
C991	C99	0.506100	0.072500	0.590100
C1001	C100	0.471200	0.048800	0.657200
C1011	C101	0.534800	0.112000	0.429600
C1021	C102	0.289800	0.983100	0.741600
C1031	C103	0.224900	0.034700	0.688000
C1041	C104	0.174600	0.010200	0.644100
C1051	C105	0.192900	0.933400	0.654200
C1061	C106	0.258400	0.880300	0.706600
C1071	C107	0.305700	0.905300	0.751500
C1081	C108	0.070200	0.834600	0.657800
C1091	C109	0.246600	0.804400	0.104400
C1101	C110	0.168700	0.794400	0.068500
C1111	C111	0.135500	0.728400	0.091900
C1121	C112	0.181500	0.672500	0.148600
C1131	C113	0.262500	0.679900	0.183600
C1141	C114	0.294800	0.745600	0.161700
C1151	C115	0.066800	0.600500	0.259900
C1161	C116	0.250500	0.894700	0.207100
C1171	C117	0.151100	0.879600	0.225700
C1181	C118	0.115700	0.867200	0.293500
C1191	C119	0.176400	0.870500	0.345900
C1201	C120	0.275800	0.884400	0.328300
C1211	C121	0.311000	0.896900	0.259100
C1221	C122	0.067100	0.790400	0.449100
C1231	C123	0.219400	0.608600	0.695100
C1241	C124	0.773600	0.897400	0.642000
S11	S1	0.212770	0.071590	0.449330
S21	S2	0.714780	0.646720	0.732190
S31	S3	0.435510	0.488310	0.106530
S41	S4	0.466470	0.815230	0.528420
S51	S5	0.868840	0.098150	0.403820
S61	S6	0.865920	0.410120	0.821140
S71	S7	0.871130	0.138980	0.567060
S81	S8	0.691800	0.341010	0.346950
S91	S9	0.787230	0.928410	0.550670
S101	S10	0.285220	0.353280	0.267810
S111	S11	0.564490	0.511690	0.893470
S121	S12	0.533530	0.184770	0.471580
S131	S13	0.131160	0.901850	0.596180
S141	S14	0.134080	0.589880	0.178860
S151	S15	0.128870	0.861020	0.432940
S161	S16	0.308200	0.658990	0.653050
O11	O1	0.101600	0.098800	0.467000
O21	O2	0.260000	0.992200	0.469900
O31	O3	0.279300	0.113500	0.471300
O41	O4	0.749200	0.297700	0.414700
O51	O5	0.597000	0.399100	0.353800
O61	O6	0.678800	0.295000	0.307000
O71	O7	0.602100	0.500400	0.698500
O81	O8	0.898400	0.901200	0.533000
O91	O9	0.740000	0.007800	0.530100
O101	O10	0.720700	0.886500	0.528700
O111	O11	0.250800	0.702300	0.585300
O121	O12	0.403000	0.600900	0.646200
O131	O13	0.321200	0.705000	0.693000
O141	O14	0.397900	0.499600	0.301500
F11	F1	0.878500	0.346700	0.289200
F21	F2	0.740700	0.440800	0.240700
F31	F3	0.804200	0.436500	0.339100
F41	F4	0.171300	0.065200	0.330500
F51	F5	0.327200	0.088800	0.336700
F61	F6	0.178200	0.175600	0.330000
F71	F7	0.121500	0.653300	0.710800
F81	F8	0.259300	0.559200	0.759300
F91	F9	0.195800	0.563500	0.660900
F101	F10	0.828700	0.934800	0.669500
F111	F11	0.672800	0.911200	0.663300
F121	F12	0.821800	0.824400	0.670000
