data_HOXSIY_freeONLY_PM
_symmetry_space_group_name_H-M	'P1'
_cell_length_a	7.794000
_cell_length_b	17.524000
_cell_length_c	13.763000
_cell_angle_alpha	90.000000
_cell_angle_beta	101.393000
_cell_angle_gamma	90.000000
_symmetry_Int_Tables_number 1

loop_
_symmetry_equiv_pos_as_xyz
'x,y,z'

loop_
_atom_site_label
_atom_site_type_symbol
_atom_site_fract_x
_atom_site_fract_y
_atom_site_fract_z
Zn11	Zn1	0.711300	0.962790	0.997440
Zn21	Zn2	0.429330	0.908310	0.153910
Zn31	Zn3	0.959700	0.023250	0.825930
C11	C1	0.523500	0.150700	0.146600
C21	C2	0.552000	0.204600	0.078700
H11	H1	0.574200	0.189300	0.017700
C31	C3	0.547700	0.282200	0.101200
C41	C4	0.517300	0.305600	0.192700
H21	H2	0.514800	0.357400	0.207200
C51	C5	0.490300	0.251100	0.264000
C61	C6	0.486600	0.173400	0.238300
H31	H3	0.459600	0.137000	0.282000
C71	C7	0.530100	0.067100	0.121600
C81	C8	0.562400	0.340200	0.024200
C91	C9	0.460800	0.278600	0.362900
C101	C10	0.364100	0.347600	0.369700
H41	H4	0.315500	0.374700	0.312900
C111	C11	0.344600	0.372600	0.460400
H51	H5	0.278800	0.416400	0.463900
C121	C12	0.418000	0.335900	0.547500
C131	C13	0.516200	0.269900	0.539900
H61	H6	0.570600	0.244700	0.597200
C141	C14	0.533300	0.241900	0.449500
H71	H7	0.595500	0.196900	0.446600
C151	C15	0.401400	0.369300	0.646500
C161	C16	0.953300	0.778000	0.863900
C171	C17	0.958600	0.721100	0.934000
H81	H8	0.937100	0.732500	0.996500
C181	C18	0.996500	0.646600	0.910100
C191	C19	0.017800	0.628700	0.814600
H91	H9	0.034800	0.578100	0.798300
C201	C20	0.014200	0.685200	0.742700
C211	C21	0.987500	0.761400	0.772400
H101	H10	0.993400	0.801000	0.728300
C221	C22	0.906300	0.860100	0.887000
C231	C23	0.020600	0.585300	0.987000
C241	C24	0.035000	0.665800	0.640900
C251	C25	0.122500	0.601100	0.619800
H111	H11	0.178300	0.570200	0.671400
C261	C26	0.128400	0.581500	0.523100
H121	H12	0.182800	0.536300	0.510900
C271	C27	0.055500	0.627600	0.444600
C281	C28	0.971000	0.695800	0.466300
H131	H13	0.922700	0.728500	0.414900
C291	C29	0.959800	0.714000	0.560500
H141	H14	0.902300	0.758400	0.572700
C301	C30	0.060200	0.608200	0.338500
O11	O1	0.466500	0.018300	0.170700
O21	O2	0.231400	0.018100	0.846300
H151	H15	0.290400	0.005300	0.803100
H161	H16	0.246900	0.066100	0.850600
O31	O3	0.605200	0.052600	0.049100
O41	O4	0.597600	0.319700	0.942700
O51	O5	0.669700	0.023200	0.848000
H171	H17	0.627400	0.070700	0.851000
H181	H18	0.598900	0.996500	0.800400
O61	O6	0.536500	0.410900	0.040800
O71	O7	0.169600	0.919200	0.152500
H191	H19	0.108800	0.897500	0.189300
H201	H20	0.080800	0.939300	0.115500
O81	O8	0.272500	0.408800	0.653600
O91	O9	0.526400	0.353600	0.718900
O101	O10	0.830000	0.869500	0.957400
O111	O11	0.945500	0.909600	0.831100
O121	O12	0.015500	0.605400	0.074200
O131	O13	0.045200	0.517400	0.964000
O141	O14	0.091800	0.541200	0.317600
O151	O15	0.037400	0.660300	0.275000
Zn41	Zn4	0.288700	0.462790	0.002560
Zn51	Zn5	0.570670	0.408310	0.846090
Zn61	Zn6	0.040300	0.523250	0.174070
C311	C31	0.476500	0.650700	0.853400
C321	C32	0.448000	0.704600	0.921300
H211	H21	0.425800	0.689300	0.982300
C331	C33	0.452300	0.782200	0.898800
C341	C34	0.482700	0.805600	0.807300
H221	H22	0.485200	0.857400	0.792800
C351	C35	0.509700	0.751100	0.736000
C361	C36	0.513400	0.673400	0.761700
H231	H23	0.540400	0.637000	0.718000
C371	C37	0.469900	0.567100	0.878400
C381	C38	0.437600	0.840200	0.975800
C391	C39	0.539200	0.778600	0.637100
C401	C40	0.635900	0.847600	0.630300
H241	H24	0.684500	0.874700	0.687100
C411	C41	0.655400	0.872600	0.539600
H251	H25	0.721200	0.916400	0.536100
C421	C42	0.582000	0.835900	0.452500
C431	C43	0.483800	0.769900	0.460100
H261	H26	0.429400	0.744700	0.402800
C441	C44	0.466700	0.741900	0.550500
H271	H27	0.404500	0.696900	0.553400
C451	C45	0.598600	0.869300	0.353500
C461	C46	0.046700	0.278000	0.136100
C471	C47	0.041400	0.221100	0.066000
H281	H28	0.062900	0.232500	0.003500
C481	C48	0.003500	0.146600	0.089900
C491	C49	0.982200	0.128700	0.185400
H291	H29	0.965200	0.078100	0.201700
C501	C50	0.985800	0.185200	0.257300
C511	C51	0.012500	0.261400	0.227600
H301	H30	0.006600	0.301000	0.271700
C521	C52	0.093700	0.360100	0.113000
C531	C53	0.979400	0.085300	0.013000
C541	C54	0.965000	0.165800	0.359100
C551	C55	0.877500	0.101100	0.380200
H311	H31	0.821700	0.070200	0.328600
C561	C56	0.871600	0.081500	0.476900
H321	H32	0.817200	0.036300	0.489100
C571	C57	0.944500	0.127600	0.555400
C581	C58	0.029000	0.195800	0.533700
H331	H33	0.077300	0.228500	0.585100
C591	C59	0.040200	0.214000	0.439500
H341	H34	0.097700	0.258400	0.427300
C601	C60	0.939800	0.108200	0.661500
O161	O16	0.533500	0.518300	0.829300
O171	O17	0.768600	0.518100	0.153700
H351	H35	0.709600	0.505300	0.196900
H361	H36	0.753100	0.566100	0.149400
O181	O18	0.394800	0.552600	0.950900
O191	O19	0.402400	0.819700	0.057300
O201	O20	0.330300	0.523200	0.152000
H371	H37	0.372600	0.570700	0.149000
H381	H38	0.401100	0.496500	0.199600
O211	O21	0.463500	0.910900	0.959200
O221	O22	0.830400	0.419200	0.847500
H391	H39	0.891200	0.397500	0.810700
H401	H40	0.919200	0.439300	0.884500
O231	O23	0.727500	0.908800	0.346400
O241	O24	0.473600	0.853600	0.281100
O251	O25	0.170000	0.369500	0.042600
O261	O26	0.054500	0.409600	0.168900
O271	O27	0.984500	0.105400	0.925800
O281	O28	0.954800	0.017400	0.036000
O291	O29	0.908200	0.041200	0.682400
O301	O30	0.962600	0.160300	0.725000
