data_HUCBEN_manual_PM
_symmetry_space_group_name_H-M	'P1'
_cell_length_a	9.828100
_cell_length_b	10.105900
_cell_length_c	18.912100
_cell_angle_alpha	105.130000
_cell_angle_beta	105.060000
_cell_angle_gamma	90.000000
_symmetry_Int_Tables_number 1

loop_
_symmetry_equiv_pos_as_xyz
'x,y,z'

loop_
_atom_site_label
_atom_site_type_symbol
_atom_site_fract_x
_atom_site_fract_y
_atom_site_fract_z
In11	In1	0.133440	0.988200	0.278770
H11	H1	0.751910	0.827010	0.077930
H21	H2	0.680040	0.889720	0.971370
H31	H3	0.615410	0.826960	0.833350
H41	H4	0.158140	0.774260	0.723330
H51	H5	0.088980	0.710840	0.583420
H61	H6	0.315400	0.852580	0.076660
H71	H7	0.280750	0.698690	0.964310
H81	H8	0.212160	0.649400	0.826300
H91	H9	0.565740	0.616800	0.721940
H101	H10	0.494300	0.549640	0.582300
H111	H11	0.638230	0.949220	0.290000
H121	H12	0.249270	0.363130	0.488460
H131	H13	0.121540	0.435230	0.267300
H141	H14	0.222460	0.777210	0.468860
C11	C1	0.875530	0.919710	0.225170
C21	C2	0.716020	0.891850	0.188580
C31	C3	0.671990	0.848840	0.108470
C41	C4	0.579090	0.833560	0.941310
C51	C5	0.541300	0.799430	0.861580
C61	C6	0.232810	0.726420	0.693170
C71	C7	0.193590	0.691170	0.613320
C81	C8	0.336950	0.925360	0.224150
C91	C9	0.460240	0.896770	0.187910
C101	C10	0.425410	0.858900	0.107740
C111	C11	0.354320	0.731230	0.937400
C121	C12	0.314800	0.701560	0.857700
C131	C13	0.461820	0.639020	0.692520
C141	C14	0.421260	0.600680	0.612750
C151	C15	0.607930	0.914510	0.228520
C161	C16	0.528610	0.834760	0.067020
C171	C17	0.486980	0.799050	0.981050
C181	C18	0.408050	0.734760	0.818750
C191	C19	0.367290	0.700410	0.733800
C201	C20	0.286840	0.626300	0.572390
C211	C21	0.240880	0.575910	0.487990
C221	C22	0.226990	0.433850	0.453230
C231	C23	0.182800	0.382610	0.373690
C241	C24	0.154530	0.475020	0.328650
C251	C25	0.169230	0.617890	0.361890
C261	C26	0.211140	0.667630	0.442050
C271	C27	0.165140	0.232720	0.337460
C281	C28	0.142060	0.713560	0.312490
O11	O1	0.966110	0.912250	0.187820
O21	O2	0.937260	0.958930	0.295050
O31	O3	0.213290	0.940820	0.187820
O41	O4	0.340220	0.937800	0.292650
O51	O5	0.125840	0.179280	0.267110
O61	O6	0.186320	0.143540	0.373400
O71	O7	0.167330	0.855510	0.345080
O81	O8	0.099160	0.668010	0.243580
In21	In2	0.866560	0.011800	0.721230
H151	H15	0.684600	0.147420	0.923340
H161	H16	0.719250	0.301310	0.035690
H171	H17	0.787840	0.350600	0.173700
H181	H18	0.434260	0.383200	0.278060
H191	H19	0.505700	0.450360	0.417700
H201	H20	0.248090	0.172990	0.922070
H211	H21	0.319960	0.110280	0.028630
H221	H22	0.384590	0.173040	0.166650
H231	H23	0.841860	0.225740	0.276670
H241	H24	0.911020	0.289160	0.416580
H251	H25	0.361770	0.050780	0.710000
H261	H26	0.750730	0.636870	0.511540
H271	H27	0.878460	0.564770	0.732700
H281	H28	0.777540	0.222790	0.531140
C291	C29	0.663050	0.074640	0.775850
C301	C30	0.539760	0.103230	0.812090
C311	C31	0.574590	0.141100	0.892260
C321	C32	0.645680	0.268770	0.062600
C331	C33	0.685200	0.298440	0.142300
C341	C34	0.538180	0.360980	0.307480
C351	C35	0.578740	0.399320	0.387250
C361	C36	0.124470	0.080290	0.774830
C371	C37	0.283980	0.108150	0.811420
C381	C38	0.328010	0.151160	0.891530
C391	C39	0.420910	0.166440	0.058690
C401	C40	0.458700	0.200570	0.138420
C411	C41	0.767190	0.273580	0.306830
C421	C42	0.806410	0.308830	0.386680
C431	C43	0.392070	0.085490	0.771480
C441	C44	0.471390	0.165240	0.932980
C451	C45	0.513020	0.200950	0.018950
C461	C46	0.591950	0.265240	0.181250
C471	C47	0.632710	0.299590	0.266200
C481	C48	0.713160	0.373700	0.427610
C491	C49	0.759120	0.424090	0.512010
C501	C50	0.773010	0.566150	0.546770
C511	C51	0.817200	0.617390	0.626310
C521	C52	0.845470	0.524980	0.671350
C531	C53	0.830770	0.382110	0.638110
C541	C54	0.788860	0.332370	0.557950
C551	C55	0.834860	0.767280	0.662540
C561	C56	0.857940	0.286440	0.687510
O91	O9	0.786710	0.059180	0.812180
O101	O10	0.659780	0.062200	0.707350
O111	O11	0.033890	0.087750	0.812180
O121	O12	0.062740	0.041070	0.704950
O131	O13	0.874160	0.820720	0.732890
O141	O14	0.813680	0.856460	0.626600
O151	O15	0.832670	0.144490	0.654920
O161	O16	0.900840	0.331990	0.756420
