data_HUFHEX_freeONLY_PM
_symmetry_space_group_name_H-M	'P1'
_cell_length_a	28.910500
_cell_length_b	28.910500
_cell_length_c	14.386300
_cell_angle_alpha	90.000000
_cell_angle_beta	90.000000
_cell_angle_gamma	120.000000
_symmetry_Int_Tables_number 1

loop_
_symmetry_equiv_pos_as_xyz
'x,y,z'

loop_
_atom_site_label
_atom_site_type_symbol
_atom_site_fract_x
_atom_site_fract_y
_atom_site_fract_z
Ag11	Ag1	0.802070	0.065800	0.392950
N11	N1	0.732930	0.997030	0.298100
C11	C1	0.768400	0.926600	0.600600
H11	H1	0.765000	0.922700	0.666200
C21	C2	0.738000	0.955220	0.271400
C31	C3	0.777750	0.941390	0.415700
C41	C4	0.782670	0.949000	0.312100
H21	H2	0.782400	0.917800	0.283100
H31	H3	0.817300	0.981100	0.297300
C51	C5	0.758200	0.891280	0.455500
H41	H4	0.747200	0.861200	0.416000
N21	N2	0.792500	0.984330	0.468500
C61	C6	0.658700	0.965900	0.197200
H51	H5	0.631100	0.970800	0.172300
N31	N3	0.754290	0.883830	0.547200
C71	C7	0.702300	0.918600	0.207100
H61	H6	0.706100	0.888900	0.189900
C81	C8	0.787900	0.976500	0.561000
H71	H7	0.798400	0.006400	0.600600
N41	N4	0.662700	0.923980	0.168800
C91	C9	0.693500	0.002300	0.261600
H81	H8	0.689100	0.031400	0.280000
S11	S1	0.831140	0.082420	0.146640
O11	O1	0.837700	0.108200	0.240800
C101	C10	0.785600	0.093600	0.084000
H91	H9	0.751200	0.077000	0.116700
H101	H10	0.780600	0.077900	0.021900
H111	H11	0.799400	0.132100	0.078500
C111	C11	0.888200	0.125000	0.083700
H121	H12	0.887100	0.157300	0.066700
H131	H13	0.889800	0.106900	0.027200
H141	H14	0.919900	0.134900	0.121800
Ag21	Ag2	0.468740	0.399130	0.726280
N51	N5	0.399600	0.330360	0.631430
C121	C12	0.435070	0.259930	0.933930
H151	H15	0.431670	0.256030	0.999530
C131	C13	0.404670	0.288550	0.604730
C141	C14	0.444420	0.274720	0.749030
C151	C15	0.449340	0.282330	0.645430
H161	H16	0.449070	0.251130	0.616430
H171	H17	0.483970	0.314430	0.630630
C161	C16	0.424870	0.224610	0.788830
H181	H18	0.413870	0.194530	0.749330
N61	N6	0.459170	0.317660	0.801830
C171	C17	0.325370	0.299230	0.530530
H191	H19	0.297770	0.304130	0.505630
N71	N7	0.420960	0.217160	0.880530
C181	C18	0.368970	0.251930	0.540430
H201	H20	0.372770	0.222230	0.523230
C191	C19	0.454570	0.309830	0.894330
H211	H21	0.465070	0.339730	0.933930
N81	N8	0.329370	0.257310	0.502130
C201	C20	0.360170	0.335630	0.594930
H221	H22	0.355770	0.364730	0.613330
S21	S2	0.497810	0.415750	0.479970
O21	O2	0.504370	0.441530	0.574130
C211	C21	0.452270	0.426930	0.417330
H231	H23	0.417870	0.410330	0.450030
H241	H24	0.447270	0.411230	0.355230
H251	H25	0.466070	0.465430	0.411830
C221	C22	0.554870	0.458330	0.417030
H261	H26	0.553770	0.490630	0.400030
H271	H27	0.556470	0.440230	0.360530
H281	H28	0.586570	0.468230	0.455130
Ag31	Ag3	0.135400	0.732470	0.059620
N91	N9	0.066260	0.663700	0.964770
C231	C23	0.101730	0.593270	0.267270
H291	H29	0.098330	0.589370	0.332870
C241	C24	0.071330	0.621890	0.938070
C251	C25	0.111080	0.608060	0.082370
C261	C26	0.116000	0.615670	0.978770
H301	H30	0.115730	0.584470	0.949770
H311	H31	0.150630	0.647770	0.963970
C271	C27	0.091530	0.557950	0.122170
H321	H32	0.080530	0.527870	0.082670
N101	N10	0.125830	0.651000	0.135170
C281	C28	0.992030	0.632570	0.863870
H331	H33	0.964430	0.637470	0.838970
N111	N11	0.087620	0.550500	0.213870
C291	C29	0.035630	0.585270	0.873770
H341	H34	0.039430	0.555570	0.856570
C301	C30	0.121230	0.643170	0.227670
H351	H35	0.131730	0.673070	0.267270
N121	N12	0.996030	0.590650	0.835470
C311	C31	0.026830	0.668970	0.928270
H361	H36	0.022430	0.698070	0.946670
S31	S3	0.164470	0.749090	0.813310
O31	O3	0.171030	0.774870	0.907470
C321	C32	0.118930	0.760270	0.750670
H371	H37	0.084530	0.743670	0.783370
H381	H38	0.113930	0.744570	0.688570
H391	H39	0.132730	0.798770	0.745170
C331	C33	0.221530	0.791670	0.750370
H401	H40	0.220430	0.823970	0.733370
H411	H41	0.223130	0.773570	0.693870
H421	H42	0.253230	0.801570	0.788470
Ag41	Ag4	0.934200	0.736270	0.392950
N131	N13	0.002970	0.735900	0.298100
C341	C34	0.073400	0.841800	0.600600
H431	H43	0.077300	0.842300	0.666200
C351	C35	0.044780	0.782780	0.271400
C361	C36	0.058610	0.836360	0.415700
C371	C37	0.051000	0.833670	0.312100
H441	H44	0.082200	0.864600	0.283100
H451	H45	0.018900	0.836200	0.297300
C381	C38	0.108720	0.866920	0.455500
H461	H46	0.138800	0.886000	0.416000
N141	N14	0.015670	0.808170	0.468500
C391	C39	0.034100	0.692800	0.197200
H471	H47	0.029200	0.660300	0.172300
N151	N15	0.116170	0.870460	0.547200
C401	C40	0.081400	0.783700	0.207100
H481	H48	0.111100	0.817200	0.189900
C411	C41	0.023500	0.811400	0.561000
H491	H49	0.993600	0.792000	0.600600
N161	N16	0.076020	0.738720	0.168800
C421	C42	0.997700	0.691200	0.261600
H501	H50	0.968600	0.657700	0.280000
S41	S4	0.917580	0.748720	0.146640
O41	O4	0.891800	0.729500	0.240800
C431	C43	0.906400	0.692000	0.084000
H511	H51	0.923000	0.674200	0.116700
H521	H52	0.922100	0.702700	0.021900
H531	H53	0.867900	0.667300	0.078500
C441	C44	0.875000	0.763200	0.083700
H541	H54	0.842700	0.729800	0.066700
H551	H55	0.893100	0.782900	0.027200
H561	H56	0.865100	0.785000	0.121800
Ag51	Ag5	0.600870	0.069600	0.726280
N171	N17	0.669640	0.069230	0.631430
C451	C45	0.740070	0.175130	0.933930
H571	H57	0.743970	0.175630	0.999530
C461	C46	0.711450	0.116110	0.604730
C471	C47	0.725280	0.169690	0.749030
C481	C48	0.717670	0.167000	0.645430
H581	H58	0.748870	0.197930	0.616430
H591	H59	0.685570	0.169530	0.630630
C491	C49	0.775390	0.200250	0.788830
H601	H60	0.805470	0.219330	0.749330
N181	N18	0.682340	0.141500	0.801830
C501	C50	0.700770	0.026130	0.530530
H611	H61	0.695870	0.993630	0.505630
N191	N19	0.782840	0.203790	0.880530
C511	C51	0.748070	0.117030	0.540430
H621	H62	0.777770	0.150530	0.523230
C521	C52	0.690170	0.144730	0.894330
H631	H63	0.660270	0.125330	0.933930
N201	N20	0.742690	0.072050	0.502130
C531	C53	0.664370	0.024530	0.594930
H641	H64	0.635270	0.991030	0.613330
S51	S5	0.584250	0.082050	0.479970
O51	O5	0.558470	0.062830	0.574130
C541	C54	0.573070	0.025330	0.417330
H651	H65	0.589670	0.007530	0.450030
H661	H66	0.588770	0.036030	0.355230
H671	H67	0.534570	0.000630	0.411830
C551	C55	0.541670	0.096530	0.417030
H681	H68	0.509370	0.063130	0.400030
H691	H69	0.559770	0.116230	0.360530
H701	H70	0.531770	0.118330	0.455130
Ag61	Ag6	0.267530	0.402940	0.059620
N211	N21	0.336300	0.402570	0.964770
C561	C56	0.406730	0.508470	0.267270
H711	H71	0.410630	0.508970	0.332870
C571	C57	0.378110	0.449450	0.938070
C581	C58	0.391940	0.503030	0.082370
C591	C59	0.384330	0.500340	0.978770
H721	H72	0.415530	0.531270	0.949770
H731	H73	0.352230	0.502870	0.963970
C601	C60	0.442050	0.533590	0.122170
H741	H74	0.472130	0.552670	0.082670
N221	N22	0.349000	0.474840	0.135170
C611	C61	0.367430	0.359470	0.863870
H751	H75	0.362530	0.326970	0.838970
N231	N23	0.449500	0.537130	0.213870
C621	C62	0.414730	0.450370	0.873770
H761	H76	0.444430	0.483870	0.856570
C631	C63	0.356830	0.478070	0.227670
H771	H77	0.326930	0.458670	0.267270
N241	N24	0.409350	0.405390	0.835470
C641	C64	0.331030	0.357870	0.928270
H781	H78	0.301930	0.324370	0.946670
S61	S6	0.250910	0.415390	0.813310
O61	O6	0.225130	0.396170	0.907470
C651	C65	0.239730	0.358670	0.750670
H791	H79	0.256330	0.340870	0.783370
H801	H80	0.255430	0.369370	0.688570
H811	H81	0.201230	0.333970	0.745170
C661	C66	0.208330	0.429870	0.750370
H821	H82	0.176030	0.396470	0.733370
H831	H83	0.226430	0.449570	0.693870
H841	H84	0.198430	0.451670	0.788470
Ag71	Ag7	0.263730	0.197930	0.392950
N251	N25	0.264100	0.267070	0.298100
C671	C67	0.158200	0.231600	0.600600
H851	H85	0.157700	0.235000	0.666200
C681	C68	0.217220	0.262000	0.271400
C691	C69	0.163640	0.222250	0.415700
C701	C70	0.166330	0.217330	0.312100
H861	H86	0.135400	0.217600	0.283100
H871	H87	0.163800	0.182700	0.297300
C711	C71	0.133080	0.241800	0.455500
H881	H88	0.114000	0.252800	0.416000
N261	N26	0.191830	0.207500	0.468500
C721	C72	0.307200	0.341300	0.197200
H891	H89	0.339700	0.368900	0.172300
N271	N27	0.129540	0.245710	0.547200
C731	C73	0.216300	0.297700	0.207100
H901	H90	0.182800	0.293900	0.189900
C741	C74	0.188600	0.212100	0.561000
H911	H91	0.208000	0.201600	0.600600
N281	N28	0.261280	0.337300	0.168800
C751	C75	0.308800	0.306500	0.261600
H921	H92	0.342300	0.310900	0.280000
S71	S7	0.251280	0.168860	0.146640
O71	O7	0.270500	0.162300	0.240800
C761	C76	0.308000	0.214400	0.084000
H931	H93	0.325800	0.248800	0.116700
H941	H94	0.297300	0.219400	0.021900
H951	H95	0.332700	0.200600	0.078500
C771	C77	0.236800	0.111800	0.083700
H961	H96	0.270200	0.112900	0.066700
H971	H97	0.217100	0.110200	0.027200
H981	H98	0.215000	0.080100	0.121800
Ag81	Ag8	0.930400	0.531260	0.726280
N291	N29	0.930770	0.600400	0.631430
C781	C78	0.824870	0.564930	0.933930
H991	H99	0.824370	0.568330	0.999530
C791	C79	0.883890	0.595330	0.604730
C801	C80	0.830310	0.555580	0.749030
C811	C81	0.833000	0.550660	0.645430
H1001	H100	0.802070	0.550930	0.616430
H1011	H101	0.830470	0.516030	0.630630
C821	C82	0.799750	0.575130	0.788830
H1021	H102	0.780670	0.586130	0.749330
N301	N30	0.858500	0.540830	0.801830
C831	C83	0.973870	0.674630	0.530530
H1031	H103	0.006370	0.702230	0.505630
N311	N31	0.796210	0.579040	0.880530
C841	C84	0.882970	0.631030	0.540430
H1041	H104	0.849470	0.627230	0.523230
C851	C85	0.855270	0.545430	0.894330
H1051	H105	0.874670	0.534930	0.933930
N321	N32	0.927950	0.670630	0.502130
C861	C86	0.975470	0.639830	0.594930
H1061	H106	0.008970	0.644230	0.613330
S81	S8	0.917950	0.502190	0.479970
O81	O8	0.937170	0.495630	0.574130
C871	C87	0.974670	0.547730	0.417330
H1071	H107	0.992470	0.582130	0.450030
H1081	H108	0.963970	0.552730	0.355230
H1091	H109	0.999370	0.533930	0.411830
C881	C88	0.903470	0.445130	0.417030
H1101	H110	0.936870	0.446230	0.400030
H1111	H111	0.883770	0.443530	0.360530
H1121	H112	0.881670	0.413430	0.455130
Ag91	Ag9	0.597060	0.864600	0.059620
N331	N33	0.597430	0.933740	0.964770
C891	C89	0.491530	0.898270	0.267270
H1131	H113	0.491030	0.901670	0.332870
C901	C90	0.550550	0.928670	0.938070
C911	C91	0.496970	0.888920	0.082370
C921	C92	0.499660	0.884000	0.978770
H1141	H114	0.468730	0.884270	0.949770
H1151	H115	0.497130	0.849370	0.963970
C931	C93	0.466410	0.908470	0.122170
H1161	H116	0.447330	0.919470	0.082670
N341	N34	0.525160	0.874170	0.135170
C941	C94	0.640530	0.007970	0.863870
H1171	H117	0.673030	0.035570	0.838970
N351	N35	0.462870	0.912380	0.213870
C951	C95	0.549630	0.964370	0.873770
H1181	H118	0.516130	0.960570	0.856570
C961	C96	0.521930	0.878770	0.227670
H1191	H119	0.541330	0.868270	0.267270
N361	N36	0.594610	0.003970	0.835470
C971	C97	0.642130	0.973170	0.928270
H1201	H120	0.675630	0.977570	0.946670
S91	S9	0.584610	0.835530	0.813310
O91	O9	0.603830	0.828970	0.907470
C981	C98	0.641330	0.881070	0.750670
H1211	H121	0.659130	0.915470	0.783370
H1221	H122	0.630630	0.886070	0.688570
H1231	H123	0.666030	0.867270	0.745170
C991	C99	0.570130	0.778470	0.750370
H1241	H124	0.603530	0.779570	0.733370
H1251	H125	0.550430	0.776870	0.693870
H1261	H126	0.548330	0.746770	0.788470
Ag101	Ag10	0.197930	0.934200	0.607050
N371	N37	0.267070	0.002970	0.701900
C1001	C100	0.231600	0.073400	0.399400
H1271	H127	0.235000	0.077300	0.333800
C1011	C101	0.262000	0.044780	0.728600
C1021	C102	0.222250	0.058610	0.584300
C1031	C103	0.217330	0.051000	0.687900
H1281	H128	0.217600	0.082200	0.716900
H1291	H129	0.182700	0.018900	0.702700
C1041	C104	0.241800	0.108720	0.544500
H1301	H130	0.252800	0.138800	0.584000
N381	N38	0.207500	0.015670	0.531500
C1051	C105	0.341300	0.034100	0.802800
H1311	H131	0.368900	0.029200	0.827700
N391	N39	0.245710	0.116170	0.452800
C1061	C106	0.297700	0.081400	0.792900
H1321	H132	0.293900	0.111100	0.810100
C1071	C107	0.212100	0.023500	0.439000
H1331	H133	0.201600	0.993600	0.399400
N401	N40	0.337300	0.076020	0.831200
C1081	C108	0.306500	0.997700	0.738400
H1341	H134	0.310900	0.968600	0.720000
S101	S10	0.168860	0.917580	0.853360
O101	O10	0.162300	0.891800	0.759200
C1091	C109	0.214400	0.906400	0.916000
H1351	H135	0.248800	0.923000	0.883300
H1361	H136	0.219400	0.922100	0.978100
H1371	H137	0.200600	0.867900	0.921500
C1101	C110	0.111800	0.875000	0.916300
H1381	H138	0.112900	0.842700	0.933300
H1391	H139	0.110200	0.893100	0.972800
H1401	H140	0.080100	0.865100	0.878200
Ag111	Ag11	0.864600	0.267530	0.940380
N411	N41	0.933740	0.336300	0.035230
C1111	C111	0.898270	0.406730	0.732730
H1411	H141	0.901670	0.410630	0.667130
C1121	C112	0.928670	0.378110	0.061930
C1131	C113	0.888920	0.391940	0.917630
C1141	C114	0.884000	0.384330	0.021230
H1421	H142	0.884270	0.415530	0.050230
H1431	H143	0.849370	0.352230	0.036030
C1151	C115	0.908470	0.442050	0.877830
H1441	H144	0.919470	0.472130	0.917330
N421	N42	0.874170	0.349000	0.864830
C1161	C116	0.007970	0.367430	0.136130
H1451	H145	0.035570	0.362530	0.161030
N431	N43	0.912380	0.449500	0.786130
C1171	C117	0.964370	0.414730	0.126230
H1461	H146	0.960570	0.444430	0.143430
C1181	C118	0.878770	0.356830	0.772330
H1471	H147	0.868270	0.326930	0.732730
N441	N44	0.003970	0.409350	0.164530
C1191	C119	0.973170	0.331030	0.071730
H1481	H148	0.977570	0.301930	0.053330
S111	S11	0.835530	0.250910	0.186690
O111	O11	0.828970	0.225130	0.092530
C1201	C120	0.881070	0.239730	0.249330
H1491	H149	0.915470	0.256330	0.216630
H1501	H150	0.886070	0.255430	0.311430
H1511	H151	0.867270	0.201230	0.254830
C1211	C121	0.778470	0.208330	0.249630
H1521	H152	0.779570	0.176030	0.266630
H1531	H153	0.776870	0.226430	0.306130
H1541	H154	0.746770	0.198430	0.211530
Ag121	Ag12	0.531260	0.600870	0.273720
N451	N45	0.600400	0.669640	0.368570
C1221	C122	0.564930	0.740070	0.066070
H1551	H155	0.568330	0.743970	0.000470
C1231	C123	0.595330	0.711450	0.395270
C1241	C124	0.555580	0.725280	0.250970
C1251	C125	0.550660	0.717670	0.354570
H1561	H156	0.550930	0.748870	0.383570
H1571	H157	0.516030	0.685570	0.369370
C1261	C126	0.575130	0.775390	0.211170
H1581	H158	0.586130	0.805470	0.250670
N461	N46	0.540830	0.682340	0.198170
C1271	C127	0.674630	0.700770	0.469470
H1591	H159	0.702230	0.695870	0.494370
N471	N47	0.579040	0.782840	0.119470
C1281	C128	0.631030	0.748070	0.459570
H1601	H160	0.627230	0.777770	0.476770
C1291	C129	0.545430	0.690170	0.105670
H1611	H161	0.534930	0.660270	0.066070
N481	N48	0.670630	0.742690	0.497870
C1301	C130	0.639830	0.664370	0.405070
H1621	H162	0.644230	0.635270	0.386670
S121	S12	0.502190	0.584250	0.520030
O121	O12	0.495630	0.558470	0.425870
C1311	C131	0.547730	0.573070	0.582670
H1631	H163	0.582130	0.589670	0.549970
H1641	H164	0.552730	0.588770	0.644770
H1651	H165	0.533930	0.534570	0.588170
C1321	C132	0.445130	0.541670	0.582970
H1661	H166	0.446230	0.509370	0.599970
H1671	H167	0.443530	0.559770	0.639470
H1681	H168	0.413430	0.531770	0.544870
Ag131	Ag13	0.065800	0.263730	0.607050
N491	N49	0.997030	0.264100	0.701900
C1331	C133	0.926600	0.158200	0.399400
H1691	H169	0.922700	0.157700	0.333800
C1341	C134	0.955220	0.217220	0.728600
C1351	C135	0.941390	0.163640	0.584300
C1361	C136	0.949000	0.166330	0.687900
H1701	H170	0.917800	0.135400	0.716900
H1711	H171	0.981100	0.163800	0.702700
C1371	C137	0.891280	0.133080	0.544500
H1721	H172	0.861200	0.114000	0.584000
N501	N50	0.984330	0.191830	0.531500
C1381	C138	0.965900	0.307200	0.802800
H1731	H173	0.970800	0.339700	0.827700
N511	N51	0.883830	0.129540	0.452800
C1391	C139	0.918600	0.216300	0.792900
H1741	H174	0.888900	0.182800	0.810100
C1401	C140	0.976500	0.188600	0.439000
H1751	H175	0.006400	0.208000	0.399400
N521	N52	0.923980	0.261280	0.831200
C1411	C141	0.002300	0.308800	0.738400
H1761	H176	0.031400	0.342300	0.720000
S131	S13	0.082420	0.251280	0.853360
O131	O13	0.108200	0.270500	0.759200
C1421	C142	0.093600	0.308000	0.916000
H1771	H177	0.077000	0.325800	0.883300
H1781	H178	0.077900	0.297300	0.978100
H1791	H179	0.132100	0.332700	0.921500
C1431	C143	0.125000	0.236800	0.916300
H1801	H180	0.157300	0.270200	0.933300
H1811	H181	0.106900	0.217100	0.972800
H1821	H182	0.134900	0.215000	0.878200
Ag141	Ag14	0.732470	0.597060	0.940380
N531	N53	0.663700	0.597430	0.035230
C1441	C144	0.593270	0.491530	0.732730
H1831	H183	0.589370	0.491030	0.667130
C1451	C145	0.621890	0.550550	0.061930
C1461	C146	0.608060	0.496970	0.917630
C1471	C147	0.615670	0.499660	0.021230
H1841	H184	0.584470	0.468730	0.050230
H1851	H185	0.647770	0.497130	0.036030
C1481	C148	0.557950	0.466410	0.877830
H1861	H186	0.527870	0.447330	0.917330
N541	N54	0.651000	0.525160	0.864830
C1491	C149	0.632570	0.640530	0.136130
H1871	H187	0.637470	0.673030	0.161030
N551	N55	0.550500	0.462870	0.786130
C1501	C150	0.585270	0.549630	0.126230
H1881	H188	0.555570	0.516130	0.143430
C1511	C151	0.643170	0.521930	0.772330
H1891	H189	0.673070	0.541330	0.732730
N561	N56	0.590650	0.594610	0.164530
C1521	C152	0.668970	0.642130	0.071730
H1901	H190	0.698070	0.675630	0.053330
S141	S14	0.749090	0.584610	0.186690
O141	O14	0.774870	0.603830	0.092530
C1531	C153	0.760270	0.641330	0.249330
H1911	H191	0.743670	0.659130	0.216630
H1921	H192	0.744570	0.630630	0.311430
H1931	H193	0.798770	0.666030	0.254830
C1541	C154	0.791670	0.570130	0.249630
H1941	H194	0.823970	0.603530	0.266630
H1951	H195	0.773570	0.550430	0.306130
H1961	H196	0.801570	0.548330	0.211530
Ag151	Ag15	0.399130	0.930400	0.273720
N571	N57	0.330360	0.930770	0.368570
C1551	C155	0.259930	0.824870	0.066070
H1971	H197	0.256030	0.824370	0.000470
C1561	C156	0.288550	0.883890	0.395270
C1571	C157	0.274720	0.830310	0.250970
C1581	C158	0.282330	0.833000	0.354570
H1981	H198	0.251130	0.802070	0.383570
H1991	H199	0.314430	0.830470	0.369370
C1591	C159	0.224610	0.799750	0.211170
H2001	H200	0.194530	0.780670	0.250670
N581	N58	0.317660	0.858500	0.198170
C1601	C160	0.299230	0.973870	0.469470
H2011	H201	0.304130	0.006370	0.494370
N591	N59	0.217160	0.796210	0.119470
C1611	C161	0.251930	0.882970	0.459570
H2021	H202	0.222230	0.849470	0.476770
C1621	C162	0.309830	0.855270	0.105670
H2031	H203	0.339730	0.874670	0.066070
N601	N60	0.257310	0.927950	0.497870
C1631	C163	0.335630	0.975470	0.405070
H2041	H204	0.364730	0.008970	0.386670
S151	S15	0.415750	0.917950	0.520030
O151	O15	0.441530	0.937170	0.425870
C1641	C164	0.426930	0.974670	0.582670
H2051	H205	0.410330	0.992470	0.549970
H2061	H206	0.411230	0.963970	0.644770
H2071	H207	0.465430	0.999370	0.588170
C1651	C165	0.458330	0.903470	0.582970
H2081	H208	0.490630	0.936870	0.599970
H2091	H209	0.440230	0.883770	0.639470
H2101	H210	0.468230	0.881670	0.544870
Ag161	Ag16	0.736270	0.802070	0.607050
N611	N61	0.735900	0.732930	0.701900
C1661	C166	0.841800	0.768400	0.399400
H2111	H211	0.842300	0.765000	0.333800
C1671	C167	0.782780	0.738000	0.728600
C1681	C168	0.836360	0.777750	0.584300
C1691	C169	0.833670	0.782670	0.687900
H2121	H212	0.864600	0.782400	0.716900
H2131	H213	0.836200	0.817300	0.702700
C1701	C170	0.866920	0.758200	0.544500
H2141	H214	0.886000	0.747200	0.584000
N621	N62	0.808170	0.792500	0.531500
C1711	C171	0.692800	0.658700	0.802800
H2151	H215	0.660300	0.631100	0.827700
N631	N63	0.870460	0.754290	0.452800
C1721	C172	0.783700	0.702300	0.792900
H2161	H216	0.817200	0.706100	0.810100
C1731	C173	0.811400	0.787900	0.439000
H2171	H217	0.792000	0.798400	0.399400
N641	N64	0.738720	0.662700	0.831200
C1741	C174	0.691200	0.693500	0.738400
H2181	H218	0.657700	0.689100	0.720000
S161	S16	0.748720	0.831140	0.853360
O161	O16	0.729500	0.837700	0.759200
C1751	C175	0.692000	0.785600	0.916000
H2191	H219	0.674200	0.751200	0.883300
H2201	H220	0.702700	0.780600	0.978100
H2211	H221	0.667300	0.799400	0.921500
C1761	C176	0.763200	0.888200	0.916300
H2221	H222	0.729800	0.887100	0.933300
H2231	H223	0.782900	0.889800	0.972800
H2241	H224	0.785000	0.919900	0.878200
Ag171	Ag17	0.402940	0.135400	0.940380
N651	N65	0.402570	0.066260	0.035230
C1771	C177	0.508470	0.101730	0.732730
H2251	H225	0.508970	0.098330	0.667130
C1781	C178	0.449450	0.071330	0.061930
C1791	C179	0.503030	0.111080	0.917630
C1801	C180	0.500340	0.116000	0.021230
H2261	H226	0.531270	0.115730	0.050230
H2271	H227	0.502870	0.150630	0.036030
C1811	C181	0.533590	0.091530	0.877830
H2281	H228	0.552670	0.080530	0.917330
N661	N66	0.474840	0.125830	0.864830
C1821	C182	0.359470	0.992030	0.136130
H2291	H229	0.326970	0.964430	0.161030
N671	N67	0.537130	0.087620	0.786130
C1831	C183	0.450370	0.035630	0.126230
H2301	H230	0.483870	0.039430	0.143430
C1841	C184	0.478070	0.121230	0.772330
H2311	H231	0.458670	0.131730	0.732730
N681	N68	0.405390	0.996030	0.164530
C1851	C185	0.357870	0.026830	0.071730
H2321	H232	0.324370	0.022430	0.053330
S171	S17	0.415390	0.164470	0.186690
O171	O17	0.396170	0.171030	0.092530
C1861	C186	0.358670	0.118930	0.249330
H2331	H233	0.340870	0.084530	0.216630
H2341	H234	0.369370	0.113930	0.311430
H2351	H235	0.333970	0.132730	0.254830
C1871	C187	0.429870	0.221530	0.249630
H2361	H236	0.396470	0.220430	0.266630
H2371	H237	0.449570	0.223130	0.306130
H2381	H238	0.451670	0.253230	0.211530
Ag181	Ag18	0.069600	0.468740	0.273720
N691	N69	0.069230	0.399600	0.368570
C1881	C188	0.175130	0.435070	0.066070
H2391	H239	0.175630	0.431670	0.000470
C1891	C189	0.116110	0.404670	0.395270
C1901	C190	0.169690	0.444420	0.250970
C1911	C191	0.167000	0.449340	0.354570
H2401	H240	0.197930	0.449070	0.383570
H2411	H241	0.169530	0.483970	0.369370
C1921	C192	0.200250	0.424870	0.211170
H2421	H242	0.219330	0.413870	0.250670
N701	N70	0.141500	0.459170	0.198170
C1931	C193	0.026130	0.325370	0.469470
H2431	H243	0.993630	0.297770	0.494370
N711	N71	0.203790	0.420960	0.119470
C1941	C194	0.117030	0.368970	0.459570
H2441	H244	0.150530	0.372770	0.476770
C1951	C195	0.144730	0.454570	0.105670
H2451	H245	0.125330	0.465070	0.066070
N721	N72	0.072050	0.329370	0.497870
C1961	C196	0.024530	0.360170	0.405070
H2461	H246	0.991030	0.355770	0.386670
S181	S18	0.082050	0.497810	0.520030
O181	O18	0.062830	0.504370	0.425870
C1971	C197	0.025330	0.452270	0.582670
H2471	H247	0.007530	0.417870	0.549970
H2481	H248	0.036030	0.447270	0.644770
H2491	H249	0.000630	0.466070	0.588170
C1981	C198	0.096530	0.554870	0.582970
H2501	H250	0.063130	0.553770	0.599970
H2511	H251	0.116230	0.556470	0.639470
H2521	H252	0.118330	0.586570	0.544870
