data_HUFHOH_freeONLY_PM
_symmetry_space_group_name_H-M	'P1'
_cell_length_a	28.958900
_cell_length_b	28.958900
_cell_length_c	14.565300
_cell_angle_alpha	90.000000
_cell_angle_beta	90.000000
_cell_angle_gamma	120.000000
_symmetry_Int_Tables_number 1

loop_
_symmetry_equiv_pos_as_xyz
'x,y,z'

loop_
_atom_site_label
_atom_site_type_symbol
_atom_site_fract_x
_atom_site_fract_y
_atom_site_fract_z
Ag11	Ag1	0.601660	0.063530	0.743240
C11	C1	0.702500	0.114600	0.608300
N11	N1	0.791360	0.203480	0.876700
N21	N2	0.654830	0.069750	0.622100
C21	C2	0.727750	0.165570	0.755900
N31	N3	0.690890	0.128400	0.812000
C31	C3	0.777700	0.201860	0.787300
H11	H1	0.803200	0.226500	0.745400
C41	C4	0.712500	0.164300	0.657300
H21	H2	0.741400	0.195600	0.625400
H31	H3	0.679900	0.167200	0.654100
N41	N4	0.731220	0.069600	0.505700
C51	C5	0.754800	0.166500	0.931500
H41	H4	0.763100	0.166500	0.994600
C61	C6	0.740300	0.113700	0.550700
H51	H5	0.773600	0.145400	0.542900
C71	C7	0.705800	0.128700	0.900600
H61	H6	0.681700	0.102000	0.941700
C81	C8	0.683400	0.026300	0.518400
H71	H7	0.674900	0.994700	0.485800
C91	C9	0.646200	0.026200	0.577500
H81	H8	0.613400	0.994000	0.586600
Ag21	Ag2	0.268330	0.396860	0.076570
C101	C10	0.369170	0.447930	0.941630
N51	N5	0.458030	0.536810	0.210030
N61	N6	0.321500	0.403080	0.955430
C111	C11	0.394420	0.498900	0.089230
N71	N7	0.357560	0.461730	0.145330
C121	C12	0.444370	0.535190	0.120630
H91	H9	0.469870	0.559830	0.078730
C131	C13	0.379170	0.497630	0.990630
H101	H10	0.408070	0.528930	0.958730
H111	H11	0.346570	0.500530	0.987430
N81	N8	0.397890	0.402930	0.839030
C141	C14	0.421470	0.499830	0.264830
H121	H12	0.429770	0.499830	0.327930
C151	C15	0.406970	0.447030	0.884030
H131	H13	0.440270	0.478730	0.876230
C161	C16	0.372470	0.462030	0.233930
H141	H14	0.348370	0.435330	0.275030
C171	C17	0.350070	0.359630	0.851730
H151	H15	0.341570	0.328030	0.819130
C181	C18	0.312870	0.359530	0.910830
H161	H16	0.280070	0.327330	0.919930
Ag31	Ag3	0.934990	0.730200	0.409910
C191	C19	0.035830	0.781270	0.274970
N91	N9	0.124690	0.870150	0.543370
N101	N10	0.988160	0.736420	0.288770
C201	C20	0.061080	0.832240	0.422570
N111	N11	0.024220	0.795070	0.478670
C211	C21	0.111030	0.868530	0.453970
H171	H17	0.136530	0.893170	0.412070
C221	C22	0.045830	0.830970	0.323970
H181	H18	0.074730	0.862270	0.292070
H191	H19	0.013230	0.833870	0.320770
N121	N12	0.064550	0.736270	0.172370
C231	C23	0.088130	0.833170	0.598170
H201	H20	0.096430	0.833170	0.661270
C241	C24	0.073630	0.780370	0.217370
H211	H21	0.106930	0.812070	0.209570
C251	C25	0.039130	0.795370	0.567270
H221	H22	0.015030	0.768670	0.608370
C261	C26	0.016730	0.692970	0.185070
H231	H23	0.008230	0.661370	0.152470
C271	C27	0.979530	0.692870	0.244170
H241	H24	0.946730	0.660670	0.253270
Ag41	Ag4	0.936470	0.538130	0.743240
C281	C28	0.885400	0.587900	0.608300
N131	N13	0.796520	0.587880	0.876700
N141	N14	0.930250	0.585080	0.622100
C291	C29	0.834430	0.562180	0.755900
N151	N15	0.871600	0.562490	0.812000
C301	C30	0.798140	0.575840	0.787300
H251	H25	0.773500	0.576700	0.745400
C311	C31	0.835700	0.548200	0.657300
H261	H26	0.804400	0.545800	0.625400
H271	H27	0.832800	0.512700	0.654100
N161	N16	0.930400	0.661620	0.505700
C321	C32	0.833500	0.588300	0.931500
H281	H28	0.833500	0.596600	0.994600
C331	C33	0.886300	0.626600	0.550700
H291	H29	0.854600	0.628200	0.542900
C341	C34	0.871300	0.577100	0.900600
H301	H30	0.898000	0.579700	0.941700
C351	C35	0.973700	0.657100	0.518400
H311	H31	0.005300	0.680200	0.485800
C361	C36	0.973800	0.620000	0.577500
H321	H32	0.006000	0.619400	0.586600
Ag51	Ag5	0.603140	0.871460	0.076570
C371	C37	0.552070	0.921230	0.941630
N171	N17	0.463190	0.921210	0.210030
N181	N18	0.596920	0.918410	0.955430
C381	C38	0.501100	0.895510	0.089230
N191	N19	0.538270	0.895820	0.145330
C391	C39	0.464810	0.909170	0.120630
H331	H33	0.440170	0.910030	0.078730
C401	C40	0.502370	0.881530	0.990630
H341	H34	0.471070	0.879130	0.958730
H351	H35	0.499470	0.846030	0.987430
N201	N20	0.597070	0.994950	0.839030
C411	C41	0.500170	0.921630	0.264830
H361	H36	0.500170	0.929930	0.327930
C421	C42	0.552970	0.959930	0.884030
H371	H37	0.521270	0.961530	0.876230
C431	C43	0.537970	0.910430	0.233930
H381	H38	0.564670	0.913030	0.275030
C441	C44	0.640370	0.990430	0.851730
H391	H39	0.671970	0.013530	0.819130
C451	C45	0.640470	0.953330	0.910830
H401	H40	0.672670	0.952730	0.919930
Ag61	Ag6	0.269800	0.204800	0.409910
C461	C46	0.218730	0.254570	0.274970
N211	N21	0.129850	0.254550	0.543370
N221	N22	0.263580	0.251750	0.288770
C471	C47	0.167760	0.228850	0.422570
N231	N23	0.204930	0.229160	0.478670
C481	C48	0.131470	0.242510	0.453970
H411	H41	0.106830	0.243370	0.412070
C491	C49	0.169030	0.214870	0.323970
H421	H42	0.137730	0.212470	0.292070
H431	H43	0.166130	0.179370	0.320770
N241	N24	0.263730	0.328290	0.172370
C501	C50	0.166830	0.254970	0.598170
H441	H44	0.166830	0.263270	0.661270
C511	C51	0.219630	0.293270	0.217370
H451	H45	0.187930	0.294870	0.209570
C521	C52	0.204630	0.243770	0.567270
H461	H46	0.231330	0.246370	0.608370
C531	C53	0.307030	0.323770	0.185070
H471	H47	0.338630	0.346870	0.152470
C541	C54	0.307130	0.286670	0.244170
H481	H48	0.339330	0.286070	0.253270
Ag71	Ag7	0.461870	0.398340	0.743240
C551	C55	0.412100	0.297500	0.608300
N251	N25	0.412120	0.208640	0.876700
N261	N26	0.414920	0.345170	0.622100
C561	C56	0.437820	0.272250	0.755900
N271	N27	0.437510	0.309110	0.812000
C571	C57	0.424160	0.222300	0.787300
H491	H49	0.423300	0.196800	0.745400
C581	C58	0.451800	0.287500	0.657300
H501	H50	0.454200	0.258600	0.625400
H511	H51	0.487300	0.320100	0.654100
N281	N28	0.338380	0.268780	0.505700
C591	C59	0.411700	0.245200	0.931500
H521	H52	0.403400	0.236900	0.994600
C601	C60	0.373400	0.259700	0.550700
H531	H53	0.371800	0.226400	0.542900
C611	C61	0.422900	0.294200	0.900600
H541	H54	0.420300	0.318300	0.941700
C621	C62	0.342900	0.316600	0.518400
H551	H55	0.319800	0.325100	0.485800
C631	C63	0.380000	0.353800	0.577500
H561	H56	0.380600	0.386600	0.586600
Ag81	Ag8	0.128540	0.731670	0.076570
C641	C64	0.078770	0.630830	0.941630
N291	N29	0.078790	0.541970	0.210030
N301	N30	0.081590	0.678500	0.955430
C651	C65	0.104490	0.605580	0.089230
N311	N31	0.104180	0.642440	0.145330
C661	C66	0.090830	0.555630	0.120630
H571	H57	0.089970	0.530130	0.078730
C671	C67	0.118470	0.620830	0.990630
H581	H58	0.120870	0.591930	0.958730
H591	H59	0.153970	0.653430	0.987430
N321	N32	0.005050	0.602110	0.839030
C681	C68	0.078370	0.578530	0.264830
H601	H60	0.070070	0.570230	0.327930
C691	C69	0.040070	0.593030	0.884030
H611	H61	0.038470	0.559730	0.876230
C701	C70	0.089570	0.627530	0.233930
H621	H62	0.086970	0.651630	0.275030
C711	C71	0.009570	0.649930	0.851730
H631	H63	0.986470	0.658430	0.819130
C721	C72	0.046670	0.687130	0.910830
H641	H64	0.047270	0.719930	0.919930
Ag91	Ag9	0.795200	0.065010	0.409910
C731	C73	0.745430	0.964170	0.274970
N331	N33	0.745450	0.875310	0.543370
N341	N34	0.748250	0.011840	0.288770
C741	C74	0.771150	0.938920	0.422570
N351	N35	0.770840	0.975780	0.478670
C751	C75	0.757490	0.888970	0.453970
H651	H65	0.756630	0.863470	0.412070
C761	C76	0.785130	0.954170	0.323970
H661	H66	0.787530	0.925270	0.292070
H671	H67	0.820630	0.986770	0.320770
N361	N36	0.671710	0.935450	0.172370
C771	C77	0.745030	0.911870	0.598170
H681	H68	0.736730	0.903570	0.661270
C781	C78	0.706730	0.926370	0.217370
H691	H69	0.705130	0.893070	0.209570
C791	C79	0.756230	0.960870	0.567270
H701	H70	0.753630	0.984970	0.608370
C801	C80	0.676230	0.983270	0.185070
H711	H71	0.653130	0.991770	0.152470
C811	C81	0.713330	0.020470	0.244170
H721	H72	0.713930	0.053270	0.253270
Ag101	Ag10	0.398340	0.936470	0.256760
C821	C82	0.297500	0.885400	0.391700
N371	N37	0.208640	0.796520	0.123300
N381	N38	0.345170	0.930250	0.377900
C831	C83	0.272250	0.834430	0.244100
N391	N39	0.309110	0.871600	0.188000
C841	C84	0.222300	0.798140	0.212700
H731	H73	0.196800	0.773500	0.254600
C851	C85	0.287500	0.835700	0.342700
H741	H74	0.258600	0.804400	0.374600
H751	H75	0.320100	0.832800	0.345900
N401	N40	0.268780	0.930400	0.494300
C861	C86	0.245200	0.833500	0.068500
H761	H76	0.236900	0.833500	0.005400
C871	C87	0.259700	0.886300	0.449300
H771	H77	0.226400	0.854600	0.457100
C881	C88	0.294200	0.871300	0.099400
H781	H78	0.318300	0.898000	0.058300
C891	C89	0.316600	0.973700	0.481600
H791	H79	0.325100	0.005300	0.514200
C901	C90	0.353800	0.973800	0.422500
H801	H80	0.386600	0.006000	0.413400
Ag111	Ag11	0.065010	0.269800	0.590090
C911	C91	0.964170	0.218730	0.725030
N411	N41	0.875310	0.129850	0.456630
N421	N42	0.011840	0.263580	0.711230
C921	C92	0.938920	0.167760	0.577430
N431	N43	0.975780	0.204930	0.521330
C931	C93	0.888970	0.131470	0.546030
H811	H81	0.863470	0.106830	0.587930
C941	C94	0.954170	0.169030	0.676030
H821	H82	0.925270	0.137730	0.707930
H831	H83	0.986770	0.166130	0.679230
N441	N44	0.935450	0.263730	0.827630
C951	C95	0.911870	0.166830	0.401830
H841	H84	0.903570	0.166830	0.338730
C961	C96	0.926370	0.219630	0.782630
H851	H85	0.893070	0.187930	0.790430
C971	C97	0.960870	0.204630	0.432730
H861	H86	0.984970	0.231330	0.391630
C981	C98	0.983270	0.307030	0.814930
H871	H87	0.991770	0.338630	0.847530
C991	C99	0.020470	0.307130	0.755830
H881	H88	0.053270	0.339330	0.746730
Ag121	Ag12	0.731670	0.603140	0.923430
C1001	C100	0.630830	0.552070	0.058370
N451	N45	0.541970	0.463190	0.789970
N461	N46	0.678500	0.596920	0.044570
C1011	C101	0.605580	0.501100	0.910770
N471	N47	0.642440	0.538270	0.854670
C1021	C102	0.555630	0.464810	0.879370
H891	H89	0.530130	0.440170	0.921270
C1031	C103	0.620830	0.502370	0.009370
H901	H90	0.591930	0.471070	0.041270
H911	H91	0.653430	0.499470	0.012570
N481	N48	0.602110	0.597070	0.160970
C1041	C104	0.578530	0.500170	0.735170
H921	H92	0.570230	0.500170	0.672070
C1051	C105	0.593030	0.552970	0.115970
H931	H93	0.559730	0.521270	0.123770
C1061	C106	0.627530	0.537970	0.766070
H941	H94	0.651630	0.564670	0.724970
C1071	C107	0.649930	0.640370	0.148270
H951	H95	0.658430	0.671970	0.180870
C1081	C108	0.687130	0.640470	0.089170
H961	H96	0.719930	0.672670	0.080070
Ag131	Ag13	0.063530	0.461870	0.256760
C1091	C109	0.114600	0.412100	0.391700
N491	N49	0.203480	0.412120	0.123300
N501	N50	0.069750	0.414920	0.377900
C1101	C110	0.165570	0.437820	0.244100
N511	N51	0.128400	0.437510	0.188000
C1111	C111	0.201860	0.424160	0.212700
H971	H97	0.226500	0.423300	0.254600
C1121	C112	0.164300	0.451800	0.342700
H981	H98	0.195600	0.454200	0.374600
H991	H99	0.167200	0.487300	0.345900
N521	N52	0.069600	0.338380	0.494300
C1131	C113	0.166500	0.411700	0.068500
H1001	H100	0.166500	0.403400	0.005400
C1141	C114	0.113700	0.373400	0.449300
H1011	H101	0.145400	0.371800	0.457100
C1151	C115	0.128700	0.422900	0.099400
H1021	H102	0.102000	0.420300	0.058300
C1161	C116	0.026300	0.342900	0.481600
H1031	H103	0.994700	0.319800	0.514200
C1171	C117	0.026200	0.380000	0.422500
H1041	H104	0.994000	0.380600	0.413400
Ag141	Ag14	0.730200	0.795200	0.590090
C1181	C118	0.781270	0.745430	0.725030
N531	N53	0.870150	0.745450	0.456630
N541	N54	0.736420	0.748250	0.711230
C1191	C119	0.832240	0.771150	0.577430
N551	N55	0.795070	0.770840	0.521330
C1201	C120	0.868530	0.757490	0.546030
H1051	H105	0.893170	0.756630	0.587930
C1211	C121	0.830970	0.785130	0.676030
H1061	H106	0.862270	0.787530	0.707930
H1071	H107	0.833870	0.820630	0.679230
N561	N56	0.736270	0.671710	0.827630
C1221	C122	0.833170	0.745030	0.401830
H1081	H108	0.833170	0.736730	0.338730
C1231	C123	0.780370	0.706730	0.782630
H1091	H109	0.812070	0.705130	0.790430
C1241	C124	0.795370	0.756230	0.432730
H1101	H110	0.768670	0.753630	0.391630
C1251	C125	0.692970	0.676230	0.814930
H1111	H111	0.661370	0.653130	0.847530
C1261	C126	0.692870	0.713330	0.755830
H1121	H112	0.660670	0.713930	0.746730
Ag151	Ag15	0.396860	0.128540	0.923430
C1271	C127	0.447930	0.078770	0.058370
N571	N57	0.536810	0.078790	0.789970
N581	N58	0.403080	0.081590	0.044570
C1281	C128	0.498900	0.104490	0.910770
N591	N59	0.461730	0.104180	0.854670
C1291	C129	0.535190	0.090830	0.879370
H1131	H113	0.559830	0.089970	0.921270
C1301	C130	0.497630	0.118470	0.009370
H1141	H114	0.528930	0.120870	0.041270
H1151	H115	0.500530	0.153970	0.012570
N601	N60	0.402930	0.005050	0.160970
C1311	C131	0.499830	0.078370	0.735170
H1161	H116	0.499830	0.070070	0.672070
C1321	C132	0.447030	0.040070	0.115970
H1171	H117	0.478730	0.038470	0.123770
C1331	C133	0.462030	0.089570	0.766070
H1181	H118	0.435330	0.086970	0.724970
C1341	C134	0.359630	0.009570	0.148270
H1191	H119	0.328030	0.986470	0.180870
C1351	C135	0.359530	0.046670	0.089170
H1201	H120	0.327330	0.047270	0.080070
Ag161	Ag16	0.538130	0.601660	0.256760
C1361	C136	0.587900	0.702500	0.391700
N611	N61	0.587880	0.791360	0.123300
N621	N62	0.585080	0.654830	0.377900
C1371	C137	0.562180	0.727750	0.244100
N631	N63	0.562490	0.690890	0.188000
C1381	C138	0.575840	0.777700	0.212700
H1211	H121	0.576700	0.803200	0.254600
C1391	C139	0.548200	0.712500	0.342700
H1221	H122	0.545800	0.741400	0.374600
H1231	H123	0.512700	0.679900	0.345900
N641	N64	0.661620	0.731220	0.494300
C1401	C140	0.588300	0.754800	0.068500
H1241	H124	0.596600	0.763100	0.005400
C1411	C141	0.626600	0.740300	0.449300
H1251	H125	0.628200	0.773600	0.457100
C1421	C142	0.577100	0.705800	0.099400
H1261	H126	0.579700	0.681700	0.058300
C1431	C143	0.657100	0.683400	0.481600
H1271	H127	0.680200	0.674900	0.514200
C1441	C144	0.620000	0.646200	0.422500
H1281	H128	0.619400	0.613400	0.413400
Ag171	Ag17	0.204800	0.934990	0.590090
C1451	C145	0.254570	0.035830	0.725030
N651	N65	0.254550	0.124690	0.456630
N661	N66	0.251750	0.988160	0.711230
C1461	C146	0.228850	0.061080	0.577430
N671	N67	0.229160	0.024220	0.521330
C1471	C147	0.242510	0.111030	0.546030
H1291	H129	0.243370	0.136530	0.587930
C1481	C148	0.214870	0.045830	0.676030
H1301	H130	0.212470	0.074730	0.707930
H1311	H131	0.179370	0.013230	0.679230
N681	N68	0.328290	0.064550	0.827630
C1491	C149	0.254970	0.088130	0.401830
H1321	H132	0.263270	0.096430	0.338730
C1501	C150	0.293270	0.073630	0.782630
H1331	H133	0.294870	0.106930	0.790430
C1511	C151	0.243770	0.039130	0.432730
H1341	H134	0.246370	0.015030	0.391630
C1521	C152	0.323770	0.016730	0.814930
H1351	H135	0.346870	0.008230	0.847530
C1531	C153	0.286670	0.979530	0.755830
H1361	H136	0.286070	0.946730	0.746730
Ag181	Ag18	0.871460	0.268330	0.923430
C1541	C154	0.921230	0.369170	0.058370
N691	N69	0.921210	0.458030	0.789970
N701	N70	0.918410	0.321500	0.044570
C1551	C155	0.895510	0.394420	0.910770
N711	N71	0.895820	0.357560	0.854670
C1561	C156	0.909170	0.444370	0.879370
H1371	H137	0.910030	0.469870	0.921270
C1571	C157	0.881530	0.379170	0.009370
H1381	H138	0.879130	0.408070	0.041270
H1391	H139	0.846030	0.346570	0.012570
N721	N72	0.994950	0.397890	0.160970
C1581	C158	0.921630	0.421470	0.735170
H1401	H140	0.929930	0.429770	0.672070
C1591	C159	0.959930	0.406970	0.115970
H1411	H141	0.961530	0.440270	0.123770
C1601	C160	0.910430	0.372470	0.766070
H1421	H142	0.913030	0.348370	0.724970
C1611	C161	0.990430	0.350070	0.148270
H1431	H143	0.013530	0.341570	0.180870
C1621	C162	0.953330	0.312870	0.089170
H1441	H144	0.952730	0.280070	0.080070
