data_HUFKUQ_freeONLY_PM
_symmetry_space_group_name_H-M	'P1'
_cell_length_a	26.682000
_cell_length_b	39.630000
_cell_length_c	17.096700
_cell_angle_alpha	90.000000
_cell_angle_beta	100.950000
_cell_angle_gamma	90.000000
_symmetry_Int_Tables_number 1

loop_
_symmetry_equiv_pos_as_xyz
'x,y,z'

loop_
_atom_site_label
_atom_site_type_symbol
_atom_site_fract_x
_atom_site_fract_y
_atom_site_fract_z
Cd11	Cd1	0.192920	0.168790	0.504220
N11	N1	0.168100	0.114140	0.505300
N21	N2	0.156500	0.060660	0.472700
N31	N3	0.057000	0.215400	0.594400
C11	C1	0.438000	0.188200	0.078500
C21	C2	0.469800	0.162700	0.043900
H11	H1	0.491200	0.150000	0.086200
H21	H2	0.448000	0.146900	0.009800
C31	C3	0.471900	0.216500	0.124200
H31	H3	0.489900	0.228600	0.088600
H41	H4	0.451100	0.232500	0.146900
C41	C4	0.407400	0.170640	0.134700
H51	H5	0.383400	0.154600	0.105500
H61	H6	0.430100	0.158700	0.176700
C51	C5	0.402300	0.206500	0.010700
H71	H7	0.383300	0.224000	0.031900
H81	H8	0.421700	0.216700	0.974400
C61	C6	0.540000	0.220100	0.236100
C71	C7	0.543200	0.255500	0.227000
H91	H9	0.523000	0.266400	0.184100
C81	C8	0.576300	0.273400	0.282200
H101	H10	0.578300	0.296600	0.275500
C91	C9	0.606900	0.258900	0.347000
C101	C10	0.603500	0.224000	0.356100
H111	H11	0.623300	0.213700	0.400300
C111	C11	0.570900	0.204100	0.299900
H121	H12	0.570000	0.180800	0.305500
C121	C12	0.641200	0.279200	0.407100
C131	C13	0.354700	0.188700	0.226500
C141	C14	0.338400	0.216400	0.265200
H131	H13	0.345600	0.238200	0.250800
C151	C15	0.311800	0.210700	0.324700
H141	H14	0.301300	0.229100	0.351400
C161	C16	0.299700	0.178340	0.346800
C171	C17	0.315800	0.152200	0.306900
H151	H15	0.307400	0.130500	0.320400
C181	C18	0.343800	0.156000	0.247700
H161	H16	0.355000	0.137300	0.222800
C191	C19	0.269100	0.173100	0.411000
C201	C20	0.342500	0.188400	0.894600
C211	C21	0.339000	0.219300	0.859600
H171	H17	0.354800	0.237800	0.887500
C221	C22	0.311900	0.223300	0.781800
H181	H18	0.310200	0.244500	0.757900
C231	C23	0.287500	0.196300	0.739900
C241	C24	0.292300	0.164600	0.775600
H191	H19	0.279300	0.145600	0.746900
C251	C25	0.316600	0.161700	0.854000
H201	H20	0.315500	0.141200	0.880100
C261	C26	0.259000	0.200100	0.655100
C271	C27	0.177300	0.090900	0.457000
H211	H21	0.195800	0.094200	0.416700
C281	C28	0.142200	0.099800	0.560000
H221	H22	0.133100	0.110700	0.603400
C291	C29	0.132100	0.066000	0.538500
H231	H23	0.113400	0.050500	0.562200
C301	C30	0.159300	0.030000	0.432600
C311	C31	0.159400	0.030700	0.351300
H241	H24	0.159600	0.051300	0.325000
C321	C32	0.153500	0.024700	0.182000
C331	C33	0.101900	0.205900	0.580400
H251	H25	0.125900	0.223000	0.582200
C341	C34	0.042400	0.247500	0.616100
H261	H26	0.007900	0.251300	0.589000
H271	H27	0.043600	0.247100	0.672600
C351	C35	0.020200	0.181700	0.609000
H281	H28	0.034200	0.161200	0.591700
H291	H29	0.019200	0.180200	0.664400
H301	H30	0.986300	0.184900	0.578800
O11	O1	0.507510	0.199920	0.186400
O21	O2	0.380900	0.196780	0.167200
O31	O3	0.368200	0.181330	0.970200
O41	O4	0.643000	0.310580	0.394100
O51	O5	0.665810	0.265630	0.469300
O61	O6	0.262300	0.197070	0.455600
O71	O7	0.249100	0.144590	0.416900
O81	O8	0.259100	0.228140	0.623200
O91	O9	0.238500	0.173750	0.624200
O101	O10	0.117200	0.175900	0.564300
N41	N4	0.158400	0.015700	0.104900
Cd21	Cd2	0.692920	0.668790	0.504220
N51	N5	0.668100	0.614140	0.505300
N61	N6	0.656500	0.560660	0.472700
N71	N7	0.557000	0.715400	0.594400
C361	C36	0.938000	0.688200	0.078500
C371	C37	0.969800	0.662700	0.043900
H311	H31	0.991200	0.650000	0.086200
H321	H32	0.948000	0.646900	0.009800
C381	C38	0.971900	0.716500	0.124200
H331	H33	0.989900	0.728600	0.088600
H341	H34	0.951100	0.732500	0.146900
C391	C39	0.907400	0.670640	0.134700
H351	H35	0.883400	0.654600	0.105500
H361	H36	0.930100	0.658700	0.176700
C401	C40	0.902300	0.706500	0.010700
H371	H37	0.883300	0.724000	0.031900
H381	H38	0.921700	0.716700	0.974400
C411	C41	0.040000	0.720100	0.236100
C421	C42	0.043200	0.755500	0.227000
H391	H39	0.023000	0.766400	0.184100
C431	C43	0.076300	0.773400	0.282200
H401	H40	0.078300	0.796600	0.275500
C441	C44	0.106900	0.758900	0.347000
C451	C45	0.103500	0.724000	0.356100
H411	H41	0.123300	0.713700	0.400300
C461	C46	0.070900	0.704100	0.299900
H421	H42	0.070000	0.680800	0.305500
C471	C47	0.141200	0.779200	0.407100
C481	C48	0.854700	0.688700	0.226500
C491	C49	0.838400	0.716400	0.265200
H431	H43	0.845600	0.738200	0.250800
C501	C50	0.811800	0.710700	0.324700
H441	H44	0.801300	0.729100	0.351400
C511	C51	0.799700	0.678340	0.346800
C521	C52	0.815800	0.652200	0.306900
H451	H45	0.807400	0.630500	0.320400
C531	C53	0.843800	0.656000	0.247700
H461	H46	0.855000	0.637300	0.222800
C541	C54	0.769100	0.673100	0.411000
C551	C55	0.842500	0.688400	0.894600
C561	C56	0.839000	0.719300	0.859600
H471	H47	0.854800	0.737800	0.887500
C571	C57	0.811900	0.723300	0.781800
H481	H48	0.810200	0.744500	0.757900
C581	C58	0.787500	0.696300	0.739900
C591	C59	0.792300	0.664600	0.775600
H491	H49	0.779300	0.645600	0.746900
C601	C60	0.816600	0.661700	0.854000
H501	H50	0.815500	0.641200	0.880100
C611	C61	0.759000	0.700100	0.655100
C621	C62	0.677300	0.590900	0.457000
H511	H51	0.695800	0.594200	0.416700
C631	C63	0.642200	0.599800	0.560000
H521	H52	0.633100	0.610700	0.603400
C641	C64	0.632100	0.566000	0.538500
H531	H53	0.613400	0.550500	0.562200
C651	C65	0.659300	0.530000	0.432600
C661	C66	0.659400	0.530700	0.351300
H541	H54	0.659600	0.551300	0.325000
C671	C67	0.653500	0.524700	0.182000
C681	C68	0.601900	0.705900	0.580400
H551	H55	0.625900	0.723000	0.582200
C691	C69	0.542400	0.747500	0.616100
H561	H56	0.507900	0.751300	0.589000
H571	H57	0.543600	0.747100	0.672600
C701	C70	0.520200	0.681700	0.609000
H581	H58	0.534200	0.661200	0.591700
H591	H59	0.519200	0.680200	0.664400
H601	H60	0.486300	0.684900	0.578800
O111	O11	0.007510	0.699920	0.186400
O121	O12	0.880900	0.696780	0.167200
O131	O13	0.868200	0.681330	0.970200
O141	O14	0.143000	0.810580	0.394100
O151	O15	0.165810	0.765630	0.469300
O161	O16	0.762300	0.697070	0.455600
O171	O17	0.749100	0.644590	0.416900
O181	O18	0.759100	0.728140	0.623200
O191	O19	0.738500	0.673750	0.624200
O201	O20	0.617200	0.675900	0.564300
N81	N8	0.658400	0.515700	0.104900
Cd31	Cd3	0.807080	0.168790	0.495780
N91	N9	0.831900	0.114140	0.494700
N101	N10	0.843500	0.060660	0.527300
N111	N11	0.943000	0.215400	0.405600
C711	C71	0.562000	0.188200	0.921500
C721	C72	0.530200	0.162700	0.956100
H611	H61	0.508800	0.150000	0.913800
H621	H62	0.552000	0.146900	0.990200
C731	C73	0.528100	0.216500	0.875800
H631	H63	0.510100	0.228600	0.911400
H641	H64	0.548900	0.232500	0.853100
C741	C74	0.592600	0.170640	0.865300
H651	H65	0.616600	0.154600	0.894500
H661	H66	0.569900	0.158700	0.823300
C751	C75	0.597700	0.206500	0.989300
H671	H67	0.616700	0.224000	0.968100
H681	H68	0.578300	0.216700	0.025600
C761	C76	0.460000	0.220100	0.763900
C771	C77	0.456800	0.255500	0.773000
H691	H69	0.477000	0.266400	0.815900
C781	C78	0.423700	0.273400	0.717800
H701	H70	0.421700	0.296600	0.724500
C791	C79	0.393100	0.258900	0.653000
C801	C80	0.396500	0.224000	0.643900
H711	H71	0.376700	0.213700	0.599700
C811	C81	0.429100	0.204100	0.700100
H721	H72	0.430000	0.180800	0.694500
C821	C82	0.358800	0.279200	0.592900
C831	C83	0.645300	0.188700	0.773500
C841	C84	0.661600	0.216400	0.734800
H731	H73	0.654400	0.238200	0.749200
C851	C85	0.688200	0.210700	0.675300
H741	H74	0.698700	0.229100	0.648600
C861	C86	0.700300	0.178340	0.653200
C871	C87	0.684200	0.152200	0.693100
H751	H75	0.692600	0.130500	0.679600
C881	C88	0.656200	0.156000	0.752300
H761	H76	0.645000	0.137300	0.777200
C891	C89	0.730900	0.173100	0.589000
C901	C90	0.657500	0.188400	0.105400
C911	C91	0.661000	0.219300	0.140400
H771	H77	0.645200	0.237800	0.112500
C921	C92	0.688100	0.223300	0.218200
H781	H78	0.689800	0.244500	0.242100
C931	C93	0.712500	0.196300	0.260100
C941	C94	0.707700	0.164600	0.224400
H791	H79	0.720700	0.145600	0.253100
C951	C95	0.683400	0.161700	0.146000
H801	H80	0.684500	0.141200	0.119900
C961	C96	0.741000	0.200100	0.344900
C971	C97	0.822700	0.090900	0.543000
H811	H81	0.804200	0.094200	0.583300
C981	C98	0.857800	0.099800	0.440000
H821	H82	0.866900	0.110700	0.396600
C991	C99	0.867900	0.066000	0.461500
H831	H83	0.886600	0.050500	0.437800
C1001	C100	0.840700	0.030000	0.567400
C1011	C101	0.840600	0.030700	0.648700
H841	H84	0.840400	0.051300	0.675000
C1021	C102	0.846500	0.024700	0.818000
C1031	C103	0.898100	0.205900	0.419600
H851	H85	0.874100	0.223000	0.417800
C1041	C104	0.957600	0.247500	0.383900
H861	H86	0.992100	0.251300	0.411000
H871	H87	0.956400	0.247100	0.327400
C1051	C105	0.979800	0.181700	0.391000
H881	H88	0.965800	0.161200	0.408300
H891	H89	0.980800	0.180200	0.335600
H901	H90	0.013700	0.184900	0.421200
O211	O21	0.492490	0.199920	0.813600
O221	O22	0.619100	0.196780	0.832800
O231	O23	0.631800	0.181330	0.029800
O241	O24	0.357000	0.310580	0.605900
O251	O25	0.334190	0.265630	0.530700
O261	O26	0.737700	0.197070	0.544400
O271	O27	0.750900	0.144590	0.583100
O281	O28	0.740900	0.228140	0.376800
O291	O29	0.761500	0.173750	0.375800
O301	O30	0.882800	0.175900	0.435700
N121	N12	0.841600	0.015700	0.895100
Cd41	Cd4	0.307080	0.668790	0.495780
N131	N13	0.331900	0.614140	0.494700
N141	N14	0.343500	0.560660	0.527300
N151	N15	0.443000	0.715400	0.405600
C1061	C106	0.062000	0.688200	0.921500
C1071	C107	0.030200	0.662700	0.956100
H911	H91	0.008800	0.650000	0.913800
H921	H92	0.052000	0.646900	0.990200
C1081	C108	0.028100	0.716500	0.875800
H931	H93	0.010100	0.728600	0.911400
H941	H94	0.048900	0.732500	0.853100
C1091	C109	0.092600	0.670640	0.865300
H951	H95	0.116600	0.654600	0.894500
H961	H96	0.069900	0.658700	0.823300
C1101	C110	0.097700	0.706500	0.989300
H971	H97	0.116700	0.724000	0.968100
H981	H98	0.078300	0.716700	0.025600
C1111	C111	0.960000	0.720100	0.763900
C1121	C112	0.956800	0.755500	0.773000
H991	H99	0.977000	0.766400	0.815900
C1131	C113	0.923700	0.773400	0.717800
H1001	H100	0.921700	0.796600	0.724500
C1141	C114	0.893100	0.758900	0.653000
C1151	C115	0.896500	0.724000	0.643900
H1011	H101	0.876700	0.713700	0.599700
C1161	C116	0.929100	0.704100	0.700100
H1021	H102	0.930000	0.680800	0.694500
C1171	C117	0.858800	0.779200	0.592900
C1181	C118	0.145300	0.688700	0.773500
C1191	C119	0.161600	0.716400	0.734800
H1031	H103	0.154400	0.738200	0.749200
C1201	C120	0.188200	0.710700	0.675300
H1041	H104	0.198700	0.729100	0.648600
C1211	C121	0.200300	0.678340	0.653200
C1221	C122	0.184200	0.652200	0.693100
H1051	H105	0.192600	0.630500	0.679600
C1231	C123	0.156200	0.656000	0.752300
H1061	H106	0.145000	0.637300	0.777200
C1241	C124	0.230900	0.673100	0.589000
C1251	C125	0.157500	0.688400	0.105400
C1261	C126	0.161000	0.719300	0.140400
H1071	H107	0.145200	0.737800	0.112500
C1271	C127	0.188100	0.723300	0.218200
H1081	H108	0.189800	0.744500	0.242100
C1281	C128	0.212500	0.696300	0.260100
C1291	C129	0.207700	0.664600	0.224400
H1091	H109	0.220700	0.645600	0.253100
C1301	C130	0.183400	0.661700	0.146000
H1101	H110	0.184500	0.641200	0.119900
C1311	C131	0.241000	0.700100	0.344900
C1321	C132	0.322700	0.590900	0.543000
H1111	H111	0.304200	0.594200	0.583300
C1331	C133	0.357800	0.599800	0.440000
H1121	H112	0.366900	0.610700	0.396600
C1341	C134	0.367900	0.566000	0.461500
H1131	H113	0.386600	0.550500	0.437800
C1351	C135	0.340700	0.530000	0.567400
C1361	C136	0.340600	0.530700	0.648700
H1141	H114	0.340400	0.551300	0.675000
C1371	C137	0.346500	0.524700	0.818000
C1381	C138	0.398100	0.705900	0.419600
H1151	H115	0.374100	0.723000	0.417800
C1391	C139	0.457600	0.747500	0.383900
H1161	H116	0.492100	0.751300	0.411000
H1171	H117	0.456400	0.747100	0.327400
C1401	C140	0.479800	0.681700	0.391000
H1181	H118	0.465800	0.661200	0.408300
H1191	H119	0.480800	0.680200	0.335600
H1201	H120	0.513700	0.684900	0.421200
O311	O31	0.992490	0.699920	0.813600
O321	O32	0.119100	0.696780	0.832800
O331	O33	0.131800	0.681330	0.029800
O341	O34	0.857000	0.810580	0.605900
O351	O35	0.834190	0.765630	0.530700
O361	O36	0.237700	0.697070	0.544400
O371	O37	0.250900	0.644590	0.583100
O381	O38	0.240900	0.728140	0.376800
O391	O39	0.261500	0.673750	0.375800
O401	O40	0.382800	0.675900	0.435700
N161	N16	0.341600	0.515700	0.895100
Cd51	Cd5	0.807080	0.831210	0.495780
N171	N17	0.831900	0.885860	0.494700
N181	N18	0.843500	0.939340	0.527300
N191	N19	0.943000	0.784600	0.405600
C1411	C141	0.562000	0.811800	0.921500
C1421	C142	0.530200	0.837300	0.956100
H1211	H121	0.508800	0.850000	0.913800
H1221	H122	0.552000	0.853100	0.990200
C1431	C143	0.528100	0.783500	0.875800
H1231	H123	0.510100	0.771400	0.911400
H1241	H124	0.548900	0.767500	0.853100
C1441	C144	0.592600	0.829360	0.865300
H1251	H125	0.616600	0.845400	0.894500
H1261	H126	0.569900	0.841300	0.823300
C1451	C145	0.597700	0.793500	0.989300
H1271	H127	0.616700	0.776000	0.968100
H1281	H128	0.578300	0.783300	0.025600
C1461	C146	0.460000	0.779900	0.763900
C1471	C147	0.456800	0.744500	0.773000
H1291	H129	0.477000	0.733600	0.815900
C1481	C148	0.423700	0.726600	0.717800
H1301	H130	0.421700	0.703400	0.724500
C1491	C149	0.393100	0.741100	0.653000
C1501	C150	0.396500	0.776000	0.643900
H1311	H131	0.376700	0.786300	0.599700
C1511	C151	0.429100	0.795900	0.700100
H1321	H132	0.430000	0.819200	0.694500
C1521	C152	0.358800	0.720800	0.592900
C1531	C153	0.645300	0.811300	0.773500
C1541	C154	0.661600	0.783600	0.734800
H1331	H133	0.654400	0.761800	0.749200
C1551	C155	0.688200	0.789300	0.675300
H1341	H134	0.698700	0.770900	0.648600
C1561	C156	0.700300	0.821660	0.653200
C1571	C157	0.684200	0.847800	0.693100
H1351	H135	0.692600	0.869500	0.679600
C1581	C158	0.656200	0.844000	0.752300
H1361	H136	0.645000	0.862700	0.777200
C1591	C159	0.730900	0.826900	0.589000
C1601	C160	0.657500	0.811600	0.105400
C1611	C161	0.661000	0.780700	0.140400
H1371	H137	0.645200	0.762200	0.112500
C1621	C162	0.688100	0.776700	0.218200
H1381	H138	0.689800	0.755500	0.242100
C1631	C163	0.712500	0.803700	0.260100
C1641	C164	0.707700	0.835400	0.224400
H1391	H139	0.720700	0.854400	0.253100
C1651	C165	0.683400	0.838300	0.146000
H1401	H140	0.684500	0.858800	0.119900
C1661	C166	0.741000	0.799900	0.344900
C1671	C167	0.822700	0.909100	0.543000
H1411	H141	0.804200	0.905800	0.583300
C1681	C168	0.857800	0.900200	0.440000
H1421	H142	0.866900	0.889300	0.396600
C1691	C169	0.867900	0.934000	0.461500
H1431	H143	0.886600	0.949500	0.437800
C1701	C170	0.840700	0.970000	0.567400
C1711	C171	0.840600	0.969300	0.648700
H1441	H144	0.840400	0.948700	0.675000
C1721	C172	0.846500	0.975300	0.818000
C1731	C173	0.898100	0.794100	0.419600
H1451	H145	0.874100	0.777000	0.417800
C1741	C174	0.957600	0.752500	0.383900
H1461	H146	0.992100	0.748700	0.411000
H1471	H147	0.956400	0.752900	0.327400
C1751	C175	0.979800	0.818300	0.391000
H1481	H148	0.965800	0.838800	0.408300
H1491	H149	0.980800	0.819800	0.335600
H1501	H150	0.013700	0.815100	0.421200
O411	O41	0.492490	0.800080	0.813600
O421	O42	0.619100	0.803220	0.832800
O431	O43	0.631800	0.818670	0.029800
O441	O44	0.357000	0.689420	0.605900
O451	O45	0.334190	0.734370	0.530700
O461	O46	0.737700	0.802930	0.544400
O471	O47	0.750900	0.855410	0.583100
O481	O48	0.740900	0.771860	0.376800
O491	O49	0.761500	0.826250	0.375800
O501	O50	0.882800	0.824100	0.435700
N201	N20	0.841600	0.984300	0.895100
Cd61	Cd6	0.307080	0.331210	0.495780
N211	N21	0.331900	0.385860	0.494700
N221	N22	0.343500	0.439340	0.527300
N231	N23	0.443000	0.284600	0.405600
C1761	C176	0.062000	0.311800	0.921500
C1771	C177	0.030200	0.337300	0.956100
H1511	H151	0.008800	0.350000	0.913800
H1521	H152	0.052000	0.353100	0.990200
C1781	C178	0.028100	0.283500	0.875800
H1531	H153	0.010100	0.271400	0.911400
H1541	H154	0.048900	0.267500	0.853100
C1791	C179	0.092600	0.329360	0.865300
H1551	H155	0.116600	0.345400	0.894500
H1561	H156	0.069900	0.341300	0.823300
C1801	C180	0.097700	0.293500	0.989300
H1571	H157	0.116700	0.276000	0.968100
H1581	H158	0.078300	0.283300	0.025600
C1811	C181	0.960000	0.279900	0.763900
C1821	C182	0.956800	0.244500	0.773000
H1591	H159	0.977000	0.233600	0.815900
C1831	C183	0.923700	0.226600	0.717800
H1601	H160	0.921700	0.203400	0.724500
C1841	C184	0.893100	0.241100	0.653000
C1851	C185	0.896500	0.276000	0.643900
H1611	H161	0.876700	0.286300	0.599700
C1861	C186	0.929100	0.295900	0.700100
H1621	H162	0.930000	0.319200	0.694500
C1871	C187	0.858800	0.220800	0.592900
C1881	C188	0.145300	0.311300	0.773500
C1891	C189	0.161600	0.283600	0.734800
H1631	H163	0.154400	0.261800	0.749200
C1901	C190	0.188200	0.289300	0.675300
H1641	H164	0.198700	0.270900	0.648600
C1911	C191	0.200300	0.321660	0.653200
C1921	C192	0.184200	0.347800	0.693100
H1651	H165	0.192600	0.369500	0.679600
C1931	C193	0.156200	0.344000	0.752300
H1661	H166	0.145000	0.362700	0.777200
C1941	C194	0.230900	0.326900	0.589000
C1951	C195	0.157500	0.311600	0.105400
C1961	C196	0.161000	0.280700	0.140400
H1671	H167	0.145200	0.262200	0.112500
C1971	C197	0.188100	0.276700	0.218200
H1681	H168	0.189800	0.255500	0.242100
C1981	C198	0.212500	0.303700	0.260100
C1991	C199	0.207700	0.335400	0.224400
H1691	H169	0.220700	0.354400	0.253100
C2001	C200	0.183400	0.338300	0.146000
H1701	H170	0.184500	0.358800	0.119900
C2011	C201	0.241000	0.299900	0.344900
C2021	C202	0.322700	0.409100	0.543000
H1711	H171	0.304200	0.405800	0.583300
C2031	C203	0.357800	0.400200	0.440000
H1721	H172	0.366900	0.389300	0.396600
C2041	C204	0.367900	0.434000	0.461500
H1731	H173	0.386600	0.449500	0.437800
C2051	C205	0.340700	0.470000	0.567400
C2061	C206	0.340600	0.469300	0.648700
H1741	H174	0.340400	0.448700	0.675000
C2071	C207	0.346500	0.475300	0.818000
C2081	C208	0.398100	0.294100	0.419600
H1751	H175	0.374100	0.277000	0.417800
C2091	C209	0.457600	0.252500	0.383900
H1761	H176	0.492100	0.248700	0.411000
H1771	H177	0.456400	0.252900	0.327400
C2101	C210	0.479800	0.318300	0.391000
H1781	H178	0.465800	0.338800	0.408300
H1791	H179	0.480800	0.319800	0.335600
H1801	H180	0.513700	0.315100	0.421200
O511	O51	0.992490	0.300080	0.813600
O521	O52	0.119100	0.303220	0.832800
O531	O53	0.131800	0.318670	0.029800
O541	O54	0.857000	0.189420	0.605900
O551	O55	0.834190	0.234370	0.530700
O561	O56	0.237700	0.302930	0.544400
O571	O57	0.250900	0.355410	0.583100
O581	O58	0.240900	0.271860	0.376800
O591	O59	0.261500	0.326250	0.375800
O601	O60	0.382800	0.324100	0.435700
N241	N24	0.341600	0.484300	0.895100
Cd71	Cd7	0.192920	0.831210	0.504220
N251	N25	0.168100	0.885860	0.505300
N261	N26	0.156500	0.939340	0.472700
N271	N27	0.057000	0.784600	0.594400
C2111	C211	0.438000	0.811800	0.078500
C2121	C212	0.469800	0.837300	0.043900
H1811	H181	0.491200	0.850000	0.086200
H1821	H182	0.448000	0.853100	0.009800
C2131	C213	0.471900	0.783500	0.124200
H1831	H183	0.489900	0.771400	0.088600
H1841	H184	0.451100	0.767500	0.146900
C2141	C214	0.407400	0.829360	0.134700
H1851	H185	0.383400	0.845400	0.105500
H1861	H186	0.430100	0.841300	0.176700
C2151	C215	0.402300	0.793500	0.010700
H1871	H187	0.383300	0.776000	0.031900
H1881	H188	0.421700	0.783300	0.974400
C2161	C216	0.540000	0.779900	0.236100
C2171	C217	0.543200	0.744500	0.227000
H1891	H189	0.523000	0.733600	0.184100
C2181	C218	0.576300	0.726600	0.282200
H1901	H190	0.578300	0.703400	0.275500
C2191	C219	0.606900	0.741100	0.347000
C2201	C220	0.603500	0.776000	0.356100
H1911	H191	0.623300	0.786300	0.400300
C2211	C221	0.570900	0.795900	0.299900
H1921	H192	0.570000	0.819200	0.305500
C2221	C222	0.641200	0.720800	0.407100
C2231	C223	0.354700	0.811300	0.226500
C2241	C224	0.338400	0.783600	0.265200
H1931	H193	0.345600	0.761800	0.250800
C2251	C225	0.311800	0.789300	0.324700
H1941	H194	0.301300	0.770900	0.351400
C2261	C226	0.299700	0.821660	0.346800
C2271	C227	0.315800	0.847800	0.306900
H1951	H195	0.307400	0.869500	0.320400
C2281	C228	0.343800	0.844000	0.247700
H1961	H196	0.355000	0.862700	0.222800
C2291	C229	0.269100	0.826900	0.411000
C2301	C230	0.342500	0.811600	0.894600
C2311	C231	0.339000	0.780700	0.859600
H1971	H197	0.354800	0.762200	0.887500
C2321	C232	0.311900	0.776700	0.781800
H1981	H198	0.310200	0.755500	0.757900
C2331	C233	0.287500	0.803700	0.739900
C2341	C234	0.292300	0.835400	0.775600
H1991	H199	0.279300	0.854400	0.746900
C2351	C235	0.316600	0.838300	0.854000
H2001	H200	0.315500	0.858800	0.880100
C2361	C236	0.259000	0.799900	0.655100
C2371	C237	0.177300	0.909100	0.457000
H2011	H201	0.195800	0.905800	0.416700
C2381	C238	0.142200	0.900200	0.560000
H2021	H202	0.133100	0.889300	0.603400
C2391	C239	0.132100	0.934000	0.538500
H2031	H203	0.113400	0.949500	0.562200
C2401	C240	0.159300	0.970000	0.432600
C2411	C241	0.159400	0.969300	0.351300
H2041	H204	0.159600	0.948700	0.325000
C2421	C242	0.153500	0.975300	0.182000
C2431	C243	0.101900	0.794100	0.580400
H2051	H205	0.125900	0.777000	0.582200
C2441	C244	0.042400	0.752500	0.616100
H2061	H206	0.007900	0.748700	0.589000
H2071	H207	0.043600	0.752900	0.672600
C2451	C245	0.020200	0.818300	0.609000
H2081	H208	0.034200	0.838800	0.591700
H2091	H209	0.019200	0.819800	0.664400
H2101	H210	0.986300	0.815100	0.578800
O611	O61	0.507510	0.800080	0.186400
O621	O62	0.380900	0.803220	0.167200
O631	O63	0.368200	0.818670	0.970200
O641	O64	0.643000	0.689420	0.394100
O651	O65	0.665810	0.734370	0.469300
O661	O66	0.262300	0.802930	0.455600
O671	O67	0.249100	0.855410	0.416900
O681	O68	0.259100	0.771860	0.623200
O691	O69	0.238500	0.826250	0.624200
O701	O70	0.117200	0.824100	0.564300
N281	N28	0.158400	0.984300	0.104900
Cd81	Cd8	0.692920	0.331210	0.504220
N291	N29	0.668100	0.385860	0.505300
N301	N30	0.656500	0.439340	0.472700
N311	N31	0.557000	0.284600	0.594400
C2461	C246	0.938000	0.311800	0.078500
C2471	C247	0.969800	0.337300	0.043900
H2111	H211	0.991200	0.350000	0.086200
H2121	H212	0.948000	0.353100	0.009800
C2481	C248	0.971900	0.283500	0.124200
H2131	H213	0.989900	0.271400	0.088600
H2141	H214	0.951100	0.267500	0.146900
C2491	C249	0.907400	0.329360	0.134700
H2151	H215	0.883400	0.345400	0.105500
H2161	H216	0.930100	0.341300	0.176700
C2501	C250	0.902300	0.293500	0.010700
H2171	H217	0.883300	0.276000	0.031900
H2181	H218	0.921700	0.283300	0.974400
C2511	C251	0.040000	0.279900	0.236100
C2521	C252	0.043200	0.244500	0.227000
H2191	H219	0.023000	0.233600	0.184100
C2531	C253	0.076300	0.226600	0.282200
H2201	H220	0.078300	0.203400	0.275500
C2541	C254	0.106900	0.241100	0.347000
C2551	C255	0.103500	0.276000	0.356100
H2211	H221	0.123300	0.286300	0.400300
C2561	C256	0.070900	0.295900	0.299900
H2221	H222	0.070000	0.319200	0.305500
C2571	C257	0.141200	0.220800	0.407100
C2581	C258	0.854700	0.311300	0.226500
C2591	C259	0.838400	0.283600	0.265200
H2231	H223	0.845600	0.261800	0.250800
C2601	C260	0.811800	0.289300	0.324700
H2241	H224	0.801300	0.270900	0.351400
C2611	C261	0.799700	0.321660	0.346800
C2621	C262	0.815800	0.347800	0.306900
H2251	H225	0.807400	0.369500	0.320400
C2631	C263	0.843800	0.344000	0.247700
H2261	H226	0.855000	0.362700	0.222800
C2641	C264	0.769100	0.326900	0.411000
C2651	C265	0.842500	0.311600	0.894600
C2661	C266	0.839000	0.280700	0.859600
H2271	H227	0.854800	0.262200	0.887500
C2671	C267	0.811900	0.276700	0.781800
H2281	H228	0.810200	0.255500	0.757900
C2681	C268	0.787500	0.303700	0.739900
C2691	C269	0.792300	0.335400	0.775600
H2291	H229	0.779300	0.354400	0.746900
C2701	C270	0.816600	0.338300	0.854000
H2301	H230	0.815500	0.358800	0.880100
C2711	C271	0.759000	0.299900	0.655100
C2721	C272	0.677300	0.409100	0.457000
H2311	H231	0.695800	0.405800	0.416700
C2731	C273	0.642200	0.400200	0.560000
H2321	H232	0.633100	0.389300	0.603400
C2741	C274	0.632100	0.434000	0.538500
H2331	H233	0.613400	0.449500	0.562200
C2751	C275	0.659300	0.470000	0.432600
C2761	C276	0.659400	0.469300	0.351300
H2341	H234	0.659600	0.448700	0.325000
C2771	C277	0.653500	0.475300	0.182000
C2781	C278	0.601900	0.294100	0.580400
H2351	H235	0.625900	0.277000	0.582200
C2791	C279	0.542400	0.252500	0.616100
H2361	H236	0.507900	0.248700	0.589000
H2371	H237	0.543600	0.252900	0.672600
C2801	C280	0.520200	0.318300	0.609000
H2381	H238	0.534200	0.338800	0.591700
H2391	H239	0.519200	0.319800	0.664400
H2401	H240	0.486300	0.315100	0.578800
O711	O71	0.007510	0.300080	0.186400
O721	O72	0.880900	0.303220	0.167200
O731	O73	0.868200	0.318670	0.970200
O741	O74	0.143000	0.189420	0.394100
O751	O75	0.165810	0.234370	0.469300
O761	O76	0.762300	0.302930	0.455600
O771	O77	0.749100	0.355410	0.416900
O781	O78	0.759100	0.271860	0.623200
O791	O79	0.738500	0.326250	0.624200
O801	O80	0.617200	0.324100	0.564300
N321	N32	0.658400	0.484300	0.104900
Cd91	Cd9	0.250000	0.250000	0.500000
Cd101	Cd10	0.750000	0.250000	0.500000
Cd111	Cd11	0.750000	0.750000	0.500000
Cd121	Cd12	0.250000	0.750000	0.500000
N331	N33	0.157300	0.000000	0.227600
C2811	C281	0.159200	0.000000	0.308600
C2821	C282	0.156400	0.000000	0.473700
H2411	H241	0.152700	0.000000	0.526700
N341	N34	0.657300	0.500000	0.227600
C2831	C283	0.659200	0.500000	0.308600
C2841	C284	0.656400	0.500000	0.473700
H2421	H242	0.652700	0.500000	0.526700
N351	N35	0.842700	0.000000	0.772400
C2851	C285	0.840800	0.000000	0.691400
C2861	C286	0.843600	0.000000	0.526300
H2431	H243	0.847300	0.000000	0.473300
N361	N36	0.342700	0.500000	0.772400
C2871	C287	0.340800	0.500000	0.691400
C2881	C288	0.343600	0.500000	0.526300
H2441	H244	0.347300	0.500000	0.473300
O811	O81	0.500000	0.180600	0.000000
O821	O82	0.000000	0.680600	0.000000
O831	O83	0.500000	0.819400	0.000000
O841	O84	0.000000	0.319400	0.000000
