data_HUFLUR_freeONLY_PM
_symmetry_space_group_name_H-M	'P1'
_cell_length_a	14.238400
_cell_length_b	16.386200
_cell_length_c	6.845000
_cell_angle_alpha	90.000000
_cell_angle_beta	90.000000
_cell_angle_gamma	90.000000
_symmetry_Int_Tables_number 1

loop_
_symmetry_equiv_pos_as_xyz
'x,y,z'

loop_
_atom_site_label
_atom_site_type_symbol
_atom_site_fract_x
_atom_site_fract_y
_atom_site_fract_z
C11	C1	0.420890	0.907230	0.110400
C21	C2	0.359090	0.831140	0.105800
C31	C3	0.267700	0.831880	0.177100
C41	C4	0.212200	0.762070	0.174600
C51	C5	0.245310	0.688410	0.102000
C61	C6	0.184690	0.611640	0.101500
C71	C7	0.337330	0.687610	0.033000
C81	C8	0.392500	0.757430	0.032400
Ca11	Ca1	0.431290	0.969480	0.612800
F11	F1	0.231140	0.901320	0.249600
F21	F2	0.123940	0.767370	0.244300
F31	F3	0.375510	0.617110	0.969200
F41	F4	0.480970	0.752640	0.962600
N11	N1	0.271310	0.848880	0.660200
O11	O1	0.450020	0.934870	0.950600
O21	O2	0.562320	0.875170	0.609000
H11	H1	0.596000	0.880400	0.497700
H21	H2	0.601500	0.884400	0.710500
O31	O3	0.441350	0.936560	0.272600
O41	O4	0.153380	0.587760	0.262600
O51	O5	0.170470	0.577060	0.941500
O61	O6	0.251710	0.920790	0.704500
O71	O7	0.215130	0.792100	0.667900
O81	O8	0.356050	0.835500	0.602300
C91	C9	0.579110	0.092770	0.610400
C101	C10	0.640910	0.168860	0.605800
C111	C11	0.732300	0.168120	0.677100
C121	C12	0.787800	0.237930	0.674600
C131	C13	0.754690	0.311590	0.602000
C141	C14	0.815310	0.388360	0.601500
C151	C15	0.662670	0.312390	0.533000
C161	C16	0.607500	0.242570	0.532400
Ca21	Ca2	0.568710	0.030520	0.112800
F51	F5	0.768860	0.098680	0.749600
F61	F6	0.876060	0.232630	0.744300
F71	F7	0.624490	0.382890	0.469200
F81	F8	0.519030	0.247360	0.462600
N21	N2	0.728690	0.151120	0.160200
O91	O9	0.549980	0.065130	0.450600
O101	O10	0.437680	0.124830	0.109000
H31	H3	0.404000	0.119600	0.997700
H41	H4	0.398500	0.115600	0.210500
O111	O11	0.558650	0.063440	0.772600
O121	O12	0.846620	0.412240	0.762600
O131	O13	0.829530	0.422940	0.441500
O141	O14	0.748290	0.079210	0.204500
O151	O15	0.784870	0.207900	0.167900
O161	O16	0.643950	0.164500	0.102300
C171	C17	0.920890	0.592770	0.110400
C181	C18	0.859090	0.668860	0.105800
C191	C19	0.767700	0.668120	0.177100
C201	C20	0.712200	0.737930	0.174600
C211	C21	0.745310	0.811590	0.102000
C221	C22	0.684690	0.888360	0.101500
C231	C23	0.837330	0.812390	0.033000
C241	C24	0.892500	0.742570	0.032400
Ca31	Ca3	0.931290	0.530520	0.612800
F91	F9	0.731140	0.598680	0.249600
F101	F10	0.623940	0.732630	0.244300
F111	F11	0.875510	0.882890	0.969200
F121	F12	0.980970	0.747360	0.962600
N31	N3	0.771310	0.651120	0.660200
O171	O17	0.950020	0.565130	0.950600
O181	O18	0.062320	0.624830	0.609000
H51	H5	0.096000	0.619600	0.497700
H61	H6	0.101500	0.615600	0.710500
O191	O19	0.941350	0.563440	0.272600
O201	O20	0.653380	0.912240	0.262600
O211	O21	0.670470	0.922940	0.941500
O221	O22	0.751710	0.579210	0.704500
O231	O23	0.715130	0.707900	0.667900
O241	O24	0.856050	0.664500	0.602300
C251	C25	0.079110	0.407230	0.610400
C261	C26	0.140910	0.331140	0.605800
C271	C27	0.232300	0.331880	0.677100
C281	C28	0.287800	0.262070	0.674600
C291	C29	0.254690	0.188410	0.602000
C301	C30	0.315310	0.111640	0.601500
C311	C31	0.162670	0.187610	0.533000
C321	C32	0.107500	0.257430	0.532400
Ca41	Ca4	0.068710	0.469480	0.112800
F131	F13	0.268860	0.401320	0.749600
F141	F14	0.376060	0.267370	0.744300
F151	F15	0.124490	0.117110	0.469200
F161	F16	0.019030	0.252640	0.462600
N41	N4	0.228690	0.348880	0.160200
O251	O25	0.049980	0.434870	0.450600
O261	O26	0.937680	0.375170	0.109000
H71	H7	0.904000	0.380400	0.997700
H81	H8	0.898500	0.384400	0.210500
O271	O27	0.058650	0.436560	0.772600
O281	O28	0.346620	0.087760	0.762600
O291	O29	0.329530	0.077060	0.441500
O301	O30	0.248290	0.420790	0.204500
O311	O31	0.284870	0.292100	0.167900
O321	O32	0.143950	0.335500	0.102300
