data_HUJSEL_freeONLY_PM
_symmetry_space_group_name_H-M	'P1'
_cell_length_a	20.019200
_cell_length_b	20.249700
_cell_length_c	20.321600
_cell_angle_alpha	119.179000
_cell_angle_beta	100.968000
_cell_angle_gamma	101.341000
_symmetry_Int_Tables_number 1

loop_
_symmetry_equiv_pos_as_xyz
'x,y,z'

loop_
_atom_site_label
_atom_site_type_symbol
_atom_site_fract_x
_atom_site_fract_y
_atom_site_fract_z
Er11	Er1	0.178130	0.092340	0.255930
Er21	Er2	0.024590	0.732810	0.884170
Er31	Er3	0.805990	0.915140	0.085550
Cu11	Cu1	0.890480	0.089280	0.094910
Cu21	Cu2	0.990630	0.007200	0.168580
Cu31	Cu3	0.098120	0.914340	0.071640
Cu41	Cu4	0.181170	0.084840	0.083620
Cu51	Cu5	0.918430	0.831400	0.987370
Cu61	Cu6	0.073120	0.175240	0.180930
Cu71	Cu7	0.699840	0.745600	0.073330
Cu81	Cu8	0.873200	0.381010	0.213080
Cu91	Cu9	0.771230	0.911230	0.247600
Cu101	Cu10	0.044930	0.462450	0.292680
Cu111	Cu11	0.364690	0.184300	0.365620
Cu121	Cu12	0.293070	0.030070	0.351410
Cu131	Cu13	0.156180	0.770310	0.502810
Cu141	Cu14	0.594800	0.303020	0.063390
Na11	Na1	0.152600	0.503700	0.880200
Cl11	Cl1	0.330700	0.510100	0.923500
N11	N1	0.442300	0.227500	0.336400
H11	H1	0.464000	0.280500	0.373000
H21	H2	0.475600	0.203400	0.335900
N21	N2	0.295200	0.920000	0.312300
H31	H3	0.341000	0.920200	0.317800
H41	H4	0.278700	0.902700	0.341300
N31	N3	0.529100	0.254600	0.596700
H51	H5	0.559400	0.270500	0.643900
H61	H6	0.509500	0.292100	0.602400
H71	H7	0.553000	0.247000	0.562400
N41	N4	0.402900	0.505300	0.480200
H81	H8	0.402500	0.551300	0.521200
H91	H9	0.389600	0.505600	0.435500
N51	N5	0.206900	0.652400	0.754400
H101	H10	0.246000	0.644000	0.774800
H111	H11	0.194100	0.622700	0.700800
N61	N6	0.123100	0.501100	0.392200
H121	H12	0.108600	0.526700	0.434500
H131	H13	0.162400	0.536300	0.397700
N71	N7	0.076500	0.775900	0.433500
H141	H14	0.094700	0.802000	0.412100
H151	H15	0.051600	0.803300	0.462700
N81	N8	0.225300	0.759500	0.574700
H161	H16	0.260100	0.746000	0.554100
H171	H17	0.202800	0.719800	0.579700
N91	N9	0.702000	0.635800	0.010100
H181	H18	0.697200	0.612000	0.037300
H191	H19	0.664600	0.607000	0.963900
N101	N10	0.839600	0.962800	0.356500
H201	H20	0.829400	0.005300	0.391000
H211	H21	0.835400	0.927800	0.371700
N111	N11	0.575600	0.372400	0.162200
H221	H22	0.600300	0.424300	0.182900
H231	H23	0.590700	0.360700	0.198600
N121	N12	0.493000	0.568600	0.106700
H241	H24	0.446700	0.566000	0.101800
H251	H25	0.506900	0.550400	0.137700
N131	N13	0.615600	0.242200	0.963200
H261	H26	0.588800	0.245400	0.924600
H271	H27	0.604200	0.190100	0.946800
C11	C1	0.333300	0.165800	0.216900
C21	C2	0.412800	0.213800	0.257800
H281	H28	0.439000	0.185800	0.224100
H291	H29	0.420800	0.265300	0.263400
C31	C3	0.207900	0.904700	0.197100
C41	C4	0.249900	0.865900	0.227800
H301	H30	0.216400	0.819600	0.221000
H311	H31	0.280500	0.846900	0.196000
C51	C5	0.419100	0.150800	0.485600
C61	C6	0.471400	0.178800	0.566100
H321	H32	0.445600	0.186800	0.603800
H331	H33	0.492600	0.138000	0.560500
C71	C7	0.383900	0.370000	0.452800
C81	C8	0.351600	0.437200	0.471200
H341	H34	0.307100	0.417400	0.428100
H351	H35	0.340200	0.453900	0.520100
C91	C9	0.171500	0.773600	0.818700
C101	C10	0.224700	0.737500	0.783000
H361	H36	0.224100	0.742000	0.738000
H371	H37	0.272400	0.768000	0.821700
C111	C11	0.103900	0.356300	0.309600
C121	C12	0.141300	0.435300	0.390700
H381	H38	0.193200	0.447800	0.403900
H391	H39	0.127700	0.429100	0.431200
C131	C13	0.059100	0.631900	0.371100
C141	C14	0.028500	0.694300	0.369700
H401	H40	0.981400	0.685600	0.376300
H411	H41	0.022100	0.688300	0.318300
C151	C15	0.236100	0.902100	0.652000
C161	C16	0.258100	0.834600	0.653700
H421	H42	0.242600	0.827000	0.692700
H431	H43	0.310300	0.849300	0.669700
C171	C17	0.807800	0.716500	0.005800
C181	C18	0.769200	0.637100	0.993400
H441	H44	0.759200	0.594100	0.938500
H451	H45	0.800300	0.627400	0.028000
C191	C19	0.916800	0.982400	0.281200
C201	C20	0.913700	0.989400	0.357500
H461	H46	0.939700	0.957400	0.366800
H471	H47	0.938000	0.044900	0.401600
C211	C21	0.456700	0.298400	0.057700
C221	C22	0.498600	0.360300	0.144900
H481	H48	0.480800	0.342900	0.177000
H491	H49	0.491100	0.410800	0.159300
C231	C23	0.577900	0.659500	0.091800
C241	C24	0.538200	0.651300	0.144200
H501	H50	0.572700	0.669000	0.195000
H511	H51	0.508500	0.685300	0.154500
C251	C25	0.734300	0.320900	0.064800
C261	C26	0.692800	0.276200	0.977600
H521	H52	0.710700	0.233300	0.947900
H531	H53	0.699300	0.312200	0.959100
O11	O1	0.012400	0.817300	0.014500
H541	H54	0.011700	0.790000	0.043200
O21	O2	0.921000	0.897800	0.097500
H551	H55	0.925700	0.868200	0.123500
O31	O3	0.074900	0.971600	0.169900
H561	H56	0.072200	0.939700	0.193900
O41	O4	0.063200	0.115400	0.233500
H571	H57	0.055600	0.147500	0.284400
O51	O5	0.977000	0.184600	0.168400
H581	H58	0.971700	0.212700	0.221300
O61	O6	0.904900	0.039300	0.155700
H591	H59	0.902100	0.074100	0.208700
O71	O7	0.173300	0.151000	0.040100
H601	H60	0.211700	0.203400	0.076300
O81	O8	0.081900	0.228800	0.122600
H611	H61	0.124800	0.277400	0.154600
O91	O9	0.164800	0.156200	0.183200
H621	H62	0.203800	0.208300	0.213000
O101	O10	0.191500	0.011600	0.980800
H631	H63	0.236700	0.000400	0.989600
O111	O11	0.179100	0.013700	0.122800
H641	H64	0.224000	0.001100	0.125000
O121	O12	0.117300	0.864400	0.970400
H651	H65	0.164700	0.857900	0.979700
O131	O13	0.275500	0.126800	0.368200
H661	H66	0.267100	0.157400	0.419000
O141	O14	0.964000	0.398500	0.190400
H671	H67	0.963900	0.424500	0.160400
O151	O15	0.720800	0.863200	0.133500
H681	H68	0.676600	0.876400	0.125300
O161	O16	0.202100	0.229100	0.354800
O171	O17	0.125300	0.073700	0.344200
O181	O18	0.941000	0.644600	0.899400
O191	O19	0.107400	0.722300	0.976900
O201	O20	0.689300	0.858500	0.987200
O211	O21	0.753600	0.015900	0.149800
O221	O22	0.682200	0.868800	0.265100
O231	O23	0.872700	0.492200	0.251500
H691	H69	0.835000	0.502300	0.274900
H701	H70	0.919000	0.531700	0.291000
O241	O24	0.031600	0.513800	0.877900
O251	O25	0.131200	0.376200	0.816400
O261	O26	0.070000	0.984000	0.019000
O271	O27	0.988000	0.948000	0.031000
O281	O28	0.058000	0.074200	0.062000
O291	O29	0.012000	0.954000	0.925300
O301	O30	0.302900	0.146500	0.148200
O311	O31	0.300700	0.149700	0.258600
O321	O32	0.218800	0.979600	0.246200
O331	O33	0.167300	0.864900	0.127200
O341	O34	0.371600	0.084100	0.452600
O351	O35	0.427900	0.196500	0.460600
O361	O36	0.344300	0.302600	0.430500
O371	O37	0.450100	0.388800	0.463700
O381	O38	0.392900	0.559100	0.945000
O391	O39	0.330000	0.431300	0.887900
O401	O40	0.304900	0.517000	0.983000
O411	O41	0.281000	0.514800	0.873000
O421	O42	0.122800	0.728700	0.827200
O431	O43	0.178400	0.843300	0.840100
O441	O44	0.058100	0.357500	0.256300
O451	O45	0.119200	0.296600	0.298600
O461	O46	0.114700	0.653800	0.423600
O471	O47	0.022200	0.560100	0.316500
O481	O48	0.262300	0.970500	0.714900
O491	O49	0.192700	0.884300	0.588500
O501	O50	0.783200	0.773800	0.041000
O511	O51	0.860000	0.722400	0.982700
O521	O52	0.855900	0.948500	0.222900
O531	O53	0.975900	0.008200	0.276700
O541	O54	0.389700	0.278000	0.037500
O551	O55	0.491600	0.270500	0.011200
O561	O56	0.626700	0.725900	0.121400
O571	O57	0.562700	0.600700	0.022100
O581	O58	0.698300	0.334300	0.112800
O591	O59	0.801400	0.343700	0.088200
Er41	Er4	0.821870	0.907660	0.744070
Er51	Er5	0.975410	0.267190	0.115830
Er61	Er6	0.194010	0.084860	0.914450
Cu151	Cu15	0.109520	0.910720	0.905090
Cu161	Cu16	0.009370	0.992800	0.831420
Cu171	Cu17	0.901880	0.085660	0.928360
Cu181	Cu18	0.818830	0.915160	0.916380
Cu191	Cu19	0.081570	0.168600	0.012630
Cu201	Cu20	0.926880	0.824760	0.819070
Cu211	Cu21	0.300160	0.254400	0.926670
Cu221	Cu22	0.126800	0.618990	0.786920
Cu231	Cu23	0.228770	0.088770	0.752400
Cu241	Cu24	0.955070	0.537550	0.707320
Cu251	Cu25	0.635310	0.815700	0.634380
Cu261	Cu26	0.706930	0.969930	0.648590
Cu271	Cu27	0.843820	0.229690	0.497190
Cu281	Cu28	0.405200	0.696980	0.936610
Na21	Na2	0.847400	0.496300	0.119800
Cl21	Cl2	0.669300	0.489900	0.076500
N141	N14	0.557700	0.772500	0.663600
H711	H71	0.536000	0.719500	0.627000
H721	H72	0.524400	0.796600	0.664100
N151	N15	0.704800	0.080000	0.687700
H731	H73	0.659000	0.079800	0.682200
H741	H74	0.721300	0.097300	0.658700
N161	N16	0.470900	0.745400	0.403300
H751	H75	0.440600	0.729500	0.356100
H761	H76	0.490500	0.707900	0.397600
H771	H77	0.447000	0.753000	0.437600
N171	N17	0.597100	0.494700	0.519800
H781	H78	0.597500	0.448700	0.478800
H791	H79	0.610400	0.494400	0.564500
N181	N18	0.793100	0.347600	0.245600
H801	H80	0.754000	0.356000	0.225200
H811	H81	0.805900	0.377300	0.299200
N191	N19	0.876900	0.498900	0.607800
H821	H82	0.891400	0.473300	0.565500
H831	H83	0.837600	0.463700	0.602300
N201	N20	0.923500	0.224100	0.566500
H841	H84	0.905300	0.198000	0.587900
H851	H85	0.948400	0.196700	0.537300
N211	N21	0.774700	0.240500	0.425300
H861	H86	0.739900	0.254000	0.445900
H871	H87	0.797200	0.280200	0.420300
N221	N22	0.298000	0.364200	0.989900
H881	H88	0.302800	0.388000	0.962700
H891	H89	0.335400	0.393000	0.036100
N231	N23	0.160400	0.037200	0.643500
H901	H90	0.170600	0.994700	0.609000
H911	H91	0.164600	0.072200	0.628300
N241	N24	0.424400	0.627600	0.837800
H921	H92	0.399700	0.575700	0.817100
H931	H93	0.409300	0.639300	0.801400
N251	N25	0.507000	0.431400	0.893300
H941	H94	0.553300	0.434000	0.898200
H951	H95	0.493100	0.449600	0.862300
N261	N26	0.384400	0.757800	0.036800
H961	H96	0.411200	0.754600	0.075400
H971	H97	0.395800	0.809900	0.053200
C271	C27	0.666700	0.834200	0.783100
C281	C28	0.587200	0.786200	0.742200
H981	H98	0.561000	0.814200	0.775900
H991	H99	0.579200	0.734700	0.736600
C291	C29	0.792100	0.095300	0.802900
C301	C30	0.750100	0.134100	0.772200
H1001	H100	0.783600	0.180400	0.779000
H1011	H101	0.719500	0.153100	0.804000
C311	C31	0.580900	0.849200	0.514400
C321	C32	0.528600	0.821200	0.433900
H1021	H102	0.554400	0.813200	0.396200
H1031	H103	0.507400	0.862000	0.439500
C331	C33	0.616100	0.630000	0.547200
C341	C34	0.648400	0.562800	0.528800
H1041	H104	0.692900	0.582600	0.571900
H1051	H105	0.659800	0.546100	0.479900
C351	C35	0.828500	0.226400	0.181300
C361	C36	0.775300	0.262500	0.217000
H1061	H106	0.775900	0.258000	0.262000
H1071	H107	0.727600	0.232000	0.178300
C371	C37	0.896100	0.643700	0.690400
C381	C38	0.858700	0.564700	0.609300
H1081	H108	0.806800	0.552200	0.596100
H1091	H109	0.872300	0.570900	0.568800
C391	C39	0.940900	0.368100	0.628900
C401	C40	0.971500	0.305700	0.630300
H1101	H110	0.018600	0.314400	0.623700
H1111	H111	0.977900	0.311700	0.681700
C411	C41	0.763900	0.097900	0.348000
C421	C42	0.741900	0.165400	0.346300
H1121	H112	0.757400	0.173000	0.307300
H1131	H113	0.689700	0.150700	0.330300
C431	C43	0.192200	0.283500	0.994200
C441	C44	0.230800	0.362900	0.006600
H1141	H114	0.240800	0.405900	0.061500
H1151	H115	0.199700	0.372600	0.972000
C451	C45	0.083200	0.017600	0.718800
C461	C46	0.086300	0.010600	0.642500
H1161	H116	0.060300	0.042600	0.633200
H1171	H117	0.062000	0.955100	0.598400
C471	C47	0.543300	0.701600	0.942300
C481	C48	0.501400	0.639700	0.855100
H1181	H118	0.519200	0.657100	0.823000
H1191	H119	0.508900	0.589200	0.840700
C491	C49	0.422100	0.340500	0.908200
C501	C50	0.461800	0.348700	0.855800
H1201	H120	0.427300	0.331000	0.805000
H1211	H121	0.491500	0.314700	0.845500
C511	C51	0.265700	0.679100	0.935200
C521	C52	0.307200	0.723800	0.022400
H1221	H122	0.289300	0.766700	0.052100
H1231	H123	0.300700	0.687800	0.040900
O601	O60	0.987600	0.182700	0.985500
H1241	H124	0.988300	0.210000	0.956800
O611	O61	0.079000	0.102200	0.902500
H1251	H125	0.074300	0.131800	0.876500
O621	O62	0.925100	0.028400	0.830100
H1261	H126	0.927800	0.060300	0.806100
O631	O63	0.936800	0.884600	0.766500
H1271	H127	0.944400	0.852500	0.715600
O641	O64	0.023000	0.815400	0.831600
H1281	H128	0.028300	0.787300	0.778700
O651	O65	0.095100	0.960700	0.844300
H1291	H129	0.097900	0.925900	0.791300
O661	O66	0.826700	0.849000	0.959900
H1301	H130	0.788300	0.796600	0.923700
O671	O67	0.918100	0.771200	0.877400
H1311	H131	0.875200	0.722600	0.845400
O681	O68	0.835200	0.843800	0.816800
H1321	H132	0.796200	0.791700	0.787000
O691	O69	0.808500	0.988400	0.019200
H1331	H133	0.763300	0.999600	0.010400
O701	O70	0.820900	0.986300	0.877200
H1341	H134	0.776000	0.998900	0.875000
O711	O71	0.882700	0.135600	0.029600
H1351	H135	0.835300	0.142100	0.020300
O721	O72	0.724500	0.873200	0.631800
H1361	H136	0.732900	0.842600	0.581000
O731	O73	0.036000	0.601500	0.809600
H1371	H137	0.036100	0.575500	0.839600
O741	O74	0.279200	0.136800	0.866500
H1381	H138	0.323400	0.123600	0.874700
O751	O75	0.797900	0.770900	0.645200
O761	O76	0.874700	0.926300	0.655800
O771	O77	0.059000	0.355400	0.100600
O781	O78	0.892600	0.277700	0.023100
O791	O79	0.310700	0.141500	0.012800
O801	O80	0.246400	0.984100	0.850200
O811	O81	0.317800	0.131200	0.734900
O821	O82	0.127300	0.507800	0.748500
H1391	H139	0.165000	0.497700	0.725100
H1401	H140	0.081000	0.468300	0.709000
O831	O83	0.968400	0.486200	0.122100
O841	O84	0.868800	0.623800	0.183600
O851	O85	0.930000	0.016000	0.981000
O861	O86	0.012000	0.052000	0.969000
O871	O87	0.942000	0.925800	0.938000
O881	O88	0.988000	0.046000	0.074700
O891	O89	0.697100	0.853500	0.851800
O901	O90	0.699300	0.850300	0.741400
O911	O91	0.781200	0.020400	0.753800
O921	O92	0.832700	0.135100	0.872800
O931	O93	0.628400	0.915900	0.547400
O941	O94	0.572100	0.803500	0.539400
O951	O95	0.655700	0.697400	0.569500
O961	O96	0.549900	0.611200	0.536300
O971	O97	0.607100	0.440900	0.055000
O981	O98	0.670000	0.568700	0.112100
O991	O99	0.695100	0.483000	0.017000
O1001	O100	0.719000	0.485200	0.127000
O1011	O101	0.877200	0.271300	0.172800
O1021	O102	0.821600	0.156700	0.159900
O1031	O103	0.941900	0.642500	0.743700
O1041	O104	0.880800	0.703400	0.701400
O1051	O105	0.885300	0.346200	0.576400
O1061	O106	0.977800	0.439900	0.683500
O1071	O107	0.737700	0.029500	0.285100
O1081	O108	0.807300	0.115700	0.411500
O1091	O109	0.216800	0.226200	0.959000
O1101	O110	0.140000	0.277600	0.017300
O1111	O111	0.144100	0.051500	0.777100
O1121	O112	0.024100	0.991800	0.723300
O1131	O113	0.610300	0.722000	0.962500
O1141	O114	0.508400	0.729500	0.988800
O1151	O115	0.373300	0.274100	0.878600
O1161	O116	0.437300	0.399300	0.977900
O1171	O117	0.301700	0.665700	0.887200
O1181	O118	0.198600	0.656300	0.911800
Cu291	Cu29	0.500000	0.500000	0.000000
Cu301	Cu30	0.500000	0.500000	0.500000
Cl31	Cl3	0.000000	0.000000	0.000000
