data_HULTEN_freeONLY_PM
_symmetry_space_group_name_H-M	'P1'
_cell_length_a	9.203000
_cell_length_b	15.776000
_cell_length_c	31.587000
_cell_angle_alpha	90.000000
_cell_angle_beta	90.000000
_cell_angle_gamma	90.000000
_symmetry_Int_Tables_number 1

loop_
_symmetry_equiv_pos_as_xyz
'x,y,z'

loop_
_atom_site_label
_atom_site_type_symbol
_atom_site_fract_x
_atom_site_fract_y
_atom_site_fract_z
P11	P1	0.101850	0.304700	0.308660
O11	O1	0.052500	0.356300	0.271120
O21	O2	0.987200	0.294350	0.342280
O31	O3	0.171300	0.221860	0.296490
O41	O4	0.227900	0.359300	0.331080
H11	H1	0.319000	0.359000	0.321000
H21	H2	0.181000	0.355000	0.355700
P21	P2	0.101850	0.804700	0.808660
O51	O5	0.052500	0.856300	0.771120
O61	O6	0.987200	0.794350	0.842280
O71	O7	0.171300	0.721860	0.796490
O81	O8	0.227900	0.859300	0.831080
H31	H3	0.319000	0.859000	0.821000
H41	H4	0.181000	0.855000	0.855700
P31	P3	0.601850	0.304700	0.808660
O91	O9	0.552500	0.356300	0.771120
O101	O10	0.487200	0.294350	0.842280
O111	O11	0.671300	0.221860	0.796490
O121	O12	0.727900	0.359300	0.831080
H51	H5	0.819000	0.359000	0.821000
H61	H6	0.681000	0.355000	0.855700
P41	P4	0.601850	0.804700	0.308660
O131	O13	0.552500	0.856300	0.271120
O141	O14	0.487200	0.794350	0.342280
O151	O15	0.671300	0.721860	0.296490
O161	O16	0.727900	0.859300	0.331080
H71	H7	0.819000	0.859000	0.321000
H81	H8	0.681000	0.855000	0.355700
P51	P5	0.648150	0.445300	0.308660
O171	O17	0.697500	0.393700	0.271120
O181	O18	0.762800	0.455650	0.342280
O191	O19	0.578700	0.528140	0.296490
O201	O20	0.522100	0.390700	0.331080
H91	H9	0.431000	0.391000	0.321000
H101	H10	0.569000	0.395000	0.355700
P61	P6	0.648150	0.945300	0.808660
O211	O21	0.697500	0.893700	0.771120
O221	O22	0.762800	0.955650	0.842280
O231	O23	0.578700	0.028140	0.796490
O241	O24	0.522100	0.890700	0.831080
H111	H11	0.431000	0.891000	0.821000
H121	H12	0.569000	0.895000	0.855700
P71	P7	0.148150	0.445300	0.808660
O251	O25	0.197500	0.393700	0.771120
O261	O26	0.262800	0.455650	0.842280
O271	O27	0.078700	0.528140	0.796490
O281	O28	0.022100	0.390700	0.831080
H131	H13	0.931000	0.391000	0.821000
H141	H14	0.069000	0.395000	0.855700
P81	P8	0.148150	0.945300	0.308660
O291	O29	0.197500	0.893700	0.271120
O301	O30	0.262800	0.955650	0.342280
O311	O31	0.078700	0.028140	0.296490
O321	O32	0.022100	0.890700	0.331080
H151	H15	0.931000	0.891000	0.321000
H161	H16	0.069000	0.895000	0.355700
P91	P9	0.648150	0.304700	0.441340
O331	O33	0.697500	0.356300	0.478880
O341	O34	0.762800	0.294350	0.407720
O351	O35	0.578700	0.221860	0.453510
O361	O36	0.522100	0.359300	0.418920
H171	H17	0.431000	0.359000	0.429000
H181	H18	0.569000	0.355000	0.394300
P101	P10	0.648150	0.804700	0.941340
O371	O37	0.697500	0.856300	0.978880
O381	O38	0.762800	0.794350	0.907720
O391	O39	0.578700	0.721860	0.953510
O401	O40	0.522100	0.859300	0.918920
H191	H19	0.431000	0.859000	0.929000
H201	H20	0.569000	0.855000	0.894300
P111	P11	0.148150	0.304700	0.941340
O411	O41	0.197500	0.356300	0.978880
O421	O42	0.262800	0.294350	0.907720
O431	O43	0.078700	0.221860	0.953510
O441	O44	0.022100	0.359300	0.918920
H211	H21	0.931000	0.359000	0.929000
H221	H22	0.069000	0.355000	0.894300
P121	P12	0.148150	0.804700	0.441340
O451	O45	0.197500	0.856300	0.478880
O461	O46	0.262800	0.794350	0.407720
O471	O47	0.078700	0.721860	0.453510
O481	O48	0.022100	0.859300	0.418920
H231	H23	0.931000	0.859000	0.429000
H241	H24	0.069000	0.855000	0.394300
P131	P13	0.101850	0.445300	0.441340
O491	O49	0.052500	0.393700	0.478880
O501	O50	0.987200	0.455650	0.407720
O511	O51	0.171300	0.528140	0.453510
O521	O52	0.227900	0.390700	0.418920
H251	H25	0.319000	0.391000	0.429000
H261	H26	0.181000	0.395000	0.394300
P141	P14	0.101850	0.945300	0.941340
O531	O53	0.052500	0.893700	0.978880
O541	O54	0.987200	0.955650	0.907720
O551	O55	0.171300	0.028140	0.953510
O561	O56	0.227900	0.890700	0.918920
H271	H27	0.319000	0.891000	0.929000
H281	H28	0.181000	0.895000	0.894300
P151	P15	0.601850	0.445300	0.941340
O571	O57	0.552500	0.393700	0.978880
O581	O58	0.487200	0.455650	0.907720
O591	O59	0.671300	0.528140	0.953510
O601	O60	0.727900	0.390700	0.918920
H291	H29	0.819000	0.391000	0.929000
H301	H30	0.681000	0.395000	0.894300
P161	P16	0.601850	0.945300	0.441340
O611	O61	0.552500	0.893700	0.478880
O621	O62	0.487200	0.955650	0.407720
O631	O63	0.671300	0.028140	0.453510
O641	O64	0.727900	0.890700	0.418920
H311	H31	0.819000	0.891000	0.429000
H321	H32	0.681000	0.895000	0.394300
P171	P17	0.898150	0.695300	0.691340
O651	O65	0.947500	0.643700	0.728880
O661	O66	0.012800	0.705650	0.657720
O671	O67	0.828700	0.778140	0.703510
O681	O68	0.772100	0.640700	0.668920
H331	H33	0.681000	0.641000	0.679000
H341	H34	0.819000	0.645000	0.644300
P181	P18	0.898150	0.195300	0.191340
O691	O69	0.947500	0.143700	0.228880
O701	O70	0.012800	0.205650	0.157720
O711	O71	0.828700	0.278140	0.203510
O721	O72	0.772100	0.140700	0.168920
H351	H35	0.681000	0.141000	0.179000
H361	H36	0.819000	0.145000	0.144300
P191	P19	0.398150	0.695300	0.191340
O731	O73	0.447500	0.643700	0.228880
O741	O74	0.512800	0.705650	0.157720
O751	O75	0.328700	0.778140	0.203510
O761	O76	0.272100	0.640700	0.168920
H371	H37	0.181000	0.641000	0.179000
H381	H38	0.319000	0.645000	0.144300
P201	P20	0.398150	0.195300	0.691340
O771	O77	0.447500	0.143700	0.728880
O781	O78	0.512800	0.205650	0.657720
O791	O79	0.328700	0.278140	0.703510
O801	O80	0.272100	0.140700	0.668920
H391	H39	0.181000	0.141000	0.679000
H401	H40	0.319000	0.145000	0.644300
P211	P21	0.351850	0.554700	0.691340
O811	O81	0.302500	0.606300	0.728880
O821	O82	0.237200	0.544350	0.657720
O831	O83	0.421300	0.471860	0.703510
O841	O84	0.477900	0.609300	0.668920
H411	H41	0.569000	0.609000	0.679000
H421	H42	0.431000	0.605000	0.644300
P221	P22	0.351850	0.054700	0.191340
O851	O85	0.302500	0.106300	0.228880
O861	O86	0.237200	0.044350	0.157720
O871	O87	0.421300	0.971860	0.203510
O881	O88	0.477900	0.109300	0.168920
H431	H43	0.569000	0.109000	0.179000
H441	H44	0.431000	0.105000	0.144300
P231	P23	0.851850	0.554700	0.191340
O891	O89	0.802500	0.606300	0.228880
O901	O90	0.737200	0.544350	0.157720
O911	O91	0.921300	0.471860	0.203510
O921	O92	0.977900	0.609300	0.168920
H451	H45	0.069000	0.609000	0.179000
H461	H46	0.931000	0.605000	0.144300
P241	P24	0.851850	0.054700	0.691340
O931	O93	0.802500	0.106300	0.728880
O941	O94	0.737200	0.044350	0.657720
O951	O95	0.921300	0.971860	0.703510
O961	O96	0.977900	0.109300	0.668920
H471	H47	0.069000	0.109000	0.679000
H481	H48	0.931000	0.105000	0.644300
P251	P25	0.351850	0.695300	0.558660
O971	O97	0.302500	0.643700	0.521120
O981	O98	0.237200	0.705650	0.592280
O991	O99	0.421300	0.778140	0.546490
O1001	O100	0.477900	0.640700	0.581080
H491	H49	0.569000	0.641000	0.571000
H501	H50	0.431000	0.645000	0.605700
P261	P26	0.351850	0.195300	0.058660
O1011	O101	0.302500	0.143700	0.021120
O1021	O102	0.237200	0.205650	0.092280
O1031	O103	0.421300	0.278140	0.046490
O1041	O104	0.477900	0.140700	0.081080
H511	H51	0.569000	0.141000	0.071000
H521	H52	0.431000	0.145000	0.105700
P271	P27	0.851850	0.695300	0.058660
O1051	O105	0.802500	0.643700	0.021120
O1061	O106	0.737200	0.705650	0.092280
O1071	O107	0.921300	0.778140	0.046490
O1081	O108	0.977900	0.640700	0.081080
H531	H53	0.069000	0.641000	0.071000
H541	H54	0.931000	0.645000	0.105700
P281	P28	0.851850	0.195300	0.558660
O1091	O109	0.802500	0.143700	0.521120
O1101	O110	0.737200	0.205650	0.592280
O1111	O111	0.921300	0.278140	0.546490
O1121	O112	0.977900	0.140700	0.581080
H551	H55	0.069000	0.141000	0.571000
H561	H56	0.931000	0.145000	0.605700
P291	P29	0.898150	0.554700	0.558660
O1131	O113	0.947500	0.606300	0.521120
O1141	O114	0.012800	0.544350	0.592280
O1151	O115	0.828700	0.471860	0.546490
O1161	O116	0.772100	0.609300	0.581080
H571	H57	0.681000	0.609000	0.571000
H581	H58	0.819000	0.605000	0.605700
P301	P30	0.898150	0.054700	0.058660
O1171	O117	0.947500	0.106300	0.021120
O1181	O118	0.012800	0.044350	0.092280
O1191	O119	0.828700	0.971860	0.046490
O1201	O120	0.772100	0.109300	0.081080
H591	H59	0.681000	0.109000	0.071000
H601	H60	0.819000	0.105000	0.105700
P311	P31	0.398150	0.554700	0.058660
O1211	O121	0.447500	0.606300	0.021120
O1221	O122	0.512800	0.544350	0.092280
O1231	O123	0.328700	0.471860	0.046490
O1241	O124	0.272100	0.609300	0.081080
H611	H61	0.181000	0.609000	0.071000
H621	H62	0.319000	0.605000	0.105700
P321	P32	0.398150	0.054700	0.558660
O1251	O125	0.447500	0.106300	0.521120
O1261	O126	0.512800	0.044350	0.592280
O1271	O127	0.328700	0.971860	0.546490
O1281	O128	0.272100	0.109300	0.581080
H631	H63	0.181000	0.109000	0.571000
H641	H64	0.319000	0.105000	0.605700
Zn11	Zn1	0.875000	0.375000	0.375000
Zn21	Zn2	0.875000	0.875000	0.875000
Zn31	Zn3	0.375000	0.375000	0.875000
Zn41	Zn4	0.375000	0.875000	0.375000
Zn51	Zn5	0.125000	0.625000	0.625000
Zn61	Zn6	0.125000	0.125000	0.125000
Zn71	Zn7	0.625000	0.625000	0.125000
Zn81	Zn8	0.625000	0.125000	0.625000
Zn91	Zn9	0.875000	0.375000	0.239280
Zn101	Zn10	0.875000	0.875000	0.739280
Zn111	Zn11	0.375000	0.375000	0.739280
Zn121	Zn12	0.375000	0.875000	0.239280
Zn131	Zn13	0.875000	0.375000	0.510720
Zn141	Zn14	0.875000	0.875000	0.010720
Zn151	Zn15	0.375000	0.375000	0.010720
Zn161	Zn16	0.375000	0.875000	0.510720
Zn171	Zn17	0.125000	0.625000	0.760720
Zn181	Zn18	0.125000	0.125000	0.260720
Zn191	Zn19	0.625000	0.625000	0.260720
Zn201	Zn20	0.625000	0.125000	0.760720
Zn211	Zn21	0.125000	0.625000	0.489280
Zn221	Zn22	0.125000	0.125000	0.989280
Zn231	Zn23	0.625000	0.625000	0.989280
Zn241	Zn24	0.625000	0.125000	0.489280
