data_HUMQUC_charged_PM
_symmetry_space_group_name_H-M	'P1'
_cell_length_a	8.218900
_cell_length_b	12.683100
_cell_length_c	23.755000
_cell_angle_alpha	105.055000
_cell_angle_beta	90.000000
_cell_angle_gamma	90.000000
_symmetry_Int_Tables_number 1

loop_
_symmetry_equiv_pos_as_xyz
'x,y,z'

loop_
_atom_site_label
_atom_site_type_symbol
_atom_site_fract_x
_atom_site_fract_y
_atom_site_fract_z
Pr11	Pr1	0.998110	0.096080	0.884810
Pr21	Pr2	0.498110	0.403920	0.615190
Pr31	Pr3	0.001890	0.903920	0.115190
Pr41	Pr4	0.501890	0.596080	0.384810
Bi11	Bi1	0.170780	0.596080	0.868460
Bi21	Bi2	0.670780	0.903920	0.631540
Bi31	Bi3	0.829220	0.403920	0.131540
Bi41	Bi4	0.329220	0.096080	0.368460
H11	H1	0.158900	0.711500	0.757800
H21	H2	0.976900	0.739200	0.747500
H31	H3	0.758300	0.601900	0.765400
H41	H4	0.795700	0.692600	0.822800
H51	H5	0.667300	0.546800	0.846900
H61	H6	0.800100	0.465800	0.813200
H71	H7	0.994100	0.546000	0.698100
H81	H8	0.968600	0.459700	0.734100
H91	H9	0.778500	0.429900	0.909100
H101	H10	0.926600	0.476900	0.949500
H111	H11	0.732200	0.624200	0.957700
H121	H12	0.771800	0.705800	0.920100
H131	H13	0.658900	0.788500	0.742200
H141	H14	0.476900	0.760800	0.752500
H151	H15	0.258300	0.898100	0.734600
H161	H16	0.295700	0.807400	0.677200
H171	H17	0.167300	0.953200	0.653100
H181	H18	0.300100	0.034200	0.686800
H191	H19	0.494100	0.954000	0.801900
H201	H20	0.468600	0.040300	0.765900
H211	H21	0.278500	0.070100	0.590900
H221	H22	0.426600	0.023100	0.550500
H231	H23	0.232200	0.875800	0.542300
H241	H24	0.271800	0.794200	0.579900
H251	H25	0.841100	0.288500	0.242200
H261	H26	0.023100	0.260800	0.252500
H271	H27	0.241700	0.398100	0.234600
H281	H28	0.204300	0.307400	0.177200
H291	H29	0.332700	0.453200	0.153100
H301	H30	0.199900	0.534200	0.186800
H311	H31	0.005900	0.454000	0.301900
H321	H32	0.031400	0.540300	0.265900
H331	H33	0.221500	0.570100	0.090900
H341	H34	0.073400	0.523100	0.050500
H351	H35	0.267800	0.375800	0.042300
H361	H36	0.228200	0.294200	0.079900
H371	H37	0.341100	0.211500	0.257800
H381	H38	0.523100	0.239200	0.247500
H391	H39	0.741700	0.101900	0.265400
H401	H40	0.704300	0.192600	0.322800
H411	H41	0.832700	0.046800	0.346900
H421	H42	0.699900	0.965800	0.313200
H431	H43	0.505900	0.046000	0.198100
H441	H44	0.531400	0.959700	0.234100
H451	H45	0.721500	0.929900	0.409100
H461	H46	0.573400	0.976900	0.449500
H471	H47	0.767800	0.124200	0.457700
H481	H48	0.728200	0.205800	0.420100
C11	C1	0.052700	0.807600	0.830500
C21	C2	0.050900	0.719400	0.774900
C31	C3	0.822800	0.619000	0.800800
C41	C4	0.781600	0.539800	0.836500
C51	C5	0.030500	0.523700	0.732100
C61	C6	0.207900	0.495100	0.725700
C71	C7	0.887300	0.459900	0.909700
C81	C8	0.000000	0.373600	0.870600
C91	C9	0.818400	0.651100	0.937300
C101	C10	0.948700	0.705100	0.981300
C111	C11	0.552700	0.692400	0.669500
C121	C12	0.550900	0.780600	0.725100
C131	C13	0.322800	0.881000	0.699200
C141	C14	0.281600	0.960200	0.663500
C151	C15	0.530500	0.976300	0.767900
C161	C16	0.707900	0.004900	0.774300
C171	C17	0.387300	0.040100	0.590300
C181	C18	0.500000	0.126400	0.629400
C191	C19	0.318400	0.848900	0.562700
C201	C20	0.448700	0.794900	0.518700
C211	C21	0.947300	0.192400	0.169500
C221	C22	0.949100	0.280600	0.225100
C231	C23	0.177200	0.381000	0.199200
C241	C24	0.218400	0.460200	0.163500
C251	C25	0.969500	0.476300	0.267900
C261	C26	0.792100	0.504900	0.274300
C271	C27	0.112700	0.540100	0.090300
C281	C28	0.000000	0.626400	0.129400
C291	C29	0.181600	0.348900	0.062700
C301	C30	0.051300	0.294900	0.018700
C311	C31	0.447300	0.307600	0.330500
C321	C32	0.449100	0.219400	0.274900
C331	C33	0.677200	0.119000	0.300800
C341	C34	0.718400	0.039800	0.336500
C351	C35	0.469500	0.023700	0.232100
C361	C36	0.292100	0.995100	0.225700
C371	C37	0.612700	0.959900	0.409700
C381	C38	0.500000	0.873600	0.370600
C391	C39	0.681600	0.151100	0.437300
C401	C40	0.551300	0.205100	0.481300
N11	N1	0.998800	0.613500	0.785400
N21	N2	0.880600	0.559800	0.890200
N31	N3	0.465500	0.774200	0.885800
N41	N4	0.336500	0.067000	0.922300
N51	N5	0.498800	0.886500	0.714600
N61	N6	0.380600	0.940200	0.609800
N71	N7	0.965500	0.725800	0.614200
N81	N8	0.836500	0.433000	0.577700
N91	N9	0.001200	0.386500	0.214600
N101	N10	0.119400	0.440200	0.109800
N111	N11	0.534500	0.225800	0.114200
N121	N12	0.663500	0.933000	0.077700
N131	N13	0.501200	0.113500	0.285400
N141	N14	0.619400	0.059800	0.390200
N151	N15	0.034500	0.274200	0.385800
N161	N16	0.163500	0.567000	0.422300
O11	O1	0.065800	0.779600	0.878900
O21	O2	0.857000	0.972600	0.936900
O31	O3	0.749200	0.191400	0.939000
O41	O4	0.082200	0.081200	0.780500
O51	O5	0.042500	0.902900	0.827800
O61	O6	0.296000	0.513900	0.770400
O71	O7	0.254000	0.449000	0.675100
O81	O8	0.099200	0.408900	0.839700
O91	O9	0.986000	0.277600	0.870800
O101	O10	0.091400	0.667900	0.972500
O111	O11	0.905100	0.783200	0.021500
O121	O12	0.411300	0.712900	0.839700
O131	O13	0.572700	0.839200	0.883000
O141	O14	0.409000	0.761000	0.931600
O151	O15	0.309900	0.123100	0.884000
O161	O16	0.214000	0.009900	0.937200
O171	O17	0.467600	0.069200	0.950500
O181	O18	0.565800	0.720400	0.621100
O191	O19	0.357000	0.527400	0.563100
O201	O20	0.249200	0.308600	0.561000
O211	O21	0.582200	0.418800	0.719500
O221	O22	0.542500	0.597100	0.672200
O231	O23	0.796000	0.986100	0.729600
O241	O24	0.754000	0.051000	0.824900
O251	O25	0.599200	0.091100	0.660300
O261	O26	0.486000	0.222400	0.629200
O271	O27	0.591400	0.832100	0.527500
O281	O28	0.405100	0.716800	0.478500
O291	O29	0.911300	0.787100	0.660300
O301	O30	0.072700	0.660800	0.617000
O311	O31	0.909000	0.739000	0.568400
O321	O32	0.809900	0.376900	0.616000
O331	O33	0.714000	0.490100	0.562800
O341	O34	0.967600	0.430800	0.549500
O351	O35	0.934200	0.220400	0.121100
O361	O36	0.143000	0.027400	0.063100
O371	O37	0.250800	0.808600	0.061000
O381	O38	0.917800	0.918800	0.219500
O391	O39	0.957500	0.097100	0.172200
O401	O40	0.704000	0.486100	0.229600
O411	O41	0.746000	0.551000	0.324900
O421	O42	0.900800	0.591100	0.160300
O431	O43	0.014000	0.722400	0.129200
O441	O44	0.908600	0.332100	0.027500
O451	O45	0.094900	0.216800	0.978500
O461	O46	0.588700	0.287100	0.160300
O471	O47	0.427300	0.160800	0.117000
O481	O48	0.591000	0.239000	0.068400
O491	O49	0.690100	0.876900	0.116000
O501	O50	0.786000	0.990100	0.062800
O511	O51	0.532400	0.930800	0.049500
O521	O52	0.434200	0.279600	0.378900
O531	O53	0.643000	0.472600	0.436900
O541	O54	0.750800	0.691400	0.439000
O551	O55	0.417800	0.581200	0.280500
O561	O56	0.457500	0.402900	0.327800
O571	O57	0.204000	0.013900	0.270400
O581	O58	0.246000	0.949000	0.175100
O591	O59	0.400800	0.908900	0.339700
O601	O60	0.514000	0.777600	0.370800
O611	O61	0.408600	0.167900	0.472500
O621	O62	0.594900	0.283200	0.521500
O631	O63	0.088700	0.212900	0.339700
O641	O64	0.927300	0.339200	0.383000
O651	O65	0.091000	0.261000	0.431600
O661	O66	0.190100	0.623100	0.384000
O671	O67	0.286000	0.509900	0.437200
O681	O68	0.032400	0.569200	0.450500
N171	N17	0.405900	0.466000	0.934300
O691	O69	0.447000	0.486000	0.889000
O701	O70	0.502000	0.416100	0.959900
O711	O71	0.266900	0.486000	0.953500
N181	N18	0.905900	0.034000	0.565700
O721	O72	0.947000	0.014000	0.611000
O731	O73	0.002000	0.083900	0.540100
O741	O74	0.766900	0.014000	0.546500
N191	N19	0.594100	0.534000	0.065700
O751	O75	0.553000	0.514000	0.111000
O761	O76	0.498000	0.583900	0.040100
O771	O77	0.733100	0.514000	0.046500
N201	N20	0.094100	0.966000	0.434300
O781	O78	0.053000	0.986000	0.389000
O791	O79	0.998000	0.916100	0.459900
O801	O80	0.233100	0.986000	0.453500
