data_HURQUG_freeONLY_PM
_symmetry_space_group_name_H-M	'P1'
_cell_length_a	9.419300
_cell_length_b	9.419300
_cell_length_c	17.475700
_cell_angle_alpha	90.000000
_cell_angle_beta	90.000000
_cell_angle_gamma	120.000000
_symmetry_Int_Tables_number 1

loop_
_symmetry_equiv_pos_as_xyz
'x,y,z'

loop_
_atom_site_label
_atom_site_type_symbol
_atom_site_fract_x
_atom_site_fract_y
_atom_site_fract_z
Ce11	Ce1	0.333330	0.666660	0.750000
Ce21	Ce2	0.666670	0.333340	0.250000
Ce31	Ce3	0.000000	0.000000	0.000000
Ce41	Ce4	0.000000	0.000000	0.500000
H11	H1	0.568770	0.594920	0.921330
H21	H2	0.503510	0.676260	0.977710
H31	H3	0.026150	0.431230	0.921330
H41	H4	0.172750	0.496490	0.977710
H51	H5	0.405080	0.973850	0.921330
H61	H6	0.323740	0.827250	0.977710
H71	H7	0.568770	0.594920	0.578670
H81	H8	0.503510	0.676260	0.522290
H91	H9	0.026150	0.431230	0.578670
H101	H10	0.172750	0.496490	0.522290
H111	H11	0.405080	0.973850	0.578670
H121	H12	0.323740	0.827250	0.522290
H131	H13	0.973850	0.405080	0.078670
H141	H14	0.827250	0.323740	0.022290
H151	H15	0.594920	0.568770	0.078670
H161	H16	0.676260	0.503510	0.022290
H171	H17	0.431230	0.026150	0.078670
H181	H18	0.496490	0.172750	0.022290
H191	H19	0.973850	0.405080	0.421330
H201	H20	0.827250	0.323740	0.477710
H211	H21	0.594920	0.568770	0.421330
H221	H22	0.676260	0.503510	0.477710
H231	H23	0.431230	0.026150	0.421330
H241	H24	0.496490	0.172750	0.477710
C11	C1	0.648900	0.833800	0.894900
C21	C2	0.597100	0.691800	0.948500
C31	C3	0.184900	0.351100	0.894900
C41	C4	0.094700	0.402900	0.948500
C51	C5	0.166200	0.815100	0.894900
C61	C6	0.308200	0.905300	0.948500
C71	C7	0.648900	0.833800	0.605100
C81	C8	0.597100	0.691800	0.551500
C91	C9	0.184900	0.351100	0.605100
C101	C10	0.094700	0.402900	0.551500
C111	C11	0.166200	0.815100	0.605100
C121	C12	0.308200	0.905300	0.551500
C131	C13	0.815100	0.166200	0.105100
C141	C14	0.905300	0.308200	0.051500
C151	C15	0.833800	0.648900	0.105100
C161	C16	0.691800	0.597100	0.051500
C171	C17	0.351100	0.184900	0.105100
C181	C18	0.402900	0.094700	0.051500
C191	C19	0.815100	0.166200	0.394900
C201	C20	0.905300	0.308200	0.448500
C211	C21	0.833800	0.648900	0.394900
C221	C22	0.691800	0.597100	0.448500
C231	C23	0.351100	0.184900	0.394900
C241	C24	0.402900	0.094700	0.448500
O11	O1	0.549500	0.821200	0.844400
O21	O2	0.789200	0.959500	0.903900
O31	O3	0.271700	0.450500	0.844400
O41	O4	0.170300	0.210800	0.903900
O51	O5	0.178800	0.728300	0.844400
O61	O6	0.040500	0.829700	0.903900
O71	O7	0.549500	0.821200	0.655600
O81	O8	0.789200	0.959500	0.596100
O91	O9	0.271700	0.450500	0.655600
O101	O10	0.170300	0.210800	0.596100
O111	O11	0.178800	0.728300	0.655600
O121	O12	0.040500	0.829700	0.596100
O131	O13	0.728300	0.178800	0.155600
O141	O14	0.829700	0.040500	0.096100
O151	O15	0.821200	0.549500	0.155600
O161	O16	0.959500	0.789200	0.096100
O171	O17	0.450500	0.271700	0.155600
O181	O18	0.210800	0.170300	0.096100
O191	O19	0.728300	0.178800	0.344400
O201	O20	0.829700	0.040500	0.403900
O211	O21	0.821200	0.549500	0.344400
O221	O22	0.959500	0.789200	0.403900
O231	O23	0.450500	0.271700	0.344400
O241	O24	0.210800	0.170300	0.403900
O251	O25	0.728000	0.728000	0.000000
O261	O26	0.000000	0.272000	0.000000
O271	O27	0.272000	0.000000	0.000000
O281	O28	0.728000	0.728000	0.500000
O291	O29	0.000000	0.272000	0.500000
O301	O30	0.272000	0.000000	0.500000
O311	O31	0.010100	0.447200	0.750000
O321	O32	0.437100	0.989900	0.750000
O331	O33	0.552800	0.562900	0.750000
O341	O34	0.562900	0.552800	0.250000
O351	O35	0.447200	0.010100	0.250000
O361	O36	0.989900	0.437100	0.250000
