data_HUSQES_freeONLY_PM
_symmetry_space_group_name_H-M	'P1'
_cell_length_a	12.420900
_cell_length_b	12.447100
_cell_length_c	15.115500
_cell_angle_alpha	90.000000
_cell_angle_beta	90.000000
_cell_angle_gamma	90.000000
_symmetry_Int_Tables_number 1

loop_
_symmetry_equiv_pos_as_xyz
'x,y,z'

loop_
_atom_site_label
_atom_site_type_symbol
_atom_site_fract_x
_atom_site_fract_y
_atom_site_fract_z
Mo11	Mo1	0.913930	0.602840	0.060690
Mo21	Mo2	0.413930	0.397160	0.439310
Mo31	Mo3	0.086070	0.102840	0.939310
Mo41	Mo4	0.586070	0.897160	0.560690
Mo51	Mo5	0.086070	0.397160	0.939310
Mo61	Mo6	0.586070	0.602840	0.560690
Mo71	Mo7	0.913930	0.897160	0.060690
Mo81	Mo8	0.413930	0.102840	0.439310
H11	H1	0.953300	0.591300	0.823000
H21	H2	0.295500	0.591600	0.570600
H31	H3	0.138600	0.687000	0.708300
H41	H4	0.117100	0.915300	0.564800
H51	H5	0.103700	0.851500	0.474400
H61	H6	0.933000	0.915100	0.522000
H71	H7	0.967600	0.915600	0.677600
H81	H8	0.859000	0.852200	0.658300
H91	H9	0.453300	0.408700	0.677000
H101	H10	0.795500	0.408400	0.929400
H111	H11	0.638600	0.313000	0.791700
H121	H12	0.617100	0.084700	0.935200
H131	H13	0.603700	0.148500	0.025600
H141	H14	0.433000	0.084900	0.978000
H151	H15	0.467600	0.084400	0.822400
H161	H16	0.359000	0.147800	0.841700
H171	H17	0.046700	0.091300	0.177000
H181	H18	0.704500	0.091600	0.429400
H191	H19	0.861400	0.187000	0.291700
H201	H20	0.882900	0.415300	0.435200
H211	H21	0.896300	0.351500	0.525600
H221	H22	0.067000	0.415100	0.478000
H231	H23	0.032400	0.415600	0.322400
H241	H24	0.141000	0.352200	0.341700
H251	H25	0.546700	0.908700	0.323000
H261	H26	0.204500	0.908400	0.070600
H271	H27	0.361400	0.813000	0.208300
H281	H28	0.382900	0.584700	0.064800
H291	H29	0.396300	0.648500	0.974400
H301	H30	0.567000	0.584900	0.022000
H311	H31	0.532400	0.584400	0.177600
H321	H32	0.641000	0.647800	0.158300
H331	H33	0.046700	0.408700	0.177000
H341	H34	0.704500	0.408400	0.429400
H351	H35	0.861400	0.313000	0.291700
H361	H36	0.882900	0.084700	0.435200
H371	H37	0.896300	0.148500	0.525600
H381	H38	0.067000	0.084900	0.478000
H391	H39	0.032400	0.084400	0.322400
H401	H40	0.141000	0.147800	0.341700
H411	H41	0.546700	0.591300	0.323000
H421	H42	0.204500	0.591600	0.070600
H431	H43	0.361400	0.687000	0.208300
H441	H44	0.382900	0.915300	0.064800
H451	H45	0.396300	0.851500	0.974400
H461	H46	0.567000	0.915100	0.022000
H471	H47	0.532400	0.915600	0.177600
H481	H48	0.641000	0.852200	0.158300
H491	H49	0.953300	0.908700	0.823000
H501	H50	0.295500	0.908400	0.570600
H511	H51	0.138600	0.813000	0.708300
H521	H52	0.117100	0.584700	0.564800
H531	H53	0.103700	0.648500	0.474400
H541	H54	0.933000	0.584900	0.522000
H551	H55	0.967600	0.584400	0.677600
H561	H56	0.859000	0.647800	0.658300
H571	H57	0.453300	0.091300	0.677000
H581	H58	0.795500	0.091600	0.929400
H591	H59	0.638600	0.187000	0.791700
H601	H60	0.617100	0.415300	0.935200
H611	H61	0.603700	0.351500	0.025600
H621	H62	0.433000	0.415100	0.978000
H631	H63	0.467600	0.415600	0.822400
H641	H64	0.359000	0.352200	0.841700
H651	H65	0.930300	0.750000	0.443800
H661	H66	0.837000	0.750000	0.515600
H671	H67	0.430300	0.250000	0.056200
H681	H68	0.337000	0.250000	0.984400
H691	H69	0.069700	0.250000	0.556200
H701	H70	0.163000	0.250000	0.484400
H711	H71	0.569700	0.750000	0.943800
H721	H72	0.663000	0.750000	0.015600
C11	C1	0.949090	0.663230	0.841750
C21	C2	0.318640	0.663520	0.570040
C31	C3	0.086170	0.850800	0.537620
C41	C4	0.963960	0.850300	0.550150
C51	C5	0.937180	0.851300	0.649730
C61	C6	0.449090	0.336770	0.658250
C71	C7	0.818640	0.336480	0.929960
C81	C8	0.586170	0.149200	0.962380
C91	C9	0.463960	0.149700	0.949850
C101	C10	0.437180	0.148700	0.850270
C111	C11	0.050910	0.163230	0.158250
C121	C12	0.681360	0.163520	0.429960
C131	C13	0.913830	0.350800	0.462380
C141	C14	0.036040	0.350300	0.449850
C151	C15	0.062820	0.351300	0.350270
C161	C16	0.550910	0.836770	0.341750
C171	C17	0.181360	0.836480	0.070040
C181	C18	0.413830	0.649200	0.037620
C191	C19	0.536040	0.649700	0.050150
C201	C20	0.562820	0.648700	0.149730
C211	C21	0.050910	0.336770	0.158250
C221	C22	0.681360	0.336480	0.429960
C231	C23	0.913830	0.149200	0.462380
C241	C24	0.036040	0.149700	0.449850
C251	C25	0.062820	0.148700	0.350270
C261	C26	0.550910	0.663230	0.341750
C271	C27	0.181360	0.663520	0.070040
C281	C28	0.413830	0.850800	0.037620
C291	C29	0.536040	0.850300	0.050150
C301	C30	0.562820	0.851300	0.149730
C311	C31	0.949090	0.836770	0.841750
C321	C32	0.318640	0.836480	0.570040
C331	C33	0.086170	0.649200	0.537620
C341	C34	0.963960	0.649700	0.550150
C351	C35	0.937180	0.648700	0.649730
C361	C36	0.449090	0.163230	0.658250
C371	C37	0.818640	0.163520	0.929960
C381	C38	0.586170	0.350800	0.962380
C391	C39	0.463960	0.350300	0.949850
C401	C40	0.437180	0.351300	0.850270
C411	C41	0.985500	0.750000	0.691770
C421	C42	0.107900	0.750000	0.680500
C431	C43	0.133500	0.750000	0.581200
C441	C44	0.915200	0.750000	0.507400
C451	C45	0.485500	0.250000	0.808230
C461	C46	0.607900	0.250000	0.819500
C471	C47	0.633500	0.250000	0.918800
C481	C48	0.415200	0.250000	0.992600
C491	C49	0.014500	0.250000	0.308230
C501	C50	0.892100	0.250000	0.319500
C511	C51	0.866500	0.250000	0.418800
C521	C52	0.084800	0.250000	0.492600
C531	C53	0.514500	0.750000	0.191770
C541	C54	0.392100	0.750000	0.180500
C551	C55	0.366500	0.750000	0.081200
C561	C56	0.584800	0.750000	0.007400
N11	N1	0.931380	0.694260	0.923560
N21	N2	0.419460	0.694670	0.567480
N31	N3	0.431380	0.305740	0.576440
N41	N4	0.919460	0.305330	0.932520
N51	N5	0.068620	0.194260	0.076440
N61	N6	0.580540	0.194670	0.432520
N71	N7	0.568620	0.805740	0.423560
N81	N8	0.080540	0.805330	0.067480
N91	N9	0.068620	0.305740	0.076440
N101	N10	0.580540	0.305330	0.432520
N111	N11	0.568620	0.694260	0.423560
N121	N12	0.080540	0.694670	0.067480
N131	N13	0.931380	0.805740	0.923560
N141	N14	0.419460	0.805330	0.567480
N151	N15	0.431380	0.194260	0.576440
N161	N16	0.919460	0.194670	0.932520
N171	N17	0.960500	0.750000	0.788350
N181	N18	0.253000	0.750000	0.571700
N191	N19	0.460500	0.250000	0.711650
N201	N20	0.753000	0.250000	0.928300
N211	N21	0.039500	0.250000	0.211650
N221	N22	0.747000	0.250000	0.428300
N231	N23	0.539500	0.750000	0.288350
N241	N24	0.247000	0.750000	0.071700
O11	O1	0.788700	0.557130	0.030590
O21	O2	0.930650	0.556620	0.165770
O31	O3	0.288700	0.442870	0.469410
O41	O4	0.430650	0.443380	0.334230
O51	O5	0.211300	0.057130	0.969410
O61	O6	0.069350	0.056620	0.834230
O71	O7	0.711300	0.942870	0.530590
O81	O8	0.569350	0.943380	0.665770
O91	O9	0.211300	0.442870	0.969410
O101	O10	0.069350	0.443380	0.834230
O111	O11	0.711300	0.557130	0.530590
O121	O12	0.569350	0.556620	0.665770
O131	O13	0.788700	0.942870	0.030590
O141	O14	0.930650	0.943380	0.165770
O151	O15	0.288700	0.057130	0.469410
O161	O16	0.430650	0.056620	0.334230
O171	O17	0.877240	0.750000	0.088020
O181	O18	0.377240	0.250000	0.411980
O191	O19	0.122760	0.250000	0.911980
O201	O20	0.622760	0.750000	0.588020
O211	O21	0.000000	0.500000	0.000000
O221	O22	0.500000	0.500000	0.500000
O231	O23	0.000000	0.000000	0.000000
O241	O24	0.500000	0.000000	0.500000
