data_HUWPIA_freeONLY_PM
_symmetry_space_group_name_H-M	'P1'
_cell_length_a	7.080900
_cell_length_b	38.766400
_cell_length_c	39.228600
_cell_angle_alpha	90.000000
_cell_angle_beta	90.000000
_cell_angle_gamma	90.000000
_symmetry_Int_Tables_number 1

loop_
_symmetry_equiv_pos_as_xyz
'x,y,z'

loop_
_atom_site_label
_atom_site_type_symbol
_atom_site_fract_x
_atom_site_fract_y
_atom_site_fract_z
Al11	Al1	0.570500	0.619130	0.499590
Cl11	Cl1	0.318700	0.592950	0.475430
Cl21	Cl2	0.826800	0.644110	0.524670
N11	N1	0.450300	0.666820	0.492380
C11	C1	0.552200	0.694300	0.482600
H11	H1	0.680600	0.690900	0.476400
C21	C2	0.478800	0.726900	0.481200
H21	H2	0.555300	0.745700	0.474000
C31	C3	0.291000	0.732500	0.490500
C41	C4	0.184100	0.704100	0.499900
H31	H3	0.054700	0.706700	0.505800
C51	C5	0.268500	0.672100	0.500500
H41	H4	0.194300	0.652800	0.507100
N21	N2	0.694000	0.571660	0.505330
C61	C6	0.796200	0.563700	0.533300
H51	H5	0.787600	0.578400	0.552600
C71	C7	0.911400	0.535500	0.535200
H61	H6	0.976500	0.530300	0.555700
C81	C8	0.932300	0.514400	0.506600
C91	C9	0.819700	0.521800	0.478500
H71	H7	0.823800	0.507200	0.459100
C101	C10	0.703200	0.549900	0.478700
H81	H8	0.626000	0.554200	0.459400
N31	N3	0.699500	0.624300	0.452740
C111	C11	0.607600	0.635500	0.425000
H91	H9	0.477400	0.641100	0.426800
C121	C12	0.696900	0.639100	0.393300
H101	H10	0.630500	0.648400	0.374400
C131	C13	0.882100	0.628900	0.390000
C141	C14	0.976200	0.617200	0.419000
H111	H11	0.105200	0.610600	0.417600
C151	C15	0.882600	0.615100	0.449500
H121	H12	0.948500	0.606900	0.469000
N41	N4	0.191600	0.632990	0.296470
C161	C16	0.083800	0.659600	0.306500
H131	H13	0.079000	0.679600	0.292600
C171	C17	0.979800	0.659200	0.336200
H141	H14	0.903000	0.678400	0.342000
C181	C18	0.987800	0.630400	0.357600
C191	C19	0.101700	0.602900	0.348000
H151	H15	0.111800	0.583000	0.361900
C201	C20	0.201600	0.605500	0.317200
H161	H16	0.280300	0.586700	0.310700
Al21	Al2	0.570500	0.119130	0.999590
Cl31	Cl3	0.318700	0.092950	0.975430
Cl41	Cl4	0.826800	0.144110	0.024670
N51	N5	0.450300	0.166820	0.992380
C211	C21	0.552200	0.194300	0.982600
H171	H17	0.680600	0.190900	0.976400
C221	C22	0.478800	0.226900	0.981200
H181	H18	0.555300	0.245700	0.974000
C231	C23	0.291000	0.232500	0.990500
C241	C24	0.184100	0.204100	0.999900
H191	H19	0.054700	0.206700	0.005800
C251	C25	0.268500	0.172100	0.000500
H201	H20	0.194300	0.152800	0.007100
N61	N6	0.694000	0.071660	0.005330
C261	C26	0.796200	0.063700	0.033300
H211	H21	0.787600	0.078400	0.052600
C271	C27	0.911400	0.035500	0.035200
H221	H22	0.976500	0.030300	0.055700
C281	C28	0.932300	0.014400	0.006600
C291	C29	0.819700	0.021800	0.978500
H231	H23	0.823800	0.007200	0.959100
C301	C30	0.703200	0.049900	0.978700
H241	H24	0.626000	0.054200	0.959400
N71	N7	0.699500	0.124300	0.952740
C311	C31	0.607600	0.135500	0.925000
H251	H25	0.477400	0.141100	0.926800
C321	C32	0.696900	0.139100	0.893300
H261	H26	0.630500	0.148400	0.874400
C331	C33	0.882100	0.128900	0.890000
C341	C34	0.976200	0.117200	0.919000
H271	H27	0.105200	0.110600	0.917600
C351	C35	0.882600	0.115100	0.949500
H281	H28	0.948500	0.106900	0.969000
N81	N8	0.191600	0.132990	0.796470
C361	C36	0.083800	0.159600	0.806500
H291	H29	0.079000	0.179600	0.792600
C371	C37	0.979800	0.159200	0.836200
H301	H30	0.903000	0.178400	0.842000
C381	C38	0.987800	0.130400	0.857600
C391	C39	0.101700	0.102900	0.848000
H311	H31	0.111800	0.083000	0.861900
C401	C40	0.201600	0.105500	0.817200
H321	H32	0.280300	0.086700	0.810700
Al31	Al3	0.070500	0.619130	0.999590
Cl51	Cl5	0.818700	0.592950	0.975430
Cl61	Cl6	0.326800	0.644110	0.024670
N91	N9	0.950300	0.666820	0.992380
C411	C41	0.052200	0.694300	0.982600
H331	H33	0.180600	0.690900	0.976400
C421	C42	0.978800	0.726900	0.981200
H341	H34	0.055300	0.745700	0.974000
C431	C43	0.791000	0.732500	0.990500
C441	C44	0.684100	0.704100	0.999900
H351	H35	0.554700	0.706700	0.005800
C451	C45	0.768500	0.672100	0.000500
H361	H36	0.694300	0.652800	0.007100
N101	N10	0.194000	0.571660	0.005330
C461	C46	0.296200	0.563700	0.033300
H371	H37	0.287600	0.578400	0.052600
C471	C47	0.411400	0.535500	0.035200
H381	H38	0.476500	0.530300	0.055700
C481	C48	0.432300	0.514400	0.006600
C491	C49	0.319700	0.521800	0.978500
H391	H39	0.323800	0.507200	0.959100
C501	C50	0.203200	0.549900	0.978700
H401	H40	0.126000	0.554200	0.959400
N111	N11	0.199500	0.624300	0.952740
C511	C51	0.107600	0.635500	0.925000
H411	H41	0.977400	0.641100	0.926800
C521	C52	0.196900	0.639100	0.893300
H421	H42	0.130500	0.648400	0.874400
C531	C53	0.382100	0.628900	0.890000
C541	C54	0.476200	0.617200	0.919000
H431	H43	0.605200	0.610600	0.917600
C551	C55	0.382600	0.615100	0.949500
H441	H44	0.448500	0.606900	0.969000
N121	N12	0.691600	0.632990	0.796470
C561	C56	0.583800	0.659600	0.806500
H451	H45	0.579000	0.679600	0.792600
C571	C57	0.479800	0.659200	0.836200
H461	H46	0.403000	0.678400	0.842000
C581	C58	0.487800	0.630400	0.857600
C591	C59	0.601700	0.602900	0.848000
H471	H47	0.611800	0.583000	0.861900
C601	C60	0.701600	0.605500	0.817200
H481	H48	0.780300	0.586700	0.810700
Al41	Al4	0.070500	0.119130	0.499590
Cl71	Cl7	0.818700	0.092950	0.475430
Cl81	Cl8	0.326800	0.144110	0.524670
N131	N13	0.950300	0.166820	0.492380
C611	C61	0.052200	0.194300	0.482600
H491	H49	0.180600	0.190900	0.476400
C621	C62	0.978800	0.226900	0.481200
H501	H50	0.055300	0.245700	0.474000
C631	C63	0.791000	0.232500	0.490500
C641	C64	0.684100	0.204100	0.499900
H511	H51	0.554700	0.206700	0.505800
C651	C65	0.768500	0.172100	0.500500
H521	H52	0.694300	0.152800	0.507100
N141	N14	0.194000	0.071660	0.505330
C661	C66	0.296200	0.063700	0.533300
H531	H53	0.287600	0.078400	0.552600
C671	C67	0.411400	0.035500	0.535200
H541	H54	0.476500	0.030300	0.555700
C681	C68	0.432300	0.014400	0.506600
C691	C69	0.319700	0.021800	0.478500
H551	H55	0.323800	0.007200	0.459100
C701	C70	0.203200	0.049900	0.478700
H561	H56	0.126000	0.054200	0.459400
N151	N15	0.199500	0.124300	0.452740
C711	C71	0.107600	0.135500	0.425000
H571	H57	0.977400	0.141100	0.426800
C721	C72	0.196900	0.139100	0.393300
H581	H58	0.130500	0.148400	0.374400
C731	C73	0.382100	0.128900	0.390000
C741	C74	0.476200	0.117200	0.419000
H591	H59	0.605200	0.110600	0.417600
C751	C75	0.382600	0.115100	0.449500
H601	H60	0.448500	0.106900	0.469000
N161	N16	0.691600	0.132990	0.296470
C761	C76	0.583800	0.159600	0.306500
H611	H61	0.579000	0.179600	0.292600
C771	C77	0.479800	0.159200	0.336200
H621	H62	0.403000	0.178400	0.342000
C781	C78	0.487800	0.130400	0.357600
C791	C79	0.601700	0.102900	0.348000
H631	H63	0.611800	0.083000	0.361900
C801	C80	0.701600	0.105500	0.317200
H641	H64	0.780300	0.086700	0.310700
Al51	Al5	0.429500	0.380870	0.499590
Cl91	Cl9	0.681300	0.407050	0.475430
Cl101	Cl10	0.173200	0.355890	0.524670
N171	N17	0.549700	0.333180	0.492380
C811	C81	0.447800	0.305700	0.482600
H651	H65	0.319400	0.309100	0.476400
C821	C82	0.521200	0.273100	0.481200
H661	H66	0.444700	0.254300	0.474000
C831	C83	0.709000	0.267500	0.490500
C841	C84	0.815900	0.295900	0.499900
H671	H67	0.945300	0.293300	0.505800
C851	C85	0.731500	0.327900	0.500500
H681	H68	0.805700	0.347200	0.507100
N181	N18	0.306000	0.428340	0.505330
C861	C86	0.203800	0.436300	0.533300
H691	H69	0.212400	0.421600	0.552600
C871	C87	0.088600	0.464500	0.535200
H701	H70	0.023500	0.469700	0.555700
C881	C88	0.067700	0.485600	0.506600
C891	C89	0.180300	0.478200	0.478500
H711	H71	0.176200	0.492800	0.459100
C901	C90	0.296800	0.450100	0.478700
H721	H72	0.374000	0.445800	0.459400
N191	N19	0.300500	0.375700	0.452740
C911	C91	0.392400	0.364500	0.425000
H731	H73	0.522600	0.358900	0.426800
C921	C92	0.303100	0.360900	0.393300
H741	H74	0.369500	0.351600	0.374400
C931	C93	0.117900	0.371100	0.390000
C941	C94	0.023800	0.382800	0.419000
H751	H75	0.894800	0.389400	0.417600
C951	C95	0.117400	0.384900	0.449500
H761	H76	0.051500	0.393100	0.469000
N201	N20	0.808400	0.367010	0.296470
C961	C96	0.916200	0.340400	0.306500
H771	H77	0.921000	0.320400	0.292600
C971	C97	0.020200	0.340800	0.336200
H781	H78	0.097000	0.321600	0.342000
C981	C98	0.012200	0.369600	0.357600
C991	C99	0.898300	0.397100	0.348000
H791	H79	0.888200	0.417000	0.361900
C1001	C100	0.798400	0.394500	0.317200
H801	H80	0.719700	0.413300	0.310700
Al61	Al6	0.429500	0.880870	0.999590
Cl111	Cl11	0.681300	0.907050	0.975430
Cl121	Cl12	0.173200	0.855890	0.024670
N211	N21	0.549700	0.833180	0.992380
C1011	C101	0.447800	0.805700	0.982600
H811	H81	0.319400	0.809100	0.976400
C1021	C102	0.521200	0.773100	0.981200
H821	H82	0.444700	0.754300	0.974000
C1031	C103	0.709000	0.767500	0.990500
C1041	C104	0.815900	0.795900	0.999900
H831	H83	0.945300	0.793300	0.005800
C1051	C105	0.731500	0.827900	0.000500
H841	H84	0.805700	0.847200	0.007100
N221	N22	0.306000	0.928340	0.005330
C1061	C106	0.203800	0.936300	0.033300
H851	H85	0.212400	0.921600	0.052600
C1071	C107	0.088600	0.964500	0.035200
H861	H86	0.023500	0.969700	0.055700
C1081	C108	0.067700	0.985600	0.006600
C1091	C109	0.180300	0.978200	0.978500
H871	H87	0.176200	0.992800	0.959100
C1101	C110	0.296800	0.950100	0.978700
H881	H88	0.374000	0.945800	0.959400
N231	N23	0.300500	0.875700	0.952740
C1111	C111	0.392400	0.864500	0.925000
H891	H89	0.522600	0.858900	0.926800
C1121	C112	0.303100	0.860900	0.893300
H901	H90	0.369500	0.851600	0.874400
C1131	C113	0.117900	0.871100	0.890000
C1141	C114	0.023800	0.882800	0.919000
H911	H91	0.894800	0.889400	0.917600
C1151	C115	0.117400	0.884900	0.949500
H921	H92	0.051500	0.893100	0.969000
N241	N24	0.808400	0.867010	0.796470
C1161	C116	0.916200	0.840400	0.806500
H931	H93	0.921000	0.820400	0.792600
C1171	C117	0.020200	0.840800	0.836200
H941	H94	0.097000	0.821600	0.842000
C1181	C118	0.012200	0.869600	0.857600
C1191	C119	0.898300	0.897100	0.848000
H951	H95	0.888200	0.917000	0.861900
C1201	C120	0.798400	0.894500	0.817200
H961	H96	0.719700	0.913300	0.810700
Al71	Al7	0.929500	0.380870	0.999590
Cl131	Cl13	0.181300	0.407050	0.975430
Cl141	Cl14	0.673200	0.355890	0.024670
N251	N25	0.049700	0.333180	0.992380
C1211	C121	0.947800	0.305700	0.982600
H971	H97	0.819400	0.309100	0.976400
C1221	C122	0.021200	0.273100	0.981200
H981	H98	0.944700	0.254300	0.974000
C1231	C123	0.209000	0.267500	0.990500
C1241	C124	0.315900	0.295900	0.999900
H991	H99	0.445300	0.293300	0.005800
C1251	C125	0.231500	0.327900	0.000500
H1001	H100	0.305700	0.347200	0.007100
N261	N26	0.806000	0.428340	0.005330
C1261	C126	0.703800	0.436300	0.033300
H1011	H101	0.712400	0.421600	0.052600
C1271	C127	0.588600	0.464500	0.035200
H1021	H102	0.523500	0.469700	0.055700
C1281	C128	0.567700	0.485600	0.006600
C1291	C129	0.680300	0.478200	0.978500
H1031	H103	0.676200	0.492800	0.959100
C1301	C130	0.796800	0.450100	0.978700
H1041	H104	0.874000	0.445800	0.959400
N271	N27	0.800500	0.375700	0.952740
C1311	C131	0.892400	0.364500	0.925000
H1051	H105	0.022600	0.358900	0.926800
C1321	C132	0.803100	0.360900	0.893300
H1061	H106	0.869500	0.351600	0.874400
C1331	C133	0.617900	0.371100	0.890000
C1341	C134	0.523800	0.382800	0.919000
H1071	H107	0.394800	0.389400	0.917600
C1351	C135	0.617400	0.384900	0.949500
H1081	H108	0.551500	0.393100	0.969000
N281	N28	0.308400	0.367010	0.796470
C1361	C136	0.416200	0.340400	0.806500
H1091	H109	0.421000	0.320400	0.792600
C1371	C137	0.520200	0.340800	0.836200
H1101	H110	0.597000	0.321600	0.842000
C1381	C138	0.512200	0.369600	0.857600
C1391	C139	0.398300	0.397100	0.848000
H1111	H111	0.388200	0.417000	0.861900
C1401	C140	0.298400	0.394500	0.817200
H1121	H112	0.219700	0.413300	0.810700
Al81	Al8	0.929500	0.880870	0.499590
Cl151	Cl15	0.181300	0.907050	0.475430
Cl161	Cl16	0.673200	0.855890	0.524670
N291	N29	0.049700	0.833180	0.492380
C1411	C141	0.947800	0.805700	0.482600
H1131	H113	0.819400	0.809100	0.476400
C1421	C142	0.021200	0.773100	0.481200
H1141	H114	0.944700	0.754300	0.474000
C1431	C143	0.209000	0.767500	0.490500
C1441	C144	0.315900	0.795900	0.499900
H1151	H115	0.445300	0.793300	0.505800
C1451	C145	0.231500	0.827900	0.500500
H1161	H116	0.305700	0.847200	0.507100
N301	N30	0.806000	0.928340	0.505330
C1461	C146	0.703800	0.936300	0.533300
H1171	H117	0.712400	0.921600	0.552600
C1471	C147	0.588600	0.964500	0.535200
H1181	H118	0.523500	0.969700	0.555700
C1481	C148	0.567700	0.985600	0.506600
C1491	C149	0.680300	0.978200	0.478500
H1191	H119	0.676200	0.992800	0.459100
C1501	C150	0.796800	0.950100	0.478700
H1201	H120	0.874000	0.945800	0.459400
N311	N31	0.800500	0.875700	0.452740
C1511	C151	0.892400	0.864500	0.425000
H1211	H121	0.022600	0.858900	0.426800
C1521	C152	0.803100	0.860900	0.393300
H1221	H122	0.869500	0.851600	0.374400
C1531	C153	0.617900	0.871100	0.390000
C1541	C154	0.523800	0.882800	0.419000
H1231	H123	0.394800	0.889400	0.417600
C1551	C155	0.617400	0.884900	0.449500
H1241	H124	0.551500	0.893100	0.469000
N321	N32	0.308400	0.867010	0.296470
C1561	C156	0.416200	0.840400	0.306500
H1251	H125	0.421000	0.820400	0.292600
C1571	C157	0.520200	0.840800	0.336200
H1261	H126	0.597000	0.821600	0.342000
C1581	C158	0.512200	0.869600	0.357600
C1591	C159	0.398300	0.897100	0.348000
H1271	H127	0.388200	0.917000	0.361900
C1601	C160	0.298400	0.894500	0.317200
H1281	H128	0.219700	0.913300	0.310700
Al91	Al9	0.820500	0.630870	0.749590
Cl171	Cl17	0.568700	0.657050	0.725430
Cl181	Cl18	0.076800	0.605890	0.774670
N331	N33	0.700300	0.583180	0.742380
C1611	C161	0.802200	0.555700	0.732600
H1291	H129	0.930600	0.559100	0.726400
C1621	C162	0.728800	0.523100	0.731200
H1301	H130	0.805300	0.504300	0.724000
C1631	C163	0.541000	0.517500	0.740500
C1641	C164	0.434100	0.545900	0.749900
H1311	H131	0.304700	0.543300	0.755800
C1651	C165	0.518500	0.577900	0.750500
H1321	H132	0.444300	0.597200	0.757100
N341	N34	0.944000	0.678340	0.755330
C1661	C166	0.046200	0.686300	0.783300
H1331	H133	0.037600	0.671600	0.802600
C1671	C167	0.161400	0.714500	0.785200
H1341	H134	0.226500	0.719700	0.805700
C1681	C168	0.182300	0.735600	0.756600
C1691	C169	0.069700	0.728200	0.728500
H1351	H135	0.073800	0.742800	0.709100
C1701	C170	0.953200	0.700100	0.728700
H1361	H136	0.876000	0.695800	0.709400
N351	N35	0.949500	0.625700	0.702740
C1711	C171	0.857600	0.614500	0.675000
H1371	H137	0.727400	0.608900	0.676800
C1721	C172	0.946900	0.610900	0.643300
H1381	H138	0.880500	0.601600	0.624400
C1731	C173	0.132100	0.621100	0.640000
C1741	C174	0.226200	0.632800	0.669000
H1391	H139	0.355200	0.639400	0.667600
C1751	C175	0.132600	0.634900	0.699500
H1401	H140	0.198500	0.643100	0.719000
N361	N36	0.441600	0.617010	0.546470
C1761	C176	0.333800	0.590400	0.556500
H1411	H141	0.329000	0.570400	0.542600
C1771	C177	0.229800	0.590800	0.586200
H1421	H142	0.153000	0.571600	0.592000
C1781	C178	0.237800	0.619600	0.607600
C1791	C179	0.351700	0.647100	0.598000
H1431	H143	0.361800	0.667000	0.611900
C1801	C180	0.451600	0.644500	0.567200
H1441	H144	0.530300	0.663300	0.560700
Al101	Al10	0.820500	0.130870	0.249590
Cl191	Cl19	0.568700	0.157050	0.225430
Cl201	Cl20	0.076800	0.105890	0.274670
N371	N37	0.700300	0.083180	0.242380
C1811	C181	0.802200	0.055700	0.232600
H1451	H145	0.930600	0.059100	0.226400
C1821	C182	0.728800	0.023100	0.231200
H1461	H146	0.805300	0.004300	0.224000
C1831	C183	0.541000	0.017500	0.240500
C1841	C184	0.434100	0.045900	0.249900
H1471	H147	0.304700	0.043300	0.255800
C1851	C185	0.518500	0.077900	0.250500
H1481	H148	0.444300	0.097200	0.257100
N381	N38	0.944000	0.178340	0.255330
C1861	C186	0.046200	0.186300	0.283300
H1491	H149	0.037600	0.171600	0.302600
C1871	C187	0.161400	0.214500	0.285200
H1501	H150	0.226500	0.219700	0.305700
C1881	C188	0.182300	0.235600	0.256600
C1891	C189	0.069700	0.228200	0.228500
H1511	H151	0.073800	0.242800	0.209100
C1901	C190	0.953200	0.200100	0.228700
H1521	H152	0.876000	0.195800	0.209400
N391	N39	0.949500	0.125700	0.202740
C1911	C191	0.857600	0.114500	0.175000
H1531	H153	0.727400	0.108900	0.176800
C1921	C192	0.946900	0.110900	0.143300
H1541	H154	0.880500	0.101600	0.124400
C1931	C193	0.132100	0.121100	0.140000
C1941	C194	0.226200	0.132800	0.169000
H1551	H155	0.355200	0.139400	0.167600
C1951	C195	0.132600	0.134900	0.199500
H1561	H156	0.198500	0.143100	0.219000
N401	N40	0.441600	0.117010	0.046470
C1961	C196	0.333800	0.090400	0.056500
H1571	H157	0.329000	0.070400	0.042600
C1971	C197	0.229800	0.090800	0.086200
H1581	H158	0.153000	0.071600	0.092000
C1981	C198	0.237800	0.119600	0.107600
C1991	C199	0.351700	0.147100	0.098000
H1591	H159	0.361800	0.167000	0.111900
C2001	C200	0.451600	0.144500	0.067200
H1601	H160	0.530300	0.163300	0.060700
Al111	Al11	0.320500	0.630870	0.249590
Cl211	Cl21	0.068700	0.657050	0.225430
Cl221	Cl22	0.576800	0.605890	0.274670
N411	N41	0.200300	0.583180	0.242380
C2011	C201	0.302200	0.555700	0.232600
H1611	H161	0.430600	0.559100	0.226400
C2021	C202	0.228800	0.523100	0.231200
H1621	H162	0.305300	0.504300	0.224000
C2031	C203	0.041000	0.517500	0.240500
C2041	C204	0.934100	0.545900	0.249900
H1631	H163	0.804700	0.543300	0.255800
C2051	C205	0.018500	0.577900	0.250500
H1641	H164	0.944300	0.597200	0.257100
N421	N42	0.444000	0.678340	0.255330
C2061	C206	0.546200	0.686300	0.283300
H1651	H165	0.537600	0.671600	0.302600
C2071	C207	0.661400	0.714500	0.285200
H1661	H166	0.726500	0.719700	0.305700
C2081	C208	0.682300	0.735600	0.256600
C2091	C209	0.569700	0.728200	0.228500
H1671	H167	0.573800	0.742800	0.209100
C2101	C210	0.453200	0.700100	0.228700
H1681	H168	0.376000	0.695800	0.209400
N431	N43	0.449500	0.625700	0.202740
C2111	C211	0.357600	0.614500	0.175000
H1691	H169	0.227400	0.608900	0.176800
C2121	C212	0.446900	0.610900	0.143300
H1701	H170	0.380500	0.601600	0.124400
C2131	C213	0.632100	0.621100	0.140000
C2141	C214	0.726200	0.632800	0.169000
H1711	H171	0.855200	0.639400	0.167600
C2151	C215	0.632600	0.634900	0.199500
H1721	H172	0.698500	0.643100	0.219000
N441	N44	0.941600	0.617010	0.046470
C2161	C216	0.833800	0.590400	0.056500
H1731	H173	0.829000	0.570400	0.042600
C2171	C217	0.729800	0.590800	0.086200
H1741	H174	0.653000	0.571600	0.092000
C2181	C218	0.737800	0.619600	0.107600
C2191	C219	0.851700	0.647100	0.098000
H1751	H175	0.861800	0.667000	0.111900
C2201	C220	0.951600	0.644500	0.067200
H1761	H176	0.030300	0.663300	0.060700
Al121	Al12	0.320500	0.130870	0.749590
Cl231	Cl23	0.068700	0.157050	0.725430
Cl241	Cl24	0.576800	0.105890	0.774670
N451	N45	0.200300	0.083180	0.742380
C2211	C221	0.302200	0.055700	0.732600
H1771	H177	0.430600	0.059100	0.726400
C2221	C222	0.228800	0.023100	0.731200
H1781	H178	0.305300	0.004300	0.724000
C2231	C223	0.041000	0.017500	0.740500
C2241	C224	0.934100	0.045900	0.749900
H1791	H179	0.804700	0.043300	0.755800
C2251	C225	0.018500	0.077900	0.750500
H1801	H180	0.944300	0.097200	0.757100
N461	N46	0.444000	0.178340	0.755330
C2261	C226	0.546200	0.186300	0.783300
H1811	H181	0.537600	0.171600	0.802600
C2271	C227	0.661400	0.214500	0.785200
H1821	H182	0.726500	0.219700	0.805700
C2281	C228	0.682300	0.235600	0.756600
C2291	C229	0.569700	0.228200	0.728500
H1831	H183	0.573800	0.242800	0.709100
C2301	C230	0.453200	0.200100	0.728700
H1841	H184	0.376000	0.195800	0.709400
N471	N47	0.449500	0.125700	0.702740
C2311	C231	0.357600	0.114500	0.675000
H1851	H185	0.227400	0.108900	0.676800
C2321	C232	0.446900	0.110900	0.643300
H1861	H186	0.380500	0.101600	0.624400
C2331	C233	0.632100	0.121100	0.640000
C2341	C234	0.726200	0.132800	0.669000
H1871	H187	0.855200	0.139400	0.667600
C2351	C235	0.632600	0.134900	0.699500
H1881	H188	0.698500	0.143100	0.719000
N481	N48	0.941600	0.117010	0.546470
C2361	C236	0.833800	0.090400	0.556500
H1891	H189	0.829000	0.070400	0.542600
C2371	C237	0.729800	0.090800	0.586200
H1901	H190	0.653000	0.071600	0.592000
C2381	C238	0.737800	0.119600	0.607600
C2391	C239	0.851700	0.147100	0.598000
H1911	H191	0.861800	0.167000	0.611900
C2401	C240	0.951600	0.144500	0.567200
H1921	H192	0.030300	0.163300	0.560700
Al131	Al13	0.679500	0.869130	0.749590
Cl251	Cl25	0.931300	0.842950	0.725430
Cl261	Cl26	0.423200	0.894110	0.774670
N491	N49	0.799700	0.916820	0.742380
C2411	C241	0.697800	0.944300	0.732600
H1931	H193	0.569400	0.940900	0.726400
C2421	C242	0.771200	0.976900	0.731200
H1941	H194	0.694700	0.995700	0.724000
C2431	C243	0.959000	0.982500	0.740500
C2441	C244	0.065900	0.954100	0.749900
H1951	H195	0.195300	0.956700	0.755800
C2451	C245	0.981500	0.922100	0.750500
H1961	H196	0.055700	0.902800	0.757100
N501	N50	0.556000	0.821660	0.755330
C2461	C246	0.453800	0.813700	0.783300
H1971	H197	0.462400	0.828400	0.802600
C2471	C247	0.338600	0.785500	0.785200
H1981	H198	0.273500	0.780300	0.805700
C2481	C248	0.317700	0.764400	0.756600
C2491	C249	0.430300	0.771800	0.728500
H1991	H199	0.426200	0.757200	0.709100
C2501	C250	0.546800	0.799900	0.728700
H2001	H200	0.624000	0.804200	0.709400
N511	N51	0.550500	0.874300	0.702740
C2511	C251	0.642400	0.885500	0.675000
H2011	H201	0.772600	0.891100	0.676800
C2521	C252	0.553100	0.889100	0.643300
H2021	H202	0.619500	0.898400	0.624400
C2531	C253	0.367900	0.878900	0.640000
C2541	C254	0.273800	0.867200	0.669000
H2031	H203	0.144800	0.860600	0.667600
C2551	C255	0.367400	0.865100	0.699500
H2041	H204	0.301500	0.856900	0.719000
N521	N52	0.058400	0.882990	0.546470
C2561	C256	0.166200	0.909600	0.556500
H2051	H205	0.171000	0.929600	0.542600
C2571	C257	0.270200	0.909200	0.586200
H2061	H206	0.347000	0.928400	0.592000
C2581	C258	0.262200	0.880400	0.607600
C2591	C259	0.148300	0.852900	0.598000
H2071	H207	0.138200	0.833000	0.611900
C2601	C260	0.048400	0.855500	0.567200
H2081	H208	0.969700	0.836700	0.560700
Al141	Al14	0.679500	0.369130	0.249590
Cl271	Cl27	0.931300	0.342950	0.225430
Cl281	Cl28	0.423200	0.394110	0.274670
N531	N53	0.799700	0.416820	0.242380
C2611	C261	0.697800	0.444300	0.232600
H2091	H209	0.569400	0.440900	0.226400
C2621	C262	0.771200	0.476900	0.231200
H2101	H210	0.694700	0.495700	0.224000
C2631	C263	0.959000	0.482500	0.240500
C2641	C264	0.065900	0.454100	0.249900
H2111	H211	0.195300	0.456700	0.255800
C2651	C265	0.981500	0.422100	0.250500
H2121	H212	0.055700	0.402800	0.257100
N541	N54	0.556000	0.321660	0.255330
C2661	C266	0.453800	0.313700	0.283300
H2131	H213	0.462400	0.328400	0.302600
C2671	C267	0.338600	0.285500	0.285200
H2141	H214	0.273500	0.280300	0.305700
C2681	C268	0.317700	0.264400	0.256600
C2691	C269	0.430300	0.271800	0.228500
H2151	H215	0.426200	0.257200	0.209100
C2701	C270	0.546800	0.299900	0.228700
H2161	H216	0.624000	0.304200	0.209400
N551	N55	0.550500	0.374300	0.202740
C2711	C271	0.642400	0.385500	0.175000
H2171	H217	0.772600	0.391100	0.176800
C2721	C272	0.553100	0.389100	0.143300
H2181	H218	0.619500	0.398400	0.124400
C2731	C273	0.367900	0.378900	0.140000
C2741	C274	0.273800	0.367200	0.169000
H2191	H219	0.144800	0.360600	0.167600
C2751	C275	0.367400	0.365100	0.199500
H2201	H220	0.301500	0.356900	0.219000
N561	N56	0.058400	0.382990	0.046470
C2761	C276	0.166200	0.409600	0.056500
H2211	H221	0.171000	0.429600	0.042600
C2771	C277	0.270200	0.409200	0.086200
H2221	H222	0.347000	0.428400	0.092000
C2781	C278	0.262200	0.380400	0.107600
C2791	C279	0.148300	0.352900	0.098000
H2231	H223	0.138200	0.333000	0.111900
C2801	C280	0.048400	0.355500	0.067200
H2241	H224	0.969700	0.336700	0.060700
Al151	Al15	0.179500	0.869130	0.249590
Cl291	Cl29	0.431300	0.842950	0.225430
Cl301	Cl30	0.923200	0.894110	0.274670
N571	N57	0.299700	0.916820	0.242380
C2811	C281	0.197800	0.944300	0.232600
H2251	H225	0.069400	0.940900	0.226400
C2821	C282	0.271200	0.976900	0.231200
H2261	H226	0.194700	0.995700	0.224000
C2831	C283	0.459000	0.982500	0.240500
C2841	C284	0.565900	0.954100	0.249900
H2271	H227	0.695300	0.956700	0.255800
C2851	C285	0.481500	0.922100	0.250500
H2281	H228	0.555700	0.902800	0.257100
N581	N58	0.056000	0.821660	0.255330
C2861	C286	0.953800	0.813700	0.283300
H2291	H229	0.962400	0.828400	0.302600
C2871	C287	0.838600	0.785500	0.285200
H2301	H230	0.773500	0.780300	0.305700
C2881	C288	0.817700	0.764400	0.256600
C2891	C289	0.930300	0.771800	0.228500
H2311	H231	0.926200	0.757200	0.209100
C2901	C290	0.046800	0.799900	0.228700
H2321	H232	0.124000	0.804200	0.209400
N591	N59	0.050500	0.874300	0.202740
C2911	C291	0.142400	0.885500	0.175000
H2331	H233	0.272600	0.891100	0.176800
C2921	C292	0.053100	0.889100	0.143300
H2341	H234	0.119500	0.898400	0.124400
C2931	C293	0.867900	0.878900	0.140000
C2941	C294	0.773800	0.867200	0.169000
H2351	H235	0.644800	0.860600	0.167600
C2951	C295	0.867400	0.865100	0.199500
H2361	H236	0.801500	0.856900	0.219000
N601	N60	0.558400	0.882990	0.046470
C2961	C296	0.666200	0.909600	0.056500
H2371	H237	0.671000	0.929600	0.042600
C2971	C297	0.770200	0.909200	0.086200
H2381	H238	0.847000	0.928400	0.092000
C2981	C298	0.762200	0.880400	0.107600
C2991	C299	0.648300	0.852900	0.098000
H2391	H239	0.638200	0.833000	0.111900
C3001	C300	0.548400	0.855500	0.067200
H2401	H240	0.469700	0.836700	0.060700
Al161	Al16	0.179500	0.369130	0.749590
Cl311	Cl31	0.431300	0.342950	0.725430
Cl321	Cl32	0.923200	0.394110	0.774670
N611	N61	0.299700	0.416820	0.742380
C3011	C301	0.197800	0.444300	0.732600
H2411	H241	0.069400	0.440900	0.726400
C3021	C302	0.271200	0.476900	0.731200
H2421	H242	0.194700	0.495700	0.724000
C3031	C303	0.459000	0.482500	0.740500
C3041	C304	0.565900	0.454100	0.749900
H2431	H243	0.695300	0.456700	0.755800
C3051	C305	0.481500	0.422100	0.750500
H2441	H244	0.555700	0.402800	0.757100
N621	N62	0.056000	0.321660	0.755330
C3061	C306	0.953800	0.313700	0.783300
H2451	H245	0.962400	0.328400	0.802600
C3071	C307	0.838600	0.285500	0.785200
H2461	H246	0.773500	0.280300	0.805700
C3081	C308	0.817700	0.264400	0.756600
C3091	C309	0.930300	0.271800	0.728500
H2471	H247	0.926200	0.257200	0.709100
C3101	C310	0.046800	0.299900	0.728700
H2481	H248	0.124000	0.304200	0.709400
N631	N63	0.050500	0.374300	0.702740
C3111	C311	0.142400	0.385500	0.675000
H2491	H249	0.272600	0.391100	0.676800
C3121	C312	0.053100	0.389100	0.643300
H2501	H250	0.119500	0.398400	0.624400
C3131	C313	0.867900	0.378900	0.640000
C3141	C314	0.773800	0.367200	0.669000
H2511	H251	0.644800	0.360600	0.667600
C3151	C315	0.867400	0.365100	0.699500
H2521	H252	0.801500	0.356900	0.719000
N641	N64	0.558400	0.382990	0.546470
C3161	C316	0.666200	0.409600	0.556500
H2531	H253	0.671000	0.429600	0.542600
C3171	C317	0.770200	0.409200	0.586200
H2541	H254	0.847000	0.428400	0.592000
C3181	C318	0.762200	0.380400	0.607600
C3191	C319	0.648300	0.352900	0.598000
H2551	H255	0.638200	0.333000	0.611900
C3201	C320	0.548400	0.355500	0.567200
H2561	H256	0.469700	0.336700	0.560700
