data_HUZSUR_freeONLY_PM
_symmetry_space_group_name_H-M	'P1'
_cell_length_a	16.365600
_cell_length_b	17.979000
_cell_length_c	19.232000
_cell_angle_alpha	65.452000
_cell_angle_beta	66.275000
_cell_angle_gamma	69.154000
_symmetry_Int_Tables_number 1

loop_
_symmetry_equiv_pos_as_xyz
'x,y,z'

loop_
_atom_site_label
_atom_site_type_symbol
_atom_site_fract_x
_atom_site_fract_y
_atom_site_fract_z
K11	K1	0.178770	0.947390	0.966980
K21	K2	0.396300	0.805860	0.830300
K31	K3	0.997900	0.936600	0.954400
K41	K4	0.821230	0.052610	0.033020
K51	K5	0.603700	0.194140	0.169700
K61	K6	0.002100	0.063400	0.045600
Zn11	Zn1	0.384660	0.798590	0.034690
Zn21	Zn2	0.355050	0.035730	0.772460
Zn31	Zn3	0.615340	0.201410	0.965310
Zn41	Zn4	0.644950	0.964270	0.227540
H11	H1	0.953100	0.512400	0.860600
H21	H2	0.190600	0.494400	0.888400
H31	H3	0.976300	0.685900	0.927700
H41	H4	0.840600	0.631900	0.809300
H51	H5	0.682800	0.685500	0.834500
H61	H6	0.667600	0.715400	0.035000
H71	H7	0.824700	0.669800	0.007700
H81	H8	0.246700	0.423200	0.791900
H91	H9	0.308200	0.291200	0.777500
H101	H10	0.065300	0.230900	0.904100
H111	H11	0.001300	0.364800	0.913100
H121	H12	0.098100	0.749700	0.891900
H131	H13	0.181800	0.793900	0.932400
H141	H14	0.287700	0.554400	0.043200
H151	H15	0.211800	0.510100	0.994700
H161	H16	0.942400	0.917500	0.669200
H171	H17	0.176300	0.871400	0.497800
H181	H18	0.937600	0.865700	0.488100
H191	H19	0.803600	0.005700	0.651400
H201	H20	0.645400	0.038000	0.692400
H211	H21	0.648900	0.840900	0.641500
H221	H22	0.807600	0.813400	0.594300
H231	H23	0.044200	0.865800	0.745400
H241	H24	0.114500	0.902700	0.803700
H251	H25	0.276600	0.009100	0.586600
H261	H26	0.206400	0.971900	0.527000
H271	H27	0.231400	0.780200	0.416700
H281	H28	0.305000	0.771700	0.290800
H291	H29	0.089100	0.934800	0.218900
H301	H30	0.011500	0.934200	0.348700
H311	H31	0.456500	0.992900	0.881000
H321	H32	0.046900	0.487600	0.139400
H331	H33	0.809400	0.505600	0.111600
H341	H34	0.023700	0.314100	0.072300
H351	H35	0.159400	0.368100	0.190700
H361	H36	0.317200	0.314500	0.165500
H371	H37	0.332400	0.284600	0.965000
H381	H38	0.175300	0.330200	0.992300
H391	H39	0.753300	0.576800	0.208100
H401	H40	0.691800	0.708800	0.222500
H411	H41	0.934700	0.769100	0.095900
H421	H42	0.998700	0.635200	0.086900
H431	H43	0.901900	0.250300	0.108100
H441	H44	0.818200	0.206100	0.067600
H451	H45	0.712300	0.445600	0.956800
H461	H46	0.788200	0.489900	0.005300
H471	H47	0.057600	0.082500	0.330800
H481	H48	0.823700	0.128600	0.502200
H491	H49	0.062400	0.134300	0.511900
H501	H50	0.196400	0.994300	0.348600
H511	H51	0.354600	0.962000	0.307600
H521	H52	0.351100	0.159100	0.358500
H531	H53	0.192400	0.186600	0.405700
H541	H54	0.955800	0.134200	0.254600
H551	H55	0.885500	0.097300	0.196300
H561	H56	0.723400	0.990900	0.413400
H571	H57	0.793600	0.028100	0.473000
H581	H58	0.768600	0.219800	0.583300
H591	H59	0.695000	0.228300	0.709200
H601	H60	0.910900	0.065200	0.781100
H611	H61	0.988500	0.065800	0.651300
H621	H62	0.543500	0.007100	0.119000
C11	C1	0.949400	0.605000	0.895300
C21	C2	0.988000	0.532700	0.873700
C31	C3	0.078000	0.489800	0.871200
C41	C4	0.130100	0.522200	0.890400
C51	C5	0.092800	0.595100	0.912200
C61	C6	0.001900	0.636800	0.914000
C71	C7	0.849800	0.644300	0.906000
C81	C8	0.806500	0.649100	0.854300
C91	C9	0.711000	0.680100	0.870300
C101	C10	0.659000	0.702400	0.938000
C111	C11	0.702400	0.698900	0.989800
C121	C12	0.796400	0.671000	0.973700
C131	C13	0.118100	0.407700	0.856600
C141	C14	0.209700	0.385000	0.814500
C151	C15	0.246700	0.305400	0.805700
C161	C16	0.193600	0.247400	0.838100
C171	C17	0.101600	0.269900	0.880400
C181	C18	0.063600	0.349700	0.887500
C191	C19	0.146300	0.624900	0.938000
C201	C20	0.137500	0.710300	0.920900
C211	C21	0.186400	0.736800	0.946300
C221	C22	0.243500	0.678100	0.993400
C231	C23	0.251000	0.593800	0.011600
C241	C24	0.204400	0.567300	0.983300
C251	C25	0.234100	0.161000	0.831200
C261	C26	0.556600	0.730900	0.957100
C271	C27	0.296300	0.705800	0.023100
C281	C28	0.924300	0.893200	0.584400
C291	C29	0.973400	0.904600	0.621700
C301	C30	0.067500	0.897400	0.590600
C311	C31	0.113100	0.877900	0.518800
C321	C32	0.065100	0.867900	0.478300
C331	C33	0.970200	0.874200	0.513000
C341	C34	0.822700	0.907700	0.616400
C351	C35	0.772600	0.973700	0.647600
C361	C36	0.677500	0.992700	0.673300
C371	C37	0.630200	0.943700	0.670300
C381	C38	0.679800	0.875200	0.641900
C391	C39	0.775300	0.858100	0.614300
C401	C40	0.117500	0.914400	0.629500
C411	C41	0.091000	0.894300	0.713400
C421	C42	0.133100	0.916200	0.748300
C431	C43	0.203100	0.958300	0.701900
C441	C44	0.230200	0.980000	0.618000
C451	C45	0.188000	0.957900	0.582500
C461	C46	0.113100	0.858600	0.397400
C471	C47	0.202100	0.810400	0.377300
C481	C48	0.246900	0.806400	0.301800
C491	C49	0.206000	0.854300	0.240100
C501	C50	0.117500	0.902700	0.258800
C511	C51	0.071600	0.903200	0.336600
C521	C52	0.527900	0.960600	0.700300
C531	C53	0.250000	0.978900	0.741800
C541	C54	0.254100	0.853100	0.155800
C551	C55	0.420700	0.953300	0.910500
C561	C56	0.848600	0.882600	0.935900
C571	C57	0.797900	0.878600	0.839900
C581	C58	0.684700	0.921400	0.957100
C591	C59	0.420000	0.610800	0.828000
C601	C60	0.507000	0.570000	0.910000
C611	C61	0.459700	0.463500	0.883400
C621	C62	0.996600	0.876900	0.141600
C631	C63	0.079700	0.726300	0.204800
C641	C64	0.943200	0.804300	0.277700
C651	C65	0.050600	0.395000	0.104700
C661	C66	0.012000	0.467300	0.126300
C671	C67	0.922000	0.510200	0.128800
C681	C68	0.869900	0.477800	0.109600
C691	C69	0.907200	0.404900	0.087800
C701	C70	0.998100	0.363200	0.086000
C711	C71	0.150200	0.355700	0.094000
C721	C72	0.193500	0.350900	0.145700
C731	C73	0.289000	0.319900	0.129700
C741	C74	0.341000	0.297600	0.062000
C751	C75	0.297600	0.301100	0.010200
C761	C76	0.203600	0.329000	0.026300
C771	C77	0.881900	0.592300	0.143400
C781	C78	0.790300	0.615000	0.185500
C791	C79	0.753300	0.694600	0.194300
C801	C80	0.806400	0.752600	0.161900
C811	C81	0.898400	0.730100	0.119600
C821	C82	0.936400	0.650300	0.112500
C831	C83	0.853700	0.375100	0.062000
C841	C84	0.862500	0.289700	0.079100
C851	C85	0.813600	0.263200	0.053700
C861	C86	0.756500	0.321900	0.006600
C871	C87	0.749000	0.406200	0.988400
C881	C88	0.795600	0.432700	0.016700
C891	C89	0.765900	0.839000	0.168800
C901	C90	0.443400	0.269100	0.042900
C911	C91	0.703700	0.294200	0.976900
C921	C92	0.075700	0.106800	0.415600
C931	C93	0.026600	0.095400	0.378300
C941	C94	0.932500	0.102600	0.409400
C951	C95	0.886900	0.122100	0.481200
C961	C96	0.934900	0.132100	0.521700
C971	C97	0.029800	0.125800	0.487000
C981	C98	0.177300	0.092300	0.383600
C991	C99	0.227400	0.026300	0.352400
C1001	C100	0.322500	0.007300	0.326700
C1011	C101	0.369800	0.056300	0.329700
C1021	C102	0.320200	0.124800	0.358100
C1031	C103	0.224700	0.141900	0.385700
C1041	C104	0.882500	0.085600	0.370500
C1051	C105	0.909000	0.105700	0.286600
C1061	C106	0.866900	0.083800	0.251700
C1071	C107	0.796900	0.041700	0.298100
C1081	C108	0.769800	0.020000	0.382000
C1091	C109	0.812000	0.042100	0.417500
C1101	C110	0.886900	0.141400	0.602600
C1111	C111	0.797900	0.189600	0.622700
C1121	C112	0.753100	0.193600	0.698200
C1131	C113	0.794000	0.145700	0.759900
C1141	C114	0.882500	0.097300	0.741200
C1151	C115	0.928400	0.096800	0.663400
C1161	C116	0.472100	0.039400	0.299700
C1171	C117	0.750000	0.021100	0.258200
C1181	C118	0.745900	0.146900	0.844200
C1191	C119	0.579300	0.046700	0.089500
C1201	C120	0.151400	0.117400	0.064100
C1211	C121	0.202100	0.121400	0.160100
C1221	C122	0.315300	0.078600	0.042900
C1231	C123	0.580000	0.389200	0.172000
C1241	C124	0.493000	0.430000	0.090000
C1251	C125	0.540300	0.536500	0.116600
C1261	C126	0.003400	0.123100	0.858400
C1271	C127	0.920300	0.273700	0.795200
C1281	C128	0.056800	0.195700	0.722300
N11	N1	0.772300	0.891400	0.911200
N21	N2	0.466400	0.538300	0.875000
N31	N3	0.010100	0.801400	0.204700
N41	N4	0.227700	0.108600	0.088800
N51	N5	0.533600	0.461700	0.125000
N61	N6	0.989900	0.198600	0.795300
O11	O1	0.521500	0.752600	0.903100
O21	O2	0.511300	0.733300	0.028100
O31	O3	0.189300	0.106200	0.870500
O41	O4	0.314700	0.148600	0.783200
O51	O5	0.303000	0.783700	0.991000
O61	O6	0.332900	0.654500	0.074500
O71	O7	0.487400	0.030400	0.717100
O81	O8	0.487000	0.910400	0.708300
O91	O9	0.246900	0.937900	0.813200
O101	O10	0.293000	0.037800	0.700500
O111	O11	0.222700	0.903800	0.100500
O121	O12	0.329200	0.795100	0.147100
O131	O13	0.366600	0.951900	0.880200
O141	O14	0.430300	0.905700	0.977200
O151	O15	0.927000	0.861900	0.896800
O161	O16	0.414000	0.683600	0.788200
O171	O17	0.046400	0.869100	0.069000
O181	O18	0.478500	0.247400	0.096900
O191	O19	0.488700	0.266700	0.971900
O201	O20	0.810700	0.893800	0.129500
O211	O21	0.685300	0.851400	0.216800
O221	O22	0.697000	0.216300	0.009000
O231	O23	0.667100	0.345500	0.925500
O241	O24	0.512600	0.969600	0.282900
O251	O25	0.513000	0.089600	0.291700
O261	O26	0.753100	0.062100	0.186800
O271	O27	0.707000	0.962200	0.299500
O281	O28	0.777300	0.096200	0.899500
O291	O29	0.670800	0.204900	0.852900
O301	O30	0.633400	0.048100	0.119800
O311	O31	0.569700	0.094300	0.022800
O321	O32	0.073000	0.138100	0.103200
O331	O33	0.586000	0.316400	0.211800
O341	O34	0.953600	0.130900	0.931000
