data_HUZXAD_freeONLY_PM
_symmetry_space_group_name_H-M	'P1'
_cell_length_a	28.068200
_cell_length_b	27.114700
_cell_length_c	28.060300
_cell_angle_alpha	90.000000
_cell_angle_beta	98.558000
_cell_angle_gamma	90.000000
_symmetry_Int_Tables_number 1

loop_
_symmetry_equiv_pos_as_xyz
'x,y,z'

loop_
_atom_site_label
_atom_site_type_symbol
_atom_site_fract_x
_atom_site_fract_y
_atom_site_fract_z
C11	C1	0.046500	0.420390	0.136400
C21	C2	0.007900	0.380630	0.138730
C31	C3	0.983300	0.361800	0.096860
H11	H1	0.991200	0.371800	0.067300
C41	C4	0.947200	0.328300	0.098900
H21	H2	0.929200	0.317200	0.070400
C51	C5	0.936900	0.310500	0.143100
C61	C6	0.962100	0.328900	0.185000
H31	H3	0.954600	0.318200	0.214500
C71	C7	0.998300	0.362800	0.183850
H41	H4	0.016200	0.373900	0.212300
C81	C8	0.898500	0.274400	0.144100
C91	C9	0.893400	0.235200	0.113500
H51	H5	0.914600	0.232200	0.091200
C101	C10	0.858800	0.200500	0.113800
C111	C11	0.824200	0.202400	0.142900
C121	C12	0.827500	0.243200	0.173500
H61	H6	0.804200	0.247300	0.193600
C131	C13	0.863600	0.277600	0.175400
C141	C14	0.721100	0.114400	0.102400
H71	H7	0.702300	0.104700	0.073800
C151	C15	0.757500	0.147900	0.101700
H81	H8	0.763900	0.159800	0.072300
C161	C16	0.784900	0.164300	0.143300
C171	C17	0.775600	0.143800	0.186100
H91	H9	0.793900	0.153800	0.214800
C181	C18	0.741500	0.110700	0.187400
H101	H10	0.736600	0.097300	0.216900
C191	C19	0.712700	0.095400	0.145300
C201	C20	0.673800	0.057940	0.147750
C211	C21	0.889800	0.157900	0.042200
H111	H11	0.884300	0.127700	0.024200
H121	H12	0.922900	0.159500	0.056700
H131	H13	0.882400	0.185400	0.020900
C221	C22	0.831700	0.320900	0.236800
H141	H14	0.836200	0.349800	0.256600
H151	H15	0.835000	0.292000	0.256900
H161	H16	0.800100	0.321400	0.218200
C231	C23	0.042500	0.555330	0.134800
C241	C24	0.004700	0.592100	0.135700
C251	C25	0.996300	0.612300	0.178990
H171	H17	0.015400	0.602300	0.207300
C261	C26	0.960000	0.647300	0.182000
H181	H18	0.953700	0.658100	0.211800
C271	C27	0.933300	0.666100	0.139300
C281	C28	0.943100	0.645800	0.095400
H191	H19	0.925100	0.656200	0.066600
C291	C29	0.978600	0.611300	0.094200
H201	H20	0.985400	0.600400	0.064500
C301	C30	0.897900	0.706200	0.140700
C311	C31	0.892100	0.741000	0.112400
H211	H21	0.913300	0.743700	0.090000
C321	C32	0.856300	0.776700	0.111400
C331	C33	0.827800	0.782200	0.141900
C341	C34	0.831400	0.746000	0.172200
H221	H22	0.810700	0.746500	0.195200
C351	C35	0.864200	0.704900	0.174100
C361	C36	0.744400	0.872500	0.185700
H231	H23	0.738000	0.884800	0.215000
C371	C37	0.780200	0.838800	0.184700
H241	H24	0.798400	0.829300	0.213700
C381	C38	0.790500	0.817900	0.142400
C391	C39	0.765900	0.835700	0.101200
H251	H25	0.774000	0.825200	0.071800
C401	C40	0.729100	0.869100	0.101400
H261	H26	0.711300	0.878900	0.072300
C411	C41	0.718000	0.888200	0.143600
C421	C42	0.677400	0.924700	0.143700
C431	C43	0.830600	0.667900	0.242400
H271	H27	0.833000	0.639500	0.263000
H281	H28	0.798400	0.670500	0.225400
H291	H29	0.838200	0.697000	0.261500
C441	C44	0.133400	0.530900	0.495320
H301	H30	0.155800	0.550000	0.514900
C451	C45	0.136400	0.528600	0.447800
H311	H31	0.160900	0.546000	0.436300
C461	C46	0.105700	0.502290	0.416300
C471	C47	0.071200	0.481900	0.437200
H321	H32	0.047200	0.464200	0.418000
C481	C48	0.068800	0.485700	0.486810
H331	H33	0.043000	0.471600	0.499100
C491	C49	0.100700	0.455800	0.291000
H341	H34	0.092700	0.426100	0.275200
C501	C50	0.098000	0.459300	0.340120
H351	H35	0.089200	0.431500	0.356200
C511	C51	0.107150	0.498530	0.363410
C521	C52	0.122200	0.536400	0.339050
H361	H36	0.133000	0.565900	0.353900
C531	C53	0.120500	0.528800	0.291500
H371	H37	0.125500	0.557300	0.274600
N11	N1	0.101100	0.507980	0.514910
N21	N2	0.114000	0.493060	0.266390
O11	O1	0.053050	0.436410	0.097460
O21	O2	0.067920	0.434810	0.177800
O31	O3	0.653080	0.043150	0.107850
O41	O4	0.666340	0.044690	0.188070
O51	O5	0.856700	0.159300	0.082500
O61	O6	0.867000	0.319800	0.205300
O71	O7	0.063860	0.539730	0.174110
O81	O8	0.050550	0.540850	0.093940
O91	O9	0.669950	0.940100	0.185020
O101	O10	0.655930	0.939120	0.104510
O111	O11	0.868400	0.824900	0.079900
O121	O12	0.863200	0.663200	0.209100
Zn11	Zn1	0.102060	0.489910	0.088170
Zn21	Zn2	0.117330	0.489790	0.194450
C541	C54	0.546500	0.920390	0.136400
C551	C55	0.507900	0.880630	0.138730
C561	C56	0.483300	0.861800	0.096860
H381	H38	0.491200	0.871800	0.067300
C571	C57	0.447200	0.828300	0.098900
H391	H39	0.429200	0.817200	0.070400
C581	C58	0.436900	0.810500	0.143100
C591	C59	0.462100	0.828900	0.185000
H401	H40	0.454600	0.818200	0.214500
C601	C60	0.498300	0.862800	0.183850
H411	H41	0.516200	0.873900	0.212300
C611	C61	0.398500	0.774400	0.144100
C621	C62	0.393400	0.735200	0.113500
H421	H42	0.414600	0.732200	0.091200
C631	C63	0.358800	0.700500	0.113800
C641	C64	0.324200	0.702400	0.142900
C651	C65	0.327500	0.743200	0.173500
H431	H43	0.304200	0.747300	0.193600
C661	C66	0.363600	0.777600	0.175400
C671	C67	0.221100	0.614400	0.102400
H441	H44	0.202300	0.604700	0.073800
C681	C68	0.257500	0.647900	0.101700
H451	H45	0.263900	0.659800	0.072300
C691	C69	0.284900	0.664300	0.143300
C701	C70	0.275600	0.643800	0.186100
H461	H46	0.293900	0.653800	0.214800
C711	C71	0.241500	0.610700	0.187400
H471	H47	0.236600	0.597300	0.216900
C721	C72	0.212700	0.595400	0.145300
C731	C73	0.173800	0.557940	0.147750
C741	C74	0.389800	0.657900	0.042200
H481	H48	0.384300	0.627700	0.024200
H491	H49	0.422900	0.659500	0.056700
H501	H50	0.382400	0.685400	0.020900
C751	C75	0.331700	0.820900	0.236800
H511	H51	0.336200	0.849800	0.256600
H521	H52	0.335000	0.792000	0.256900
H531	H53	0.300100	0.821400	0.218200
C761	C76	0.542500	0.055330	0.134800
C771	C77	0.504700	0.092100	0.135700
C781	C78	0.496300	0.112300	0.178990
H541	H54	0.515400	0.102300	0.207300
C791	C79	0.460000	0.147300	0.182000
H551	H55	0.453700	0.158100	0.211800
C801	C80	0.433300	0.166100	0.139300
C811	C81	0.443100	0.145800	0.095400
H561	H56	0.425100	0.156200	0.066600
C821	C82	0.478600	0.111300	0.094200
H571	H57	0.485400	0.100400	0.064500
C831	C83	0.397900	0.206200	0.140700
C841	C84	0.392100	0.241000	0.112400
H581	H58	0.413300	0.243700	0.090000
C851	C85	0.356300	0.276700	0.111400
C861	C86	0.327800	0.282200	0.141900
C871	C87	0.331400	0.246000	0.172200
H591	H59	0.310700	0.246500	0.195200
C881	C88	0.364200	0.204900	0.174100
C891	C89	0.244400	0.372500	0.185700
H601	H60	0.238000	0.384800	0.215000
C901	C90	0.280200	0.338800	0.184700
H611	H61	0.298400	0.329300	0.213700
C911	C91	0.290500	0.317900	0.142400
C921	C92	0.265900	0.335700	0.101200
H621	H62	0.274000	0.325200	0.071800
C931	C93	0.229100	0.369100	0.101400
H631	H63	0.211300	0.378900	0.072300
C941	C94	0.218000	0.388200	0.143600
C951	C95	0.177400	0.424700	0.143700
C961	C96	0.330600	0.167900	0.242400
H641	H64	0.333000	0.139500	0.263000
H651	H65	0.298400	0.170500	0.225400
H661	H66	0.338200	0.197000	0.261500
C971	C97	0.633400	0.030900	0.495320
H671	H67	0.655800	0.050000	0.514900
C981	C98	0.636400	0.028600	0.447800
H681	H68	0.660900	0.046000	0.436300
C991	C99	0.605700	0.002290	0.416300
C1001	C100	0.571200	0.981900	0.437200
H691	H69	0.547200	0.964200	0.418000
C1011	C101	0.568800	0.985700	0.486810
H701	H70	0.543000	0.971600	0.499100
C1021	C102	0.600700	0.955800	0.291000
H711	H71	0.592700	0.926100	0.275200
C1031	C103	0.598000	0.959300	0.340120
H721	H72	0.589200	0.931500	0.356200
C1041	C104	0.607150	0.998530	0.363410
C1051	C105	0.622200	0.036400	0.339050
H731	H73	0.633000	0.065900	0.353900
C1061	C106	0.620500	0.028800	0.291500
H741	H74	0.625500	0.057300	0.274600
N31	N3	0.601100	0.007980	0.514910
N41	N4	0.614000	0.993060	0.266390
O131	O13	0.553050	0.936410	0.097460
O141	O14	0.567920	0.934810	0.177800
O151	O15	0.153080	0.543150	0.107850
O161	O16	0.166340	0.544690	0.188070
O171	O17	0.356700	0.659300	0.082500
O181	O18	0.367000	0.819800	0.205300
O191	O19	0.563860	0.039730	0.174110
O201	O20	0.550550	0.040850	0.093940
O211	O21	0.169950	0.440100	0.185020
O221	O22	0.155930	0.439120	0.104510
O231	O23	0.368400	0.324900	0.079900
O241	O24	0.363200	0.163200	0.209100
Zn31	Zn3	0.602060	0.989910	0.088170
Zn41	Zn4	0.617330	0.989790	0.194450
C1071	C107	0.046500	0.579610	0.636400
C1081	C108	0.007900	0.619370	0.638730
C1091	C109	0.983300	0.638200	0.596860
H751	H75	0.991200	0.628200	0.567300
C1101	C110	0.947200	0.671700	0.598900
H761	H76	0.929200	0.682800	0.570400
C1111	C111	0.936900	0.689500	0.643100
C1121	C112	0.962100	0.671100	0.685000
H771	H77	0.954600	0.681800	0.714500
C1131	C113	0.998300	0.637200	0.683850
H781	H78	0.016200	0.626100	0.712300
C1141	C114	0.898500	0.725600	0.644100
C1151	C115	0.893400	0.764800	0.613500
H791	H79	0.914600	0.767800	0.591200
C1161	C116	0.858800	0.799500	0.613800
C1171	C117	0.824200	0.797600	0.642900
C1181	C118	0.827500	0.756800	0.673500
H801	H80	0.804200	0.752700	0.693600
C1191	C119	0.863600	0.722400	0.675400
C1201	C120	0.721100	0.885600	0.602400
H811	H81	0.702300	0.895300	0.573800
C1211	C121	0.757500	0.852100	0.601700
H821	H82	0.763900	0.840200	0.572300
C1221	C122	0.784900	0.835700	0.643300
C1231	C123	0.775600	0.856200	0.686100
H831	H83	0.793900	0.846200	0.714800
C1241	C124	0.741500	0.889300	0.687400
H841	H84	0.736600	0.902700	0.716900
C1251	C125	0.712700	0.904600	0.645300
C1261	C126	0.673800	0.942060	0.647750
C1271	C127	0.889800	0.842100	0.542200
H851	H85	0.884300	0.872300	0.524200
H861	H86	0.922900	0.840500	0.556700
H871	H87	0.882400	0.814600	0.520900
C1281	C128	0.831700	0.679100	0.736800
H881	H88	0.836200	0.650200	0.756600
H891	H89	0.835000	0.708000	0.756900
H901	H90	0.800100	0.678600	0.718200
C1291	C129	0.042500	0.444670	0.634800
C1301	C130	0.004700	0.407900	0.635700
C1311	C131	0.996300	0.387700	0.678990
H911	H91	0.015400	0.397700	0.707300
C1321	C132	0.960000	0.352700	0.682000
H921	H92	0.953700	0.341900	0.711800
C1331	C133	0.933300	0.333900	0.639300
C1341	C134	0.943100	0.354200	0.595400
H931	H93	0.925100	0.343800	0.566600
C1351	C135	0.978600	0.388700	0.594200
H941	H94	0.985400	0.399600	0.564500
C1361	C136	0.897900	0.293800	0.640700
C1371	C137	0.892100	0.259000	0.612400
H951	H95	0.913300	0.256300	0.590000
C1381	C138	0.856300	0.223300	0.611400
C1391	C139	0.827800	0.217800	0.641900
C1401	C140	0.831400	0.254000	0.672200
H961	H96	0.810700	0.253500	0.695200
C1411	C141	0.864200	0.295100	0.674100
C1421	C142	0.744400	0.127500	0.685700
H971	H97	0.738000	0.115200	0.715000
C1431	C143	0.780200	0.161200	0.684700
H981	H98	0.798400	0.170700	0.713700
C1441	C144	0.790500	0.182100	0.642400
C1451	C145	0.765900	0.164300	0.601200
H991	H99	0.774000	0.174800	0.571800
C1461	C146	0.729100	0.130900	0.601400
H1001	H100	0.711300	0.121100	0.572300
C1471	C147	0.718000	0.111800	0.643600
C1481	C148	0.677400	0.075300	0.643700
C1491	C149	0.830600	0.332100	0.742400
H1011	H101	0.833000	0.360500	0.763000
H1021	H102	0.798400	0.329500	0.725400
H1031	H103	0.838200	0.303000	0.761500
C1501	C150	0.133400	0.469100	0.995320
H1041	H104	0.155800	0.450000	0.014900
C1511	C151	0.136400	0.471400	0.947800
H1051	H105	0.160900	0.454000	0.936300
C1521	C152	0.105700	0.497710	0.916300
C1531	C153	0.071200	0.518100	0.937200
H1061	H106	0.047200	0.535800	0.918000
C1541	C154	0.068800	0.514300	0.986810
H1071	H107	0.043000	0.528400	0.999100
C1551	C155	0.100700	0.544200	0.791000
H1081	H108	0.092700	0.573900	0.775200
C1561	C156	0.098000	0.540700	0.840120
H1091	H109	0.089200	0.568500	0.856200
C1571	C157	0.107150	0.501470	0.863410
C1581	C158	0.122200	0.463600	0.839050
H1101	H110	0.133000	0.434100	0.853900
C1591	C159	0.120500	0.471200	0.791500
H1111	H111	0.125500	0.442700	0.774600
N51	N5	0.101100	0.492020	0.014910
N61	N6	0.114000	0.506940	0.766390
O251	O25	0.053050	0.563590	0.597460
O261	O26	0.067920	0.565190	0.677800
O271	O27	0.653080	0.956850	0.607850
O281	O28	0.666340	0.955310	0.688070
O291	O29	0.856700	0.840700	0.582500
O301	O30	0.867000	0.680200	0.705300
O311	O31	0.063860	0.460270	0.674110
O321	O32	0.050550	0.459150	0.593940
O331	O33	0.669950	0.059900	0.685020
O341	O34	0.655930	0.060880	0.604510
O351	O35	0.868400	0.175100	0.579900
O361	O36	0.863200	0.336800	0.709100
Zn51	Zn5	0.102060	0.510090	0.588170
Zn61	Zn6	0.117330	0.510210	0.694450
C1601	C160	0.546500	0.079610	0.636400
C1611	C161	0.507900	0.119370	0.638730
C1621	C162	0.483300	0.138200	0.596860
H1121	H112	0.491200	0.128200	0.567300
C1631	C163	0.447200	0.171700	0.598900
H1131	H113	0.429200	0.182800	0.570400
C1641	C164	0.436900	0.189500	0.643100
C1651	C165	0.462100	0.171100	0.685000
H1141	H114	0.454600	0.181800	0.714500
C1661	C166	0.498300	0.137200	0.683850
H1151	H115	0.516200	0.126100	0.712300
C1671	C167	0.398500	0.225600	0.644100
C1681	C168	0.393400	0.264800	0.613500
H1161	H116	0.414600	0.267800	0.591200
C1691	C169	0.358800	0.299500	0.613800
C1701	C170	0.324200	0.297600	0.642900
C1711	C171	0.327500	0.256800	0.673500
H1171	H117	0.304200	0.252700	0.693600
C1721	C172	0.363600	0.222400	0.675400
C1731	C173	0.221100	0.385600	0.602400
H1181	H118	0.202300	0.395300	0.573800
C1741	C174	0.257500	0.352100	0.601700
H1191	H119	0.263900	0.340200	0.572300
C1751	C175	0.284900	0.335700	0.643300
C1761	C176	0.275600	0.356200	0.686100
H1201	H120	0.293900	0.346200	0.714800
C1771	C177	0.241500	0.389300	0.687400
H1211	H121	0.236600	0.402700	0.716900
C1781	C178	0.212700	0.404600	0.645300
C1791	C179	0.173800	0.442060	0.647750
C1801	C180	0.389800	0.342100	0.542200
H1221	H122	0.384300	0.372300	0.524200
H1231	H123	0.422900	0.340500	0.556700
H1241	H124	0.382400	0.314600	0.520900
C1811	C181	0.331700	0.179100	0.736800
H1251	H125	0.336200	0.150200	0.756600
H1261	H126	0.335000	0.208000	0.756900
H1271	H127	0.300100	0.178600	0.718200
C1821	C182	0.542500	0.944670	0.634800
C1831	C183	0.504700	0.907900	0.635700
C1841	C184	0.496300	0.887700	0.678990
H1281	H128	0.515400	0.897700	0.707300
C1851	C185	0.460000	0.852700	0.682000
H1291	H129	0.453700	0.841900	0.711800
C1861	C186	0.433300	0.833900	0.639300
C1871	C187	0.443100	0.854200	0.595400
H1301	H130	0.425100	0.843800	0.566600
C1881	C188	0.478600	0.888700	0.594200
H1311	H131	0.485400	0.899600	0.564500
C1891	C189	0.397900	0.793800	0.640700
C1901	C190	0.392100	0.759000	0.612400
H1321	H132	0.413300	0.756300	0.590000
C1911	C191	0.356300	0.723300	0.611400
C1921	C192	0.327800	0.717800	0.641900
C1931	C193	0.331400	0.754000	0.672200
H1331	H133	0.310700	0.753500	0.695200
C1941	C194	0.364200	0.795100	0.674100
C1951	C195	0.244400	0.627500	0.685700
H1341	H134	0.238000	0.615200	0.715000
C1961	C196	0.280200	0.661200	0.684700
H1351	H135	0.298400	0.670700	0.713700
C1971	C197	0.290500	0.682100	0.642400
C1981	C198	0.265900	0.664300	0.601200
H1361	H136	0.274000	0.674800	0.571800
C1991	C199	0.229100	0.630900	0.601400
H1371	H137	0.211300	0.621100	0.572300
C2001	C200	0.218000	0.611800	0.643600
C2011	C201	0.177400	0.575300	0.643700
C2021	C202	0.330600	0.832100	0.742400
H1381	H138	0.333000	0.860500	0.763000
H1391	H139	0.298400	0.829500	0.725400
H1401	H140	0.338200	0.803000	0.761500
C2031	C203	0.633400	0.969100	0.995320
H1411	H141	0.655800	0.950000	0.014900
C2041	C204	0.636400	0.971400	0.947800
H1421	H142	0.660900	0.954000	0.936300
C2051	C205	0.605700	0.997710	0.916300
C2061	C206	0.571200	0.018100	0.937200
H1431	H143	0.547200	0.035800	0.918000
C2071	C207	0.568800	0.014300	0.986810
H1441	H144	0.543000	0.028400	0.999100
C2081	C208	0.600700	0.044200	0.791000
H1451	H145	0.592700	0.073900	0.775200
C2091	C209	0.598000	0.040700	0.840120
H1461	H146	0.589200	0.068500	0.856200
C2101	C210	0.607150	0.001470	0.863410
C2111	C211	0.622200	0.963600	0.839050
H1471	H147	0.633000	0.934100	0.853900
C2121	C212	0.620500	0.971200	0.791500
H1481	H148	0.625500	0.942700	0.774600
N71	N7	0.601100	0.992020	0.014910
N81	N8	0.614000	0.006940	0.766390
O371	O37	0.553050	0.063590	0.597460
O381	O38	0.567920	0.065190	0.677800
O391	O39	0.153080	0.456850	0.607850
O401	O40	0.166340	0.455310	0.688070
O411	O41	0.356700	0.340700	0.582500
O421	O42	0.367000	0.180200	0.705300
O431	O43	0.563860	0.960270	0.674110
O441	O44	0.550550	0.959150	0.593940
O451	O45	0.169950	0.559900	0.685020
O461	O46	0.155930	0.560880	0.604510
O471	O47	0.368400	0.675100	0.579900
O481	O48	0.363200	0.836800	0.709100
Zn71	Zn7	0.602060	0.010090	0.588170
Zn81	Zn8	0.617330	0.010210	0.694450
C2131	C213	0.953500	0.420390	0.363600
C2141	C214	0.992100	0.380630	0.361270
C2151	C215	0.016700	0.361800	0.403140
H1491	H149	0.008800	0.371800	0.432700
C2161	C216	0.052800	0.328300	0.401100
H1501	H150	0.070800	0.317200	0.429600
C2171	C217	0.063100	0.310500	0.356900
C2181	C218	0.037900	0.328900	0.315000
H1511	H151	0.045400	0.318200	0.285500
C2191	C219	0.001700	0.362800	0.316150
H1521	H152	0.983800	0.373900	0.287700
C2201	C220	0.101500	0.274400	0.355900
C2211	C221	0.106600	0.235200	0.386500
H1531	H153	0.085400	0.232200	0.408800
C2221	C222	0.141200	0.200500	0.386200
C2231	C223	0.175800	0.202400	0.357100
C2241	C224	0.172500	0.243200	0.326500
H1541	H154	0.195800	0.247300	0.306400
C2251	C225	0.136400	0.277600	0.324600
C2261	C226	0.278900	0.114400	0.397600
H1551	H155	0.297700	0.104700	0.426200
C2271	C227	0.242500	0.147900	0.398300
H1561	H156	0.236100	0.159800	0.427700
C2281	C228	0.215100	0.164300	0.356700
C2291	C229	0.224400	0.143800	0.313900
H1571	H157	0.206100	0.153800	0.285200
C2301	C230	0.258500	0.110700	0.312600
H1581	H158	0.263400	0.097300	0.283100
C2311	C231	0.287300	0.095400	0.354700
C2321	C232	0.326200	0.057940	0.352250
C2331	C233	0.110200	0.157900	0.457800
H1591	H159	0.115700	0.127700	0.475800
H1601	H160	0.077100	0.159500	0.443300
H1611	H161	0.117600	0.185400	0.479100
C2341	C234	0.168300	0.320900	0.263200
H1621	H162	0.163800	0.349800	0.243400
H1631	H163	0.165000	0.292000	0.243100
H1641	H164	0.199900	0.321400	0.281800
C2351	C235	0.957500	0.555330	0.365200
C2361	C236	0.995300	0.592100	0.364300
C2371	C237	0.003700	0.612300	0.321010
H1651	H165	0.984600	0.602300	0.292700
C2381	C238	0.040000	0.647300	0.318000
H1661	H166	0.046300	0.658100	0.288200
C2391	C239	0.066700	0.666100	0.360700
C2401	C240	0.056900	0.645800	0.404600
H1671	H167	0.074900	0.656200	0.433400
C2411	C241	0.021400	0.611300	0.405800
H1681	H168	0.014600	0.600400	0.435500
C2421	C242	0.102100	0.706200	0.359300
C2431	C243	0.107900	0.741000	0.387600
H1691	H169	0.086700	0.743700	0.410000
C2441	C244	0.143700	0.776700	0.388600
C2451	C245	0.172200	0.782200	0.358100
C2461	C246	0.168600	0.746000	0.327800
H1701	H170	0.189300	0.746500	0.304800
C2471	C247	0.135800	0.704900	0.325900
C2481	C248	0.255600	0.872500	0.314300
H1711	H171	0.262000	0.884800	0.285000
C2491	C249	0.219800	0.838800	0.315300
H1721	H172	0.201600	0.829300	0.286300
C2501	C250	0.209500	0.817900	0.357600
C2511	C251	0.234100	0.835700	0.398800
H1731	H173	0.226000	0.825200	0.428200
C2521	C252	0.270900	0.869100	0.398600
H1741	H174	0.288700	0.878900	0.427700
C2531	C253	0.282000	0.888200	0.356400
C2541	C254	0.322600	0.924700	0.356300
C2551	C255	0.169400	0.667900	0.257600
H1751	H175	0.167000	0.639500	0.237000
H1761	H176	0.201600	0.670500	0.274600
H1771	H177	0.161800	0.697000	0.238500
C2561	C256	0.866600	0.530900	0.004680
H1781	H178	0.844200	0.550000	0.985100
C2571	C257	0.863600	0.528600	0.052200
H1791	H179	0.839100	0.546000	0.063700
C2581	C258	0.894300	0.502290	0.083700
C2591	C259	0.928800	0.481900	0.062800
H1801	H180	0.952800	0.464200	0.082000
C2601	C260	0.931200	0.485700	0.013190
H1811	H181	0.957000	0.471600	0.000900
C2611	C261	0.899300	0.455800	0.209000
H1821	H182	0.907300	0.426100	0.224800
C2621	C262	0.902000	0.459300	0.159880
H1831	H183	0.910800	0.431500	0.143800
C2631	C263	0.892850	0.498530	0.136590
C2641	C264	0.877800	0.536400	0.160950
H1841	H184	0.867000	0.565900	0.146100
C2651	C265	0.879500	0.528800	0.208500
H1851	H185	0.874500	0.557300	0.225400
N91	N9	0.898900	0.507980	0.985090
N101	N10	0.886000	0.493060	0.233610
O491	O49	0.946950	0.436410	0.402540
O501	O50	0.932080	0.434810	0.322200
O511	O51	0.346920	0.043150	0.392150
O521	O52	0.333660	0.044690	0.311930
O531	O53	0.143300	0.159300	0.417500
O541	O54	0.133000	0.319800	0.294700
O551	O55	0.936140	0.539730	0.325890
O561	O56	0.949450	0.540850	0.406060
O571	O57	0.330050	0.940100	0.314980
O581	O58	0.344070	0.939120	0.395490
O591	O59	0.131600	0.824900	0.420100
O601	O60	0.136800	0.663200	0.290900
Zn91	Zn9	0.897940	0.489910	0.411830
Zn101	Zn10	0.882670	0.489790	0.305550
C2661	C266	0.453500	0.920390	0.363600
C2671	C267	0.492100	0.880630	0.361270
C2681	C268	0.516700	0.861800	0.403140
H1861	H186	0.508800	0.871800	0.432700
C2691	C269	0.552800	0.828300	0.401100
H1871	H187	0.570800	0.817200	0.429600
C2701	C270	0.563100	0.810500	0.356900
C2711	C271	0.537900	0.828900	0.315000
H1881	H188	0.545400	0.818200	0.285500
C2721	C272	0.501700	0.862800	0.316150
H1891	H189	0.483800	0.873900	0.287700
C2731	C273	0.601500	0.774400	0.355900
C2741	C274	0.606600	0.735200	0.386500
H1901	H190	0.585400	0.732200	0.408800
C2751	C275	0.641200	0.700500	0.386200
C2761	C276	0.675800	0.702400	0.357100
C2771	C277	0.672500	0.743200	0.326500
H1911	H191	0.695800	0.747300	0.306400
C2781	C278	0.636400	0.777600	0.324600
C2791	C279	0.778900	0.614400	0.397600
H1921	H192	0.797700	0.604700	0.426200
C2801	C280	0.742500	0.647900	0.398300
H1931	H193	0.736100	0.659800	0.427700
C2811	C281	0.715100	0.664300	0.356700
C2821	C282	0.724400	0.643800	0.313900
H1941	H194	0.706100	0.653800	0.285200
C2831	C283	0.758500	0.610700	0.312600
H1951	H195	0.763400	0.597300	0.283100
C2841	C284	0.787300	0.595400	0.354700
C2851	C285	0.826200	0.557940	0.352250
C2861	C286	0.610200	0.657900	0.457800
H1961	H196	0.615700	0.627700	0.475800
H1971	H197	0.577100	0.659500	0.443300
H1981	H198	0.617600	0.685400	0.479100
C2871	C287	0.668300	0.820900	0.263200
H1991	H199	0.663800	0.849800	0.243400
H2001	H200	0.665000	0.792000	0.243100
H2011	H201	0.699900	0.821400	0.281800
C2881	C288	0.457500	0.055330	0.365200
C2891	C289	0.495300	0.092100	0.364300
C2901	C290	0.503700	0.112300	0.321010
H2021	H202	0.484600	0.102300	0.292700
C2911	C291	0.540000	0.147300	0.318000
H2031	H203	0.546300	0.158100	0.288200
C2921	C292	0.566700	0.166100	0.360700
C2931	C293	0.556900	0.145800	0.404600
H2041	H204	0.574900	0.156200	0.433400
C2941	C294	0.521400	0.111300	0.405800
H2051	H205	0.514600	0.100400	0.435500
C2951	C295	0.602100	0.206200	0.359300
C2961	C296	0.607900	0.241000	0.387600
H2061	H206	0.586700	0.243700	0.410000
C2971	C297	0.643700	0.276700	0.388600
C2981	C298	0.672200	0.282200	0.358100
C2991	C299	0.668600	0.246000	0.327800
H2071	H207	0.689300	0.246500	0.304800
C3001	C300	0.635800	0.204900	0.325900
C3011	C301	0.755600	0.372500	0.314300
H2081	H208	0.762000	0.384800	0.285000
C3021	C302	0.719800	0.338800	0.315300
H2091	H209	0.701600	0.329300	0.286300
C3031	C303	0.709500	0.317900	0.357600
C3041	C304	0.734100	0.335700	0.398800
H2101	H210	0.726000	0.325200	0.428200
C3051	C305	0.770900	0.369100	0.398600
H2111	H211	0.788700	0.378900	0.427700
C3061	C306	0.782000	0.388200	0.356400
C3071	C307	0.822600	0.424700	0.356300
C3081	C308	0.669400	0.167900	0.257600
H2121	H212	0.667000	0.139500	0.237000
H2131	H213	0.701600	0.170500	0.274600
H2141	H214	0.661800	0.197000	0.238500
C3091	C309	0.366600	0.030900	0.004680
H2151	H215	0.344200	0.050000	0.985100
C3101	C310	0.363600	0.028600	0.052200
H2161	H216	0.339100	0.046000	0.063700
C3111	C311	0.394300	0.002290	0.083700
C3121	C312	0.428800	0.981900	0.062800
H2171	H217	0.452800	0.964200	0.082000
C3131	C313	0.431200	0.985700	0.013190
H2181	H218	0.457000	0.971600	0.000900
C3141	C314	0.399300	0.955800	0.209000
H2191	H219	0.407300	0.926100	0.224800
C3151	C315	0.402000	0.959300	0.159880
H2201	H220	0.410800	0.931500	0.143800
C3161	C316	0.392850	0.998530	0.136590
C3171	C317	0.377800	0.036400	0.160950
H2211	H221	0.367000	0.065900	0.146100
C3181	C318	0.379500	0.028800	0.208500
H2221	H222	0.374500	0.057300	0.225400
N111	N11	0.398900	0.007980	0.985090
N121	N12	0.386000	0.993060	0.233610
O611	O61	0.446950	0.936410	0.402540
O621	O62	0.432080	0.934810	0.322200
O631	O63	0.846920	0.543150	0.392150
O641	O64	0.833660	0.544690	0.311930
O651	O65	0.643300	0.659300	0.417500
O661	O66	0.633000	0.819800	0.294700
O671	O67	0.436140	0.039730	0.325890
O681	O68	0.449450	0.040850	0.406060
O691	O69	0.830050	0.440100	0.314980
O701	O70	0.844070	0.439120	0.395490
O711	O71	0.631600	0.324900	0.420100
O721	O72	0.636800	0.163200	0.290900
Zn111	Zn11	0.397940	0.989910	0.411830
Zn121	Zn12	0.382670	0.989790	0.305550
C3191	C319	0.953500	0.579610	0.863600
C3201	C320	0.992100	0.619370	0.861270
C3211	C321	0.016700	0.638200	0.903140
H2231	H223	0.008800	0.628200	0.932700
C3221	C322	0.052800	0.671700	0.901100
H2241	H224	0.070800	0.682800	0.929600
C3231	C323	0.063100	0.689500	0.856900
C3241	C324	0.037900	0.671100	0.815000
H2251	H225	0.045400	0.681800	0.785500
C3251	C325	0.001700	0.637200	0.816150
H2261	H226	0.983800	0.626100	0.787700
C3261	C326	0.101500	0.725600	0.855900
C3271	C327	0.106600	0.764800	0.886500
H2271	H227	0.085400	0.767800	0.908800
C3281	C328	0.141200	0.799500	0.886200
C3291	C329	0.175800	0.797600	0.857100
C3301	C330	0.172500	0.756800	0.826500
H2281	H228	0.195800	0.752700	0.806400
C3311	C331	0.136400	0.722400	0.824600
C3321	C332	0.278900	0.885600	0.897600
H2291	H229	0.297700	0.895300	0.926200
C3331	C333	0.242500	0.852100	0.898300
H2301	H230	0.236100	0.840200	0.927700
C3341	C334	0.215100	0.835700	0.856700
C3351	C335	0.224400	0.856200	0.813900
H2311	H231	0.206100	0.846200	0.785200
C3361	C336	0.258500	0.889300	0.812600
H2321	H232	0.263400	0.902700	0.783100
C3371	C337	0.287300	0.904600	0.854700
C3381	C338	0.326200	0.942060	0.852250
C3391	C339	0.110200	0.842100	0.957800
H2331	H233	0.115700	0.872300	0.975800
H2341	H234	0.077100	0.840500	0.943300
H2351	H235	0.117600	0.814600	0.979100
C3401	C340	0.168300	0.679100	0.763200
H2361	H236	0.163800	0.650200	0.743400
H2371	H237	0.165000	0.708000	0.743100
H2381	H238	0.199900	0.678600	0.781800
C3411	C341	0.957500	0.444670	0.865200
C3421	C342	0.995300	0.407900	0.864300
C3431	C343	0.003700	0.387700	0.821010
H2391	H239	0.984600	0.397700	0.792700
C3441	C344	0.040000	0.352700	0.818000
H2401	H240	0.046300	0.341900	0.788200
C3451	C345	0.066700	0.333900	0.860700
C3461	C346	0.056900	0.354200	0.904600
H2411	H241	0.074900	0.343800	0.933400
C3471	C347	0.021400	0.388700	0.905800
H2421	H242	0.014600	0.399600	0.935500
C3481	C348	0.102100	0.293800	0.859300
C3491	C349	0.107900	0.259000	0.887600
H2431	H243	0.086700	0.256300	0.910000
C3501	C350	0.143700	0.223300	0.888600
C3511	C351	0.172200	0.217800	0.858100
C3521	C352	0.168600	0.254000	0.827800
H2441	H244	0.189300	0.253500	0.804800
C3531	C353	0.135800	0.295100	0.825900
C3541	C354	0.255600	0.127500	0.814300
H2451	H245	0.262000	0.115200	0.785000
C3551	C355	0.219800	0.161200	0.815300
H2461	H246	0.201600	0.170700	0.786300
C3561	C356	0.209500	0.182100	0.857600
C3571	C357	0.234100	0.164300	0.898800
H2471	H247	0.226000	0.174800	0.928200
C3581	C358	0.270900	0.130900	0.898600
H2481	H248	0.288700	0.121100	0.927700
C3591	C359	0.282000	0.111800	0.856400
C3601	C360	0.322600	0.075300	0.856300
C3611	C361	0.169400	0.332100	0.757600
H2491	H249	0.167000	0.360500	0.737000
H2501	H250	0.201600	0.329500	0.774600
H2511	H251	0.161800	0.303000	0.738500
C3621	C362	0.866600	0.469100	0.504680
H2521	H252	0.844200	0.450000	0.485100
C3631	C363	0.863600	0.471400	0.552200
H2531	H253	0.839100	0.454000	0.563700
C3641	C364	0.894300	0.497710	0.583700
C3651	C365	0.928800	0.518100	0.562800
H2541	H254	0.952800	0.535800	0.582000
C3661	C366	0.931200	0.514300	0.513190
H2551	H255	0.957000	0.528400	0.500900
C3671	C367	0.899300	0.544200	0.709000
H2561	H256	0.907300	0.573900	0.724800
C3681	C368	0.902000	0.540700	0.659880
H2571	H257	0.910800	0.568500	0.643800
C3691	C369	0.892850	0.501470	0.636590
C3701	C370	0.877800	0.463600	0.660950
H2581	H258	0.867000	0.434100	0.646100
C3711	C371	0.879500	0.471200	0.708500
H2591	H259	0.874500	0.442700	0.725400
N131	N13	0.898900	0.492020	0.485090
N141	N14	0.886000	0.506940	0.733610
O731	O73	0.946950	0.563590	0.902540
O741	O74	0.932080	0.565190	0.822200
O751	O75	0.346920	0.956850	0.892150
O761	O76	0.333660	0.955310	0.811930
O771	O77	0.143300	0.840700	0.917500
O781	O78	0.133000	0.680200	0.794700
O791	O79	0.936140	0.460270	0.825890
O801	O80	0.949450	0.459150	0.906060
O811	O81	0.330050	0.059900	0.814980
O821	O82	0.344070	0.060880	0.895490
O831	O83	0.131600	0.175100	0.920100
O841	O84	0.136800	0.336800	0.790900
Zn131	Zn13	0.897940	0.510090	0.911830
Zn141	Zn14	0.882670	0.510210	0.805540
C3721	C372	0.453500	0.079610	0.863600
C3731	C373	0.492100	0.119370	0.861270
C3741	C374	0.516700	0.138200	0.903140
H2601	H260	0.508800	0.128200	0.932700
C3751	C375	0.552800	0.171700	0.901100
H2611	H261	0.570800	0.182800	0.929600
C3761	C376	0.563100	0.189500	0.856900
C3771	C377	0.537900	0.171100	0.815000
H2621	H262	0.545400	0.181800	0.785500
C3781	C378	0.501700	0.137200	0.816150
H2631	H263	0.483800	0.126100	0.787700
C3791	C379	0.601500	0.225600	0.855900
C3801	C380	0.606600	0.264800	0.886500
H2641	H264	0.585400	0.267800	0.908800
C3811	C381	0.641200	0.299500	0.886200
C3821	C382	0.675800	0.297600	0.857100
C3831	C383	0.672500	0.256800	0.826500
H2651	H265	0.695800	0.252700	0.806400
C3841	C384	0.636400	0.222400	0.824600
C3851	C385	0.778900	0.385600	0.897600
H2661	H266	0.797700	0.395300	0.926200
C3861	C386	0.742500	0.352100	0.898300
H2671	H267	0.736100	0.340200	0.927700
C3871	C387	0.715100	0.335700	0.856700
C3881	C388	0.724400	0.356200	0.813900
H2681	H268	0.706100	0.346200	0.785200
C3891	C389	0.758500	0.389300	0.812600
H2691	H269	0.763400	0.402700	0.783100
C3901	C390	0.787300	0.404600	0.854700
C3911	C391	0.826200	0.442060	0.852250
C3921	C392	0.610200	0.342100	0.957800
H2701	H270	0.615700	0.372300	0.975800
H2711	H271	0.577100	0.340500	0.943300
H2721	H272	0.617600	0.314600	0.979100
C3931	C393	0.668300	0.179100	0.763200
H2731	H273	0.663800	0.150200	0.743400
H2741	H274	0.665000	0.208000	0.743100
H2751	H275	0.699900	0.178600	0.781800
C3941	C394	0.457500	0.944670	0.865200
C3951	C395	0.495300	0.907900	0.864300
C3961	C396	0.503700	0.887700	0.821010
H2761	H276	0.484600	0.897700	0.792700
C3971	C397	0.540000	0.852700	0.818000
H2771	H277	0.546300	0.841900	0.788200
C3981	C398	0.566700	0.833900	0.860700
C3991	C399	0.556900	0.854200	0.904600
H2781	H278	0.574900	0.843800	0.933400
C4001	C400	0.521400	0.888700	0.905800
H2791	H279	0.514600	0.899600	0.935500
C4011	C401	0.602100	0.793800	0.859300
C4021	C402	0.607900	0.759000	0.887600
H2801	H280	0.586700	0.756300	0.910000
C4031	C403	0.643700	0.723300	0.888600
C4041	C404	0.672200	0.717800	0.858100
C4051	C405	0.668600	0.754000	0.827800
H2811	H281	0.689300	0.753500	0.804800
C4061	C406	0.635800	0.795100	0.825900
C4071	C407	0.755600	0.627500	0.814300
H2821	H282	0.762000	0.615200	0.785000
C4081	C408	0.719800	0.661200	0.815300
H2831	H283	0.701600	0.670700	0.786300
C4091	C409	0.709500	0.682100	0.857600
C4101	C410	0.734100	0.664300	0.898800
H2841	H284	0.726000	0.674800	0.928200
C4111	C411	0.770900	0.630900	0.898600
H2851	H285	0.788700	0.621100	0.927700
C4121	C412	0.782000	0.611800	0.856400
C4131	C413	0.822600	0.575300	0.856300
C4141	C414	0.669400	0.832100	0.757600
H2861	H286	0.667000	0.860500	0.737000
H2871	H287	0.701600	0.829500	0.774600
H2881	H288	0.661800	0.803000	0.738500
C4151	C415	0.366600	0.969100	0.504680
H2891	H289	0.344200	0.950000	0.485100
C4161	C416	0.363600	0.971400	0.552200
H2901	H290	0.339100	0.954000	0.563700
C4171	C417	0.394300	0.997710	0.583700
C4181	C418	0.428800	0.018100	0.562800
H2911	H291	0.452800	0.035800	0.582000
C4191	C419	0.431200	0.014300	0.513190
H2921	H292	0.457000	0.028400	0.500900
C4201	C420	0.399300	0.044200	0.709000
H2931	H293	0.407300	0.073900	0.724800
C4211	C421	0.402000	0.040700	0.659880
H2941	H294	0.410800	0.068500	0.643800
C4221	C422	0.392850	0.001470	0.636590
C4231	C423	0.377800	0.963600	0.660950
H2951	H295	0.367000	0.934100	0.646100
C4241	C424	0.379500	0.971200	0.708500
H2961	H296	0.374500	0.942700	0.725400
N151	N15	0.398900	0.992020	0.485090
N161	N16	0.386000	0.006940	0.733610
O851	O85	0.446950	0.063590	0.902540
O861	O86	0.432080	0.065190	0.822200
O871	O87	0.846920	0.456850	0.892150
O881	O88	0.833660	0.455310	0.811930
O891	O89	0.643300	0.340700	0.917500
O901	O90	0.633000	0.180200	0.794700
O911	O91	0.436140	0.960270	0.825890
O921	O92	0.449450	0.959150	0.906060
O931	O93	0.830050	0.559900	0.814980
O941	O94	0.844070	0.560880	0.895490
O951	O95	0.631600	0.675100	0.920100
O961	O96	0.636800	0.836800	0.790900
Zn151	Zn15	0.397940	0.010090	0.911830
Zn161	Zn16	0.382670	0.010210	0.805540
