data_HUZXEH_freeONLY_PM
_symmetry_space_group_name_H-M	'P1'
_cell_length_a	39.005000
_cell_length_b	27.431000
_cell_length_c	27.362000
_cell_angle_alpha	90.000000
_cell_angle_beta	133.840000
_cell_angle_gamma	90.000000
_symmetry_Int_Tables_number 1

loop_
_symmetry_equiv_pos_as_xyz
'x,y,z'

loop_
_atom_site_label
_atom_site_type_symbol
_atom_site_fract_x
_atom_site_fract_y
_atom_site_fract_z
C11	C1	0.597400	0.300700	0.822800
C21	C2	0.596800	0.334400	0.866700
C31	C3	0.637200	0.356700	0.923500
H11	H1	0.666300	0.350700	0.937300
C41	C4	0.634300	0.387900	0.959800
H21	H2	0.661900	0.402300	0.998900
C51	C5	0.591300	0.398500	0.939400
C61	C6	0.550700	0.375900	0.882100
H31	H3	0.521500	0.382700	0.867900
C71	C7	0.552800	0.344100	0.846600
H41	H4	0.525300	0.328500	0.808900
C81	C8	0.588700	0.434600	0.977600
C91	C9	0.610800	0.430500	0.038300
C101	C10	0.613100	0.467900	0.081800
H51	H5	0.630400	0.462700	0.127300
C111	C11	0.588200	0.509100	0.049300
C121	C12	0.552400	0.506700	0.978200
C131	C13	0.551100	0.473900	0.938400
H61	H6	0.529000	0.476000	0.891400
C141	C14	0.632600	0.609700	0.174000
H71	H7	0.661900	0.623400	0.210800
C151	C15	0.630700	0.571000	0.139400
H81	H8	0.658700	0.559700	0.152900
C161	C16	0.588700	0.549000	0.086200
C171	C17	0.548300	0.567200	0.067700
H91	H9	0.519200	0.553600	0.030600
C181	C18	0.549400	0.604800	0.102000
H101	H10	0.521600	0.614600	0.090100
C191	C19	0.592300	0.628100	0.154800
C201	C20	0.593400	0.671600	0.189200
C211	C21	0.474200	0.539300	0.858100
H111	H11	0.483400	0.541700	0.833100
H121	H12	0.456300	0.509500	0.845400
C221	C22	0.445800	0.584300	0.846500
H131	H13	0.417200	0.586700	0.799300
H141	H14	0.464700	0.613100	0.860400
H151	H15	0.437800	0.581200	0.872600
C231	C23	0.606300	0.199300	0.673700
C241	C24	0.607600	0.165600	0.631400
C251	C25	0.566500	0.151400	0.569100
H161	H16	0.537500	0.163500	0.551200
C261	C26	0.568600	0.119400	0.533100
H171	H17	0.540200	0.109400	0.490800
C271	C27	0.610900	0.100700	0.556400
C281	C28	0.652300	0.117500	0.618500
H181	H18	0.681500	0.107000	0.635400
C291	C29	0.651000	0.149400	0.655600
H191	H19	0.679300	0.160400	0.697300
C301	C30	0.609700	0.062800	0.517500
C311	C31	0.584800	0.068600	0.449000
C321	C32	0.585600	0.032900	0.415100
H201	H20	0.567400	0.038300	0.369300
C331	C33	0.609700	0.991000	0.440800
C341	C34	0.634300	0.981200	0.510200
C351	C35	0.635600	0.021900	0.550800
H211	H21	0.653800	0.018300	0.596900
C361	C36	0.565200	0.898900	0.306400
H221	H22	0.536600	0.890100	0.263600
C371	C37	0.565700	0.936600	0.340800
H231	H23	0.537500	0.952000	0.321900
C381	C38	0.609100	0.951000	0.404600
C391	C39	0.649400	0.928100	0.430100
H241	H24	0.678400	0.937800	0.471800
C401	C40	0.648400	0.890200	0.395200
H251	H25	0.676700	0.875700	0.413400
C411	C41	0.606700	0.874300	0.335100
C421	C42	0.604600	0.829900	0.301800
C431	C43	0.541700	0.132700	0.350100
H261	H26	0.568900	0.134300	0.355300
H271	H27	0.516500	0.114400	0.309500
C441	C44	0.529100	0.171000	0.348900
H281	H28	0.519600	0.188800	0.311000
H291	H29	0.554600	0.187900	0.390100
H301	H30	0.502600	0.168200	0.344700
C451	C45	0.691600	0.933500	0.631800
H311	H31	0.718900	0.954800	0.661900
H321	H32	0.670500	0.937700	0.638700
C461	C46	0.705600	0.880700	0.637900
H331	H33	0.722900	0.869200	0.682900
H341	H34	0.725300	0.878100	0.628800
H351	H35	0.677500	0.861300	0.605800
C471	C47	0.451900	0.262600	0.562800
H361	H36	0.468400	0.278600	0.554500
C481	C48	0.402700	0.262600	0.512300
H371	H37	0.387100	0.277500	0.470900
C491	C49	0.377700	0.240900	0.523200
C501	C50	0.402900	0.216700	0.583400
H381	H38	0.386900	0.199500	0.591800
C511	C51	0.450900	0.217800	0.630400
H391	H39	0.467400	0.201300	0.671100
C521	C52	0.250700	0.248900	0.358000
H401	H40	0.235300	0.254800	0.313300
C531	C53	0.298900	0.247100	0.405700
H411	H41	0.314900	0.250100	0.391800
C541	C54	0.323900	0.241500	0.469900
C551	C55	0.298200	0.230400	0.480000
H421	H42	0.312500	0.221100	0.523300
C561	C56	0.249400	0.231500	0.428800
H431	H43	0.233100	0.222200	0.440800
N11	N1	0.475900	0.241900	0.620500
N21	N2	0.225400	0.242800	0.371400
O11	O1	0.560000	0.284000	0.769900
O21	O2	0.638800	0.293100	0.846700
O31	O3	0.555600	0.688800	0.165200
O41	O4	0.633900	0.688200	0.239100
O51	O5	0.520000	0.541900	0.939100
O61	O6	0.650800	0.398600	0.079100
O71	O7	0.567100	0.212300	0.650300
O81	O8	0.645400	0.210900	0.731600
O91	O9	0.564000	0.816200	0.247200
O101	O10	0.642900	0.808700	0.330800
O111	O11	0.554700	0.111000	0.411200
O121	O12	0.662800	0.940600	0.548300
Zn11	Zn1	0.548560	0.246940	0.695370
Zn21	Zn2	0.652870	0.253160	0.799210
C571	C57	0.097400	0.800700	0.822800
C581	C58	0.096800	0.834400	0.866700
C591	C59	0.137200	0.856700	0.923500
H441	H44	0.166300	0.850700	0.937300
C601	C60	0.134300	0.887900	0.959800
H451	H45	0.161900	0.902300	0.998900
C611	C61	0.091300	0.898500	0.939400
C621	C62	0.050700	0.875900	0.882100
H461	H46	0.021500	0.882700	0.867900
C631	C63	0.052800	0.844100	0.846600
H471	H47	0.025300	0.828500	0.808900
C641	C64	0.088700	0.934600	0.977600
C651	C65	0.110800	0.930500	0.038300
C661	C66	0.113100	0.967900	0.081800
H481	H48	0.130400	0.962700	0.127300
C671	C67	0.088200	0.009100	0.049300
C681	C68	0.052400	0.006700	0.978200
C691	C69	0.051100	0.973900	0.938400
H491	H49	0.029000	0.976000	0.891400
C701	C70	0.132600	0.109700	0.174000
H501	H50	0.161900	0.123400	0.210800
C711	C71	0.130700	0.071000	0.139400
H511	H51	0.158700	0.059700	0.152900
C721	C72	0.088700	0.049000	0.086200
C731	C73	0.048300	0.067200	0.067700
H521	H52	0.019200	0.053600	0.030600
C741	C74	0.049400	0.104800	0.102000
H531	H53	0.021600	0.114600	0.090100
C751	C75	0.092300	0.128100	0.154800
C761	C76	0.093400	0.171600	0.189200
C771	C77	0.974200	0.039300	0.858100
H541	H54	0.983400	0.041700	0.833100
H551	H55	0.956300	0.009500	0.845400
C781	C78	0.945800	0.084300	0.846500
H561	H56	0.917200	0.086700	0.799300
H571	H57	0.964700	0.113100	0.860400
H581	H58	0.937800	0.081200	0.872600
C791	C79	0.106300	0.699300	0.673700
C801	C80	0.107600	0.665600	0.631400
C811	C81	0.066500	0.651400	0.569100
H591	H59	0.037500	0.663500	0.551200
C821	C82	0.068600	0.619400	0.533100
H601	H60	0.040200	0.609400	0.490800
C831	C83	0.110900	0.600700	0.556400
C841	C84	0.152300	0.617500	0.618500
H611	H61	0.181500	0.607000	0.635400
C851	C85	0.151000	0.649400	0.655600
H621	H62	0.179300	0.660400	0.697300
C861	C86	0.109700	0.562800	0.517500
C871	C87	0.084800	0.568600	0.449000
C881	C88	0.085600	0.532900	0.415100
H631	H63	0.067400	0.538300	0.369300
C891	C89	0.109700	0.491000	0.440800
C901	C90	0.134300	0.481200	0.510200
C911	C91	0.135600	0.521900	0.550800
H641	H64	0.153800	0.518300	0.596900
C921	C92	0.065200	0.398900	0.306400
H651	H65	0.036600	0.390100	0.263600
C931	C93	0.065700	0.436600	0.340800
H661	H66	0.037500	0.452000	0.321900
C941	C94	0.109100	0.451000	0.404600
C951	C95	0.149400	0.428100	0.430100
H671	H67	0.178400	0.437800	0.471800
C961	C96	0.148400	0.390200	0.395200
H681	H68	0.176700	0.375700	0.413400
C971	C97	0.106700	0.374300	0.335100
C981	C98	0.104600	0.329900	0.301800
C991	C99	0.041700	0.632700	0.350100
H691	H69	0.068900	0.634300	0.355300
H701	H70	0.016500	0.614400	0.309500
C1001	C100	0.029100	0.671000	0.348900
H711	H71	0.019600	0.688800	0.311000
H721	H72	0.054600	0.687900	0.390100
H731	H73	0.002600	0.668200	0.344700
C1011	C101	0.191600	0.433500	0.631800
H741	H74	0.218900	0.454800	0.661900
H751	H75	0.170500	0.437700	0.638700
C1021	C102	0.205600	0.380700	0.637900
H761	H76	0.222900	0.369200	0.682900
H771	H77	0.225300	0.378100	0.628800
H781	H78	0.177500	0.361300	0.605800
C1031	C103	0.951900	0.762600	0.562800
H791	H79	0.968400	0.778600	0.554500
C1041	C104	0.902700	0.762600	0.512300
H801	H80	0.887100	0.777500	0.470900
C1051	C105	0.877700	0.740900	0.523200
C1061	C106	0.902900	0.716700	0.583400
H811	H81	0.886900	0.699500	0.591800
C1071	C107	0.950900	0.717800	0.630400
H821	H82	0.967400	0.701300	0.671100
C1081	C108	0.750700	0.748900	0.358000
H831	H83	0.735300	0.754800	0.313300
C1091	C109	0.798900	0.747100	0.405700
H841	H84	0.814900	0.750100	0.391800
C1101	C110	0.823900	0.741500	0.469900
C1111	C111	0.798200	0.730400	0.480000
H851	H85	0.812500	0.721100	0.523300
C1121	C112	0.749400	0.731500	0.428800
H861	H86	0.733100	0.722200	0.440800
N31	N3	0.975900	0.741900	0.620500
N41	N4	0.725400	0.742800	0.371400
O131	O13	0.060000	0.784000	0.769900
O141	O14	0.138800	0.793100	0.846700
O151	O15	0.055600	0.188800	0.165200
O161	O16	0.133900	0.188200	0.239100
O171	O17	0.020000	0.041900	0.939100
O181	O18	0.150800	0.898600	0.079100
O191	O19	0.067100	0.712300	0.650300
O201	O20	0.145400	0.710900	0.731600
O211	O21	0.064000	0.316200	0.247200
O221	O22	0.142900	0.308700	0.330800
O231	O23	0.054700	0.611000	0.411200
O241	O24	0.162800	0.440600	0.548300
Zn31	Zn3	0.048560	0.746940	0.695370
Zn41	Zn4	0.152870	0.753160	0.799210
C1131	C113	0.597400	0.699300	0.322800
C1141	C114	0.596800	0.665600	0.366700
C1151	C115	0.637200	0.643300	0.423500
H871	H87	0.666300	0.649300	0.437300
C1161	C116	0.634300	0.612100	0.459800
H881	H88	0.661900	0.597700	0.498900
C1171	C117	0.591300	0.601500	0.439400
C1181	C118	0.550700	0.624100	0.382100
H891	H89	0.521500	0.617300	0.367900
C1191	C119	0.552800	0.655900	0.346600
H901	H90	0.525300	0.671500	0.308900
C1201	C120	0.588700	0.565400	0.477600
C1211	C121	0.610800	0.569500	0.538300
C1221	C122	0.613100	0.532100	0.581800
H911	H91	0.630400	0.537300	0.627300
C1231	C123	0.588200	0.490900	0.549300
C1241	C124	0.552400	0.493300	0.478200
C1251	C125	0.551100	0.526100	0.438400
H921	H92	0.529000	0.524000	0.391400
C1261	C126	0.632600	0.390300	0.674000
H931	H93	0.661900	0.376600	0.710800
C1271	C127	0.630700	0.429000	0.639400
H941	H94	0.658700	0.440300	0.652900
C1281	C128	0.588700	0.451000	0.586200
C1291	C129	0.548300	0.432800	0.567700
H951	H95	0.519200	0.446400	0.530600
C1301	C130	0.549400	0.395200	0.602000
H961	H96	0.521600	0.385400	0.590100
C1311	C131	0.592300	0.371900	0.654800
C1321	C132	0.593400	0.328400	0.689200
C1331	C133	0.474200	0.460700	0.358100
H971	H97	0.483400	0.458300	0.333100
H981	H98	0.456300	0.490500	0.345400
C1341	C134	0.445800	0.415700	0.346500
H991	H99	0.417200	0.413300	0.299300
H1001	H100	0.464700	0.386900	0.360400
H1011	H101	0.437800	0.418800	0.372600
C1351	C135	0.606300	0.800700	0.173700
C1361	C136	0.607600	0.834400	0.131400
C1371	C137	0.566500	0.848600	0.069100
H1021	H102	0.537500	0.836500	0.051200
C1381	C138	0.568600	0.880600	0.033100
H1031	H103	0.540200	0.890600	0.990800
C1391	C139	0.610900	0.899300	0.056400
C1401	C140	0.652300	0.882500	0.118500
H1041	H104	0.681500	0.893000	0.135400
C1411	C141	0.651000	0.850600	0.155600
H1051	H105	0.679300	0.839600	0.197300
C1421	C142	0.609700	0.937200	0.017500
C1431	C143	0.584800	0.931400	0.949000
C1441	C144	0.585600	0.967100	0.915100
H1061	H106	0.567400	0.961700	0.869300
C1451	C145	0.609700	0.009000	0.940800
C1461	C146	0.634300	0.018800	0.010200
C1471	C147	0.635600	0.978100	0.050800
H1071	H107	0.653800	0.981700	0.096900
C1481	C148	0.565200	0.101100	0.806400
H1081	H108	0.536600	0.109900	0.763600
C1491	C149	0.565700	0.063400	0.840800
H1091	H109	0.537500	0.048000	0.821900
C1501	C150	0.609100	0.049000	0.904600
C1511	C151	0.649400	0.071900	0.930100
H1101	H110	0.678400	0.062200	0.971800
C1521	C152	0.648400	0.109800	0.895200
H1111	H111	0.676700	0.124300	0.913400
C1531	C153	0.606700	0.125700	0.835100
C1541	C154	0.604600	0.170100	0.801800
C1551	C155	0.541700	0.867300	0.850100
H1121	H112	0.568900	0.865700	0.855300
H1131	H113	0.516500	0.885600	0.809500
C1561	C156	0.529100	0.829000	0.848900
H1141	H114	0.519600	0.811200	0.811000
H1151	H115	0.554600	0.812100	0.890100
H1161	H116	0.502600	0.831800	0.844700
C1571	C157	0.691600	0.066500	0.131800
H1171	H117	0.718900	0.045200	0.161900
H1181	H118	0.670500	0.062300	0.138700
C1581	C158	0.705600	0.119300	0.137900
H1191	H119	0.722900	0.130800	0.182900
H1201	H120	0.725300	0.121900	0.128800
H1211	H121	0.677500	0.138700	0.105800
C1591	C159	0.451900	0.737400	0.062800
H1221	H122	0.468400	0.721400	0.054500
C1601	C160	0.402700	0.737400	0.012300
H1231	H123	0.387100	0.722500	0.970900
C1611	C161	0.377700	0.759100	0.023200
C1621	C162	0.402900	0.783300	0.083400
H1241	H124	0.386900	0.800500	0.091800
C1631	C163	0.450900	0.782200	0.130400
H1251	H125	0.467400	0.798700	0.171100
C1641	C164	0.250700	0.751100	0.858000
H1261	H126	0.235300	0.745200	0.813300
C1651	C165	0.298900	0.752900	0.905700
H1271	H127	0.314900	0.749900	0.891800
C1661	C166	0.323900	0.758500	0.969900
C1671	C167	0.298200	0.769600	0.980000
H1281	H128	0.312500	0.778900	0.023300
C1681	C168	0.249400	0.768500	0.928800
H1291	H129	0.233100	0.777800	0.940800
N51	N5	0.475900	0.758100	0.120500
N61	N6	0.225400	0.757200	0.871400
O251	O25	0.560000	0.716000	0.269900
O261	O26	0.638800	0.706900	0.346700
O271	O27	0.555600	0.311200	0.665200
O281	O28	0.633900	0.311800	0.739100
O291	O29	0.520000	0.458100	0.439100
O301	O30	0.650800	0.601400	0.579100
O311	O31	0.567100	0.787700	0.150300
O321	O32	0.645400	0.789100	0.231600
O331	O33	0.564000	0.183800	0.747200
O341	O34	0.642900	0.191300	0.830800
O351	O35	0.554700	0.889000	0.911200
O361	O36	0.662800	0.059400	0.048300
Zn51	Zn5	0.548560	0.753060	0.195370
Zn61	Zn6	0.652870	0.746840	0.299210
C1691	C169	0.097400	0.199300	0.322800
C1701	C170	0.096800	0.165600	0.366700
C1711	C171	0.137200	0.143300	0.423500
H1301	H130	0.166300	0.149300	0.437300
C1721	C172	0.134300	0.112100	0.459800
H1311	H131	0.161900	0.097700	0.498900
C1731	C173	0.091300	0.101500	0.439400
C1741	C174	0.050700	0.124100	0.382100
H1321	H132	0.021500	0.117300	0.367900
C1751	C175	0.052800	0.155900	0.346600
H1331	H133	0.025300	0.171500	0.308900
C1761	C176	0.088700	0.065400	0.477600
C1771	C177	0.110800	0.069500	0.538300
C1781	C178	0.113100	0.032100	0.581800
H1341	H134	0.130400	0.037300	0.627300
C1791	C179	0.088200	0.990900	0.549300
C1801	C180	0.052400	0.993300	0.478200
C1811	C181	0.051100	0.026100	0.438400
H1351	H135	0.029000	0.024000	0.391400
C1821	C182	0.132600	0.890300	0.674000
H1361	H136	0.161900	0.876600	0.710800
C1831	C183	0.130700	0.929000	0.639400
H1371	H137	0.158700	0.940300	0.652900
C1841	C184	0.088700	0.951000	0.586200
C1851	C185	0.048300	0.932800	0.567700
H1381	H138	0.019200	0.946400	0.530600
C1861	C186	0.049400	0.895200	0.602000
H1391	H139	0.021600	0.885400	0.590100
C1871	C187	0.092300	0.871900	0.654800
C1881	C188	0.093400	0.828400	0.689200
C1891	C189	0.974200	0.960700	0.358100
H1401	H140	0.983400	0.958300	0.333100
H1411	H141	0.956300	0.990500	0.345400
C1901	C190	0.945800	0.915700	0.346500
H1421	H142	0.917200	0.913300	0.299300
H1431	H143	0.964700	0.886900	0.360400
H1441	H144	0.937800	0.918800	0.372600
C1911	C191	0.106300	0.300700	0.173700
C1921	C192	0.107600	0.334400	0.131400
C1931	C193	0.066500	0.348600	0.069100
H1451	H145	0.037500	0.336500	0.051200
C1941	C194	0.068600	0.380600	0.033100
H1461	H146	0.040200	0.390600	0.990800
C1951	C195	0.110900	0.399300	0.056400
C1961	C196	0.152300	0.382500	0.118500
H1471	H147	0.181500	0.393000	0.135400
C1971	C197	0.151000	0.350600	0.155600
H1481	H148	0.179300	0.339600	0.197300
C1981	C198	0.109700	0.437200	0.017500
C1991	C199	0.084800	0.431400	0.949000
C2001	C200	0.085600	0.467100	0.915100
H1491	H149	0.067400	0.461700	0.869300
C2011	C201	0.109700	0.509000	0.940800
C2021	C202	0.134300	0.518800	0.010200
C2031	C203	0.135600	0.478100	0.050800
H1501	H150	0.153800	0.481700	0.096900
C2041	C204	0.065200	0.601100	0.806400
H1511	H151	0.036600	0.609900	0.763600
C2051	C205	0.065700	0.563400	0.840800
H1521	H152	0.037500	0.548000	0.821900
C2061	C206	0.109100	0.549000	0.904600
C2071	C207	0.149400	0.571900	0.930100
H1531	H153	0.178400	0.562200	0.971800
C2081	C208	0.148400	0.609800	0.895200
H1541	H154	0.176700	0.624300	0.913400
C2091	C209	0.106700	0.625700	0.835100
C2101	C210	0.104600	0.670100	0.801800
C2111	C211	0.041700	0.367300	0.850100
H1551	H155	0.068900	0.365700	0.855300
H1561	H156	0.016500	0.385600	0.809500
C2121	C212	0.029100	0.329000	0.848900
H1571	H157	0.019600	0.311200	0.811000
H1581	H158	0.054600	0.312100	0.890100
H1591	H159	0.002600	0.331800	0.844700
C2131	C213	0.191600	0.566500	0.131800
H1601	H160	0.218900	0.545200	0.161900
H1611	H161	0.170500	0.562300	0.138700
C2141	C214	0.205600	0.619300	0.137900
H1621	H162	0.222900	0.630800	0.182900
H1631	H163	0.225300	0.621900	0.128800
H1641	H164	0.177500	0.638700	0.105800
C2151	C215	0.951900	0.237400	0.062800
H1651	H165	0.968400	0.221400	0.054500
C2161	C216	0.902700	0.237400	0.012300
H1661	H166	0.887100	0.222500	0.970900
C2171	C217	0.877700	0.259100	0.023200
C2181	C218	0.902900	0.283300	0.083400
H1671	H167	0.886900	0.300500	0.091800
C2191	C219	0.950900	0.282200	0.130400
H1681	H168	0.967400	0.298700	0.171100
C2201	C220	0.750700	0.251100	0.858000
H1691	H169	0.735300	0.245200	0.813300
C2211	C221	0.798900	0.252900	0.905700
H1701	H170	0.814900	0.249900	0.891800
C2221	C222	0.823900	0.258500	0.969900
C2231	C223	0.798200	0.269600	0.980000
H1711	H171	0.812500	0.278900	0.023300
C2241	C224	0.749400	0.268500	0.928800
H1721	H172	0.733100	0.277800	0.940800
N71	N7	0.975900	0.258100	0.120500
N81	N8	0.725400	0.257200	0.871400
O371	O37	0.060000	0.216000	0.269900
O381	O38	0.138800	0.206900	0.346700
O391	O39	0.055600	0.811200	0.665200
O401	O40	0.133900	0.811800	0.739100
O411	O41	0.020000	0.958100	0.439100
O421	O42	0.150800	0.101400	0.579100
O431	O43	0.067100	0.287700	0.150300
O441	O44	0.145400	0.289100	0.231600
O451	O45	0.064000	0.683800	0.747200
O461	O46	0.142900	0.691300	0.830800
O471	O47	0.054700	0.389000	0.911200
O481	O48	0.162800	0.559400	0.048300
Zn71	Zn7	0.048560	0.253060	0.195370
Zn81	Zn8	0.152870	0.246840	0.299210
C2251	C225	0.402600	0.300700	0.677200
C2261	C226	0.403200	0.334400	0.633300
C2271	C227	0.362800	0.356700	0.576500
H1731	H173	0.333700	0.350700	0.562700
C2281	C228	0.365700	0.387900	0.540200
H1741	H174	0.338100	0.402300	0.501100
C2291	C229	0.408700	0.398500	0.560600
C2301	C230	0.449300	0.375900	0.617900
H1751	H175	0.478500	0.382700	0.632100
C2311	C231	0.447200	0.344100	0.653400
H1761	H176	0.474700	0.328500	0.691100
C2321	C232	0.411300	0.434600	0.522400
C2331	C233	0.389200	0.430500	0.461700
C2341	C234	0.386900	0.467900	0.418200
H1771	H177	0.369600	0.462700	0.372700
C2351	C235	0.411800	0.509100	0.450700
C2361	C236	0.447600	0.506700	0.521800
C2371	C237	0.448900	0.473900	0.561600
H1781	H178	0.471000	0.476000	0.608600
C2381	C238	0.367400	0.609700	0.326000
H1791	H179	0.338100	0.623400	0.289200
C2391	C239	0.369300	0.571000	0.360600
H1801	H180	0.341300	0.559700	0.347100
C2401	C240	0.411300	0.549000	0.413800
C2411	C241	0.451700	0.567200	0.432300
H1811	H181	0.480800	0.553600	0.469400
C2421	C242	0.450600	0.604800	0.398000
H1821	H182	0.478400	0.614600	0.409900
C2431	C243	0.407700	0.628100	0.345200
C2441	C244	0.406600	0.671600	0.310800
C2451	C245	0.525800	0.539300	0.641900
H1831	H183	0.516600	0.541700	0.666900
H1841	H184	0.543700	0.509500	0.654600
C2461	C246	0.554200	0.584300	0.653500
H1851	H185	0.582800	0.586700	0.700700
H1861	H186	0.535300	0.613100	0.639600
H1871	H187	0.562200	0.581200	0.627400
C2471	C247	0.393700	0.199300	0.826300
C2481	C248	0.392400	0.165600	0.868600
C2491	C249	0.433500	0.151400	0.930900
H1881	H188	0.462500	0.163500	0.948800
C2501	C250	0.431400	0.119400	0.966900
H1891	H189	0.459800	0.109400	0.009200
C2511	C251	0.389100	0.100700	0.943600
C2521	C252	0.347700	0.117500	0.881500
H1901	H190	0.318500	0.107000	0.864600
C2531	C253	0.349000	0.149400	0.844400
H1911	H191	0.320700	0.160400	0.802700
C2541	C254	0.390300	0.062800	0.982500
C2551	C255	0.415200	0.068600	0.051000
C2561	C256	0.414400	0.032900	0.084900
H1921	H192	0.432600	0.038300	0.130700
C2571	C257	0.390300	0.991000	0.059200
C2581	C258	0.365700	0.981200	0.989800
C2591	C259	0.364400	0.021900	0.949200
H1931	H193	0.346200	0.018300	0.903100
C2601	C260	0.434800	0.898900	0.193600
H1941	H194	0.463400	0.890100	0.236400
C2611	C261	0.434300	0.936600	0.159200
H1951	H195	0.462500	0.952000	0.178100
C2621	C262	0.390900	0.951000	0.095400
C2631	C263	0.350600	0.928100	0.069900
H1961	H196	0.321600	0.937800	0.028200
C2641	C264	0.351600	0.890200	0.104800
H1971	H197	0.323300	0.875700	0.086600
C2651	C265	0.393300	0.874300	0.164900
C2661	C266	0.395400	0.829900	0.198200
C2671	C267	0.458300	0.132700	0.149900
H1981	H198	0.431100	0.134300	0.144700
H1991	H199	0.483500	0.114400	0.190500
C2681	C268	0.470900	0.171000	0.151100
H2001	H200	0.480400	0.188800	0.189000
H2011	H201	0.445400	0.187900	0.109900
H2021	H202	0.497400	0.168200	0.155300
C2691	C269	0.308400	0.933500	0.868200
H2031	H203	0.281100	0.954800	0.838100
H2041	H204	0.329500	0.937700	0.861300
C2701	C270	0.294400	0.880700	0.862100
H2051	H205	0.277100	0.869200	0.817100
H2061	H206	0.274700	0.878100	0.871200
H2071	H207	0.322500	0.861300	0.894200
C2711	C271	0.548100	0.262600	0.937200
H2081	H208	0.531600	0.278600	0.945500
C2721	C272	0.597300	0.262600	0.987700
H2091	H209	0.612900	0.277500	0.029100
C2731	C273	0.622300	0.240900	0.976800
C2741	C274	0.597100	0.216700	0.916600
H2101	H210	0.613100	0.199500	0.908200
C2751	C275	0.549100	0.217800	0.869600
H2111	H211	0.532600	0.201300	0.828900
C2761	C276	0.749300	0.248900	0.142000
H2121	H212	0.764700	0.254800	0.186700
C2771	C277	0.701100	0.247100	0.094300
H2131	H213	0.685100	0.250100	0.108200
C2781	C278	0.676100	0.241500	0.030100
C2791	C279	0.701800	0.230400	0.020000
H2141	H214	0.687500	0.221100	0.976700
C2801	C280	0.750600	0.231500	0.071200
H2151	H215	0.766900	0.222200	0.059200
N91	N9	0.524100	0.241900	0.879500
N101	N10	0.774600	0.242800	0.128600
O491	O49	0.440000	0.284000	0.730100
O501	O50	0.361200	0.293100	0.653300
O511	O51	0.444400	0.688800	0.334800
O521	O52	0.366100	0.688200	0.260900
O531	O53	0.480000	0.541900	0.560900
O541	O54	0.349200	0.398600	0.420900
O551	O55	0.432900	0.212300	0.849700
O561	O56	0.354600	0.210900	0.768400
O571	O57	0.436000	0.816200	0.252800
O581	O58	0.357100	0.808700	0.169200
O591	O59	0.445300	0.111000	0.088800
O601	O60	0.337200	0.940600	0.951700
Zn91	Zn9	0.451440	0.246940	0.804630
Zn101	Zn10	0.347130	0.253160	0.700790
C2811	C281	0.902600	0.800700	0.677200
C2821	C282	0.903200	0.834400	0.633300
C2831	C283	0.862800	0.856700	0.576500
H2161	H216	0.833700	0.850700	0.562700
C2841	C284	0.865700	0.887900	0.540200
H2171	H217	0.838100	0.902300	0.501100
C2851	C285	0.908700	0.898500	0.560600
C2861	C286	0.949300	0.875900	0.617900
H2181	H218	0.978500	0.882700	0.632100
C2871	C287	0.947200	0.844100	0.653400
H2191	H219	0.974700	0.828500	0.691100
C2881	C288	0.911300	0.934600	0.522400
C2891	C289	0.889200	0.930500	0.461700
C2901	C290	0.886900	0.967900	0.418200
H2201	H220	0.869600	0.962700	0.372700
C2911	C291	0.911800	0.009100	0.450700
C2921	C292	0.947600	0.006700	0.521800
C2931	C293	0.948900	0.973900	0.561600
H2211	H221	0.971000	0.976000	0.608600
C2941	C294	0.867400	0.109700	0.326000
H2221	H222	0.838100	0.123400	0.289200
C2951	C295	0.869300	0.071000	0.360600
H2231	H223	0.841300	0.059700	0.347100
C2961	C296	0.911300	0.049000	0.413800
C2971	C297	0.951700	0.067200	0.432300
H2241	H224	0.980800	0.053600	0.469400
C2981	C298	0.950600	0.104800	0.398000
H2251	H225	0.978400	0.114600	0.409900
C2991	C299	0.907700	0.128100	0.345200
C3001	C300	0.906600	0.171600	0.310800
C3011	C301	0.025800	0.039300	0.641900
H2261	H226	0.016600	0.041700	0.666900
H2271	H227	0.043700	0.009500	0.654600
C3021	C302	0.054200	0.084300	0.653500
H2281	H228	0.082800	0.086700	0.700700
H2291	H229	0.035300	0.113100	0.639600
H2301	H230	0.062200	0.081200	0.627400
C3031	C303	0.893700	0.699300	0.826300
C3041	C304	0.892400	0.665600	0.868600
C3051	C305	0.933500	0.651400	0.930900
H2311	H231	0.962500	0.663500	0.948800
C3061	C306	0.931400	0.619400	0.966900
H2321	H232	0.959800	0.609400	0.009200
C3071	C307	0.889100	0.600700	0.943600
C3081	C308	0.847700	0.617500	0.881500
H2331	H233	0.818500	0.607000	0.864600
C3091	C309	0.849000	0.649400	0.844400
H2341	H234	0.820700	0.660400	0.802700
C3101	C310	0.890300	0.562800	0.982500
C3111	C311	0.915200	0.568600	0.051000
C3121	C312	0.914400	0.532900	0.084900
H2351	H235	0.932600	0.538300	0.130700
C3131	C313	0.890300	0.491000	0.059200
C3141	C314	0.865700	0.481200	0.989800
C3151	C315	0.864400	0.521900	0.949200
H2361	H236	0.846200	0.518300	0.903100
C3161	C316	0.934800	0.398900	0.193600
H2371	H237	0.963400	0.390100	0.236400
C3171	C317	0.934300	0.436600	0.159200
H2381	H238	0.962500	0.452000	0.178100
C3181	C318	0.890900	0.451000	0.095400
C3191	C319	0.850600	0.428100	0.069900
H2391	H239	0.821600	0.437800	0.028200
C3201	C320	0.851600	0.390200	0.104800
H2401	H240	0.823300	0.375700	0.086600
C3211	C321	0.893300	0.374300	0.164900
C3221	C322	0.895400	0.329900	0.198200
C3231	C323	0.958300	0.632700	0.149900
H2411	H241	0.931100	0.634300	0.144700
H2421	H242	0.983500	0.614400	0.190500
C3241	C324	0.970900	0.671000	0.151100
H2431	H243	0.980400	0.688800	0.189000
H2441	H244	0.945400	0.687900	0.109900
H2451	H245	0.997400	0.668200	0.155300
C3251	C325	0.808400	0.433500	0.868200
H2461	H246	0.781100	0.454800	0.838100
H2471	H247	0.829500	0.437700	0.861300
C3261	C326	0.794400	0.380700	0.862100
H2481	H248	0.777100	0.369200	0.817100
H2491	H249	0.774700	0.378100	0.871200
H2501	H250	0.822500	0.361300	0.894200
C3271	C327	0.048100	0.762600	0.937200
H2511	H251	0.031600	0.778600	0.945500
C3281	C328	0.097300	0.762600	0.987700
H2521	H252	0.112900	0.777500	0.029100
C3291	C329	0.122300	0.740900	0.976800
C3301	C330	0.097100	0.716700	0.916600
H2531	H253	0.113100	0.699500	0.908200
C3311	C331	0.049100	0.717800	0.869600
H2541	H254	0.032600	0.701300	0.828900
C3321	C332	0.249300	0.748900	0.142000
H2551	H255	0.264700	0.754800	0.186700
C3331	C333	0.201100	0.747100	0.094300
H2561	H256	0.185100	0.750100	0.108200
C3341	C334	0.176100	0.741500	0.030100
C3351	C335	0.201800	0.730400	0.020000
H2571	H257	0.187500	0.721100	0.976700
C3361	C336	0.250600	0.731500	0.071200
H2581	H258	0.266900	0.722200	0.059200
N111	N11	0.024100	0.741900	0.879500
N121	N12	0.274600	0.742800	0.128600
O611	O61	0.940000	0.784000	0.730100
O621	O62	0.861200	0.793100	0.653300
O631	O63	0.944400	0.188800	0.334800
O641	O64	0.866100	0.188200	0.260900
O651	O65	0.980000	0.041900	0.560900
O661	O66	0.849200	0.898600	0.420900
O671	O67	0.932900	0.712300	0.849700
O681	O68	0.854600	0.710900	0.768400
O691	O69	0.936000	0.316200	0.252800
O701	O70	0.857100	0.308700	0.169200
O711	O71	0.945300	0.611000	0.088800
O721	O72	0.837200	0.440600	0.951700
Zn111	Zn11	0.951440	0.746940	0.804630
Zn121	Zn12	0.847130	0.753160	0.700790
C3371	C337	0.402600	0.699300	0.177200
C3381	C338	0.403200	0.665600	0.133300
C3391	C339	0.362800	0.643300	0.076500
H2591	H259	0.333700	0.649300	0.062700
C3401	C340	0.365700	0.612100	0.040200
H2601	H260	0.338100	0.597700	0.001100
C3411	C341	0.408700	0.601500	0.060600
C3421	C342	0.449300	0.624100	0.117900
H2611	H261	0.478500	0.617300	0.132100
C3431	C343	0.447200	0.655900	0.153400
H2621	H262	0.474700	0.671500	0.191100
C3441	C344	0.411300	0.565400	0.022400
C3451	C345	0.389200	0.569500	0.961700
C3461	C346	0.386900	0.532100	0.918200
H2631	H263	0.369600	0.537300	0.872700
C3471	C347	0.411800	0.490900	0.950700
C3481	C348	0.447600	0.493300	0.021800
C3491	C349	0.448900	0.526100	0.061600
H2641	H264	0.471000	0.524000	0.108600
C3501	C350	0.367400	0.390300	0.826000
H2651	H265	0.338100	0.376600	0.789200
C3511	C351	0.369300	0.429000	0.860600
H2661	H266	0.341300	0.440300	0.847100
C3521	C352	0.411300	0.451000	0.913800
C3531	C353	0.451700	0.432800	0.932300
H2671	H267	0.480800	0.446400	0.969400
C3541	C354	0.450600	0.395200	0.898000
H2681	H268	0.478400	0.385400	0.909900
C3551	C355	0.407700	0.371900	0.845200
C3561	C356	0.406600	0.328400	0.810800
C3571	C357	0.525800	0.460700	0.141900
H2691	H269	0.516600	0.458300	0.166900
H2701	H270	0.543700	0.490500	0.154600
C3581	C358	0.554200	0.415700	0.153500
H2711	H271	0.582800	0.413300	0.200700
H2721	H272	0.535300	0.386900	0.139600
H2731	H273	0.562200	0.418800	0.127400
C3591	C359	0.393700	0.800700	0.326300
C3601	C360	0.392400	0.834400	0.368600
C3611	C361	0.433500	0.848600	0.430900
H2741	H274	0.462500	0.836500	0.448800
C3621	C362	0.431400	0.880600	0.466900
H2751	H275	0.459800	0.890600	0.509200
C3631	C363	0.389100	0.899300	0.443600
C3641	C364	0.347700	0.882500	0.381500
H2761	H276	0.318500	0.893000	0.364600
C3651	C365	0.349000	0.850600	0.344400
H2771	H277	0.320700	0.839600	0.302700
C3661	C366	0.390300	0.937200	0.482500
C3671	C367	0.415200	0.931400	0.551000
C3681	C368	0.414400	0.967100	0.584900
H2781	H278	0.432600	0.961700	0.630700
C3691	C369	0.390300	0.009000	0.559200
C3701	C370	0.365700	0.018800	0.489800
C3711	C371	0.364400	0.978100	0.449200
H2791	H279	0.346200	0.981700	0.403100
C3721	C372	0.434800	0.101100	0.693600
H2801	H280	0.463400	0.109900	0.736400
C3731	C373	0.434300	0.063400	0.659200
H2811	H281	0.462500	0.048000	0.678100
C3741	C374	0.390900	0.049000	0.595400
C3751	C375	0.350600	0.071900	0.569900
H2821	H282	0.321600	0.062200	0.528200
C3761	C376	0.351600	0.109800	0.604800
H2831	H283	0.323300	0.124300	0.586600
C3771	C377	0.393300	0.125700	0.664900
C3781	C378	0.395400	0.170100	0.698200
C3791	C379	0.458300	0.867300	0.649900
H2841	H284	0.431100	0.865700	0.644700
H2851	H285	0.483500	0.885600	0.690500
C3801	C380	0.470900	0.829000	0.651100
H2861	H286	0.480400	0.811200	0.689000
H2871	H287	0.445400	0.812100	0.609900
H2881	H288	0.497400	0.831800	0.655300
C3811	C381	0.308400	0.066500	0.368200
H2891	H289	0.281100	0.045200	0.338100
H2901	H290	0.329500	0.062300	0.361300
C3821	C382	0.294400	0.119300	0.362100
H2911	H291	0.277100	0.130800	0.317100
H2921	H292	0.274700	0.121900	0.371200
H2931	H293	0.322500	0.138700	0.394200
C3831	C383	0.548100	0.737400	0.437200
H2941	H294	0.531600	0.721400	0.445500
C3841	C384	0.597300	0.737400	0.487700
H2951	H295	0.612900	0.722500	0.529100
C3851	C385	0.622300	0.759100	0.476800
C3861	C386	0.597100	0.783300	0.416600
H2961	H296	0.613100	0.800500	0.408200
C3871	C387	0.549100	0.782200	0.369600
H2971	H297	0.532600	0.798700	0.328900
C3881	C388	0.749300	0.751100	0.642000
H2981	H298	0.764700	0.745200	0.686700
C3891	C389	0.701100	0.752900	0.594300
H2991	H299	0.685100	0.749900	0.608200
C3901	C390	0.676100	0.758500	0.530100
C3911	C391	0.701800	0.769600	0.520000
H3001	H300	0.687500	0.778900	0.476700
C3921	C392	0.750600	0.768500	0.571200
H3011	H301	0.766900	0.777800	0.559200
N131	N13	0.524100	0.758100	0.379500
N141	N14	0.774600	0.757200	0.628600
O731	O73	0.440000	0.716000	0.230100
O741	O74	0.361200	0.706900	0.153300
O751	O75	0.444400	0.311200	0.834800
O761	O76	0.366100	0.311800	0.760900
O771	O77	0.480000	0.458100	0.060900
O781	O78	0.349200	0.601400	0.920900
O791	O79	0.432900	0.787700	0.349700
O801	O80	0.354600	0.789100	0.268400
O811	O81	0.436000	0.183800	0.752800
O821	O82	0.357100	0.191300	0.669200
O831	O83	0.445300	0.889000	0.588800
O841	O84	0.337200	0.059400	0.451700
Zn131	Zn13	0.451440	0.753060	0.304630
Zn141	Zn14	0.347130	0.746840	0.200790
C3931	C393	0.902600	0.199300	0.177200
C3941	C394	0.903200	0.165600	0.133300
C3951	C395	0.862800	0.143300	0.076500
H3021	H302	0.833700	0.149300	0.062700
C3961	C396	0.865700	0.112100	0.040200
H3031	H303	0.838100	0.097700	0.001100
C3971	C397	0.908700	0.101500	0.060600
C3981	C398	0.949300	0.124100	0.117900
H3041	H304	0.978500	0.117300	0.132100
C3991	C399	0.947200	0.155900	0.153400
H3051	H305	0.974700	0.171500	0.191100
C4001	C400	0.911300	0.065400	0.022400
C4011	C401	0.889200	0.069500	0.961700
C4021	C402	0.886900	0.032100	0.918200
H3061	H306	0.869600	0.037300	0.872700
C4031	C403	0.911800	0.990900	0.950700
C4041	C404	0.947600	0.993300	0.021800
C4051	C405	0.948900	0.026100	0.061600
H3071	H307	0.971000	0.024000	0.108600
C4061	C406	0.867400	0.890300	0.826000
H3081	H308	0.838100	0.876600	0.789200
C4071	C407	0.869300	0.929000	0.860600
H3091	H309	0.841300	0.940300	0.847100
C4081	C408	0.911300	0.951000	0.913800
C4091	C409	0.951700	0.932800	0.932300
H3101	H310	0.980800	0.946400	0.969400
C4101	C410	0.950600	0.895200	0.898000
H3111	H311	0.978400	0.885400	0.909900
C4111	C411	0.907700	0.871900	0.845200
C4121	C412	0.906600	0.828400	0.810800
C4131	C413	0.025800	0.960700	0.141900
H3121	H312	0.016600	0.958300	0.166900
H3131	H313	0.043700	0.990500	0.154600
C4141	C414	0.054200	0.915700	0.153500
H3141	H314	0.082800	0.913300	0.200700
H3151	H315	0.035300	0.886900	0.139600
H3161	H316	0.062200	0.918800	0.127400
C4151	C415	0.893700	0.300700	0.326300
C4161	C416	0.892400	0.334400	0.368600
C4171	C417	0.933500	0.348600	0.430900
H3171	H317	0.962500	0.336500	0.448800
C4181	C418	0.931400	0.380600	0.466900
H3181	H318	0.959800	0.390600	0.509200
C4191	C419	0.889100	0.399300	0.443600
C4201	C420	0.847700	0.382500	0.381500
H3191	H319	0.818500	0.393000	0.364600
C4211	C421	0.849000	0.350600	0.344400
H3201	H320	0.820700	0.339600	0.302700
C4221	C422	0.890300	0.437200	0.482500
C4231	C423	0.915200	0.431400	0.551000
C4241	C424	0.914400	0.467100	0.584900
H3211	H321	0.932600	0.461700	0.630700
C4251	C425	0.890300	0.509000	0.559200
C4261	C426	0.865700	0.518800	0.489800
C4271	C427	0.864400	0.478100	0.449200
H3221	H322	0.846200	0.481700	0.403100
C4281	C428	0.934800	0.601100	0.693600
H3231	H323	0.963400	0.609900	0.736400
C4291	C429	0.934300	0.563400	0.659200
H3241	H324	0.962500	0.548000	0.678100
C4301	C430	0.890900	0.549000	0.595400
C4311	C431	0.850600	0.571900	0.569900
H3251	H325	0.821600	0.562200	0.528200
C4321	C432	0.851600	0.609800	0.604800
H3261	H326	0.823300	0.624300	0.586600
C4331	C433	0.893300	0.625700	0.664900
C4341	C434	0.895400	0.670100	0.698200
C4351	C435	0.958300	0.367300	0.649900
H3271	H327	0.931100	0.365700	0.644700
H3281	H328	0.983500	0.385600	0.690500
C4361	C436	0.970900	0.329000	0.651100
H3291	H329	0.980400	0.311200	0.689000
H3301	H330	0.945400	0.312100	0.609900
H3311	H331	0.997400	0.331800	0.655300
C4371	C437	0.808400	0.566500	0.368200
H3321	H332	0.781100	0.545200	0.338100
H3331	H333	0.829500	0.562300	0.361300
C4381	C438	0.794400	0.619300	0.362100
H3341	H334	0.777100	0.630800	0.317100
H3351	H335	0.774700	0.621900	0.371200
H3361	H336	0.822500	0.638700	0.394200
C4391	C439	0.048100	0.237400	0.437200
H3371	H337	0.031600	0.221400	0.445500
C4401	C440	0.097300	0.237400	0.487700
H3381	H338	0.112900	0.222500	0.529100
C4411	C441	0.122300	0.259100	0.476800
C4421	C442	0.097100	0.283300	0.416600
H3391	H339	0.113100	0.300500	0.408200
C4431	C443	0.049100	0.282200	0.369600
H3401	H340	0.032600	0.298700	0.328900
C4441	C444	0.249300	0.251100	0.642000
H3411	H341	0.264700	0.245200	0.686700
C4451	C445	0.201100	0.252900	0.594300
H3421	H342	0.185100	0.249900	0.608200
C4461	C446	0.176100	0.258500	0.530100
C4471	C447	0.201800	0.269600	0.520000
H3431	H343	0.187500	0.278900	0.476700
C4481	C448	0.250600	0.268500	0.571200
H3441	H344	0.266900	0.277800	0.559200
N151	N15	0.024100	0.258100	0.379500
N161	N16	0.274600	0.257200	0.628600
O851	O85	0.940000	0.216000	0.230100
O861	O86	0.861200	0.206900	0.153300
O871	O87	0.944400	0.811200	0.834800
O881	O88	0.866100	0.811800	0.760900
O891	O89	0.980000	0.958100	0.060900
O901	O90	0.849200	0.101400	0.920900
O911	O91	0.932900	0.287700	0.349700
O921	O92	0.854600	0.289100	0.268400
O931	O93	0.936000	0.683800	0.752800
O941	O94	0.857100	0.691300	0.669200
O951	O95	0.945300	0.389000	0.588800
O961	O96	0.837200	0.559400	0.451700
Zn151	Zn15	0.951440	0.253060	0.304630
Zn161	Zn16	0.847130	0.246840	0.200790
