data_HUZYAE_freeONLY_PM
_symmetry_space_group_name_H-M	'P1'
_cell_length_a	39.133200
_cell_length_b	27.450300
_cell_length_c	27.349700
_cell_angle_alpha	90.000000
_cell_angle_beta	134.022000
_cell_angle_gamma	90.000000
_symmetry_Int_Tables_number 1

loop_
_symmetry_equiv_pos_as_xyz
'x,y,z'

loop_
_atom_site_label
_atom_site_type_symbol
_atom_site_fract_x
_atom_site_fract_y
_atom_site_fract_z
C11	C1	0.104200	0.829810	0.905600
C21	C2	0.104930	0.873440	0.874700
C31	C3	0.065350	0.897700	0.822800
H11	H1	0.036800	0.888300	0.808800
C41	C4	0.064600	0.936500	0.788500
H21	H2	0.036300	0.952200	0.752700
C51	C5	0.107600	0.950940	0.809800
C61	C6	0.148400	0.927500	0.863600
H31	H3	0.176900	0.937300	0.877900
C71	C7	0.149180	0.889630	0.897900
H41	H4	0.177700	0.875000	0.935200
C81	C8	0.109300	0.991000	0.774600
C91	C9	0.080400	0.031000	0.752500
H51	H5	0.059800	0.033400	0.758500
C101	C10	0.083700	0.067900	0.720500
C111	C11	0.110300	0.062600	0.702500
C121	C12	0.133700	0.019900	0.718400
H61	H6	0.151700	0.015300	0.708200
C131	C13	0.130500	0.981900	0.751100
C141	C14	0.107100	0.098900	0.659400
C151	C15	0.065000	0.118500	0.600600
H71	H7	0.036500	0.109700	0.587000
C161	C16	0.064700	0.151600	0.561100
H81	H8	0.036000	0.164100	0.521500
C171	C17	0.105340	0.165400	0.579500
C181	C18	0.148700	0.149000	0.642400
H91	H9	0.177100	0.161500	0.658700
C191	C19	0.149800	0.115000	0.680000
H101	H10	0.178700	0.102400	0.719300
C201	C20	0.105530	0.199110	0.536500
C211	C21	0.184700	0.932900	0.749800
H111	H11	0.164500	0.937100	0.701300
H121	H12	0.211200	0.955400	0.773800
C221	C22	0.201800	0.882800	0.769800
H131	H13	0.176000	0.861300	0.753300
H141	H14	0.226500	0.880300	0.819000
C231	C23	0.221900	0.867700	0.738900
H151	H15	0.195800	0.864400	0.690000
H161	H16	0.242700	0.893300	0.747600
C241	C24	0.249500	0.819900	0.768300
H171	H17	0.236200	0.800200	0.781200
H181	H18	0.282100	0.827200	0.809500
C251	C25	0.250000	0.788800	0.721300
H191	H19	0.257900	0.809800	0.701900
H201	H20	0.274900	0.764500	0.748800
C261	C26	0.215000	0.769600	0.678200
H211	H21	0.218100	0.751200	0.651600
H221	H22	0.190300	0.793400	0.649900
H231	H23	0.207200	0.748000	0.696900
C271	C27	0.020100	0.119400	0.708900
H241	H24	0.032200	0.108900	0.752400
H251	H25	0.008500	0.152600	0.698900
C281	C28	0.992100	0.091100	0.662900
H261	H26	0.973000	0.076200	0.669300
H271	H27	0.009200	0.065500	0.662900
C291	C29	0.957600	0.120200	0.590000
H281	H28	0.950200	0.150400	0.599500
H291	H29	0.979000	0.129400	0.585000
C301	C30	0.919300	0.109800	0.530000
H301	H30	0.893500	0.130300	0.515900
H311	H31	0.910800	0.076000	0.527100
C311	C31	0.930000	0.120000	0.480000
H321	H32	0.902400	0.129500	0.433600
H331	H33	0.957300	0.140500	0.500300
C321	C32	0.939400	0.070000	0.490000
H341	H34	0.948100	0.059400	0.466500
H351	H35	0.911500	0.052800	0.472700
H361	H36	0.965000	0.063500	0.537700
C331	C33	0.099060	0.697740	0.872200
C341	C34	0.097930	0.665070	0.827900
C351	C35	0.054640	0.655060	0.762000
H371	H37	0.027000	0.670300	0.745200
C361	C36	0.052800	0.622100	0.721100
H381	H38	0.023700	0.615600	0.677400
C371	C37	0.092400	0.599600	0.743900
C381	C38	0.137500	0.612200	0.810400
H391	H39	0.165500	0.599200	0.825800
C391	C39	0.138600	0.644300	0.851800
H401	H40	0.167300	0.651300	0.895700
C401	C40	0.091900	0.563400	0.703600
C411	C41	0.081800	0.572100	0.647300
H411	H41	0.074100	0.604000	0.631400
C421	C42	0.081600	0.537400	0.608500
C431	C43	0.093700	0.492100	0.631900
C441	C44	0.124600	0.480400	0.708000
H421	H42	0.141600	0.451700	0.729300
C451	C45	0.123400	0.520600	0.742100
C461	C46	0.052900	0.396100	0.499400
H431	H43	0.024600	0.385600	0.457300
C471	C47	0.052900	0.436500	0.531100
H441	H44	0.024500	0.452900	0.508600
C481	C48	0.092100	0.452100	0.591900
C491	C49	0.134800	0.427200	0.624200
H451	H45	0.162800	0.437700	0.666600
C501	C50	0.136100	0.387100	0.594000
H461	H46	0.164500	0.370800	0.616100
C511	C51	0.094160	0.372440	0.530400
C521	C52	0.094360	0.328510	0.497800
C531	C53	0.053100	0.601600	0.521200
H471	H47	0.023400	0.605900	0.509100
H481	H48	0.074400	0.627900	0.551300
C541	C54	0.046000	0.601600	0.469200
H491	H49	0.018400	0.621400	0.434100
H501	H50	0.040200	0.568700	0.452100
C551	C55	0.089100	0.622100	0.488200
H511	H51	0.105400	0.598800	0.483600
H521	H52	0.111200	0.636800	0.533000
C561	C56	0.059900	0.660000	0.430000
H531	H53	0.084900	0.683800	0.449600
H541	H54	0.041800	0.673400	0.438900
C571	C57	0.023200	0.677200	0.346900
H551	H55	0.989800	0.678900	0.322300
H561	H56	0.033500	0.705900	0.339400
C581	C58	0.039400	0.626900	0.339500
H571	H57	0.024100	0.622700	0.293200
H581	H58	0.030600	0.600600	0.352100
H591	H59	0.073200	0.627000	0.368700
C591	C59	0.155400	0.446400	0.827000
H601	H60	0.130800	0.424700	0.814700
H611	H61	0.172700	0.432300	0.817000
C601	C60	0.183000	0.467200	0.889500
H621	H62	0.203600	0.443400	0.925300
H631	H63	0.202300	0.493300	0.895300
C611	C61	0.150600	0.484400	0.888900
H641	H64	0.155000	0.519400	0.891900
H651	H65	0.162800	0.474600	0.932700
C621	C62	0.950550	0.733800	0.838600
H661	H66	0.966700	0.716500	0.878700
C631	C63	0.902150	0.733600	0.792200
H671	H67	0.886200	0.717000	0.801000
C641	C64	0.877570	0.758080	0.732500
C651	C65	0.903450	0.782100	0.723000
H681	H68	0.887800	0.799500	0.683000
C661	C66	0.952200	0.780700	0.771900
H691	H69	0.969100	0.796600	0.764200
C671	C67	0.749100	0.742400	0.637400
H701	H70	0.733100	0.730000	0.648400
C681	C68	0.798800	0.745100	0.688600
H711	H71	0.813800	0.737900	0.733000
C691	C69	0.824230	0.756600	0.678200
C701	C70	0.798900	0.776200	0.616900
H721	H72	0.814500	0.790200	0.606000
C711	C71	0.749900	0.776100	0.569200
N11	N1	0.976140	0.756730	0.831200
N21	N2	0.725110	0.755780	0.577000
O11	O1	0.142420	0.808170	0.951350
O21	O2	0.063690	0.815510	0.880300
O31	O3	0.144120	0.209320	0.555690
O41	O4	0.065800	0.212610	0.482130
O51	O5	0.156800	0.941600	0.768600
O61	O6	0.055200	0.110200	0.700800
O71	O7	0.060820	0.715640	0.849990
O81	O8	0.139420	0.706470	0.930610
O91	O9	0.055630	0.312130	0.445800
O101	O10	0.134790	0.310470	0.528650
O111	O11	0.077500	0.547800	0.559600
O121	O12	0.138100	0.505400	0.801700
Zn11	Zn1	0.048520	0.752300	0.901350
Zn21	Zn2	0.152760	0.747520	0.004490
C721	C72	0.604200	0.329810	0.905600
C731	C73	0.604930	0.373440	0.874700
C741	C74	0.565350	0.397700	0.822800
H731	H73	0.536800	0.388300	0.808800
C751	C75	0.564600	0.436500	0.788500
H741	H74	0.536300	0.452200	0.752700
C761	C76	0.607600	0.450940	0.809800
C771	C77	0.648400	0.427500	0.863600
H751	H75	0.676900	0.437300	0.877900
C781	C78	0.649180	0.389630	0.897900
H761	H76	0.677700	0.375000	0.935200
C791	C79	0.609300	0.491000	0.774600
C801	C80	0.580400	0.531000	0.752500
H771	H77	0.559800	0.533400	0.758500
C811	C81	0.583700	0.567900	0.720500
C821	C82	0.610300	0.562600	0.702500
C831	C83	0.633700	0.519900	0.718400
H781	H78	0.651700	0.515300	0.708200
C841	C84	0.630500	0.481900	0.751100
C851	C85	0.607100	0.598900	0.659400
C861	C86	0.565000	0.618500	0.600600
H791	H79	0.536500	0.609700	0.587000
C871	C87	0.564700	0.651600	0.561100
H801	H80	0.536000	0.664100	0.521500
C881	C88	0.605340	0.665400	0.579500
C891	C89	0.648700	0.649000	0.642400
H811	H81	0.677100	0.661500	0.658700
C901	C90	0.649800	0.615000	0.680000
H821	H82	0.678700	0.602400	0.719300
C911	C91	0.605530	0.699110	0.536500
C921	C92	0.684700	0.432900	0.749800
H831	H83	0.664500	0.437100	0.701300
H841	H84	0.711200	0.455400	0.773800
C931	C93	0.701800	0.382800	0.769800
H851	H85	0.676000	0.361300	0.753300
H861	H86	0.726500	0.380300	0.819000
C941	C94	0.721900	0.367700	0.738900
H871	H87	0.695800	0.364400	0.690000
H881	H88	0.742700	0.393300	0.747600
C951	C95	0.749500	0.319900	0.768300
H891	H89	0.736200	0.300200	0.781200
H901	H90	0.782100	0.327200	0.809500
C961	C96	0.750000	0.288800	0.721300
H911	H91	0.757900	0.309800	0.701900
H921	H92	0.774900	0.264500	0.748800
C971	C97	0.715000	0.269600	0.678200
H931	H93	0.718100	0.251200	0.651600
H941	H94	0.690300	0.293400	0.649900
H951	H95	0.707200	0.248000	0.696900
C981	C98	0.520100	0.619400	0.708900
H961	H96	0.532200	0.608900	0.752400
H971	H97	0.508500	0.652600	0.698900
C991	C99	0.492100	0.591100	0.662900
H981	H98	0.473000	0.576200	0.669300
H991	H99	0.509200	0.565500	0.662900
C1001	C100	0.457600	0.620200	0.590000
H1001	H100	0.450200	0.650400	0.599500
H1011	H101	0.479000	0.629400	0.585000
C1011	C101	0.419300	0.609800	0.530000
H1021	H102	0.393500	0.630300	0.515900
H1031	H103	0.410800	0.576000	0.527100
C1021	C102	0.430000	0.620000	0.480000
H1041	H104	0.402400	0.629500	0.433600
H1051	H105	0.457300	0.640500	0.500300
C1031	C103	0.439400	0.570000	0.490000
H1061	H106	0.448100	0.559400	0.466500
H1071	H107	0.411500	0.552800	0.472700
H1081	H108	0.465000	0.563500	0.537700
C1041	C104	0.599060	0.197740	0.872200
C1051	C105	0.597930	0.165070	0.827900
C1061	C106	0.554640	0.155060	0.762000
H1091	H109	0.527000	0.170300	0.745200
C1071	C107	0.552800	0.122100	0.721100
H1101	H110	0.523700	0.115600	0.677400
C1081	C108	0.592400	0.099600	0.743900
C1091	C109	0.637500	0.112200	0.810400
H1111	H111	0.665500	0.099200	0.825800
C1101	C110	0.638600	0.144300	0.851800
H1121	H112	0.667300	0.151300	0.895700
C1111	C111	0.591900	0.063400	0.703600
C1121	C112	0.581800	0.072100	0.647300
H1131	H113	0.574100	0.104000	0.631400
C1131	C113	0.581600	0.037400	0.608500
C1141	C114	0.593700	0.992100	0.631900
C1151	C115	0.624600	0.980400	0.708000
H1141	H114	0.641600	0.951700	0.729300
C1161	C116	0.623400	0.020600	0.742100
C1171	C117	0.552900	0.896100	0.499400
H1151	H115	0.524600	0.885600	0.457300
C1181	C118	0.552900	0.936500	0.531100
H1161	H116	0.524500	0.952900	0.508600
C1191	C119	0.592100	0.952100	0.591900
C1201	C120	0.634800	0.927200	0.624200
H1171	H117	0.662800	0.937700	0.666600
C1211	C121	0.636100	0.887100	0.594000
H1181	H118	0.664500	0.870800	0.616100
C1221	C122	0.594160	0.872440	0.530400
C1231	C123	0.594360	0.828510	0.497800
C1241	C124	0.553100	0.101600	0.521200
H1191	H119	0.523400	0.105900	0.509100
H1201	H120	0.574400	0.127900	0.551300
C1251	C125	0.546000	0.101600	0.469200
H1211	H121	0.518400	0.121400	0.434100
H1221	H122	0.540200	0.068700	0.452100
C1261	C126	0.589100	0.122100	0.488200
H1231	H123	0.605400	0.098800	0.483600
H1241	H124	0.611200	0.136800	0.533000
C1271	C127	0.559900	0.160000	0.430000
H1251	H125	0.584900	0.183800	0.449600
H1261	H126	0.541800	0.173400	0.438900
C1281	C128	0.523200	0.177200	0.346900
H1271	H127	0.489800	0.178900	0.322300
H1281	H128	0.533500	0.205900	0.339400
C1291	C129	0.539400	0.126900	0.339500
H1291	H129	0.524100	0.122700	0.293200
H1301	H130	0.530600	0.100600	0.352100
H1311	H131	0.573200	0.127000	0.368700
C1301	C130	0.655400	0.946400	0.827000
H1321	H132	0.630800	0.924700	0.814700
H1331	H133	0.672700	0.932300	0.817000
C1311	C131	0.683000	0.967200	0.889500
H1341	H134	0.703600	0.943400	0.925300
H1351	H135	0.702300	0.993300	0.895300
C1321	C132	0.650600	0.984400	0.888900
H1361	H136	0.655000	0.019400	0.891900
H1371	H137	0.662800	0.974600	0.932700
C1331	C133	0.450550	0.233800	0.838600
H1381	H138	0.466700	0.216500	0.878700
C1341	C134	0.402150	0.233600	0.792200
H1391	H139	0.386200	0.217000	0.801000
C1351	C135	0.377570	0.258080	0.732500
C1361	C136	0.403450	0.282100	0.723000
H1401	H140	0.387800	0.299500	0.683000
C1371	C137	0.452200	0.280700	0.771900
H1411	H141	0.469100	0.296600	0.764200
C1381	C138	0.249100	0.242400	0.637400
H1421	H142	0.233100	0.230000	0.648400
C1391	C139	0.298800	0.245100	0.688600
H1431	H143	0.313800	0.237900	0.733000
C1401	C140	0.324230	0.256600	0.678200
C1411	C141	0.298900	0.276200	0.616900
H1441	H144	0.314500	0.290200	0.606000
C1421	C142	0.249900	0.276100	0.569200
N31	N3	0.476140	0.256730	0.831200
N41	N4	0.225110	0.255780	0.577000
O131	O13	0.642420	0.308170	0.951350
O141	O14	0.563690	0.315510	0.880300
O151	O15	0.644120	0.709320	0.555690
O161	O16	0.565800	0.712610	0.482130
O171	O17	0.656800	0.441600	0.768600
O181	O18	0.555200	0.610200	0.700800
O191	O19	0.560820	0.215640	0.849990
O201	O20	0.639420	0.206470	0.930610
O211	O21	0.555630	0.812130	0.445800
O221	O22	0.634790	0.810470	0.528650
O231	O23	0.577500	0.047800	0.559600
O241	O24	0.638100	0.005400	0.801700
Zn31	Zn3	0.548520	0.252300	0.901350
Zn41	Zn4	0.652760	0.247520	0.004490
C1431	C143	0.104200	0.170190	0.405600
C1441	C144	0.104930	0.126560	0.374700
C1451	C145	0.065350	0.102300	0.322800
H1451	H145	0.036800	0.111700	0.308800
C1461	C146	0.064600	0.063500	0.288500
H1461	H146	0.036300	0.047800	0.252700
C1471	C147	0.107600	0.049060	0.309800
C1481	C148	0.148400	0.072500	0.363600
H1471	H147	0.176900	0.062700	0.377900
C1491	C149	0.149180	0.110370	0.397900
H1481	H148	0.177700	0.125000	0.435200
C1501	C150	0.109300	0.009000	0.274600
C1511	C151	0.080400	0.969000	0.252500
H1491	H149	0.059800	0.966600	0.258500
C1521	C152	0.083700	0.932100	0.220500
C1531	C153	0.110300	0.937400	0.202500
C1541	C154	0.133700	0.980100	0.218400
H1501	H150	0.151700	0.984700	0.208200
C1551	C155	0.130500	0.018100	0.251100
C1561	C156	0.107100	0.901100	0.159400
C1571	C157	0.065000	0.881500	0.100600
H1511	H151	0.036500	0.890300	0.087000
C1581	C158	0.064700	0.848400	0.061100
H1521	H152	0.036000	0.835900	0.021500
C1591	C159	0.105340	0.834600	0.079500
C1601	C160	0.148700	0.851000	0.142400
H1531	H153	0.177100	0.838500	0.158700
C1611	C161	0.149800	0.885000	0.180000
H1541	H154	0.178700	0.897600	0.219300
C1621	C162	0.105530	0.800890	0.036500
C1631	C163	0.184700	0.067100	0.249800
H1551	H155	0.164500	0.062900	0.201300
H1561	H156	0.211200	0.044600	0.273800
C1641	C164	0.201800	0.117200	0.269800
H1571	H157	0.176000	0.138700	0.253300
H1581	H158	0.226500	0.119700	0.319000
C1651	C165	0.221900	0.132300	0.238900
H1591	H159	0.195800	0.135600	0.190000
H1601	H160	0.242700	0.106700	0.247600
C1661	C166	0.249500	0.180100	0.268300
H1611	H161	0.236200	0.199800	0.281200
H1621	H162	0.282100	0.172800	0.309500
C1671	C167	0.250000	0.211200	0.221300
H1631	H163	0.257900	0.190200	0.201900
H1641	H164	0.274900	0.235500	0.248800
C1681	C168	0.215000	0.230400	0.178200
H1651	H165	0.218100	0.248800	0.151600
H1661	H166	0.190300	0.206600	0.149900
H1671	H167	0.207200	0.252000	0.196900
C1691	C169	0.020100	0.880600	0.208900
H1681	H168	0.032200	0.891100	0.252400
H1691	H169	0.008500	0.847400	0.198900
C1701	C170	0.992100	0.908900	0.162900
H1701	H170	0.973000	0.923800	0.169300
H1711	H171	0.009200	0.934500	0.162900
C1711	C171	0.957600	0.879800	0.090000
H1721	H172	0.950200	0.849600	0.099500
H1731	H173	0.979000	0.870600	0.085000
C1721	C172	0.919300	0.890200	0.030000
H1741	H174	0.893500	0.869700	0.015900
H1751	H175	0.910800	0.924000	0.027100
C1731	C173	0.930000	0.880000	0.980000
H1761	H176	0.902400	0.870500	0.933600
H1771	H177	0.957300	0.859500	0.000300
C1741	C174	0.939400	0.930000	0.990000
H1781	H178	0.948100	0.940600	0.966500
H1791	H179	0.911500	0.947200	0.972700
H1801	H180	0.965000	0.936500	0.037700
C1751	C175	0.099060	0.302260	0.372200
C1761	C176	0.097930	0.334930	0.327900
C1771	C177	0.054640	0.344940	0.262000
H1811	H181	0.027000	0.329700	0.245200
C1781	C178	0.052800	0.377900	0.221100
H1821	H182	0.023700	0.384400	0.177400
C1791	C179	0.092400	0.400400	0.243900
C1801	C180	0.137500	0.387800	0.310400
H1831	H183	0.165500	0.400800	0.325800
C1811	C181	0.138600	0.355700	0.351800
H1841	H184	0.167300	0.348700	0.395700
C1821	C182	0.091900	0.436600	0.203600
C1831	C183	0.081800	0.427900	0.147300
H1851	H185	0.074100	0.396000	0.131400
C1841	C184	0.081600	0.462600	0.108500
C1851	C185	0.093700	0.507900	0.131900
C1861	C186	0.124600	0.519600	0.208000
H1861	H186	0.141600	0.548300	0.229300
C1871	C187	0.123400	0.479400	0.242100
C1881	C188	0.052900	0.603900	0.999400
H1871	H187	0.024600	0.614400	0.957300
C1891	C189	0.052900	0.563500	0.031100
H1881	H188	0.024500	0.547100	0.008600
C1901	C190	0.092100	0.547900	0.091900
C1911	C191	0.134800	0.572800	0.124200
H1891	H189	0.162800	0.562300	0.166600
C1921	C192	0.136100	0.612900	0.094000
H1901	H190	0.164500	0.629200	0.116100
C1931	C193	0.094160	0.627560	0.030400
C1941	C194	0.094360	0.671490	0.997800
C1951	C195	0.053100	0.398400	0.021200
H1911	H191	0.023400	0.394100	0.009100
H1921	H192	0.074400	0.372100	0.051300
C1961	C196	0.046000	0.398400	0.969200
H1931	H193	0.018400	0.378600	0.934100
H1941	H194	0.040200	0.431300	0.952100
C1971	C197	0.089100	0.377900	0.988200
H1951	H195	0.105400	0.401200	0.983600
H1961	H196	0.111200	0.363200	0.033000
C1981	C198	0.059900	0.340000	0.930000
H1971	H197	0.084900	0.316200	0.949600
H1981	H198	0.041800	0.326600	0.938900
C1991	C199	0.023200	0.322800	0.846900
H1991	H199	0.989800	0.321100	0.822300
H2001	H200	0.033500	0.294100	0.839400
C2001	C200	0.039400	0.373100	0.839500
H2011	H201	0.024100	0.377300	0.793200
H2021	H202	0.030600	0.399400	0.852100
H2031	H203	0.073200	0.373000	0.868700
C2011	C201	0.155400	0.553600	0.327000
H2041	H204	0.130800	0.575300	0.314700
H2051	H205	0.172700	0.567700	0.317000
C2021	C202	0.183000	0.532800	0.389500
H2061	H206	0.203600	0.556600	0.425300
H2071	H207	0.202300	0.506700	0.395300
C2031	C203	0.150600	0.515600	0.388900
H2081	H208	0.155000	0.480600	0.391900
H2091	H209	0.162800	0.525400	0.432700
C2041	C204	0.950550	0.266200	0.338600
H2101	H210	0.966700	0.283500	0.378700
C2051	C205	0.902150	0.266400	0.292200
H2111	H211	0.886200	0.283000	0.301000
C2061	C206	0.877570	0.241920	0.232500
C2071	C207	0.903450	0.217900	0.223000
H2121	H212	0.887800	0.200500	0.183000
C2081	C208	0.952200	0.219300	0.271900
H2131	H213	0.969100	0.203400	0.264200
C2091	C209	0.749100	0.257600	0.137400
H2141	H214	0.733100	0.270000	0.148400
C2101	C210	0.798800	0.254900	0.188600
H2151	H215	0.813800	0.262100	0.233000
C2111	C211	0.824230	0.243400	0.178200
C2121	C212	0.798900	0.223800	0.116900
H2161	H216	0.814500	0.209800	0.106000
C2131	C213	0.749900	0.223900	0.069200
N51	N5	0.976140	0.243270	0.331200
N61	N6	0.725110	0.244220	0.077000
O251	O25	0.142420	0.191830	0.451350
O261	O26	0.063690	0.184490	0.380300
O271	O27	0.144120	0.790680	0.055690
O281	O28	0.065800	0.787390	0.982130
O291	O29	0.156800	0.058400	0.268600
O301	O30	0.055200	0.889800	0.200800
O311	O31	0.060820	0.284360	0.349990
O321	O32	0.139420	0.293530	0.430610
O331	O33	0.055630	0.687870	0.945800
O341	O34	0.134790	0.689530	0.028650
O351	O35	0.077500	0.452200	0.059600
O361	O36	0.138100	0.494600	0.301700
Zn51	Zn5	0.048520	0.247700	0.401350
Zn61	Zn6	0.152760	0.252480	0.504490
C2141	C214	0.604200	0.670190	0.405600
C2151	C215	0.604930	0.626560	0.374700
C2161	C216	0.565350	0.602300	0.322800
H2171	H217	0.536800	0.611700	0.308800
C2171	C217	0.564600	0.563500	0.288500
H2181	H218	0.536300	0.547800	0.252700
C2181	C218	0.607600	0.549060	0.309800
C2191	C219	0.648400	0.572500	0.363600
H2191	H219	0.676900	0.562700	0.377900
C2201	C220	0.649180	0.610370	0.397900
H2201	H220	0.677700	0.625000	0.435200
C2211	C221	0.609300	0.509000	0.274600
C2221	C222	0.580400	0.469000	0.252500
H2211	H221	0.559800	0.466600	0.258500
C2231	C223	0.583700	0.432100	0.220500
C2241	C224	0.610300	0.437400	0.202500
C2251	C225	0.633700	0.480100	0.218400
H2221	H222	0.651700	0.484700	0.208200
C2261	C226	0.630500	0.518100	0.251100
C2271	C227	0.607100	0.401100	0.159400
C2281	C228	0.565000	0.381500	0.100600
H2231	H223	0.536500	0.390300	0.087000
C2291	C229	0.564700	0.348400	0.061100
H2241	H224	0.536000	0.335900	0.021500
C2301	C230	0.605340	0.334600	0.079500
C2311	C231	0.648700	0.351000	0.142400
H2251	H225	0.677100	0.338500	0.158700
C2321	C232	0.649800	0.385000	0.180000
H2261	H226	0.678700	0.397600	0.219300
C2331	C233	0.605530	0.300890	0.036500
C2341	C234	0.684700	0.567100	0.249800
H2271	H227	0.664500	0.562900	0.201300
H2281	H228	0.711200	0.544600	0.273800
C2351	C235	0.701800	0.617200	0.269800
H2291	H229	0.676000	0.638700	0.253300
H2301	H230	0.726500	0.619700	0.319000
C2361	C236	0.721900	0.632300	0.238900
H2311	H231	0.695800	0.635600	0.190000
H2321	H232	0.742700	0.606700	0.247600
C2371	C237	0.749500	0.680100	0.268300
H2331	H233	0.736200	0.699800	0.281200
H2341	H234	0.782100	0.672800	0.309500
C2381	C238	0.750000	0.711200	0.221300
H2351	H235	0.757900	0.690200	0.201900
H2361	H236	0.774900	0.735500	0.248800
C2391	C239	0.715000	0.730400	0.178200
H2371	H237	0.718100	0.748800	0.151600
H2381	H238	0.690300	0.706600	0.149900
H2391	H239	0.707200	0.752000	0.196900
C2401	C240	0.520100	0.380600	0.208900
H2401	H240	0.532200	0.391100	0.252400
H2411	H241	0.508500	0.347400	0.198900
C2411	C241	0.492100	0.408900	0.162900
H2421	H242	0.473000	0.423800	0.169300
H2431	H243	0.509200	0.434500	0.162900
C2421	C242	0.457600	0.379800	0.090000
H2441	H244	0.450200	0.349600	0.099500
H2451	H245	0.479000	0.370600	0.085000
C2431	C243	0.419300	0.390200	0.030000
H2461	H246	0.393500	0.369700	0.015900
H2471	H247	0.410800	0.424000	0.027100
C2441	C244	0.430000	0.380000	0.980000
H2481	H248	0.402400	0.370500	0.933600
H2491	H249	0.457300	0.359500	0.000300
C2451	C245	0.439400	0.430000	0.990000
H2501	H250	0.448100	0.440600	0.966500
H2511	H251	0.411500	0.447200	0.972700
H2521	H252	0.465000	0.436500	0.037700
C2461	C246	0.599060	0.802260	0.372200
C2471	C247	0.597930	0.834930	0.327900
C2481	C248	0.554640	0.844940	0.262000
H2531	H253	0.527000	0.829700	0.245200
C2491	C249	0.552800	0.877900	0.221100
H2541	H254	0.523700	0.884400	0.177400
C2501	C250	0.592400	0.900400	0.243900
C2511	C251	0.637500	0.887800	0.310400
H2551	H255	0.665500	0.900800	0.325800
C2521	C252	0.638600	0.855700	0.351800
H2561	H256	0.667300	0.848700	0.395700
C2531	C253	0.591900	0.936600	0.203600
C2541	C254	0.581800	0.927900	0.147300
H2571	H257	0.574100	0.896000	0.131400
C2551	C255	0.581600	0.962600	0.108500
C2561	C256	0.593700	0.007900	0.131900
C2571	C257	0.624600	0.019600	0.208000
H2581	H258	0.641600	0.048300	0.229300
C2581	C258	0.623400	0.979400	0.242100
C2591	C259	0.552900	0.103900	0.999400
H2591	H259	0.524600	0.114400	0.957300
C2601	C260	0.552900	0.063500	0.031100
H2601	H260	0.524500	0.047100	0.008600
C2611	C261	0.592100	0.047900	0.091900
C2621	C262	0.634800	0.072800	0.124200
H2611	H261	0.662800	0.062300	0.166600
C2631	C263	0.636100	0.112900	0.094000
H2621	H262	0.664500	0.129200	0.116100
C2641	C264	0.594160	0.127560	0.030400
C2651	C265	0.594360	0.171490	0.997800
C2661	C266	0.553100	0.898400	0.021200
H2631	H263	0.523400	0.894100	0.009100
H2641	H264	0.574400	0.872100	0.051300
C2671	C267	0.546000	0.898400	0.969200
H2651	H265	0.518400	0.878600	0.934100
H2661	H266	0.540200	0.931300	0.952100
C2681	C268	0.589100	0.877900	0.988200
H2671	H267	0.605400	0.901200	0.983600
H2681	H268	0.611200	0.863200	0.033000
C2691	C269	0.559900	0.840000	0.930000
H2691	H269	0.584900	0.816200	0.949600
H2701	H270	0.541800	0.826600	0.938900
C2701	C270	0.523200	0.822800	0.846900
H2711	H271	0.489800	0.821100	0.822300
H2721	H272	0.533500	0.794100	0.839400
C2711	C271	0.539400	0.873100	0.839500
H2731	H273	0.524100	0.877300	0.793200
H2741	H274	0.530600	0.899400	0.852100
H2751	H275	0.573200	0.873000	0.868700
C2721	C272	0.655400	0.053600	0.327000
H2761	H276	0.630800	0.075300	0.314700
H2771	H277	0.672700	0.067700	0.317000
C2731	C273	0.683000	0.032800	0.389500
H2781	H278	0.703600	0.056600	0.425300
H2791	H279	0.702300	0.006700	0.395300
C2741	C274	0.650600	0.015600	0.388900
H2801	H280	0.655000	0.980600	0.391900
H2811	H281	0.662800	0.025400	0.432700
C2751	C275	0.450550	0.766200	0.338600
H2821	H282	0.466700	0.783500	0.378700
C2761	C276	0.402150	0.766400	0.292200
H2831	H283	0.386200	0.783000	0.301000
C2771	C277	0.377570	0.741920	0.232500
C2781	C278	0.403450	0.717900	0.223000
H2841	H284	0.387800	0.700500	0.183000
C2791	C279	0.452200	0.719300	0.271900
H2851	H285	0.469100	0.703400	0.264200
C2801	C280	0.249100	0.757600	0.137400
H2861	H286	0.233100	0.770000	0.148400
C2811	C281	0.298800	0.754900	0.188600
H2871	H287	0.313800	0.762100	0.233000
C2821	C282	0.324230	0.743400	0.178200
C2831	C283	0.298900	0.723800	0.116900
H2881	H288	0.314500	0.709800	0.106000
C2841	C284	0.249900	0.723900	0.069200
N71	N7	0.476140	0.743270	0.331200
N81	N8	0.225110	0.744220	0.077000
O371	O37	0.642420	0.691830	0.451350
O381	O38	0.563690	0.684490	0.380300
O391	O39	0.644120	0.290680	0.055690
O401	O40	0.565800	0.287390	0.982130
O411	O41	0.656800	0.558400	0.268600
O421	O42	0.555200	0.389800	0.200800
O431	O43	0.560820	0.784360	0.349990
O441	O44	0.639420	0.793530	0.430610
O451	O45	0.555630	0.187870	0.945800
O461	O46	0.634790	0.189530	0.028650
O471	O47	0.577500	0.952200	0.059600
O481	O48	0.638100	0.994600	0.301700
Zn71	Zn7	0.548520	0.747700	0.401350
Zn81	Zn8	0.652760	0.752480	0.504490
C2851	C285	0.895800	0.829810	0.594400
C2861	C286	0.895070	0.873440	0.625300
C2871	C287	0.934650	0.897700	0.677200
H2891	H289	0.963200	0.888300	0.691200
C2881	C288	0.935400	0.936500	0.711500
H2901	H290	0.963700	0.952200	0.747300
C2891	C289	0.892400	0.950940	0.690200
C2901	C290	0.851600	0.927500	0.636400
H2911	H291	0.823100	0.937300	0.622100
C2911	C291	0.850820	0.889630	0.602100
H2921	H292	0.822300	0.875000	0.564800
C2921	C292	0.890700	0.991000	0.725400
C2931	C293	0.919600	0.031000	0.747500
H2931	H293	0.940200	0.033400	0.741500
C2941	C294	0.916300	0.067900	0.779500
C2951	C295	0.889700	0.062600	0.797500
C2961	C296	0.866300	0.019900	0.781600
H2941	H294	0.848300	0.015300	0.791800
C2971	C297	0.869500	0.981900	0.748900
C2981	C298	0.892900	0.098900	0.840600
C2991	C299	0.935000	0.118500	0.899400
H2951	H295	0.963500	0.109700	0.913000
C3001	C300	0.935300	0.151600	0.938900
H2961	H296	0.964000	0.164100	0.978500
C3011	C301	0.894660	0.165400	0.920500
C3021	C302	0.851300	0.149000	0.857600
H2971	H297	0.822900	0.161500	0.841300
C3031	C303	0.850200	0.115000	0.820000
H2981	H298	0.821300	0.102400	0.780700
C3041	C304	0.894470	0.199110	0.963500
C3051	C305	0.815300	0.932900	0.750200
H2991	H299	0.835500	0.937100	0.798700
H3001	H300	0.788800	0.955400	0.726200
C3061	C306	0.798200	0.882800	0.730200
H3011	H301	0.824000	0.861300	0.746700
H3021	H302	0.773500	0.880300	0.681000
C3071	C307	0.778100	0.867700	0.761100
H3031	H303	0.804200	0.864400	0.810000
H3041	H304	0.757300	0.893300	0.752400
C3081	C308	0.750500	0.819900	0.731700
H3051	H305	0.763800	0.800200	0.718800
H3061	H306	0.717900	0.827200	0.690500
C3091	C309	0.750000	0.788800	0.778700
H3071	H307	0.742100	0.809800	0.798100
H3081	H308	0.725100	0.764500	0.751200
C3101	C310	0.785000	0.769600	0.821800
H3091	H309	0.781900	0.751200	0.848400
H3101	H310	0.809700	0.793400	0.850100
H3111	H311	0.792800	0.748000	0.803100
C3111	C311	0.979900	0.119400	0.791100
H3121	H312	0.967800	0.108900	0.747600
H3131	H313	0.991500	0.152600	0.801100
C3121	C312	0.007900	0.091100	0.837100
H3141	H314	0.027000	0.076200	0.830700
H3151	H315	0.990800	0.065500	0.837100
C3131	C313	0.042400	0.120200	0.910000
H3161	H316	0.049800	0.150400	0.900500
H3171	H317	0.021000	0.129400	0.915000
C3141	C314	0.080700	0.109800	0.970000
H3181	H318	0.106500	0.130300	0.984100
H3191	H319	0.089200	0.076000	0.972900
C3151	C315	0.070000	0.120000	0.020000
H3201	H320	0.097600	0.129500	0.066400
H3211	H321	0.042700	0.140500	0.999700
C3161	C316	0.060600	0.070000	0.010000
H3221	H322	0.051900	0.059400	0.033500
H3231	H323	0.088500	0.052800	0.027300
H3241	H324	0.035000	0.063500	0.962300
C3171	C317	0.900940	0.697740	0.627800
C3181	C318	0.902070	0.665070	0.672100
C3191	C319	0.945360	0.655060	0.738000
H3251	H325	0.973000	0.670300	0.754800
C3201	C320	0.947200	0.622100	0.778900
H3261	H326	0.976300	0.615600	0.822600
C3211	C321	0.907600	0.599600	0.756100
C3221	C322	0.862500	0.612200	0.689600
H3271	H327	0.834500	0.599200	0.674200
C3231	C323	0.861400	0.644300	0.648200
H3281	H328	0.832700	0.651300	0.604300
C3241	C324	0.908100	0.563400	0.796400
C3251	C325	0.918200	0.572100	0.852700
H3291	H329	0.925900	0.604000	0.868600
C3261	C326	0.918400	0.537400	0.891500
C3271	C327	0.906300	0.492100	0.868100
C3281	C328	0.875400	0.480400	0.792000
H3301	H330	0.858400	0.451700	0.770700
C3291	C329	0.876600	0.520600	0.757900
C3301	C330	0.947100	0.396100	0.000600
H3311	H331	0.975400	0.385600	0.042700
C3311	C331	0.947100	0.436500	0.968900
H3321	H332	0.975500	0.452900	0.991400
C3321	C332	0.907900	0.452100	0.908100
C3331	C333	0.865200	0.427200	0.875800
H3331	H333	0.837200	0.437700	0.833400
C3341	C334	0.863900	0.387100	0.906000
H3341	H334	0.835500	0.370800	0.883900
C3351	C335	0.905840	0.372440	0.969600
C3361	C336	0.905640	0.328510	0.002200
C3371	C337	0.946900	0.601600	0.978800
H3351	H335	0.976600	0.605900	0.990900
H3361	H336	0.925600	0.627900	0.948700
C3381	C338	0.954000	0.601600	0.030800
H3371	H337	0.981600	0.621400	0.065900
H3381	H338	0.959800	0.568700	0.047900
C3391	C339	0.910900	0.622100	0.011800
H3391	H339	0.894600	0.598800	0.016400
H3401	H340	0.888800	0.636800	0.967000
C3401	C340	0.940100	0.660000	0.070000
H3411	H341	0.915100	0.683800	0.050400
H3421	H342	0.958200	0.673400	0.061100
C3411	C341	0.976800	0.677200	0.153100
H3431	H343	0.010200	0.678900	0.177700
H3441	H344	0.966500	0.705900	0.160600
C3421	C342	0.960600	0.626900	0.160500
H3451	H345	0.975900	0.622700	0.206800
H3461	H346	0.969400	0.600600	0.147900
H3471	H347	0.926800	0.627000	0.131300
C3431	C343	0.844600	0.446400	0.673000
H3481	H348	0.869200	0.424700	0.685300
H3491	H349	0.827300	0.432300	0.683000
C3441	C344	0.817000	0.467200	0.610500
H3501	H350	0.796400	0.443400	0.574700
H3511	H351	0.797700	0.493300	0.604700
C3451	C345	0.849400	0.484400	0.611100
H3521	H352	0.845000	0.519400	0.608100
H3531	H353	0.837200	0.474600	0.567300
C3461	C346	0.049450	0.733800	0.661400
H3541	H354	0.033300	0.716500	0.621300
C3471	C347	0.097850	0.733600	0.707800
H3551	H355	0.113800	0.717000	0.699000
C3481	C348	0.122430	0.758080	0.767500
C3491	C349	0.096550	0.782100	0.777000
H3561	H356	0.112200	0.799500	0.817000
C3501	C350	0.047800	0.780700	0.728100
H3571	H357	0.030900	0.796600	0.735800
C3511	C351	0.250900	0.742400	0.862600
H3581	H358	0.266900	0.730000	0.851600
C3521	C352	0.201200	0.745100	0.811400
H3591	H359	0.186200	0.737900	0.767000
C3531	C353	0.175770	0.756600	0.821800
C3541	C354	0.201100	0.776200	0.883100
H3601	H360	0.185500	0.790200	0.894000
C3551	C355	0.250100	0.776100	0.930800
N91	N9	0.023860	0.756730	0.668800
N101	N10	0.274890	0.755780	0.923000
O491	O49	0.857580	0.808170	0.548650
O501	O50	0.936310	0.815510	0.619700
O511	O51	0.855880	0.209320	0.944310
O521	O52	0.934200	0.212610	0.017870
O531	O53	0.843200	0.941600	0.731400
O541	O54	0.944800	0.110200	0.799200
O551	O55	0.939180	0.715640	0.650010
O561	O56	0.860580	0.706470	0.569390
O571	O57	0.944370	0.312130	0.054200
O581	O58	0.865210	0.310470	0.971350
O591	O59	0.922500	0.547800	0.940400
O601	O60	0.861900	0.505400	0.698300
Zn91	Zn9	0.951480	0.752300	0.598650
Zn101	Zn10	0.847240	0.747520	0.495510
C3561	C356	0.395800	0.329810	0.594400
C3571	C357	0.395070	0.373440	0.625300
C3581	C358	0.434650	0.397700	0.677200
H3611	H361	0.463200	0.388300	0.691200
C3591	C359	0.435400	0.436500	0.711500
H3621	H362	0.463700	0.452200	0.747300
C3601	C360	0.392400	0.450940	0.690200
C3611	C361	0.351600	0.427500	0.636400
H3631	H363	0.323100	0.437300	0.622100
C3621	C362	0.350820	0.389630	0.602100
H3641	H364	0.322300	0.375000	0.564800
C3631	C363	0.390700	0.491000	0.725400
C3641	C364	0.419600	0.531000	0.747500
H3651	H365	0.440200	0.533400	0.741500
C3651	C365	0.416300	0.567900	0.779500
C3661	C366	0.389700	0.562600	0.797500
C3671	C367	0.366300	0.519900	0.781600
H3661	H366	0.348300	0.515300	0.791800
C3681	C368	0.369500	0.481900	0.748900
C3691	C369	0.392900	0.598900	0.840600
C3701	C370	0.435000	0.618500	0.899400
H3671	H367	0.463500	0.609700	0.913000
C3711	C371	0.435300	0.651600	0.938900
H3681	H368	0.464000	0.664100	0.978500
C3721	C372	0.394660	0.665400	0.920500
C3731	C373	0.351300	0.649000	0.857600
H3691	H369	0.322900	0.661500	0.841300
C3741	C374	0.350200	0.615000	0.820000
H3701	H370	0.321300	0.602400	0.780700
C3751	C375	0.394470	0.699110	0.963500
C3761	C376	0.315300	0.432900	0.750200
H3711	H371	0.335500	0.437100	0.798700
H3721	H372	0.288800	0.455400	0.726200
C3771	C377	0.298200	0.382800	0.730200
H3731	H373	0.324000	0.361300	0.746700
H3741	H374	0.273500	0.380300	0.681000
C3781	C378	0.278100	0.367700	0.761100
H3751	H375	0.304200	0.364400	0.810000
H3761	H376	0.257300	0.393300	0.752400
C3791	C379	0.250500	0.319900	0.731700
H3771	H377	0.263800	0.300200	0.718800
H3781	H378	0.217900	0.327200	0.690500
C3801	C380	0.250000	0.288800	0.778700
H3791	H379	0.242100	0.309800	0.798100
H3801	H380	0.225100	0.264500	0.751200
C3811	C381	0.285000	0.269600	0.821800
H3811	H381	0.281900	0.251200	0.848400
H3821	H382	0.309700	0.293400	0.850100
H3831	H383	0.292800	0.248000	0.803100
C3821	C382	0.479900	0.619400	0.791100
H3841	H384	0.467800	0.608900	0.747600
H3851	H385	0.491500	0.652600	0.801100
C3831	C383	0.507900	0.591100	0.837100
H3861	H386	0.527000	0.576200	0.830700
H3871	H387	0.490800	0.565500	0.837100
C3841	C384	0.542400	0.620200	0.910000
H3881	H388	0.549800	0.650400	0.900500
H3891	H389	0.521000	0.629400	0.915000
C3851	C385	0.580700	0.609800	0.970000
H3901	H390	0.606500	0.630300	0.984100
H3911	H391	0.589200	0.576000	0.972900
C3861	C386	0.570000	0.620000	0.020000
H3921	H392	0.597600	0.629500	0.066400
H3931	H393	0.542700	0.640500	0.999700
C3871	C387	0.560600	0.570000	0.010000
H3941	H394	0.551900	0.559400	0.033500
H3951	H395	0.588500	0.552800	0.027300
H3961	H396	0.535000	0.563500	0.962300
C3881	C388	0.400940	0.197740	0.627800
C3891	C389	0.402070	0.165070	0.672100
C3901	C390	0.445360	0.155060	0.738000
H3971	H397	0.473000	0.170300	0.754800
C3911	C391	0.447200	0.122100	0.778900
H3981	H398	0.476300	0.115600	0.822600
C3921	C392	0.407600	0.099600	0.756100
C3931	C393	0.362500	0.112200	0.689600
H3991	H399	0.334500	0.099200	0.674200
C3941	C394	0.361400	0.144300	0.648200
H4001	H400	0.332700	0.151300	0.604300
C3951	C395	0.408100	0.063400	0.796400
C3961	C396	0.418200	0.072100	0.852700
H4011	H401	0.425900	0.104000	0.868600
C3971	C397	0.418400	0.037400	0.891500
C3981	C398	0.406300	0.992100	0.868100
C3991	C399	0.375400	0.980400	0.792000
H4021	H402	0.358400	0.951700	0.770700
C4001	C400	0.376600	0.020600	0.757900
C4011	C401	0.447100	0.896100	0.000600
H4031	H403	0.475400	0.885600	0.042700
C4021	C402	0.447100	0.936500	0.968900
H4041	H404	0.475500	0.952900	0.991400
C4031	C403	0.407900	0.952100	0.908100
C4041	C404	0.365200	0.927200	0.875800
H4051	H405	0.337200	0.937700	0.833400
C4051	C405	0.363900	0.887100	0.906000
H4061	H406	0.335500	0.870800	0.883900
C4061	C406	0.405840	0.872440	0.969600
C4071	C407	0.405640	0.828510	0.002200
C4081	C408	0.446900	0.101600	0.978800
H4071	H407	0.476600	0.105900	0.990900
H4081	H408	0.425600	0.127900	0.948700
C4091	C409	0.454000	0.101600	0.030800
H4091	H409	0.481600	0.121400	0.065900
H4101	H410	0.459800	0.068700	0.047900
C4101	C410	0.410900	0.122100	0.011800
H4111	H411	0.394600	0.098800	0.016400
H4121	H412	0.388800	0.136800	0.967000
C4111	C411	0.440100	0.160000	0.070000
H4131	H413	0.415100	0.183800	0.050400
H4141	H414	0.458200	0.173400	0.061100
C4121	C412	0.476800	0.177200	0.153100
H4151	H415	0.510200	0.178900	0.177700
H4161	H416	0.466500	0.205900	0.160600
C4131	C413	0.460600	0.126900	0.160500
H4171	H417	0.475900	0.122700	0.206800
H4181	H418	0.469400	0.100600	0.147900
H4191	H419	0.426800	0.127000	0.131300
C4141	C414	0.344600	0.946400	0.673000
H4201	H420	0.369200	0.924700	0.685300
H4211	H421	0.327300	0.932300	0.683000
C4151	C415	0.317000	0.967200	0.610500
H4221	H422	0.296400	0.943400	0.574700
H4231	H423	0.297700	0.993300	0.604700
C4161	C416	0.349400	0.984400	0.611100
H4241	H424	0.345000	0.019400	0.608100
H4251	H425	0.337200	0.974600	0.567300
C4171	C417	0.549450	0.233800	0.661400
H4261	H426	0.533300	0.216500	0.621300
C4181	C418	0.597850	0.233600	0.707800
H4271	H427	0.613800	0.217000	0.699000
C4191	C419	0.622430	0.258080	0.767500
C4201	C420	0.596550	0.282100	0.777000
H4281	H428	0.612200	0.299500	0.817000
C4211	C421	0.547800	0.280700	0.728100
H4291	H429	0.530900	0.296600	0.735800
C4221	C422	0.750900	0.242400	0.862600
H4301	H430	0.766900	0.230000	0.851600
C4231	C423	0.701200	0.245100	0.811400
H4311	H431	0.686200	0.237900	0.767000
C4241	C424	0.675770	0.256600	0.821800
C4251	C425	0.701100	0.276200	0.883100
H4321	H432	0.685500	0.290200	0.894000
C4261	C426	0.750100	0.276100	0.930800
N111	N11	0.523860	0.256730	0.668800
N121	N12	0.774890	0.255780	0.923000
O611	O61	0.357580	0.308170	0.548650
O621	O62	0.436310	0.315510	0.619700
O631	O63	0.355880	0.709320	0.944310
O641	O64	0.434200	0.712610	0.017870
O651	O65	0.343200	0.441600	0.731400
O661	O66	0.444800	0.610200	0.799200
O671	O67	0.439180	0.215640	0.650010
O681	O68	0.360580	0.206470	0.569390
O691	O69	0.444370	0.812130	0.054200
O701	O70	0.365210	0.810470	0.971350
O711	O71	0.422500	0.047800	0.940400
O721	O72	0.361900	0.005400	0.698300
Zn111	Zn11	0.451480	0.252300	0.598650
Zn121	Zn12	0.347240	0.247520	0.495510
C4271	C427	0.895800	0.170190	0.094400
C4281	C428	0.895070	0.126560	0.125300
C4291	C429	0.934650	0.102300	0.177200
H4331	H433	0.963200	0.111700	0.191200
C4301	C430	0.935400	0.063500	0.211500
H4341	H434	0.963700	0.047800	0.247300
C4311	C431	0.892400	0.049060	0.190200
C4321	C432	0.851600	0.072500	0.136400
H4351	H435	0.823100	0.062700	0.122100
C4331	C433	0.850820	0.110370	0.102100
H4361	H436	0.822300	0.125000	0.064800
C4341	C434	0.890700	0.009000	0.225400
C4351	C435	0.919600	0.969000	0.247500
H4371	H437	0.940200	0.966600	0.241500
C4361	C436	0.916300	0.932100	0.279500
C4371	C437	0.889700	0.937400	0.297500
C4381	C438	0.866300	0.980100	0.281600
H4381	H438	0.848300	0.984700	0.291800
C4391	C439	0.869500	0.018100	0.248900
C4401	C440	0.892900	0.901100	0.340600
C4411	C441	0.935000	0.881500	0.399400
H4391	H439	0.963500	0.890300	0.413000
C4421	C442	0.935300	0.848400	0.438900
H4401	H440	0.964000	0.835900	0.478500
C4431	C443	0.894660	0.834600	0.420500
C4441	C444	0.851300	0.851000	0.357600
H4411	H441	0.822900	0.838500	0.341300
C4451	C445	0.850200	0.885000	0.320000
H4421	H442	0.821300	0.897600	0.280700
C4461	C446	0.894470	0.800890	0.463500
C4471	C447	0.815300	0.067100	0.250200
H4431	H443	0.835500	0.062900	0.298700
H4441	H444	0.788800	0.044600	0.226200
C4481	C448	0.798200	0.117200	0.230200
H4451	H445	0.824000	0.138700	0.246700
H4461	H446	0.773500	0.119700	0.181000
C4491	C449	0.778100	0.132300	0.261100
H4471	H447	0.804200	0.135600	0.310000
H4481	H448	0.757300	0.106700	0.252400
C4501	C450	0.750500	0.180100	0.231700
H4491	H449	0.763800	0.199800	0.218800
H4501	H450	0.717900	0.172800	0.190500
C4511	C451	0.750000	0.211200	0.278700
H4511	H451	0.742100	0.190200	0.298100
H4521	H452	0.725100	0.235500	0.251200
C4521	C452	0.785000	0.230400	0.321800
H4531	H453	0.781900	0.248800	0.348400
H4541	H454	0.809700	0.206600	0.350100
H4551	H455	0.792800	0.252000	0.303100
C4531	C453	0.979900	0.880600	0.291100
H4561	H456	0.967800	0.891100	0.247600
H4571	H457	0.991500	0.847400	0.301100
C4541	C454	0.007900	0.908900	0.337100
H4581	H458	0.027000	0.923800	0.330700
H4591	H459	0.990800	0.934500	0.337100
C4551	C455	0.042400	0.879800	0.410000
H4601	H460	0.049800	0.849600	0.400500
H4611	H461	0.021000	0.870600	0.415000
C4561	C456	0.080700	0.890200	0.470000
H4621	H462	0.106500	0.869700	0.484100
H4631	H463	0.089200	0.924000	0.472900
C4571	C457	0.070000	0.880000	0.520000
H4641	H464	0.097600	0.870500	0.566400
H4651	H465	0.042700	0.859500	0.499700
C4581	C458	0.060600	0.930000	0.510000
H4661	H466	0.051900	0.940600	0.533500
H4671	H467	0.088500	0.947200	0.527300
H4681	H468	0.035000	0.936500	0.462300
C4591	C459	0.900940	0.302260	0.127800
C4601	C460	0.902070	0.334930	0.172100
C4611	C461	0.945360	0.344940	0.238000
H4691	H469	0.973000	0.329700	0.254800
C4621	C462	0.947200	0.377900	0.278900
H4701	H470	0.976300	0.384400	0.322600
C4631	C463	0.907600	0.400400	0.256100
C4641	C464	0.862500	0.387800	0.189600
H4711	H471	0.834500	0.400800	0.174200
C4651	C465	0.861400	0.355700	0.148200
H4721	H472	0.832700	0.348700	0.104300
C4661	C466	0.908100	0.436600	0.296400
C4671	C467	0.918200	0.427900	0.352700
H4731	H473	0.925900	0.396000	0.368600
C4681	C468	0.918400	0.462600	0.391500
C4691	C469	0.906300	0.507900	0.368100
C4701	C470	0.875400	0.519600	0.292000
H4741	H474	0.858400	0.548300	0.270700
C4711	C471	0.876600	0.479400	0.257900
C4721	C472	0.947100	0.603900	0.500600
H4751	H475	0.975400	0.614400	0.542700
C4731	C473	0.947100	0.563500	0.468900
H4761	H476	0.975500	0.547100	0.491400
C4741	C474	0.907900	0.547900	0.408100
C4751	C475	0.865200	0.572800	0.375800
H4771	H477	0.837200	0.562300	0.333400
C4761	C476	0.863900	0.612900	0.406000
H4781	H478	0.835500	0.629200	0.383900
C4771	C477	0.905840	0.627560	0.469600
C4781	C478	0.905640	0.671490	0.502200
C4791	C479	0.946900	0.398400	0.478800
H4791	H479	0.976600	0.394100	0.490900
H4801	H480	0.925600	0.372100	0.448700
C4801	C480	0.954000	0.398400	0.530800
H4811	H481	0.981600	0.378600	0.565900
H4821	H482	0.959800	0.431300	0.547900
C4811	C481	0.910900	0.377900	0.511800
H4831	H483	0.894600	0.401200	0.516400
H4841	H484	0.888800	0.363200	0.467000
C4821	C482	0.940100	0.340000	0.570000
H4851	H485	0.915100	0.316200	0.550400
H4861	H486	0.958200	0.326600	0.561100
C4831	C483	0.976800	0.322800	0.653100
H4871	H487	0.010200	0.321100	0.677700
H4881	H488	0.966500	0.294100	0.660600
C4841	C484	0.960600	0.373100	0.660500
H4891	H489	0.975900	0.377300	0.706800
H4901	H490	0.969400	0.399400	0.647900
H4911	H491	0.926800	0.373000	0.631300
C4851	C485	0.844600	0.553600	0.173000
H4921	H492	0.869200	0.575300	0.185300
H4931	H493	0.827300	0.567700	0.183000
C4861	C486	0.817000	0.532800	0.110500
H4941	H494	0.796400	0.556600	0.074700
H4951	H495	0.797700	0.506700	0.104700
C4871	C487	0.849400	0.515600	0.111100
H4961	H496	0.845000	0.480600	0.108100
H4971	H497	0.837200	0.525400	0.067300
C4881	C488	0.049450	0.266200	0.161400
H4981	H498	0.033300	0.283500	0.121300
C4891	C489	0.097850	0.266400	0.207800
H4991	H499	0.113800	0.283000	0.199000
C4901	C490	0.122430	0.241920	0.267500
C4911	C491	0.096550	0.217900	0.277000
H5001	H500	0.112200	0.200500	0.317000
C4921	C492	0.047800	0.219300	0.228100
H5011	H501	0.030900	0.203400	0.235800
C4931	C493	0.250900	0.257600	0.362600
H5021	H502	0.266900	0.270000	0.351600
C4941	C494	0.201200	0.254900	0.311400
H5031	H503	0.186200	0.262100	0.267000
C4951	C495	0.175770	0.243400	0.321800
C4961	C496	0.201100	0.223800	0.383100
H5041	H504	0.185500	0.209800	0.394000
C4971	C497	0.250100	0.223900	0.430800
N131	N13	0.023860	0.243270	0.168800
N141	N14	0.274890	0.244220	0.423000
O731	O73	0.857580	0.191830	0.048650
O741	O74	0.936310	0.184490	0.119700
O751	O75	0.855880	0.790680	0.444310
O761	O76	0.934200	0.787390	0.517870
O771	O77	0.843200	0.058400	0.231400
O781	O78	0.944800	0.889800	0.299200
O791	O79	0.939180	0.284360	0.150010
O801	O80	0.860580	0.293530	0.069390
O811	O81	0.944370	0.687870	0.554200
O821	O82	0.865210	0.689530	0.471350
O831	O83	0.922500	0.452200	0.440400
O841	O84	0.861900	0.494600	0.198300
Zn131	Zn13	0.951480	0.247700	0.098650
Zn141	Zn14	0.847240	0.252480	0.995510
C4981	C498	0.395800	0.670190	0.094400
C4991	C499	0.395070	0.626560	0.125300
C5001	C500	0.434650	0.602300	0.177200
H5051	H505	0.463200	0.611700	0.191200
C5011	C501	0.435400	0.563500	0.211500
H5061	H506	0.463700	0.547800	0.247300
C5021	C502	0.392400	0.549060	0.190200
C5031	C503	0.351600	0.572500	0.136400
H5071	H507	0.323100	0.562700	0.122100
C5041	C504	0.350820	0.610370	0.102100
H5081	H508	0.322300	0.625000	0.064800
C5051	C505	0.390700	0.509000	0.225400
C5061	C506	0.419600	0.469000	0.247500
H5091	H509	0.440200	0.466600	0.241500
C5071	C507	0.416300	0.432100	0.279500
C5081	C508	0.389700	0.437400	0.297500
C5091	C509	0.366300	0.480100	0.281600
H5101	H510	0.348300	0.484700	0.291800
C5101	C510	0.369500	0.518100	0.248900
C5111	C511	0.392900	0.401100	0.340600
C5121	C512	0.435000	0.381500	0.399400
H5111	H511	0.463500	0.390300	0.413000
C5131	C513	0.435300	0.348400	0.438900
H5121	H512	0.464000	0.335900	0.478500
C5141	C514	0.394660	0.334600	0.420500
C5151	C515	0.351300	0.351000	0.357600
H5131	H513	0.322900	0.338500	0.341300
C5161	C516	0.350200	0.385000	0.320000
H5141	H514	0.321300	0.397600	0.280700
C5171	C517	0.394470	0.300890	0.463500
C5181	C518	0.315300	0.567100	0.250200
H5151	H515	0.335500	0.562900	0.298700
H5161	H516	0.288800	0.544600	0.226200
C5191	C519	0.298200	0.617200	0.230200
H5171	H517	0.324000	0.638700	0.246700
H5181	H518	0.273500	0.619700	0.181000
C5201	C520	0.278100	0.632300	0.261100
H5191	H519	0.304200	0.635600	0.310000
H5201	H520	0.257300	0.606700	0.252400
C5211	C521	0.250500	0.680100	0.231700
H5211	H521	0.263800	0.699800	0.218800
H5221	H522	0.217900	0.672800	0.190500
C5221	C522	0.250000	0.711200	0.278700
H5231	H523	0.242100	0.690200	0.298100
H5241	H524	0.225100	0.735500	0.251200
C5231	C523	0.285000	0.730400	0.321800
H5251	H525	0.281900	0.748800	0.348400
H5261	H526	0.309700	0.706600	0.350100
H5271	H527	0.292800	0.752000	0.303100
C5241	C524	0.479900	0.380600	0.291100
H5281	H528	0.467800	0.391100	0.247600
H5291	H529	0.491500	0.347400	0.301100
C5251	C525	0.507900	0.408900	0.337100
H5301	H530	0.527000	0.423800	0.330700
H5311	H531	0.490800	0.434500	0.337100
C5261	C526	0.542400	0.379800	0.410000
H5321	H532	0.549800	0.349600	0.400500
H5331	H533	0.521000	0.370600	0.415000
C5271	C527	0.580700	0.390200	0.470000
H5341	H534	0.606500	0.369700	0.484100
H5351	H535	0.589200	0.424000	0.472900
C5281	C528	0.570000	0.380000	0.520000
H5361	H536	0.597600	0.370500	0.566400
H5371	H537	0.542700	0.359500	0.499700
C5291	C529	0.560600	0.430000	0.510000
H5381	H538	0.551900	0.440600	0.533500
H5391	H539	0.588500	0.447200	0.527300
H5401	H540	0.535000	0.436500	0.462300
C5301	C530	0.400940	0.802260	0.127800
C5311	C531	0.402070	0.834930	0.172100
C5321	C532	0.445360	0.844940	0.238000
H5411	H541	0.473000	0.829700	0.254800
C5331	C533	0.447200	0.877900	0.278900
H5421	H542	0.476300	0.884400	0.322600
C5341	C534	0.407600	0.900400	0.256100
C5351	C535	0.362500	0.887800	0.189600
H5431	H543	0.334500	0.900800	0.174200
C5361	C536	0.361400	0.855700	0.148200
H5441	H544	0.332700	0.848700	0.104300
C5371	C537	0.408100	0.936600	0.296400
C5381	C538	0.418200	0.927900	0.352700
H5451	H545	0.425900	0.896000	0.368600
C5391	C539	0.418400	0.962600	0.391500
C5401	C540	0.406300	0.007900	0.368100
C5411	C541	0.375400	0.019600	0.292000
H5461	H546	0.358400	0.048300	0.270700
C5421	C542	0.376600	0.979400	0.257900
C5431	C543	0.447100	0.103900	0.500600
H5471	H547	0.475400	0.114400	0.542700
C5441	C544	0.447100	0.063500	0.468900
H5481	H548	0.475500	0.047100	0.491400
C5451	C545	0.407900	0.047900	0.408100
C5461	C546	0.365200	0.072800	0.375800
H5491	H549	0.337200	0.062300	0.333400
C5471	C547	0.363900	0.112900	0.406000
H5501	H550	0.335500	0.129200	0.383900
C5481	C548	0.405840	0.127560	0.469600
C5491	C549	0.405640	0.171490	0.502200
C5501	C550	0.446900	0.898400	0.478800
H5511	H551	0.476600	0.894100	0.490900
H5521	H552	0.425600	0.872100	0.448700
C5511	C551	0.454000	0.898400	0.530800
H5531	H553	0.481600	0.878600	0.565900
H5541	H554	0.459800	0.931300	0.547900
C5521	C552	0.410900	0.877900	0.511800
H5551	H555	0.394600	0.901200	0.516400
H5561	H556	0.388800	0.863200	0.467000
C5531	C553	0.440100	0.840000	0.570000
H5571	H557	0.415100	0.816200	0.550400
H5581	H558	0.458200	0.826600	0.561100
C5541	C554	0.476800	0.822800	0.653100
H5591	H559	0.510200	0.821100	0.677700
H5601	H560	0.466500	0.794100	0.660600
C5551	C555	0.460600	0.873100	0.660500
H5611	H561	0.475900	0.877300	0.706800
H5621	H562	0.469400	0.899400	0.647900
H5631	H563	0.426800	0.873000	0.631300
C5561	C556	0.344600	0.053600	0.173000
H5641	H564	0.369200	0.075300	0.185300
H5651	H565	0.327300	0.067700	0.183000
C5571	C557	0.317000	0.032800	0.110500
H5661	H566	0.296400	0.056600	0.074700
H5671	H567	0.297700	0.006700	0.104700
C5581	C558	0.349400	0.015600	0.111100
H5681	H568	0.345000	0.980600	0.108100
H5691	H569	0.337200	0.025400	0.067300
C5591	C559	0.549450	0.766200	0.161400
H5701	H570	0.533300	0.783500	0.121300
C5601	C560	0.597850	0.766400	0.207800
H5711	H571	0.613800	0.783000	0.199000
C5611	C561	0.622430	0.741920	0.267500
C5621	C562	0.596550	0.717900	0.277000
H5721	H572	0.612200	0.700500	0.317000
C5631	C563	0.547800	0.719300	0.228100
H5731	H573	0.530900	0.703400	0.235800
C5641	C564	0.750900	0.757600	0.362600
H5741	H574	0.766900	0.770000	0.351600
C5651	C565	0.701200	0.754900	0.311400
H5751	H575	0.686200	0.762100	0.267000
C5661	C566	0.675770	0.743400	0.321800
C5671	C567	0.701100	0.723800	0.383100
H5761	H576	0.685500	0.709800	0.394000
C5681	C568	0.750100	0.723900	0.430800
N151	N15	0.523860	0.743270	0.168800
N161	N16	0.774890	0.744220	0.423000
O851	O85	0.357580	0.691830	0.048650
O861	O86	0.436310	0.684490	0.119700
O871	O87	0.355880	0.290680	0.444310
O881	O88	0.434200	0.287390	0.517870
O891	O89	0.343200	0.558400	0.231400
O901	O90	0.444800	0.389800	0.299200
O911	O91	0.439180	0.784360	0.150010
O921	O92	0.360580	0.793530	0.069390
O931	O93	0.444370	0.187870	0.554200
O941	O94	0.365210	0.189530	0.471350
O951	O95	0.422500	0.952200	0.440400
O961	O96	0.361900	0.994600	0.198300
Zn151	Zn15	0.451480	0.747700	0.098650
Zn161	Zn16	0.347240	0.752480	0.995510
