data_IBASOV_freeONLY_PM
_symmetry_space_group_name_H-M	'P1'
_cell_length_a	13.456700
_cell_length_b	13.456700
_cell_length_c	14.698200
_cell_angle_alpha	90.000000
_cell_angle_beta	90.000000
_cell_angle_gamma	120.000000
_symmetry_Int_Tables_number 1

loop_
_symmetry_equiv_pos_as_xyz
'x,y,z'

loop_
_atom_site_label
_atom_site_type_symbol
_atom_site_fract_x
_atom_site_fract_y
_atom_site_fract_z
Nd11	Nd1	0.333330	0.666660	0.668220
Nd21	Nd2	0.666670	0.333340	0.831780
Nd31	Nd3	0.666670	0.333340	0.331780
Nd41	Nd4	0.333330	0.666660	0.168220
Cu11	Cu1	0.500000	0.500000	0.500000
Cu21	Cu2	0.000000	0.500000	0.500000
Cu31	Cu3	0.500000	0.000000	0.500000
Cu41	Cu4	0.000000	0.500000	0.000000
Cu51	Cu5	0.500000	0.500000	0.000000
Cu61	Cu6	0.500000	0.000000	0.000000
H11	H1	0.672800	0.647900	0.422800
H21	H2	0.680300	0.817900	0.478200
H31	H3	0.706100	0.745800	0.548500
H41	H4	0.602500	0.683800	0.309100
H51	H5	0.541800	0.731400	0.372100
H61	H6	0.975100	0.327200	0.422800
H71	H7	0.137600	0.319700	0.478200
H81	H8	0.039700	0.293900	0.548500
H91	H9	0.081300	0.397500	0.309100
H101	H10	0.189600	0.458200	0.372100
H111	H11	0.352100	0.024900	0.422800
H121	H12	0.182100	0.862400	0.478200
H131	H13	0.254200	0.960300	0.548500
H141	H14	0.316200	0.918700	0.309100
H151	H15	0.268600	0.810400	0.372100
H161	H16	0.024900	0.352100	0.077200
H171	H17	0.862400	0.182100	0.021800
H181	H18	0.960300	0.254200	0.951500
H191	H19	0.918700	0.316200	0.190900
H201	H20	0.810400	0.268600	0.127900
H211	H21	0.647900	0.672800	0.077200
H221	H22	0.817900	0.680300	0.021800
H231	H23	0.745800	0.706100	0.951500
H241	H24	0.683800	0.602500	0.190900
H251	H25	0.731400	0.541800	0.127900
H261	H26	0.327200	0.975100	0.077200
H271	H27	0.319700	0.137600	0.021800
H281	H28	0.293900	0.039700	0.951500
H291	H29	0.397500	0.081300	0.190900
H301	H30	0.458200	0.189600	0.127900
H311	H31	0.327200	0.352100	0.577200
H321	H32	0.319700	0.182100	0.521800
H331	H33	0.293900	0.254200	0.451500
H341	H34	0.397500	0.316200	0.690900
H351	H35	0.458200	0.268600	0.627900
H361	H36	0.024900	0.672800	0.577200
H371	H37	0.862400	0.680300	0.521800
H381	H38	0.960300	0.706100	0.451500
H391	H39	0.918700	0.602500	0.690900
H401	H40	0.810400	0.541800	0.627900
H411	H41	0.647900	0.975100	0.577200
H421	H42	0.817900	0.137600	0.521800
H431	H43	0.745800	0.039700	0.451500
H441	H44	0.683800	0.081300	0.690900
H451	H45	0.731400	0.189600	0.627900
H461	H46	0.975100	0.647900	0.922800
H471	H47	0.137600	0.817900	0.978200
H481	H48	0.039700	0.745800	0.048500
H491	H49	0.081300	0.683800	0.809100
H501	H50	0.189600	0.731400	0.872100
H511	H51	0.352100	0.327200	0.922800
H521	H52	0.182100	0.319700	0.978200
H531	H53	0.254200	0.293900	0.048500
H541	H54	0.316200	0.397500	0.809100
H551	H55	0.268600	0.458200	0.872100
H561	H56	0.672800	0.024900	0.922800
H571	H57	0.680300	0.862400	0.978200
H581	H58	0.706100	0.960300	0.048500
H591	H59	0.602500	0.918700	0.809100
H601	H60	0.541800	0.810400	0.872100
C11	C1	0.546200	0.728300	0.567500
C21	C2	0.647400	0.744800	0.509600
C31	C3	0.552900	0.666400	0.361700
C41	C4	0.438300	0.561500	0.341500
C51	C5	0.182100	0.453800	0.567500
C61	C6	0.097400	0.352600	0.509600
C71	C7	0.113500	0.447100	0.361700
C81	C8	0.123200	0.561700	0.341500
C91	C9	0.271700	0.817900	0.567500
C101	C10	0.255200	0.902600	0.509600
C111	C11	0.333600	0.886500	0.361700
C121	C12	0.438500	0.876800	0.341500
C131	C13	0.817900	0.271700	0.932500
C141	C14	0.902600	0.255200	0.990400
C151	C15	0.886500	0.333600	0.138300
C161	C16	0.876800	0.438500	0.158500
C171	C17	0.728300	0.546200	0.932500
C181	C18	0.744800	0.647400	0.990400
C191	C19	0.666400	0.552900	0.138300
C201	C20	0.561500	0.438300	0.158500
C211	C21	0.453800	0.182100	0.932500
C221	C22	0.352600	0.097400	0.990400
C231	C23	0.447100	0.113500	0.138300
C241	C24	0.561700	0.123200	0.158500
C251	C25	0.453800	0.271700	0.432500
C261	C26	0.352600	0.255200	0.490400
C271	C27	0.447100	0.333600	0.638300
C281	C28	0.561700	0.438500	0.658500
C291	C29	0.817900	0.546200	0.432500
C301	C30	0.902600	0.647400	0.490400
C311	C31	0.886500	0.552900	0.638300
C321	C32	0.876800	0.438300	0.658500
C331	C33	0.728300	0.182100	0.432500
C341	C34	0.744800	0.097400	0.490400
C351	C35	0.666400	0.113500	0.638300
C361	C36	0.561500	0.123200	0.658500
C371	C37	0.182100	0.728300	0.067500
C381	C38	0.097400	0.744800	0.009600
C391	C39	0.113500	0.666400	0.861700
C401	C40	0.123200	0.561500	0.841500
C411	C41	0.271700	0.453800	0.067500
C421	C42	0.255200	0.352600	0.009600
C431	C43	0.333600	0.447100	0.861700
C441	C44	0.438500	0.561700	0.841500
C451	C45	0.546200	0.817900	0.067500
C461	C46	0.647400	0.902600	0.009600
C471	C47	0.552900	0.886500	0.861700
C481	C48	0.438300	0.876800	0.841500
N11	N1	0.610100	0.651000	0.441900
N21	N2	0.040900	0.389900	0.441900
N31	N3	0.349000	0.959100	0.441900
N41	N4	0.959100	0.349000	0.058100
N51	N5	0.651000	0.610100	0.058100
N61	N6	0.389900	0.040900	0.058100
N71	N7	0.389900	0.349000	0.558100
N81	N8	0.959100	0.610100	0.558100
N91	N9	0.651000	0.040900	0.558100
N101	N10	0.040900	0.651000	0.941900
N111	N11	0.349000	0.389900	0.941900
N121	N12	0.610100	0.959100	0.941900
O11	O1	0.451100	0.636600	0.556500
O21	O2	0.559100	0.801800	0.625000
O31	O3	0.402500	0.475600	0.393600
O41	O4	0.385300	0.564900	0.273800
O51	O5	0.185500	0.548900	0.556500
O61	O6	0.242700	0.440900	0.625000
O71	O7	0.073100	0.597500	0.393600
O81	O8	0.179600	0.614700	0.273800
O91	O9	0.363400	0.814500	0.556500
O101	O10	0.198200	0.757300	0.625000
O111	O11	0.524400	0.926900	0.393600
O121	O12	0.435100	0.820400	0.273800
O131	O13	0.814500	0.363400	0.943500
O141	O14	0.757300	0.198200	0.875000
O151	O15	0.926900	0.524400	0.106400
O161	O16	0.820400	0.435100	0.226200
O171	O17	0.636600	0.451100	0.943500
O181	O18	0.801800	0.559100	0.875000
O191	O19	0.475600	0.402500	0.106400
O201	O20	0.564900	0.385300	0.226200
O211	O21	0.548900	0.185500	0.943500
O221	O22	0.440900	0.242700	0.875000
O231	O23	0.597500	0.073100	0.106400
O241	O24	0.614700	0.179600	0.226200
O251	O25	0.548900	0.363400	0.443500
O261	O26	0.440900	0.198200	0.375000
O271	O27	0.597500	0.524400	0.606400
O281	O28	0.614700	0.435100	0.726200
O291	O29	0.814500	0.451100	0.443500
O301	O30	0.757300	0.559100	0.375000
O311	O31	0.926900	0.402500	0.606400
O321	O32	0.820400	0.385300	0.726200
O331	O33	0.636600	0.185500	0.443500
O341	O34	0.801800	0.242700	0.375000
O351	O35	0.475600	0.073100	0.606400
O361	O36	0.564900	0.179600	0.726200
O371	O37	0.185500	0.636600	0.056500
O381	O38	0.242700	0.801800	0.125000
O391	O39	0.073100	0.475600	0.893600
O401	O40	0.179600	0.564900	0.773800
O411	O41	0.363400	0.548900	0.056500
O421	O42	0.198200	0.440900	0.125000
O431	O43	0.524400	0.597500	0.893600
O441	O44	0.435100	0.614700	0.773800
O451	O45	0.451100	0.814500	0.056500
O461	O46	0.559100	0.757300	0.125000
O471	O47	0.402500	0.926900	0.893600
O481	O48	0.385300	0.820400	0.773800
