data_IBITUK_freeONLY_PM
_symmetry_space_group_name_H-M	'P1'
_cell_length_a	12.108000
_cell_length_b	13.115000
_cell_length_c	14.530000
_cell_angle_alpha	73.380000
_cell_angle_beta	68.480000
_cell_angle_gamma	79.950000
_symmetry_Int_Tables_number 1

loop_
_symmetry_equiv_pos_as_xyz
'x,y,z'

loop_
_atom_site_label
_atom_site_type_symbol
_atom_site_fract_x
_atom_site_fract_y
_atom_site_fract_z
Cu11	Cu1	0.211270	0.270210	0.289570
Cu21	Cu2	0.788730	0.729790	0.710430
Cu31	Cu3	0.500000	0.000000	0.000000
H11	H1	0.486600	0.073700	0.833800
H21	H2	0.666700	0.099900	0.069500
H31	H3	0.892800	0.393400	0.262400
H41	H4	0.392500	0.113700	0.602100
H51	H5	0.139000	0.378600	0.924600
H61	H6	0.950300	0.260700	0.297000
H71	H7	0.165400	0.021700	0.373500
H81	H8	0.251800	0.511800	0.246400
H91	H9	0.492800	0.274800	0.225500
H101	H10	0.808200	0.019900	0.339500
H111	H11	0.751900	0.106600	0.402700
H121	H12	0.955300	0.147800	0.961200
H131	H13	0.906800	0.261100	0.911800
H141	H14	0.661300	0.496200	0.114000
H151	H15	0.644200	0.470400	0.230600
H161	H16	0.689700	0.342900	0.958200
H171	H17	0.668500	0.441700	0.004800
H181	H18	0.795500	0.411900	0.932600
H191	H19	0.722200	0.077200	0.796100
H201	H20	0.653900	0.368900	0.351700
H211	H21	0.587000	0.264400	0.392000
H221	H22	0.711800	0.261600	0.402600
H231	H23	0.916400	0.998500	0.208400
H241	H24	0.900000	0.008500	0.103900
H251	H25	0.005700	0.060300	0.106700
H261	H26	0.513400	0.926300	0.166200
H271	H27	0.333300	0.900100	0.930500
H281	H28	0.107200	0.606600	0.737600
H291	H29	0.607500	0.886300	0.397900
H301	H30	0.861000	0.621400	0.075400
H311	H31	0.049700	0.739300	0.703000
H321	H32	0.834600	0.978300	0.626500
H331	H33	0.748200	0.488200	0.753600
H341	H34	0.507200	0.725200	0.774500
H351	H35	0.191800	0.980100	0.660500
H361	H36	0.248100	0.893400	0.597300
H371	H37	0.044700	0.852200	0.038800
H381	H38	0.093200	0.738900	0.088200
H391	H39	0.338700	0.503800	0.886000
H401	H40	0.355800	0.529600	0.769400
H411	H41	0.310300	0.657100	0.041800
H421	H42	0.331500	0.558300	0.995200
H431	H43	0.204500	0.588100	0.067400
H441	H44	0.277800	0.922800	0.203900
H451	H45	0.346100	0.631100	0.648300
H461	H46	0.413000	0.735600	0.608000
H471	H47	0.288200	0.738400	0.597400
H481	H48	0.083600	0.001500	0.791600
H491	H49	0.100000	0.991500	0.896100
H501	H50	0.994300	0.939700	0.893300
C11	C1	0.699840	0.104130	0.999860
C21	C2	0.484660	0.024360	0.298820
C31	C3	0.982100	0.501690	0.100790
C41	C4	0.421030	0.082270	0.467210
C51	C5	0.487680	0.013460	0.405080
C61	C6	0.435620	0.067580	0.560830
C71	C7	0.082730	0.427750	0.955070
C81	C8	0.066890	0.427440	0.055920
C91	C9	0.956820	0.511580	0.208810
C101	C10	0.983400	0.192310	0.317690
C111	C11	0.099050	0.060880	0.359610
C121	C12	0.325260	0.472610	0.235920
C131	C13	0.454680	0.342830	0.225030
C141	C14	0.142610	0.350200	0.111320
C151	C15	0.333150	0.168690	0.437020
C161	C16	0.813010	0.092290	0.341380
C171	C17	0.827980	0.218990	0.066700
C181	C18	0.706810	0.339040	0.171080
C191	C19	0.754790	0.312690	0.076070
C201	C20	0.792370	0.170520	0.247720
C211	C21	0.845970	0.146690	0.152560
C221	C22	0.883870	0.195330	0.963070
C231	C23	0.722960	0.267550	0.258520
C241	C24	0.633940	0.444060	0.178470
C251	C25	0.724330	0.383860	0.984490
C261	C26	0.732300	0.092830	0.850950
C271	C27	0.663610	0.292870	0.360280
C281	C28	0.924180	0.044070	0.141920
C291	C29	0.300160	0.895870	0.000140
C301	C30	0.515340	0.975640	0.701180
C311	C31	0.017900	0.498310	0.899210
C321	C32	0.578970	0.917730	0.532790
C331	C33	0.512320	0.986540	0.594920
C341	C34	0.564380	0.932420	0.439170
C351	C35	0.917270	0.572250	0.044930
C361	C36	0.933110	0.572560	0.944080
C371	C37	0.043180	0.488420	0.791190
C381	C38	0.016600	0.807690	0.682310
C391	C39	0.900950	0.939120	0.640390
C401	C40	0.674740	0.527390	0.764080
C411	C41	0.545320	0.657170	0.774970
C421	C42	0.857390	0.649800	0.888680
C431	C43	0.666850	0.831310	0.562980
C441	C44	0.186990	0.907710	0.658620
C451	C45	0.172020	0.781010	0.933300
C461	C46	0.293190	0.660960	0.828920
C471	C47	0.245210	0.687310	0.923930
C481	C48	0.207630	0.829480	0.752280
C491	C49	0.154030	0.853310	0.847440
C501	C50	0.116130	0.804670	0.036930
C511	C51	0.277040	0.732450	0.741480
C521	C52	0.366060	0.555940	0.821530
C531	C53	0.275670	0.616140	0.015510
C541	C54	0.267700	0.907170	0.149050
C551	C55	0.336390	0.707130	0.639720
C561	C56	0.075820	0.955930	0.858080
N11	N1	0.338650	0.366420	0.245470
N21	N2	0.090750	0.168880	0.326400
N31	N3	0.652770	0.069650	0.947060
N41	N4	0.930980	0.103380	0.343030
N51	N5	0.801330	0.145760	0.939290
N61	N6	0.508060	0.430330	0.203880
N71	N7	0.425560	0.515450	0.210430
N81	N8	0.005090	0.017790	0.370040
N91	N9	0.824160	0.138950	0.842080
N101	N10	0.661350	0.633580	0.754530
N111	N11	0.909250	0.831120	0.673600
N121	N12	0.347230	0.930350	0.052940
N131	N13	0.069020	0.896620	0.656970
N141	N14	0.198670	0.854240	0.060710
N151	N15	0.491940	0.569670	0.796120
N161	N16	0.574440	0.484550	0.789570
N171	N17	0.994910	0.982210	0.629960
N181	N18	0.175840	0.861050	0.157920
O11	O1	0.141700	0.368060	0.192150
O21	O2	0.452060	0.095490	0.885580
O31	O3	0.296600	0.158650	0.368300
O41	O4	0.529980	0.100490	0.229510
O51	O5	0.894780	0.446000	0.281460
O61	O6	0.299860	0.242420	0.480620
O71	O7	0.439680	0.950420	0.289360
O81	O8	0.994670	0.590890	0.216340
O91	O9	0.200290	0.273100	0.076360
O101	O10	0.858300	0.631940	0.807850
O111	O11	0.547940	0.904510	0.114420
O121	O12	0.703400	0.841350	0.631700
O131	O13	0.470020	0.899510	0.770490
O141	O14	0.105220	0.554000	0.718540
O151	O15	0.700140	0.757580	0.519380
O161	O16	0.560320	0.049580	0.710640
O171	O17	0.005330	0.409110	0.783660
O181	O18	0.799710	0.726900	0.923640
