data_IBIYOI_ion_b_PM
_symmetry_space_group_name_H-M	'P1'
_cell_length_a	22.494000
_cell_length_b	22.494000
_cell_length_c	22.494000
_cell_angle_alpha	113.084200
_cell_angle_beta	113.084200
_cell_angle_gamma	102.464400
_symmetry_Int_Tables_number 1

loop_
_symmetry_equiv_pos_as_xyz
'x,y,z'

loop_
_atom_site_label
_atom_site_type_symbol
_atom_site_fract_x
_atom_site_fract_y
_atom_site_fract_z
I11	I1	0.187700	0.471880	0.495830
Cu21	Cu2	0.324170	0.544750	0.606570
S31	S3	0.911020	0.729570	0.313470
S41	S4	0.355540	0.489160	0.668100
N51	N5	0.055180	0.748760	0.459370
N61	N6	0.779320	0.741490	0.183890
N71	N7	0.386380	0.540790	0.565100
C81	C8	0.090570	0.757490	0.529300
C91	C9	0.165950	0.788920	0.573280
C101	C10	0.206600	0.810830	0.545400
C111	C11	0.169000	0.802540	0.473690
C121	C12	0.093180	0.771520	0.431550
C131	C13	0.835440	0.794910	0.198550
C141	C14	0.824300	0.829030	0.157170
C151	C15	0.754550	0.807420	0.098310
C161	C16	0.697750	0.751390	0.083980
C171	C17	0.711180	0.720280	0.128210
C181	C18	0.458750	0.576420	0.612540
C191	C19	0.502980	0.561770	0.584880
C201	C20	0.472500	0.512750	0.507040
C211	C21	0.397800	0.481650	0.458260
C221	C22	0.355470	0.496010	0.488700
H231	H23	0.060080	0.739800	0.551160
H241	H24	0.192270	0.796640	0.629140
H251	H25	0.198040	0.818660	0.449850
H261	H26	0.065000	0.764310	0.375920
H271	H27	0.889020	0.811440	0.242510
H281	H28	0.870200	0.872290	0.171860
H291	H29	0.643120	0.730960	0.038530
H301	H30	0.666800	0.678620	0.117740
I311	I31	0.476450	0.692010	0.003900
Cu321	Cu32	0.438010	0.717490	0.892980
S331	S33	0.916220	0.597500	0.186630
S341	S34	0.320790	0.686880	0.831570
N351	N35	0.789330	0.595530	0.040590
N361	N36	0.057780	0.595460	0.316290
N371	N37	0.475220	0.821160	0.934260
C381	C38	0.728150	0.560810	0.970600
C391	C39	0.715520	0.592090	0.926490
C401	C40	0.765190	0.660640	0.954300
C411	C41	0.828560	0.694940	0.026090
C421	C42	0.839770	0.661390	0.068350
C431	C43	0.096550	0.636930	0.301650
C441	C44	0.172050	0.667220	0.343090
C451	C45	0.209300	0.656390	0.402010
C461	C46	0.167580	0.613900	0.416310
C471	C47	0.092240	0.583040	0.372020
C481	C48	0.463430	0.846030	0.886760
C491	C49	0.476330	0.917890	0.914330
C501	C50	0.505040	0.965290	0.992140
C511	C51	0.522660	0.939410	0.040970
C521	C52	0.506690	0.866670	0.010620
H531	H53	0.688700	0.508430	0.948790
H541	H54	0.667400	0.562440	0.870600
H551	H55	0.868420	0.747870	0.049860
H561	H56	0.888160	0.688970	0.124030
H571	H57	0.069120	0.646530	0.257680
H581	H58	0.200630	0.698430	0.328410
H591	H59	0.192580	0.604750	0.461780
H601	H60	0.061050	0.549130	0.382480
I611	I61	0.466890	0.470300	0.279390
Cu621	Cu62	0.551500	0.447590	0.227670
S631	S63	0.728950	0.915990	0.818710
S641	S64	0.523600	0.330400	0.180770
N651	N65	0.748690	0.788870	0.694090
N661	N66	0.740560	0.057600	0.962000
N671	N67	0.538410	0.475970	0.153580
C681	C68	0.756380	0.727140	0.666430
C691	C69	0.788310	0.714680	0.622950
C701	C70	0.811510	0.765050	0.605130
C711	C71	0.803210	0.828560	0.634730
C721	C72	0.772180	0.839700	0.679500
C731	C73	0.794180	0.096230	0.959450
C741	C74	0.828380	0.171730	0.004640
C751	C75	0.806740	0.209100	0.052670
C761	C76	0.750620	0.167570	0.053450
C771	C77	0.719240	0.092200	0.008770
C781	C78	0.574700	0.462850	0.117730
C791	C79	0.561660	0.475080	0.058640
C801	C80	0.513680	0.504590	0.039140
C811	C81	0.480670	0.522260	0.080770
C821	C82	0.493300	0.506740	0.137670
H831	H83	0.737630	0.687080	0.678200
H841	H84	0.795230	0.665940	0.603960
H851	H85	0.819210	0.868820	0.622140
H861	H86	0.765400	0.888350	0.700840
H871	H87	0.810800	0.068680	0.922560
H881	H88	0.871760	0.200220	0.002090
H891	H89	0.730380	0.192780	0.087800
H901	H90	0.677320	0.061120	0.011270
I911	I91	0.690330	0.187290	0.219770
Cu921	Cu92	0.719380	0.323650	0.271690
S931	S93	0.597630	0.910250	0.681530
S941	S94	0.649040	0.342610	0.318510
N951	N95	0.594940	0.054490	0.805910
N961	N96	0.595760	0.778580	0.538150
N971	N97	0.821840	0.384600	0.345900
C981	C98	0.560470	0.089840	0.832780
C991	C99	0.591540	0.165250	0.876340
C1001	C100	0.660130	0.206260	0.895000
C1011	C101	0.694410	0.168340	0.866120
C1021	C102	0.660760	0.092560	0.821290
C1031	C103	0.637560	0.834810	0.541260
C1041	C104	0.667880	0.823780	0.496100
C1051	C105	0.656640	0.754030	0.447530
C1061	C106	0.613740	0.697060	0.446210
C1071	C107	0.583040	0.710410	0.490880
C1081	C108	0.844640	0.456760	0.381860
C1091	C109	0.915950	0.502730	0.441030
C1101	C110	0.964900	0.474180	0.460520
C1111	C111	0.940880	0.399530	0.418810
C1121	C112	0.868460	0.355340	0.361820
H1131	H113	0.508320	0.059320	0.820350
H1141	H114	0.561520	0.191170	0.894770
H1151	H115	0.747540	0.196920	0.879330
H1161	H116	0.688360	0.064420	0.800550
H1171	H117	0.647410	0.888410	0.578600
H1181	H118	0.699410	0.869780	0.499090
H1191	H119	0.604140	0.642380	0.411440
H1201	H120	0.549000	0.665960	0.487970
I1211	I121	0.000380	0.015450	0.211860
Cu1221	Cu122	0.064570	0.955380	0.279670
S1231	S123	0.586580	0.732220	0.653720
S1241	S124	0.181720	0.020130	0.360450
N1251	N125	0.721410	0.757060	0.818860
N1261	N126	0.441650	0.748700	0.534970
N1271	N127	0.040170	0.962890	0.356040
C1281	C128	0.784570	0.751670	0.846100
C1291	C129	0.800340	0.721570	0.891410
C1301	C130	0.750590	0.695520	0.908480
C1311	C131	0.685910	0.701870	0.879780
C1321	C132	0.672450	0.733000	0.835310
C1331	C133	0.401700	0.686060	0.523700
C1341	C134	0.326360	0.654900	0.480100
C1351	C135	0.290420	0.688480	0.447720
C1361	C136	0.333380	0.753320	0.460350
C1371	C137	0.408810	0.782230	0.503720
C1381	C138	0.017050	0.908900	0.366480
C1391	C139	0.003640	0.922590	0.425320
C1401	C140	0.014410	0.992240	0.473290
C1411	C141	0.037250	0.046090	0.459910
C1421	C142	0.050040	0.030220	0.401170
H1431	H143	0.822660	0.770120	0.832090
H1441	H144	0.850140	0.716830	0.911260
H1451	H145	0.646300	0.683450	0.892240
H1461	H146	0.622540	0.737600	0.813590
H1471	H147	0.428350	0.659820	0.548330
H1481	H148	0.296820	0.604370	0.471420
H1491	H149	0.309270	0.782760	0.438720
H1501	H150	0.441140	0.832370	0.513680
I1511	I151	0.303760	0.788630	0.288070
Cu1521	Cu152	0.175930	0.785240	0.220560
S1531	S153	0.578630	0.932790	0.846340
S1541	S154	0.159620	0.821530	0.139690
N1551	N155	0.438470	0.902380	0.680970
N1561	N156	0.713840	0.906770	0.965320
N1571	N157	0.107090	0.684510	0.144280
C1581	C158	0.405940	0.937480	0.652110
C1591	C159	0.330550	0.907900	0.606640
C1601	C160	0.287320	0.841930	0.591100
C1611	C161	0.322290	0.806680	0.621230
C1621	C162	0.397870	0.837700	0.665840
C1631	C163	0.662530	0.878250	0.976740
C1641	C164	0.675000	0.846550	0.020390
C1651	C165	0.740930	0.842890	0.052660
C1661	C166	0.793080	0.873100	0.039910
C1671	C167	0.778600	0.905120	0.996500
C1681	C168	0.042760	0.650930	0.133990
C1691	C169	0.997560	0.578700	0.075100
C1701	C170	0.019090	0.541580	0.026920
C1711	C171	0.086260	0.577820	0.040180
C1721	C172	0.129190	0.649310	0.099000
H1731	H173	0.438510	0.988990	0.665020
H1741	H174	0.306050	0.937210	0.585440
H1751	H175	0.291360	0.755150	0.609800
H1761	H176	0.424120	0.810080	0.688710
H1771	H177	0.611680	0.880330	0.952180
H1781	H178	0.633210	0.825790	0.029190
H1791	H179	0.844110	0.870530	0.061440
H1801	H180	0.818720	0.927380	0.986430
I1811	I181	0.787900	0.000020	0.484560
Cu1821	Cu182	0.785380	0.064700	0.609510
S1831	S183	0.933380	0.586440	0.353780
S1841	S184	0.821510	0.181600	0.661020
N1851	N185	0.903520	0.721240	0.464510
N1861	N186	0.906590	0.441430	0.192490
N1871	N187	0.684740	0.040270	0.578240
C1881	C188	0.928460	0.789880	0.521740
C1891	C189	0.898920	0.805740	0.567720
C1901	C190	0.843160	0.750560	0.555630
C1911	C191	0.818120	0.680510	0.495440
C1921	C192	0.848900	0.666900	0.450770
C1931	C193	0.879030	0.401640	0.215980
C1941	C194	0.847220	0.326260	0.171880
C1951	C195	0.842320	0.290200	0.101630
C1961	C196	0.871860	0.332970	0.079180
C1971	C197	0.904060	0.408400	0.125600
C1981	C198	0.651480	0.016710	0.609090
C1991	C199	0.579050	0.002520	0.581890
C2001	C200	0.541340	0.013160	0.523050
C2011	C201	0.577490	0.037000	0.492450
C2021	C202	0.649120	0.050230	0.520970
H2031	H203	0.971880	0.832310	0.532190
H2041	H204	0.920320	0.860530	0.613060
H2051	H205	0.774360	0.636500	0.482510
H2061	H206	0.828790	0.612630	0.404790
H2071	H207	0.882040	0.428400	0.269450
H2081	H208	0.827310	0.296730	0.193400
H2091	H209	0.868750	0.308670	0.025290
H2101	H210	0.925840	0.440590	0.107330
I2111	I211	0.015720	0.304570	0.015990
Cu2121	Cu212	0.955570	0.176900	0.891220
S2131	S213	0.732800	0.579540	0.146380
S2141	S214	0.020740	0.161430	0.839440
N2151	N215	0.756890	0.438880	0.035730
N2161	N216	0.749120	0.714050	0.307670
N2171	N217	0.962860	0.107860	0.922930
C2181	C218	0.769220	0.406630	0.979260
C2191	C219	0.739140	0.331120	0.933280
C2201	C220	0.695170	0.287400	0.944590
C2211	C221	0.684460	0.322510	0.004090
C2221	C222	0.715480	0.397960	0.048760
C2231	C223	0.685570	0.663200	0.283910
C2241	C224	0.654310	0.675500	0.328030
C2251	C225	0.688780	0.740620	0.398560
C2261	C226	0.754290	0.792410	0.421290
C2271	C227	0.783270	0.778190	0.374850
C2281	C228	0.908450	0.043530	0.891690
C2291	C229	0.920620	0.997640	0.918180
C2301	C230	0.989340	0.018010	0.977310
C2311	C231	0.046490	0.088580	0.010140
C2321	C232	0.030260	0.130560	0.980600
H2331	H233	0.801930	0.439640	0.969440
H2341	H234	0.749360	0.307210	0.888560
H2351	H235	0.652760	0.291660	0.016500
H2361	H236	0.706520	0.423800	0.094200
H2371	H237	0.658630	0.612920	0.230210
H2381	H238	0.603040	0.634240	0.306290
H2391	H239	0.784100	0.842990	0.475390
H2401	H240	0.833930	0.818070	0.393320
I2411	I241	0.803370	0.519880	0.514810
Cu2421	Cu242	0.675060	0.456700	0.390350
S2431	S243	0.077440	0.230620	0.646240
S2441	S244	0.657850	0.519770	0.336410
N2451	N245	0.936390	0.255120	0.536110
N2461	N246	0.212510	0.246960	0.807580
N2471	N247	0.605980	0.464690	0.421740
C2481	C248	0.904250	0.272420	0.484120
C2491	C249	0.828770	0.242490	0.438250
C2501	C250	0.785070	0.193800	0.445290
C2511	C251	0.820110	0.178490	0.500710
C2521	C252	0.895480	0.209250	0.545150
C2531	C253	0.159930	0.186040	0.786460
C2541	C254	0.172360	0.154430	0.830190
C2551	C255	0.239450	0.185920	0.897710
C2561	C256	0.293060	0.248690	0.917790
C2571	C257	0.278570	0.278100	0.871740
C2581	C258	0.542710	0.410420	0.393160
C2591	C259	0.497850	0.424600	0.420550
C2601	C260	0.518680	0.495090	0.477270
C2611	C261	0.584490	0.549320	0.505510
C2621	C262	0.627080	0.532880	0.476710
H2631	H263	0.937310	0.309150	0.477870
H2641	H264	0.804930	0.256710	0.397040
H2651	H265	0.789280	0.143400	0.510240
H2661	H266	0.921260	0.196590	0.587290
H2671	H267	0.108090	0.161560	0.735210
H2681	H268	0.129610	0.105200	0.810570
H2691	H269	0.345350	0.276060	0.969620
H2701	H270	0.319870	0.326700	0.888120
I2711	I271	0.504560	0.288600	0.984560
Cu2721	Cu272	0.565870	0.284630	0.108950
S2731	S273	0.084440	0.431000	0.853620
S2741	S274	0.682890	0.321330	0.162960
N2751	N275	0.219210	0.400170	0.963770
N2761	N276	0.939410	0.404850	0.692300
N2771	N277	0.542390	0.184130	0.077460
C2781	C278	0.288540	0.419430	0.015110
C2791	C279	0.304550	0.389890	0.061040
C2801	C280	0.248850	0.339850	0.054760
C2811	C281	0.178050	0.320020	0.999950
C2821	C282	0.164310	0.350850	0.955420
C2831	C283	0.899570	0.373980	0.713760
C2841	C284	0.824230	0.342730	0.670010
C2851	C285	0.788220	0.341720	0.602110
C2861	C286	0.830970	0.374700	0.581710
C2871	C287	0.906430	0.406230	0.627800
C2881	C288	0.516770	0.149460	0.106110
C2891	C289	0.503480	0.077190	0.078670
C2901	C290	0.517130	0.041250	0.021870
C2911	C291	0.543040	0.078770	0.993550
C2921	C292	0.555460	0.150190	0.022370
H2931	H293	0.331490	0.458190	0.020750
H2941	H294	0.360010	0.406750	0.101710
H2951	H295	0.133430	0.280150	0.990950
H2961	H296	0.109460	0.334920	0.913770
H2971	H297	0.926310	0.373840	0.765300
H2981	H298	0.794620	0.320110	0.689930
H2991	H299	0.806590	0.374740	0.529640
H3001	H300	0.938680	0.430730	0.611180
I3011	I301	0.540420	0.526950	0.730540
Cu3021	Cu302	0.458110	0.563980	0.780310
S3031	S303	0.230480	0.083990	0.152940
S3041	S304	0.482880	0.678450	0.821710
N3051	N305	0.253890	0.218190	0.317210
N3061	N306	0.246870	0.939100	0.034750
N3071	N307	0.472110	0.542760	0.859400
C3081	C308	0.268970	0.287230	0.364790
C3091	C309	0.238040	0.302630	0.409380
C3101	C310	0.190600	0.246630	0.405290
C3111	C311	0.177440	0.176270	0.356800
C3121	C312	0.209230	0.163080	0.313160
C3131	C313	0.185090	0.899370	0.025110
C3141	C314	0.153630	0.824030	0.981380
C3151	C315	0.186100	0.788020	0.947340
C3161	C316	0.249780	0.830610	0.957860
C3171	C317	0.279090	0.906050	0.001540
C3181	C318	0.416600	0.516210	0.866330
C3191	C319	0.428760	0.502640	0.924630
C3201	C320	0.498730	0.517240	0.976090
C3211	C321	0.554740	0.544860	0.967310
C3221	C322	0.540210	0.558040	0.908860
H3231	H323	0.304600	0.330400	0.367660
H3241	H324	0.250520	0.357870	0.446000
H3251	H325	0.143420	0.131700	0.353520
H3261	H326	0.198380	0.108510	0.276250
H3271	H327	0.159760	0.926150	0.051130
H3281	H328	0.103750	0.794390	0.973810
H3291	H329	0.277760	0.806090	0.933990
H3301	H330	0.328390	0.938240	0.009950
I3311	I331	0.295600	0.809330	0.769660
Cu3321	Cu332	0.283180	0.677320	0.719380
S3331	S333	0.431050	0.077510	0.346960
S3341	S334	0.356150	0.660870	0.677770
N3351	N335	0.400990	0.936570	0.182760
N3361	N336	0.404410	0.212110	0.465110
N3371	N337	0.182860	0.612180	0.640320
C3381	C338	0.422770	0.904060	0.135530
C3391	C339	0.393640	0.828560	0.091000
C3401	C340	0.341450	0.785180	0.094770
C3411	C341	0.319280	0.820500	0.142940
C3421	C342	0.349700	0.895940	0.186540
C3431	C343	0.374090	0.159860	0.474490
C3441	C344	0.342560	0.172110	0.518290
C3451	C345	0.340860	0.238710	0.552640
C3461	C346	0.373150	0.291990	0.542380
C3471	C347	0.404840	0.277640	0.498620
C3481	C348	0.149370	0.549640	0.633200
C3491	C349	0.077500	0.503560	0.574900
C3501	C350	0.040620	0.522220	0.523610
C3511	C351	0.077030	0.587100	0.532560
C3521	C352	0.148660	0.630970	0.591020
H3531	H353	0.463320	0.936830	0.132920
H3541	H354	0.412520	0.804430	0.054660
H3551	H355	0.277810	0.789760	0.146000
H3561	H356	0.331830	0.922000	0.223220
H3571	H357	0.374620	0.108430	0.448200
H3581	H358	0.320310	0.129710	0.525650
H3591	H359	0.372700	0.343920	0.566500
H3601	H360	0.428780	0.318620	0.490400
I3611	I361	0.977020	0.972880	0.786100
Cu3621	Cu362	0.950450	0.054170	0.730660
S3631	S363	0.413910	0.227670	0.318740
S3641	S364	0.832860	0.024560	0.683140
N3651	N365	0.287060	0.246420	0.193930
N3661	N366	0.555670	0.239740	0.462600
N3671	N367	0.978240	0.039450	0.655560
C3681	C368	0.228910	0.260700	0.172600
C3691	C369	0.216480	0.292160	0.128680
C3701	C370	0.263500	0.308720	0.104680
C3711	C371	0.323740	0.294300	0.128500
C3721	C372	0.334660	0.263330	0.173240
C3731	C373	0.593990	0.297050	0.464490
C3741	C374	0.669520	0.331320	0.509600
C3751	C375	0.707170	0.306280	0.553290
C3761	C376	0.665960	0.246780	0.549950
C3771	C377	0.590600	0.215230	0.505380
C3781	C378	0.962590	0.072840	0.616770
C3791	C379	0.973130	0.057360	0.556250
C3801	C380	0.003250	0.009580	0.537790
C3811	C381	0.023880	0.980030	0.582650
C3821	C382	0.010100	0.995110	0.641080
H3831	H383	0.191520	0.247160	0.189380
H3841	H384	0.170340	0.303760	0.114060
H3851	H385	0.361440	0.305340	0.111350
H3861	H386	0.380490	0.251430	0.189890
H3871	H387	0.566060	0.316700	0.431530
H3881	H388	0.697870	0.377460	0.510560
H3891	H389	0.691470	0.224010	0.580910
H3901	H390	0.559870	0.170610	0.504800
I3911	I391	0.686670	0.191210	0.714940
Cu3921	Cu392	0.823400	0.220310	0.769970
S3931	S393	0.408820	0.095010	0.181040
S3941	S394	0.841690	0.150460	0.817720
N3951	N395	0.552450	0.092990	0.306140
N3961	N396	0.276850	0.092800	0.037100
N3971	N397	0.883780	0.323210	0.844760
C3981	C398	0.587960	0.056550	0.328540
C3991	C399	0.663340	0.087990	0.372490
C4001	C400	0.703990	0.158590	0.395490
C4011	C401	0.665840	0.194670	0.370730
C4021	C402	0.590130	0.160880	0.325920
C4031	C403	0.332000	0.128080	0.034140
C4041	C404	0.321210	0.158570	0.989100
C4051	C405	0.252780	0.153640	0.946470
C4061	C406	0.196850	0.116840	0.950770
C4071	C407	0.209790	0.086000	0.995290
C4081	C408	0.955970	0.346310	0.883300
C4091	C409	0.001100	0.417390	0.943740
C4101	C410	0.971860	0.465980	0.962350
C4111	C411	0.897450	0.441840	0.917640
C4121	C412	0.854000	0.369610	0.859300
H4131	H413	0.557560	0.002720	0.312510
H4141	H414	0.689460	0.056720	0.387870
H4151	H415	0.694100	0.249240	0.387170
H4161	H416	0.561670	0.189790	0.308500
H4171	H417	0.384330	0.132080	0.066150
H4181	H418	0.366160	0.185100	0.987290
H4191	H419	0.143370	0.112260	0.920600
H4201	H420	0.165900	0.056650	0.996600
I4211	I421	0.190400	0.976310	0.504100
Cu4221	Cu422	0.219620	0.949130	0.396510
S4231	S423	0.095460	0.414190	0.686110
S4241	S424	0.149230	0.831790	0.307880
N4251	N425	0.091260	0.285480	0.538610
N4261	N426	0.093180	0.555720	0.816480
N4271	N427	0.322450	0.976220	0.439140
C4281	C428	0.054140	0.226530	0.466530
C4291	C429	0.084890	0.213520	0.421800
C4301	C430	0.155350	0.260860	0.451120
C4311	C431	0.191980	0.321370	0.525330
C4321	C432	0.159150	0.333010	0.568140
C4331	C433	0.128920	0.594180	0.797140
C4341	C434	0.159070	0.669670	0.838440
C4351	C435	0.153780	0.707080	0.901690
C4361	C436	0.116430	0.665800	0.920260
C4371	C437	0.085660	0.590440	0.876260
C4381	C438	0.346360	0.963020	0.390750
C4391	C439	0.417430	0.973520	0.416860
C4401	C440	0.465300	0.000980	0.494280
C4411	C441	0.440010	0.018160	0.543840
C4421	C442	0.367920	0.004880	0.514850
H4431	H443	0.000350	0.189010	0.443620
H4441	H444	0.053400	0.166780	0.364460
H4451	H445	0.246450	0.358260	0.550620
H4461	H446	0.188790	0.379290	0.625650
H4471	H447	0.133320	0.566330	0.749050
H4481	H448	0.185430	0.698300	0.820140
H4491	H449	0.111270	0.691290	0.968770
H4501	H450	0.055700	0.559560	0.890150
I4511	I451	0.972180	0.686270	0.996240
Cu4521	Cu452	0.052450	0.823100	0.103760
S4531	S453	0.228110	0.409180	0.813680
S4541	S454	0.023960	0.841340	0.192530
N4551	N455	0.246940	0.552510	0.961270
N4561	N456	0.239370	0.276530	0.683460
N4571	N457	0.036530	0.883100	0.060960
C4581	C458	0.259600	0.587400	0.033150
C4591	C459	0.291330	0.662880	0.077950
C4601	C460	0.309840	0.704100	0.048890
C4611	C461	0.296650	0.666580	0.974900
C4621	C462	0.265460	0.590930	0.932020
C4631	C463	0.297450	0.331530	0.703140
C4641	C464	0.331670	0.320450	0.661850
C4651	C465	0.305600	0.252010	0.598320
C4661	C466	0.245510	0.196140	0.579470
C4671	C467	0.214120	0.209320	0.623430
C4681	C468	0.072190	0.955430	0.109120
C4691	C469	0.056490	0.000340	0.082950
C4701	C470	0.005760	0.970620	0.005770
C4711	C471	0.972790	0.895760	0.956380
C4721	C472	0.988770	0.852730	0.985390
H4731	H473	0.244630	0.556470	0.055870
H4741	H474	0.301590	0.688670	0.135150
H4751	H475	0.308690	0.695810	0.949820
H4761	H476	0.254640	0.563120	0.874670
H4771	H477	0.317900	0.383920	0.751480
H4781	H478	0.378750	0.365050	0.680350
H4791	H479	0.222320	0.142570	0.530740
H4801	H480	0.169130	0.165500	0.609280
W4811	W481	0.844810	0.594720	0.250080
W4821	W482	0.594250	0.844110	0.750080
W4831	W483	0.093050	0.342950	0.749930
W4841	W484	0.342690	0.092670	0.249920
W4851	W485	0.348540	0.598460	0.749800
W4861	W486	0.657860	0.408030	0.249680
W4871	W487	0.158220	0.908340	0.250100
W4881	W488	0.908630	0.158970	0.750240
Cu4891	Cu489	0.946990	0.698910	0.400030
Cu4901	Cu490	0.798960	0.546820	0.100090
Cu4911	Cu491	0.698900	0.798780	0.752630
Cu4921	Cu492	0.546370	0.946170	0.747410
Cu4931	Cu493	0.044130	0.296480	0.599630
Cu4941	Cu494	0.196940	0.444350	0.900220
Cu4951	Cu495	0.296420	0.196370	0.251880
Cu4961	Cu496	0.444450	0.044430	0.248000
Cu4971	Cu497	0.792610	0.693200	0.243800
Cu4981	Cu498	0.949580	0.548810	0.256340
Cu4991	Cu499	0.692500	0.949400	0.900630
Cu5001	Cu500	0.548960	0.791910	0.599550
Cu5011	Cu501	0.191410	0.290410	0.743650
Cu5021	Cu502	0.046810	0.447580	0.756220
Cu5031	Cu503	0.290300	0.046430	0.098990
Cu5041	Cu504	0.447430	0.191270	0.400800
H5051	H505	0.482010	0.613600	0.672550
H5061	H506	0.560460	0.586980	0.624590
H5071	H507	0.372420	0.446090	0.397390
H5081	H508	0.297770	0.469700	0.451360
H5091	H509	0.440690	0.809260	0.826780
H5101	H510	0.461860	0.935600	0.874570
H5111	H511	0.547870	0.974920	0.101820
H5121	H512	0.517730	0.846370	0.048010
H5131	H513	0.611630	0.440040	0.133060
H5141	H514	0.587710	0.460110	0.027430
H5151	H515	0.445550	0.547800	0.069380
H5161	H516	0.467040	0.519210	0.168980
H5171	H517	0.806580	0.478430	0.366530
H5181	H518	0.932240	0.560000	0.472300
H5191	H519	0.977740	0.375740	0.430150
H5201	H520	0.849590	0.297770	0.330430
H5211	H521	0.011560	0.856320	0.331190
H5221	H522	0.986180	0.879750	0.434120
H5231	H523	0.046930	0.100580	0.495620
H5241	H524	0.069270	0.072200	0.392080
H5251	H525	0.025550	0.680710	0.169390
H5261	H526	0.945980	0.552400	0.066390
H5271	H527	0.104930	0.551840	0.004320
H5281	H528	0.180200	0.677650	0.107990
H5291	H529	0.681570	0.011170	0.656050
H5301	H530	0.553000	0.984390	0.607050
H5311	H531	0.551370	0.047040	0.447980
H5321	H532	0.677160	0.069780	0.498160
H5331	H533	0.856130	0.026760	0.844530
H5341	H534	0.877000	0.946320	0.892100
H5351	H535	0.100900	0.107290	0.054980
H5361	H536	0.072050	0.181680	0.003110
H5371	H537	0.526270	0.357020	0.347990
H5381	H538	0.447390	0.381350	0.397490
H5391	H539	0.602410	0.604360	0.548460
H5401	H540	0.677110	0.575010	0.497430
H5411	H541	0.508590	0.178220	0.151310
H5421	H542	0.483320	0.049820	0.101770
H5431	H543	0.555050	0.053710	0.950530
H5441	H544	0.576780	0.179450	0.001570
H5451	H545	0.363450	0.507350	0.827800
H5461	H546	0.384300	0.481420	0.929780
H5471	H547	0.609460	0.557600	0.006160
H5481	H548	0.583320	0.581600	0.903380
H5491	H549	0.179070	0.534890	0.671580
H5501	H550	0.051120	0.453850	0.569600
H5511	H551	0.050940	0.603100	0.493840
H5521	H552	0.177680	0.679660	0.596650
H5531	H553	0.939060	0.109300	0.630950
H5541	H554	0.956330	0.081420	0.523200
H5551	H555	0.050690	0.945960	0.572820
H5561	H556	0.024820	0.971330	0.674720
H5571	H557	0.978180	0.308550	0.869040
H5581	H558	0.058210	0.433590	0.976670
H5591	H559	0.873280	0.478530	0.927560
H5601	H560	0.796550	0.350710	0.825830
H5611	H561	0.309260	0.941500	0.331080
H5621	H562	0.434120	0.958620	0.376240
H5631	H563	0.475710	0.042170	0.604390
H5641	H564	0.348420	0.017620	0.552910
H5651	H565	0.110790	0.978110	0.168690
H5661	H566	0.082650	0.057690	0.123400
H5671	H567	0.935620	0.870800	0.895940
H5681	H568	0.963090	0.795140	0.947490
