data_IBOZIK_freeONLY_PM
_symmetry_space_group_name_H-M	'P1'
_cell_length_a	10.012400
_cell_length_b	14.190800
_cell_length_c	21.648200
_cell_angle_alpha	90.000000
_cell_angle_beta	102.265000
_cell_angle_gamma	90.000000
_symmetry_Int_Tables_number 1

loop_
_symmetry_equiv_pos_as_xyz
'x,y,z'

loop_
_atom_site_label
_atom_site_type_symbol
_atom_site_fract_x
_atom_site_fract_y
_atom_site_fract_z
Cu11	Cu1	0.062520	0.666380	0.940150
Cu21	Cu2	0.874680	0.494490	0.948070
Cu31	Cu3	0.937480	0.666380	0.559850
Cu41	Cu4	0.125320	0.494490	0.551930
Cu51	Cu5	0.937480	0.333620	0.059850
Cu61	Cu6	0.125320	0.505510	0.051930
Cu71	Cu7	0.062520	0.333620	0.440150
Cu81	Cu8	0.874680	0.505510	0.448070
H11	H1	0.936600	0.626000	0.025000
H21	H2	0.908400	0.357400	0.845800
H31	H3	0.434000	0.006300	0.833300
H41	H4	0.544800	0.931900	0.824200
H51	H5	0.410200	0.891100	0.899700
H61	H6	0.649200	0.126900	0.745600
H71	H7	0.699900	0.050800	0.798400
H81	H8	0.806900	0.222600	0.800700
H91	H9	0.068900	0.691700	0.806000
H101	H10	0.174700	0.782100	0.742900
H111	H11	0.293300	0.801500	0.957800
H121	H12	0.513300	0.261400	0.898800
H131	H13	0.229500	0.074900	0.071000
H141	H14	0.623700	0.395200	0.939800
H151	H15	0.183600	0.931100	0.023000
H161	H16	0.894800	0.880500	0.120600
H171	H17	0.644300	0.758900	0.822900
H181	H18	0.573400	0.660100	0.811300
H191	H19	0.565900	0.717700	0.872200
H201	H20	0.107700	0.124100	0.141000
H211	H21	0.944300	0.028900	0.170700
H221	H22	0.179600	0.426500	0.830800
H231	H23	0.329000	0.455200	0.863700
H241	H24	0.252600	0.376600	0.893500
H251	H25	0.063400	0.626000	0.475000
H261	H26	0.091600	0.357400	0.654200
H271	H27	0.566000	0.006300	0.666700
H281	H28	0.455200	0.931900	0.675800
H291	H29	0.589800	0.891100	0.600300
H301	H30	0.350800	0.126900	0.754400
H311	H31	0.300100	0.050800	0.701600
H321	H32	0.193100	0.222600	0.699300
H331	H33	0.931100	0.691700	0.694000
H341	H34	0.825300	0.782100	0.757100
H351	H35	0.706700	0.801500	0.542200
H361	H36	0.486700	0.261400	0.601200
H371	H37	0.770500	0.074900	0.429000
H381	H38	0.376300	0.395200	0.560200
H391	H39	0.816400	0.931100	0.477000
H401	H40	0.105200	0.880500	0.379400
H411	H41	0.355700	0.758900	0.677100
H421	H42	0.426600	0.660100	0.688700
H431	H43	0.434100	0.717700	0.627800
H441	H44	0.892300	0.124100	0.359000
H451	H45	0.055700	0.028900	0.329300
H461	H46	0.820400	0.426500	0.669200
H471	H47	0.671000	0.455200	0.636300
H481	H48	0.747400	0.376600	0.606500
H491	H49	0.063400	0.374000	0.975000
H501	H50	0.091600	0.642600	0.154200
H511	H51	0.566000	0.993700	0.166700
H521	H52	0.455200	0.068100	0.175800
H531	H53	0.589800	0.108900	0.100300
H541	H54	0.350800	0.873100	0.254400
H551	H55	0.300100	0.949200	0.201600
H561	H56	0.193100	0.777400	0.199300
H571	H57	0.931100	0.308300	0.194000
H581	H58	0.825300	0.217900	0.257100
H591	H59	0.706700	0.198500	0.042200
H601	H60	0.486700	0.738600	0.101200
H611	H61	0.770500	0.925100	0.929000
H621	H62	0.376300	0.604800	0.060200
H631	H63	0.816400	0.068900	0.977000
H641	H64	0.105200	0.119500	0.879400
H651	H65	0.355700	0.241100	0.177100
H661	H66	0.426600	0.339900	0.188700
H671	H67	0.434100	0.282300	0.127800
H681	H68	0.892300	0.875900	0.859000
H691	H69	0.055700	0.971100	0.829300
H701	H70	0.820400	0.573500	0.169200
H711	H71	0.671000	0.544800	0.136300
H721	H72	0.747400	0.623400	0.106500
H731	H73	0.936600	0.374000	0.525000
H741	H74	0.908400	0.642600	0.345800
H751	H75	0.434000	0.993700	0.333300
H761	H76	0.544800	0.068100	0.324200
H771	H77	0.410200	0.108900	0.399700
H781	H78	0.649200	0.873100	0.245600
H791	H79	0.699900	0.949200	0.298400
H801	H80	0.806900	0.777400	0.300700
H811	H81	0.068900	0.308300	0.306000
H821	H82	0.174700	0.217900	0.242900
H831	H83	0.293300	0.198500	0.457800
H841	H84	0.513300	0.738600	0.398800
H851	H85	0.229500	0.925100	0.571000
H861	H86	0.623700	0.604800	0.439800
H871	H87	0.183600	0.068900	0.523000
H881	H88	0.894800	0.119500	0.620600
H891	H89	0.644300	0.241100	0.322900
H901	H90	0.573400	0.339900	0.311300
H911	H91	0.565900	0.282300	0.372200
H921	H92	0.107700	0.875900	0.641000
H931	H93	0.944300	0.971100	0.670700
H941	H94	0.179600	0.573500	0.330800
H951	H95	0.329000	0.544800	0.363700
H961	H96	0.252600	0.623400	0.393500
C11	C1	0.828600	0.336800	0.857100
C21	C2	0.302700	0.849000	0.814730
C31	C3	0.464800	0.966500	0.802710
C41	C4	0.339300	0.852300	0.879560
C51	C5	0.622500	0.089100	0.778300
C61	C6	0.768400	0.256100	0.829480
C71	C7	0.751100	0.656000	0.877350
C81	C8	0.004000	0.799000	0.033400
C91	C9	0.137000	0.733400	0.824920
C101	C10	0.200100	0.787100	0.786710
C111	C11	0.649900	0.225700	0.845370
C121	C12	0.269600	0.797500	0.913910
C131	C13	0.594400	0.279300	0.887600
C141	C14	0.161600	0.036700	0.080900
C151	C15	0.034700	0.892400	0.066200
C161	C16	0.661800	0.358900	0.912300
C171	C17	0.186000	0.508900	0.908700
C181	C18	0.133800	0.950600	0.052500
C191	C19	0.961600	0.919500	0.110400
C201	C20	0.622100	0.702400	0.842800
C211	C21	0.090400	0.064900	0.122800
C221	C22	0.990800	0.008700	0.140200
C231	C23	0.241900	0.435100	0.870700
C241	C24	0.171400	0.336800	0.642900
C251	C25	0.697300	0.849000	0.685270
C261	C26	0.535200	0.966500	0.697290
C271	C27	0.660700	0.852300	0.620440
C281	C28	0.377500	0.089100	0.721700
C291	C29	0.231600	0.256100	0.670520
C301	C30	0.248900	0.656000	0.622650
C311	C31	0.996000	0.799000	0.466600
C321	C32	0.863000	0.733400	0.675080
C331	C33	0.799900	0.787100	0.713290
C341	C34	0.350100	0.225700	0.654630
C351	C35	0.730400	0.797500	0.586090
C361	C36	0.405600	0.279300	0.612400
C371	C37	0.838400	0.036700	0.419100
C381	C38	0.965300	0.892400	0.433800
C391	C39	0.338200	0.358900	0.587700
C401	C40	0.814000	0.508900	0.591300
C411	C41	0.866200	0.950600	0.447500
C421	C42	0.038400	0.919500	0.389600
C431	C43	0.377900	0.702400	0.657200
C441	C44	0.909600	0.064900	0.377200
C451	C45	0.009200	0.008700	0.359800
C461	C46	0.758100	0.435100	0.629300
C471	C47	0.171400	0.663200	0.142900
C481	C48	0.697300	0.151000	0.185270
C491	C49	0.535200	0.033500	0.197290
C501	C50	0.660700	0.147700	0.120440
C511	C51	0.377500	0.910900	0.221700
C521	C52	0.231600	0.743900	0.170520
C531	C53	0.248900	0.344000	0.122650
C541	C54	0.996000	0.201000	0.966600
C551	C55	0.863000	0.266600	0.175080
C561	C56	0.799900	0.212900	0.213290
C571	C57	0.350100	0.774300	0.154630
C581	C58	0.730400	0.202500	0.086090
C591	C59	0.405600	0.720700	0.112400
C601	C60	0.838400	0.963300	0.919100
C611	C61	0.965300	0.107600	0.933800
C621	C62	0.338200	0.641100	0.087700
C631	C63	0.814000	0.491100	0.091300
C641	C64	0.866200	0.049400	0.947500
C651	C65	0.038400	0.080500	0.889600
C661	C66	0.377900	0.297600	0.157200
C671	C67	0.909600	0.935100	0.877200
C681	C68	0.009200	0.991300	0.859800
C691	C69	0.758100	0.564900	0.129300
C701	C70	0.828600	0.663200	0.357100
C711	C71	0.302700	0.151000	0.314730
C721	C72	0.464800	0.033500	0.302710
C731	C73	0.339300	0.147700	0.379560
C741	C74	0.622500	0.910900	0.278300
C751	C75	0.768400	0.743900	0.329480
C761	C76	0.751100	0.344000	0.377350
C771	C77	0.004000	0.201000	0.533400
C781	C78	0.137000	0.266600	0.324920
C791	C79	0.200100	0.212900	0.286710
C801	C80	0.649900	0.774300	0.345370
C811	C81	0.269600	0.202500	0.413910
C821	C82	0.594400	0.720700	0.387600
C831	C83	0.161600	0.963300	0.580900
C841	C84	0.034700	0.107600	0.566200
C851	C85	0.661800	0.641100	0.412300
C861	C86	0.186000	0.491100	0.408700
C871	C87	0.133800	0.049400	0.552500
C881	C88	0.961600	0.080500	0.610400
C891	C89	0.622100	0.297600	0.342800
C901	C90	0.090400	0.935100	0.622800
C911	C91	0.990800	0.991300	0.640200
C921	C92	0.241900	0.564900	0.370700
C931	C93	0.500000	0.026500	0.750000
C941	C94	0.500000	0.973500	0.250000
N11	N1	0.779600	0.387200	0.898870
N21	N2	0.168800	0.738200	0.887930
N31	N3	0.220400	0.387200	0.601130
N41	N4	0.831200	0.738200	0.612070
N51	N5	0.220400	0.612800	0.101130
N61	N6	0.831200	0.261800	0.112070
N71	N7	0.779600	0.612800	0.398870
N81	N8	0.168800	0.261800	0.387930
O11	O1	0.987700	0.588800	0.999650
O21	O2	0.358400	0.902190	0.774670
O31	O3	0.578700	0.147940	0.823680
O41	O4	0.735000	0.579670	0.906470
O51	O5	0.079600	0.775880	0.996480
O61	O6	0.073100	0.547200	0.889500
O71	O7	0.861700	0.692900	0.875860
O81	O8	0.907300	0.748100	0.044100
O91	O9	0.257500	0.525800	0.961710
O101	O10	0.012300	0.588800	0.500350
O111	O11	0.641600	0.902190	0.725330
O121	O12	0.421300	0.147940	0.676320
O131	O13	0.265000	0.579670	0.593530
O141	O14	0.920400	0.775880	0.503520
O151	O15	0.926900	0.547200	0.610500
O161	O16	0.138300	0.692900	0.624140
O171	O17	0.092700	0.748100	0.455900
O181	O18	0.742500	0.525800	0.538290
O191	O19	0.012300	0.411200	0.000350
O201	O20	0.641600	0.097810	0.225330
O211	O21	0.421300	0.852060	0.176320
O221	O22	0.265000	0.420330	0.093530
O231	O23	0.920400	0.224120	0.003520
O241	O24	0.926900	0.452800	0.110500
O251	O25	0.138300	0.307100	0.124140
O261	O26	0.092700	0.251900	0.955900
O271	O27	0.742500	0.474200	0.038290
O281	O28	0.987700	0.411200	0.499650
O291	O29	0.358400	0.097810	0.274670
O301	O30	0.578700	0.852060	0.323680
O311	O31	0.735000	0.420330	0.406470
O321	O32	0.079600	0.224120	0.496480
O331	O33	0.073100	0.452800	0.389500
O341	O34	0.861700	0.307100	0.375860
O351	O35	0.907300	0.251900	0.544100
O361	O36	0.257500	0.474200	0.461710
