data_IBUYAH_freeONLY_PM
_symmetry_space_group_name_H-M	'P1'
_cell_length_a	7.730000
_cell_length_b	17.797000
_cell_length_c	26.675000
_cell_angle_alpha	93.466000
_cell_angle_beta	90.000000
_cell_angle_gamma	90.000000
_symmetry_Int_Tables_number 1

loop_
_symmetry_equiv_pos_as_xyz
'x,y,z'

loop_
_atom_site_label
_atom_site_type_symbol
_atom_site_fract_x
_atom_site_fract_y
_atom_site_fract_z
Zn11	Zn1	0.432000	0.196570	0.024000
Zn21	Zn2	0.976470	0.303410	0.963330
Zn31	Zn3	0.932000	0.803430	0.476000
Zn41	Zn4	0.476470	0.696590	0.536670
Zn51	Zn5	0.568000	0.803430	0.976000
Zn61	Zn6	0.023530	0.696590	0.036670
Zn71	Zn7	0.068000	0.196570	0.524000
Zn81	Zn8	0.523530	0.303410	0.463330
H11	H1	0.277400	0.042600	0.989800
H21	H2	0.644200	0.452800	0.066400
H31	H3	0.328700	0.768000	0.093400
H41	H4	0.145400	0.566400	0.111200
H51	H5	0.399900	0.581800	0.163900
H61	H6	0.642000	0.776400	0.099700
H71	H7	0.887300	0.830200	0.134700
H81	H8	0.797200	0.726800	0.261100
H91	H9	0.549900	0.673700	0.225700
H101	H10	0.129500	0.684200	0.231200
H111	H11	0.264400	0.630900	0.298000
H121	H12	0.253200	0.830100	0.375300
H131	H13	0.114200	0.882400	0.308900
H141	H14	0.289300	0.763900	0.444400
H151	H15	0.468700	0.595000	0.356300
H161	H16	0.561000	0.577900	0.442000
H171	H17	0.847300	0.945600	0.216200
H181	H18	0.934000	0.055500	0.182300
H191	H19	0.409200	0.972800	0.162700
H201	H20	0.321100	0.860100	0.194300
H211	H21	0.101500	0.176300	0.185100
H221	H22	0.377700	0.053100	0.086600
H231	H23	0.218200	0.258500	0.123400
H241	H24	0.777400	0.957400	0.510200
H251	H25	0.144200	0.547200	0.433600
H261	H26	0.828700	0.232000	0.406600
H271	H27	0.645400	0.433600	0.388800
H281	H28	0.899900	0.418200	0.336100
H291	H29	0.142000	0.223600	0.400300
H301	H30	0.387300	0.169800	0.365300
H311	H31	0.297200	0.273200	0.238900
H321	H32	0.049900	0.326300	0.274300
H331	H33	0.629500	0.315800	0.268800
H341	H34	0.764400	0.369100	0.202000
H351	H35	0.753200	0.169900	0.124700
H361	H36	0.614200	0.117600	0.191100
H371	H37	0.789300	0.236100	0.055600
H381	H38	0.968700	0.405000	0.143700
H391	H39	0.061000	0.422100	0.058000
H401	H40	0.347300	0.054400	0.283800
H411	H41	0.434000	0.944500	0.317700
H421	H42	0.909200	0.027200	0.337300
H431	H43	0.821100	0.139900	0.305700
H441	H44	0.601500	0.823700	0.314900
H451	H45	0.877700	0.946900	0.413400
H461	H46	0.718200	0.741500	0.376600
H471	H47	0.722600	0.957400	0.010200
H481	H48	0.355800	0.547200	0.933600
H491	H49	0.671300	0.232000	0.906600
H501	H50	0.854600	0.433600	0.888800
H511	H51	0.600100	0.418200	0.836100
H521	H52	0.358000	0.223600	0.900300
H531	H53	0.112700	0.169800	0.865300
H541	H54	0.202800	0.273200	0.738900
H551	H55	0.450100	0.326300	0.774300
H561	H56	0.870500	0.315800	0.768800
H571	H57	0.735600	0.369100	0.702000
H581	H58	0.746800	0.169900	0.624700
H591	H59	0.885800	0.117600	0.691100
H601	H60	0.710700	0.236100	0.555600
H611	H61	0.531300	0.405000	0.643700
H621	H62	0.439000	0.422100	0.558000
H631	H63	0.152700	0.054400	0.783800
H641	H64	0.066000	0.944500	0.817700
H651	H65	0.590800	0.027200	0.837300
H661	H66	0.678900	0.139900	0.805700
H671	H67	0.898500	0.823700	0.814900
H681	H68	0.622300	0.946900	0.913400
H691	H69	0.781800	0.741500	0.876600
H701	H70	0.222600	0.042600	0.489800
H711	H71	0.855800	0.452800	0.566400
H721	H72	0.171300	0.768000	0.593400
H731	H73	0.354600	0.566400	0.611200
H741	H74	0.100100	0.581800	0.663900
H751	H75	0.858000	0.776400	0.599700
H761	H76	0.612700	0.830200	0.634700
H771	H77	0.702800	0.726800	0.761100
H781	H78	0.950100	0.673700	0.725700
H791	H79	0.370500	0.684200	0.731200
H801	H80	0.235600	0.630900	0.798000
H811	H81	0.246800	0.830100	0.875300
H821	H82	0.385800	0.882400	0.808900
H831	H83	0.210700	0.763900	0.944400
H841	H84	0.031300	0.595000	0.856300
H851	H85	0.939000	0.577900	0.942000
H861	H86	0.652700	0.945600	0.716200
H871	H87	0.566000	0.055500	0.682300
H881	H88	0.090800	0.972800	0.662700
H891	H89	0.178900	0.860100	0.694300
H901	H90	0.398500	0.176300	0.685100
H911	H91	0.122300	0.053100	0.586600
H921	H92	0.281800	0.258500	0.623400
C11	C1	0.028800	0.074310	0.988080
C21	C2	0.165300	0.025150	0.994150
C31	C3	0.857600	0.048800	0.993640
C41	C4	0.070100	0.153390	0.976070
C51	C5	0.692400	0.094060	0.986860
C61	C6	0.458500	0.344110	0.026380
C71	C7	0.476300	0.424540	0.011380
C81	C8	0.251100	0.409340	0.942170
C91	C9	0.388300	0.453670	0.971010
C101	C10	0.585700	0.471690	0.039460
C111	C11	0.314300	0.719800	0.104310
C121	C12	0.214700	0.609200	0.114260
C131	C13	0.354600	0.617300	0.143380
C141	C14	0.571100	0.720690	0.159510
C151	C15	0.672700	0.766900	0.132410
C161	C16	0.819500	0.799000	0.153360
C171	C17	0.867600	0.785400	0.202230
C181	C18	0.765700	0.737500	0.228620
C191	C19	0.617700	0.705500	0.207470
C201	C20	0.106500	0.787400	0.263460
C211	C21	0.152700	0.713700	0.260420
C221	C22	0.234000	0.681500	0.300260
C231	C23	0.269000	0.725600	0.343230
C241	C24	0.226700	0.800400	0.346460
C251	C25	0.144300	0.831700	0.306710
C261	C26	0.344900	0.719600	0.433350
C271	C27	0.443900	0.626800	0.384350
C281	C28	0.493600	0.617400	0.431730
C291	C29	0.073000	0.890200	0.207140
C301	C30	0.959900	0.950000	0.204480
C311	C31	0.011900	0.016100	0.184640
C321	C32	0.179300	0.023400	0.168370
C331	C33	0.294900	0.966700	0.172590
C341	C34	0.242300	0.899200	0.191780
C351	C35	0.171400	0.161700	0.157860
C361	C36	0.324000	0.094200	0.103270
C371	C37	0.235900	0.206800	0.123620
C381	C38	0.528800	0.925690	0.511920
C391	C39	0.665300	0.974850	0.505850
C401	C40	0.357600	0.951200	0.506360
C411	C41	0.570100	0.846610	0.523930
C421	C42	0.192400	0.905940	0.513140
C431	C43	0.958500	0.655890	0.473620
C441	C44	0.976300	0.575460	0.488620
C451	C45	0.751100	0.590660	0.557830
C461	C46	0.888300	0.546330	0.528990
C471	C47	0.085700	0.528310	0.460540
C481	C48	0.814300	0.280200	0.395690
C491	C49	0.714700	0.390800	0.385740
C501	C50	0.854600	0.382700	0.356620
C511	C51	0.071100	0.279310	0.340490
C521	C52	0.172700	0.233100	0.367590
C531	C53	0.319500	0.201000	0.346640
C541	C54	0.367600	0.214600	0.297770
C551	C55	0.265700	0.262500	0.271380
C561	C56	0.117700	0.294500	0.292530
C571	C57	0.606500	0.212600	0.236540
C581	C58	0.652700	0.286300	0.239580
C591	C59	0.734000	0.318500	0.199740
C601	C60	0.769000	0.274400	0.156770
C611	C61	0.726700	0.199600	0.153540
C621	C62	0.644300	0.168300	0.193290
C631	C63	0.844900	0.280400	0.066650
C641	C64	0.943900	0.373200	0.115650
C651	C65	0.993600	0.382600	0.068270
C661	C66	0.573000	0.109800	0.292860
C671	C67	0.459900	0.050000	0.295520
C681	C68	0.511900	0.983900	0.315360
C691	C69	0.679300	0.976600	0.331630
C701	C70	0.794900	0.033300	0.327410
C711	C71	0.742300	0.100800	0.308220
C721	C72	0.671400	0.838300	0.342140
C731	C73	0.824000	0.905800	0.396730
C741	C74	0.735900	0.793200	0.376380
C751	C75	0.971200	0.925690	0.011920
C761	C76	0.834700	0.974850	0.005850
C771	C77	0.142400	0.951200	0.006360
C781	C78	0.929900	0.846610	0.023930
C791	C79	0.307600	0.905940	0.013140
C801	C80	0.541500	0.655890	0.973620
C811	C81	0.523700	0.575460	0.988620
C821	C82	0.748900	0.590660	0.057830
C831	C83	0.611700	0.546330	0.028990
C841	C84	0.414300	0.528310	0.960540
C851	C85	0.685700	0.280200	0.895690
C861	C86	0.785300	0.390800	0.885740
C871	C87	0.645400	0.382700	0.856620
C881	C88	0.428900	0.279310	0.840490
C891	C89	0.327300	0.233100	0.867590
C901	C90	0.180500	0.201000	0.846640
C911	C91	0.132400	0.214600	0.797770
C921	C92	0.234300	0.262500	0.771380
C931	C93	0.382300	0.294500	0.792530
C941	C94	0.893500	0.212600	0.736540
C951	C95	0.847300	0.286300	0.739580
C961	C96	0.766000	0.318500	0.699740
C971	C97	0.731000	0.274400	0.656770
C981	C98	0.773300	0.199600	0.653540
C991	C99	0.855700	0.168300	0.693290
C1001	C100	0.655100	0.280400	0.566650
C1011	C101	0.556100	0.373200	0.615650
C1021	C102	0.506400	0.382600	0.568270
C1031	C103	0.927000	0.109800	0.792860
C1041	C104	0.040100	0.050000	0.795520
C1051	C105	0.988100	0.983900	0.815360
C1061	C106	0.820700	0.976600	0.831630
C1071	C107	0.705100	0.033300	0.827410
C1081	C108	0.757700	0.100800	0.808220
C1091	C109	0.828600	0.838300	0.842140
C1101	C110	0.676000	0.905800	0.896730
C1111	C111	0.764100	0.793200	0.876380
C1121	C112	0.471200	0.074310	0.488080
C1131	C113	0.334700	0.025150	0.494150
C1141	C114	0.642400	0.048800	0.493640
C1151	C115	0.429900	0.153390	0.476070
C1161	C116	0.807600	0.094060	0.486860
C1171	C117	0.041500	0.344110	0.526380
C1181	C118	0.023700	0.424540	0.511380
C1191	C119	0.248900	0.409340	0.442170
C1201	C120	0.111700	0.453670	0.471010
C1211	C121	0.914300	0.471690	0.539460
C1221	C122	0.185700	0.719800	0.604310
C1231	C123	0.285300	0.609200	0.614260
C1241	C124	0.145400	0.617300	0.643380
C1251	C125	0.928900	0.720690	0.659510
C1261	C126	0.827300	0.766900	0.632410
C1271	C127	0.680500	0.799000	0.653360
C1281	C128	0.632400	0.785400	0.702230
C1291	C129	0.734300	0.737500	0.728620
C1301	C130	0.882300	0.705500	0.707470
C1311	C131	0.393500	0.787400	0.763460
C1321	C132	0.347300	0.713700	0.760420
C1331	C133	0.266000	0.681500	0.800260
C1341	C134	0.231000	0.725600	0.843230
C1351	C135	0.273300	0.800400	0.846460
C1361	C136	0.355700	0.831700	0.806710
C1371	C137	0.155100	0.719600	0.933350
C1381	C138	0.056100	0.626800	0.884350
C1391	C139	0.006400	0.617400	0.931730
C1401	C140	0.427000	0.890200	0.707140
C1411	C141	0.540100	0.950000	0.704480
C1421	C142	0.488100	0.016100	0.684640
C1431	C143	0.320700	0.023400	0.668370
C1441	C144	0.205100	0.966700	0.672590
C1451	C145	0.257700	0.899200	0.691780
C1461	C146	0.328600	0.161700	0.657860
C1471	C147	0.176000	0.094200	0.603270
C1481	C148	0.264100	0.206800	0.623620
N11	N1	0.015200	0.820640	0.223840
N21	N2	0.188800	0.673760	0.089540
N31	N3	0.419100	0.687870	0.137250
N41	N4	0.349900	0.692070	0.385080
N51	N5	0.429400	0.675290	0.462630
N61	N6	0.227900	0.090780	0.144930
N71	N7	0.332000	0.164480	0.089010
N81	N8	0.515200	0.179360	0.276160
N91	N9	0.688800	0.326240	0.410460
N101	N10	0.919100	0.312130	0.362750
N111	N11	0.849900	0.307930	0.114920
N121	N12	0.929400	0.324710	0.037370
N131	N13	0.727900	0.909220	0.355070
N141	N14	0.832000	0.835520	0.410990
N151	N15	0.984800	0.179360	0.776160
N161	N16	0.811200	0.326240	0.910460
N171	N17	0.580900	0.312130	0.862750
N181	N18	0.650100	0.307930	0.614920
N191	N19	0.570600	0.324710	0.537370
N201	N20	0.772100	0.909220	0.855070
N211	N21	0.668000	0.835520	0.910990
N221	N22	0.484800	0.820640	0.723840
N231	N23	0.311200	0.673760	0.589540
N241	N24	0.080900	0.687870	0.637250
N251	N25	0.150100	0.692070	0.885080
N261	N26	0.070600	0.675290	0.962630
N271	N27	0.272100	0.090780	0.644930
N281	N28	0.168000	0.164480	0.589010
O11	O1	0.220600	0.177660	0.980410
O21	O2	0.946100	0.192700	0.961020
O31	O3	0.611800	0.084650	0.947940
O41	O4	0.644000	0.134690	0.025090
O51	O5	0.501100	0.290900	0.995010
O61	O6	0.412700	0.332900	0.069240
O71	O7	0.187300	0.357190	0.965640
O81	O8	0.205800	0.426520	0.900540
O91	O9	0.720600	0.822340	0.519590
O101	O10	0.446100	0.807300	0.538980
O111	O11	0.111800	0.915350	0.552060
O121	O12	0.144000	0.865310	0.474910
O131	O13	0.001100	0.709100	0.504990
O141	O14	0.912700	0.667100	0.430760
O151	O15	0.687300	0.642810	0.534360
O161	O16	0.705800	0.573480	0.599460
O171	O17	0.779400	0.822340	0.019590
O181	O18	0.053900	0.807300	0.038980
O191	O19	0.388200	0.915350	0.052060
O201	O20	0.356000	0.865310	0.974910
O211	O21	0.498900	0.709100	0.004990
O221	O22	0.587300	0.667100	0.930760
O231	O23	0.812700	0.642810	0.034360
O241	O24	0.794200	0.573480	0.099460
O251	O25	0.279400	0.177660	0.480410
O261	O26	0.553900	0.192700	0.461020
O271	O27	0.888200	0.084650	0.447940
O281	O28	0.856000	0.134690	0.525090
O291	O29	0.998900	0.290900	0.495010
O301	O30	0.087300	0.332900	0.569240
O311	O31	0.312700	0.357190	0.465640
O321	O32	0.294200	0.426520	0.400540
