data_ic049498msi20040906_121120_freeONLY_PM
_symmetry_space_group_name_H-M	'P1'
_cell_length_a	20.506000
_cell_length_b	20.506000
_cell_length_c	20.506000
_cell_angle_alpha	90.000000
_cell_angle_beta	90.000000
_cell_angle_gamma	90.000000
_symmetry_Int_Tables_number 1

loop_
_symmetry_equiv_pos_as_xyz
'x,y,z'

loop_
_atom_site_label
_atom_site_type_symbol
_atom_site_fract_x
_atom_site_fract_y
_atom_site_fract_z
Pr11	Pr1	0.479680	0.242280	0.143710
O11	O1	0.584640	0.375710	0.289160
O21	O2	0.533310	0.332260	0.203620
O31	O3	0.419680	0.077390	0.282360
O41	O4	0.435460	0.143920	0.197870
N11	N1	0.495320	0.230890	0.269840
C11	C1	0.549920	0.333450	0.263180
C21	C2	0.525050	0.277620	0.304290
C31	C3	0.531300	0.274400	0.371400
H11	H1	0.551200	0.308000	0.394400
C41	C4	0.507500	0.220400	0.403500
H21	H2	0.511500	0.216700	0.448500
C51	C5	0.477500	0.171600	0.367700
H31	H3	0.461000	0.134800	0.388400
C61	C6	0.472380	0.178330	0.301200
C71	C7	0.439850	0.128800	0.257740
O51	O5	0.384210	0.295160	0.200950
O61	O6	0.448990	0.336360	0.073830
O71	O7	0.497830	0.168870	0.046350
O81	O8	0.575230	0.169340	0.171410
H41	H4	0.475900	0.362000	0.055000
H51	H5	0.600800	0.170000	0.138800
H61	H6	0.410300	0.330000	0.060000
H71	H7	0.462800	0.152000	0.032000
H81	H8	0.535200	0.152000	0.040000
H91	H9	0.347800	0.281000	0.187000
H101	H10	0.388000	0.321000	0.233500
H111	H11	0.589000	0.175000	0.210200
Pr21	Pr2	0.020320	0.757720	0.643710
O91	O9	0.915360	0.624290	0.789160
O101	O10	0.966690	0.667740	0.703620
O111	O11	0.080320	0.922610	0.782360
O121	O12	0.064540	0.856080	0.697870
N21	N2	0.004680	0.769110	0.769840
C81	C8	0.950080	0.666550	0.763180
C91	C9	0.974950	0.722380	0.804290
C101	C10	0.968700	0.725600	0.871400
H121	H12	0.948800	0.692000	0.894400
C111	C11	0.992500	0.779600	0.903500
H131	H13	0.988500	0.783300	0.948500
C121	C12	0.022500	0.828400	0.867700
H141	H14	0.039000	0.865200	0.888400
C131	C13	0.027620	0.821670	0.801200
C141	C14	0.060150	0.871200	0.757740
O131	O13	0.115790	0.704840	0.700950
O141	O14	0.051010	0.663640	0.573830
O151	O15	0.002170	0.831130	0.546350
O161	O16	0.924770	0.830660	0.671410
H151	H15	0.024100	0.638000	0.555000
H161	H16	0.899200	0.830000	0.638800
H171	H17	0.089700	0.670000	0.560000
H181	H18	0.037200	0.848000	0.532000
H191	H19	0.964800	0.848000	0.540000
H201	H20	0.152200	0.719000	0.687000
H211	H21	0.112000	0.679000	0.733500
H221	H22	0.911000	0.825000	0.710200
Pr31	Pr3	0.520320	0.742280	0.356290
O171	O17	0.415360	0.875710	0.210840
O181	O18	0.466690	0.832260	0.296380
O191	O19	0.580320	0.577390	0.217640
O201	O20	0.564540	0.643920	0.302130
N31	N3	0.504680	0.730890	0.230160
C151	C15	0.450080	0.833450	0.236820
C161	C16	0.474950	0.777620	0.195710
C171	C17	0.468700	0.774400	0.128600
H231	H23	0.448800	0.808000	0.105600
C181	C18	0.492500	0.720400	0.096500
H241	H24	0.488500	0.716700	0.051500
C191	C19	0.522500	0.671600	0.132300
H251	H25	0.539000	0.634800	0.111600
C201	C20	0.527620	0.678330	0.198800
C211	C21	0.560150	0.628800	0.242260
O211	O21	0.615790	0.795160	0.299050
O221	O22	0.551010	0.836360	0.426170
O231	O23	0.502170	0.668870	0.453650
O241	O24	0.424770	0.669340	0.328590
H261	H26	0.524100	0.862000	0.445000
H271	H27	0.399200	0.670000	0.361200
H281	H28	0.589700	0.830000	0.440000
H291	H29	0.537200	0.652000	0.468000
H301	H30	0.464800	0.652000	0.460000
H311	H31	0.652200	0.781000	0.313000
H321	H32	0.612000	0.821000	0.266500
H331	H33	0.411000	0.675000	0.289800
Pr41	Pr4	0.979680	0.257720	0.856290
O251	O25	0.084640	0.124290	0.710840
O261	O26	0.033310	0.167740	0.796380
O271	O27	0.919680	0.422610	0.717640
O281	O28	0.935460	0.356080	0.802130
N41	N4	0.995320	0.269110	0.730160
C221	C22	0.049920	0.166550	0.736820
C231	C23	0.025050	0.222380	0.695710
C241	C24	0.031300	0.225600	0.628600
H341	H34	0.051200	0.192000	0.605600
C251	C25	0.007500	0.279600	0.596500
H351	H35	0.011500	0.283300	0.551500
C261	C26	0.977500	0.328400	0.632300
H361	H36	0.961000	0.365200	0.611600
C271	C27	0.972380	0.321670	0.698800
C281	C28	0.939850	0.371200	0.742260
O291	O29	0.884210	0.204840	0.799050
O301	O30	0.948990	0.163640	0.926170
O311	O31	0.997830	0.331130	0.953650
O321	O32	0.075230	0.330660	0.828590
H371	H37	0.975900	0.138000	0.945000
H381	H38	0.100800	0.330000	0.861200
H391	H39	0.910300	0.170000	0.940000
H401	H40	0.962800	0.348000	0.968000
H411	H41	0.035200	0.348000	0.960000
H421	H42	0.847800	0.219000	0.813000
H431	H43	0.888000	0.179000	0.766500
H441	H44	0.089000	0.325000	0.789800
Pr51	Pr5	0.143710	0.479680	0.242280
O331	O33	0.289160	0.584640	0.375710
O341	O34	0.203620	0.533310	0.332260
O351	O35	0.282360	0.419680	0.077390
O361	O36	0.197870	0.435460	0.143920
N51	N5	0.269840	0.495320	0.230890
C291	C29	0.263180	0.549920	0.333450
C301	C30	0.304290	0.525050	0.277620
C311	C31	0.371400	0.531300	0.274400
H451	H45	0.394400	0.551200	0.308000
C321	C32	0.403500	0.507500	0.220400
H461	H46	0.448500	0.511500	0.216700
C331	C33	0.367700	0.477500	0.171600
H471	H47	0.388400	0.461000	0.134800
C341	C34	0.301200	0.472380	0.178330
C351	C35	0.257740	0.439850	0.128800
O371	O37	0.200950	0.384210	0.295160
O381	O38	0.073830	0.448990	0.336360
O391	O39	0.046350	0.497830	0.168870
O401	O40	0.171410	0.575230	0.169340
H481	H48	0.055000	0.475900	0.362000
H491	H49	0.138800	0.600800	0.170000
H501	H50	0.060000	0.410300	0.330000
H511	H51	0.032000	0.462800	0.152000
H521	H52	0.040000	0.535200	0.152000
H531	H53	0.187000	0.347800	0.281000
H541	H54	0.233500	0.388000	0.321000
H551	H55	0.210200	0.589000	0.175000
Pr61	Pr6	0.643710	0.020320	0.757720
O411	O41	0.789160	0.915360	0.624290
O421	O42	0.703620	0.966690	0.667740
O431	O43	0.782360	0.080320	0.922610
O441	O44	0.697870	0.064540	0.856080
N61	N6	0.769840	0.004680	0.769110
C361	C36	0.763180	0.950080	0.666550
C371	C37	0.804290	0.974950	0.722380
C381	C38	0.871400	0.968700	0.725600
H561	H56	0.894400	0.948800	0.692000
C391	C39	0.903500	0.992500	0.779600
H571	H57	0.948500	0.988500	0.783300
C401	C40	0.867700	0.022500	0.828400
H581	H58	0.888400	0.039000	0.865200
C411	C41	0.801200	0.027620	0.821670
C421	C42	0.757740	0.060150	0.871200
O451	O45	0.700950	0.115790	0.704840
O461	O46	0.573830	0.051010	0.663640
O471	O47	0.546350	0.002170	0.831130
O481	O48	0.671410	0.924770	0.830660
H591	H59	0.555000	0.024100	0.638000
H601	H60	0.638800	0.899200	0.830000
H611	H61	0.560000	0.089700	0.670000
H621	H62	0.532000	0.037200	0.848000
H631	H63	0.540000	0.964800	0.848000
H641	H64	0.687000	0.152200	0.719000
H651	H65	0.733500	0.112000	0.679000
H661	H66	0.710200	0.911000	0.825000
Pr71	Pr7	0.356290	0.520320	0.742280
O491	O49	0.210840	0.415360	0.875710
O501	O50	0.296380	0.466690	0.832260
O511	O51	0.217640	0.580320	0.577390
O521	O52	0.302130	0.564540	0.643920
N71	N7	0.230160	0.504680	0.730890
C431	C43	0.236820	0.450080	0.833450
C441	C44	0.195710	0.474950	0.777620
C451	C45	0.128600	0.468700	0.774400
H671	H67	0.105600	0.448800	0.808000
C461	C46	0.096500	0.492500	0.720400
H681	H68	0.051500	0.488500	0.716700
C471	C47	0.132300	0.522500	0.671600
H691	H69	0.111600	0.539000	0.634800
C481	C48	0.198800	0.527620	0.678330
C491	C49	0.242260	0.560150	0.628800
O531	O53	0.299050	0.615790	0.795160
O541	O54	0.426170	0.551010	0.836360
O551	O55	0.453650	0.502170	0.668870
O561	O56	0.328590	0.424770	0.669340
H701	H70	0.445000	0.524100	0.862000
H711	H71	0.361200	0.399200	0.670000
H721	H72	0.440000	0.589700	0.830000
H731	H73	0.468000	0.537200	0.652000
H741	H74	0.460000	0.464800	0.652000
H751	H75	0.313000	0.652200	0.781000
H761	H76	0.266500	0.612000	0.821000
H771	H77	0.289800	0.411000	0.675000
Pr81	Pr8	0.856290	0.979680	0.257720
O571	O57	0.710840	0.084640	0.124290
O581	O58	0.796380	0.033310	0.167740
O591	O59	0.717640	0.919680	0.422610
O601	O60	0.802130	0.935460	0.356080
N81	N8	0.730160	0.995320	0.269110
C501	C50	0.736820	0.049920	0.166550
C511	C51	0.695710	0.025050	0.222380
C521	C52	0.628600	0.031300	0.225600
H781	H78	0.605600	0.051200	0.192000
C531	C53	0.596500	0.007500	0.279600
H791	H79	0.551500	0.011500	0.283300
C541	C54	0.632300	0.977500	0.328400
H801	H80	0.611600	0.961000	0.365200
C551	C55	0.698800	0.972380	0.321670
C561	C56	0.742260	0.939850	0.371200
O611	O61	0.799050	0.884210	0.204840
O621	O62	0.926170	0.948990	0.163640
O631	O63	0.953650	0.997830	0.331130
O641	O64	0.828590	0.075230	0.330660
H811	H81	0.945000	0.975900	0.138000
H821	H82	0.861200	0.100800	0.330000
H831	H83	0.940000	0.910300	0.170000
H841	H84	0.968000	0.962800	0.348000
H851	H85	0.960000	0.035200	0.348000
H861	H86	0.813000	0.847800	0.219000
H871	H87	0.766500	0.888000	0.179000
H881	H88	0.789800	0.089000	0.325000
Pr91	Pr9	0.242280	0.143710	0.479680
O651	O65	0.375710	0.289160	0.584640
O661	O66	0.332260	0.203620	0.533310
O671	O67	0.077390	0.282360	0.419680
O681	O68	0.143920	0.197870	0.435460
N91	N9	0.230890	0.269840	0.495320
C571	C57	0.333450	0.263180	0.549920
C581	C58	0.277620	0.304290	0.525050
C591	C59	0.274400	0.371400	0.531300
H891	H89	0.308000	0.394400	0.551200
C601	C60	0.220400	0.403500	0.507500
H901	H90	0.216700	0.448500	0.511500
C611	C61	0.171600	0.367700	0.477500
H911	H91	0.134800	0.388400	0.461000
C621	C62	0.178330	0.301200	0.472380
C631	C63	0.128800	0.257740	0.439850
O691	O69	0.295160	0.200950	0.384210
O701	O70	0.336360	0.073830	0.448990
O711	O71	0.168870	0.046350	0.497830
O721	O72	0.169340	0.171410	0.575230
H921	H92	0.362000	0.055000	0.475900
H931	H93	0.170000	0.138800	0.600800
H941	H94	0.330000	0.060000	0.410300
H951	H95	0.152000	0.032000	0.462800
H961	H96	0.152000	0.040000	0.535200
H971	H97	0.281000	0.187000	0.347800
H981	H98	0.321000	0.233500	0.388000
H991	H99	0.175000	0.210200	0.589000
Pr101	Pr10	0.757720	0.643710	0.020320
O731	O73	0.624290	0.789160	0.915360
O741	O74	0.667740	0.703620	0.966690
O751	O75	0.922610	0.782360	0.080320
O761	O76	0.856080	0.697870	0.064540
N101	N10	0.769110	0.769840	0.004680
C641	C64	0.666550	0.763180	0.950080
C651	C65	0.722380	0.804290	0.974950
C661	C66	0.725600	0.871400	0.968700
H1001	H100	0.692000	0.894400	0.948800
C671	C67	0.779600	0.903500	0.992500
H1011	H101	0.783300	0.948500	0.988500
C681	C68	0.828400	0.867700	0.022500
H1021	H102	0.865200	0.888400	0.039000
C691	C69	0.821670	0.801200	0.027620
C701	C70	0.871200	0.757740	0.060150
O771	O77	0.704840	0.700950	0.115790
O781	O78	0.663640	0.573830	0.051010
O791	O79	0.831130	0.546350	0.002170
O801	O80	0.830660	0.671410	0.924770
H1031	H103	0.638000	0.555000	0.024100
H1041	H104	0.830000	0.638800	0.899200
H1051	H105	0.670000	0.560000	0.089700
H1061	H106	0.848000	0.532000	0.037200
H1071	H107	0.848000	0.540000	0.964800
H1081	H108	0.719000	0.687000	0.152200
H1091	H109	0.679000	0.733500	0.112000
H1101	H110	0.825000	0.710200	0.911000
Pr111	Pr11	0.742280	0.356290	0.520320
O811	O81	0.875710	0.210840	0.415360
O821	O82	0.832260	0.296380	0.466690
O831	O83	0.577390	0.217640	0.580320
O841	O84	0.643920	0.302130	0.564540
N111	N11	0.730890	0.230160	0.504680
C711	C71	0.833450	0.236820	0.450080
C721	C72	0.777620	0.195710	0.474950
C731	C73	0.774400	0.128600	0.468700
H1111	H111	0.808000	0.105600	0.448800
C741	C74	0.720400	0.096500	0.492500
H1121	H112	0.716700	0.051500	0.488500
C751	C75	0.671600	0.132300	0.522500
H1131	H113	0.634800	0.111600	0.539000
C761	C76	0.678330	0.198800	0.527620
C771	C77	0.628800	0.242260	0.560150
O851	O85	0.795160	0.299050	0.615790
O861	O86	0.836360	0.426170	0.551010
O871	O87	0.668870	0.453650	0.502170
O881	O88	0.669340	0.328590	0.424770
H1141	H114	0.862000	0.445000	0.524100
H1151	H115	0.670000	0.361200	0.399200
H1161	H116	0.830000	0.440000	0.589700
H1171	H117	0.652000	0.468000	0.537200
H1181	H118	0.652000	0.460000	0.464800
H1191	H119	0.781000	0.313000	0.652200
H1201	H120	0.821000	0.266500	0.612000
H1211	H121	0.675000	0.289800	0.411000
Pr121	Pr12	0.257720	0.856290	0.979680
O891	O89	0.124290	0.710840	0.084640
O901	O90	0.167740	0.796380	0.033310
O911	O91	0.422610	0.717640	0.919680
O921	O92	0.356080	0.802130	0.935460
N121	N12	0.269110	0.730160	0.995320
C781	C78	0.166550	0.736820	0.049920
C791	C79	0.222380	0.695710	0.025050
C801	C80	0.225600	0.628600	0.031300
H1221	H122	0.192000	0.605600	0.051200
C811	C81	0.279600	0.596500	0.007500
H1231	H123	0.283300	0.551500	0.011500
C821	C82	0.328400	0.632300	0.977500
H1241	H124	0.365200	0.611600	0.961000
C831	C83	0.321670	0.698800	0.972380
C841	C84	0.371200	0.742260	0.939850
O931	O93	0.204840	0.799050	0.884210
O941	O94	0.163640	0.926170	0.948990
O951	O95	0.331130	0.953650	0.997830
O961	O96	0.330660	0.828590	0.075230
H1251	H125	0.138000	0.945000	0.975900
H1261	H126	0.330000	0.861200	0.100800
H1271	H127	0.170000	0.940000	0.910300
H1281	H128	0.348000	0.968000	0.962800
H1291	H129	0.348000	0.960000	0.035200
H1301	H130	0.219000	0.813000	0.847800
H1311	H131	0.179000	0.766500	0.888000
H1321	H132	0.325000	0.789800	0.089000
Pr131	Pr13	0.520320	0.757720	0.856290
O971	O97	0.415360	0.624290	0.710840
O981	O98	0.466690	0.667740	0.796380
O991	O99	0.580320	0.922610	0.717640
O1001	O100	0.564540	0.856080	0.802130
N131	N13	0.504680	0.769110	0.730160
C851	C85	0.450080	0.666550	0.736820
C861	C86	0.474950	0.722380	0.695710
C871	C87	0.468700	0.725600	0.628600
H1331	H133	0.448800	0.692000	0.605600
C881	C88	0.492500	0.779600	0.596500
H1341	H134	0.488500	0.783300	0.551500
C891	C89	0.522500	0.828400	0.632300
H1351	H135	0.539000	0.865200	0.611600
C901	C90	0.527620	0.821670	0.698800
C911	C91	0.560150	0.871200	0.742260
O1011	O101	0.615790	0.704840	0.799050
O1021	O102	0.551010	0.663640	0.926170
O1031	O103	0.502170	0.831130	0.953650
O1041	O104	0.424770	0.830660	0.828590
H1361	H136	0.524100	0.638000	0.945000
H1371	H137	0.399200	0.830000	0.861200
H1381	H138	0.589700	0.670000	0.940000
H1391	H139	0.537200	0.848000	0.968000
H1401	H140	0.464800	0.848000	0.960000
H1411	H141	0.652200	0.719000	0.813000
H1421	H142	0.612000	0.679000	0.766500
H1431	H143	0.411000	0.825000	0.789800
Pr141	Pr14	0.979680	0.242280	0.356290
O1051	O105	0.084640	0.375710	0.210840
O1061	O106	0.033310	0.332260	0.296380
O1071	O107	0.919680	0.077390	0.217640
O1081	O108	0.935460	0.143920	0.302130
N141	N14	0.995320	0.230890	0.230160
C921	C92	0.049920	0.333450	0.236820
C931	C93	0.025050	0.277620	0.195710
C941	C94	0.031300	0.274400	0.128600
H1441	H144	0.051200	0.308000	0.105600
C951	C95	0.007500	0.220400	0.096500
H1451	H145	0.011500	0.216700	0.051500
C961	C96	0.977500	0.171600	0.132300
H1461	H146	0.961000	0.134800	0.111600
C971	C97	0.972380	0.178330	0.198800
C981	C98	0.939850	0.128800	0.242260
O1091	O109	0.884210	0.295160	0.299050
O1101	O110	0.948990	0.336360	0.426170
O1111	O111	0.997830	0.168870	0.453650
O1121	O112	0.075230	0.169340	0.328590
H1471	H147	0.975900	0.362000	0.445000
H1481	H148	0.100800	0.170000	0.361200
H1491	H149	0.910300	0.330000	0.440000
H1501	H150	0.962800	0.152000	0.468000
H1511	H151	0.035200	0.152000	0.460000
H1521	H152	0.847800	0.281000	0.313000
H1531	H153	0.888000	0.321000	0.266500
H1541	H154	0.089000	0.175000	0.289800
Pr151	Pr15	0.479680	0.257720	0.643710
O1131	O113	0.584640	0.124290	0.789160
O1141	O114	0.533310	0.167740	0.703620
O1151	O115	0.419680	0.422610	0.782360
O1161	O116	0.435460	0.356080	0.697870
N151	N15	0.495320	0.269110	0.769840
C991	C99	0.549920	0.166550	0.763180
C1001	C100	0.525050	0.222380	0.804290
C1011	C101	0.531300	0.225600	0.871400
H1551	H155	0.551200	0.192000	0.894400
C1021	C102	0.507500	0.279600	0.903500
H1561	H156	0.511500	0.283300	0.948500
C1031	C103	0.477500	0.328400	0.867700
H1571	H157	0.461000	0.365200	0.888400
C1041	C104	0.472380	0.321670	0.801200
C1051	C105	0.439850	0.371200	0.757740
O1171	O117	0.384210	0.204840	0.700950
O1181	O118	0.448990	0.163640	0.573830
O1191	O119	0.497830	0.331130	0.546350
O1201	O120	0.575230	0.330660	0.671410
H1581	H158	0.475900	0.138000	0.555000
H1591	H159	0.600800	0.330000	0.638800
H1601	H160	0.410300	0.170000	0.560000
H1611	H161	0.462800	0.348000	0.532000
H1621	H162	0.535200	0.348000	0.540000
H1631	H163	0.347800	0.219000	0.687000
H1641	H164	0.388000	0.179000	0.733500
H1651	H165	0.589000	0.325000	0.710200
Pr161	Pr16	0.020320	0.742280	0.143710
O1211	O121	0.915360	0.875710	0.289160
O1221	O122	0.966690	0.832260	0.203620
O1231	O123	0.080320	0.577390	0.282360
O1241	O124	0.064540	0.643920	0.197870
N161	N16	0.004680	0.730890	0.269840
C1061	C106	0.950080	0.833450	0.263180
C1071	C107	0.974950	0.777620	0.304290
C1081	C108	0.968700	0.774400	0.371400
H1661	H166	0.948800	0.808000	0.394400
C1091	C109	0.992500	0.720400	0.403500
H1671	H167	0.988500	0.716700	0.448500
C1101	C110	0.022500	0.671600	0.367700
H1681	H168	0.039000	0.634800	0.388400
C1111	C111	0.027620	0.678330	0.301200
C1121	C112	0.060150	0.628800	0.257740
O1251	O125	0.115790	0.795160	0.200950
O1261	O126	0.051010	0.836360	0.073830
O1271	O127	0.002170	0.668870	0.046350
O1281	O128	0.924770	0.669340	0.171410
H1691	H169	0.024100	0.862000	0.055000
H1701	H170	0.899200	0.670000	0.138800
H1711	H171	0.089700	0.830000	0.060000
H1721	H172	0.037200	0.652000	0.032000
H1731	H173	0.964800	0.652000	0.040000
H1741	H174	0.152200	0.781000	0.187000
H1751	H175	0.112000	0.821000	0.233500
H1761	H176	0.911000	0.675000	0.210200
Pr171	Pr17	0.856290	0.520320	0.757720
O1291	O129	0.710840	0.415360	0.624290
O1301	O130	0.796380	0.466690	0.667740
O1311	O131	0.717640	0.580320	0.922610
O1321	O132	0.802130	0.564540	0.856080
N171	N17	0.730160	0.504680	0.769110
C1131	C113	0.736820	0.450080	0.666550
C1141	C114	0.695710	0.474950	0.722380
C1151	C115	0.628600	0.468700	0.725600
H1771	H177	0.605600	0.448800	0.692000
C1161	C116	0.596500	0.492500	0.779600
H1781	H178	0.551500	0.488500	0.783300
C1171	C117	0.632300	0.522500	0.828400
H1791	H179	0.611600	0.539000	0.865200
C1181	C118	0.698800	0.527620	0.821670
C1191	C119	0.742260	0.560150	0.871200
O1331	O133	0.799050	0.615790	0.704840
O1341	O134	0.926170	0.551010	0.663640
O1351	O135	0.953650	0.502170	0.831130
O1361	O136	0.828590	0.424770	0.830660
H1801	H180	0.945000	0.524100	0.638000
H1811	H181	0.861200	0.399200	0.830000
H1821	H182	0.940000	0.589700	0.670000
H1831	H183	0.968000	0.537200	0.848000
H1841	H184	0.960000	0.464800	0.848000
H1851	H185	0.813000	0.652200	0.719000
H1861	H186	0.766500	0.612000	0.679000
H1871	H187	0.789800	0.411000	0.825000
Pr181	Pr18	0.356290	0.979680	0.242280
O1371	O137	0.210840	0.084640	0.375710
O1381	O138	0.296380	0.033310	0.332260
O1391	O139	0.217640	0.919680	0.077390
O1401	O140	0.302130	0.935460	0.143920
N181	N18	0.230160	0.995320	0.230890
C1201	C120	0.236820	0.049920	0.333450
C1211	C121	0.195710	0.025050	0.277620
C1221	C122	0.128600	0.031300	0.274400
H1881	H188	0.105600	0.051200	0.308000
C1231	C123	0.096500	0.007500	0.220400
H1891	H189	0.051500	0.011500	0.216700
C1241	C124	0.132300	0.977500	0.171600
H1901	H190	0.111600	0.961000	0.134800
C1251	C125	0.198800	0.972380	0.178330
C1261	C126	0.242260	0.939850	0.128800
O1411	O141	0.299050	0.884210	0.295160
O1421	O142	0.426170	0.948990	0.336360
O1431	O143	0.453650	0.997830	0.168870
O1441	O144	0.328590	0.075230	0.169340
H1911	H191	0.445000	0.975900	0.362000
H1921	H192	0.361200	0.100800	0.170000
H1931	H193	0.440000	0.910300	0.330000
H1941	H194	0.468000	0.962800	0.152000
H1951	H195	0.460000	0.035200	0.152000
H1961	H196	0.313000	0.847800	0.281000
H1971	H197	0.266500	0.888000	0.321000
H1981	H198	0.289800	0.089000	0.175000
Pr191	Pr19	0.643710	0.479680	0.257720
O1451	O145	0.789160	0.584640	0.124290
O1461	O146	0.703620	0.533310	0.167740
O1471	O147	0.782360	0.419680	0.422610
O1481	O148	0.697870	0.435460	0.356080
N191	N19	0.769840	0.495320	0.269110
C1271	C127	0.763180	0.549920	0.166550
C1281	C128	0.804290	0.525050	0.222380
C1291	C129	0.871400	0.531300	0.225600
H1991	H199	0.894400	0.551200	0.192000
C1301	C130	0.903500	0.507500	0.279600
H2001	H200	0.948500	0.511500	0.283300
C1311	C131	0.867700	0.477500	0.328400
H2011	H201	0.888400	0.461000	0.365200
C1321	C132	0.801200	0.472380	0.321670
C1331	C133	0.757740	0.439850	0.371200
O1491	O149	0.700950	0.384210	0.204840
O1501	O150	0.573830	0.448990	0.163640
O1511	O151	0.546350	0.497830	0.331130
O1521	O152	0.671410	0.575230	0.330660
H2021	H202	0.555000	0.475900	0.138000
H2031	H203	0.638800	0.600800	0.330000
H2041	H204	0.560000	0.410300	0.170000
H2051	H205	0.532000	0.462800	0.348000
H2061	H206	0.540000	0.535200	0.348000
H2071	H207	0.687000	0.347800	0.219000
H2081	H208	0.733500	0.388000	0.179000
H2091	H209	0.710200	0.589000	0.325000
Pr201	Pr20	0.143710	0.020320	0.742280
O1531	O153	0.289160	0.915360	0.875710
O1541	O154	0.203620	0.966690	0.832260
O1551	O155	0.282360	0.080320	0.577390
O1561	O156	0.197870	0.064540	0.643920
N201	N20	0.269840	0.004680	0.730890
C1341	C134	0.263180	0.950080	0.833450
C1351	C135	0.304290	0.974950	0.777620
C1361	C136	0.371400	0.968700	0.774400
H2101	H210	0.394400	0.948800	0.808000
C1371	C137	0.403500	0.992500	0.720400
H2111	H211	0.448500	0.988500	0.716700
C1381	C138	0.367700	0.022500	0.671600
H2121	H212	0.388400	0.039000	0.634800
C1391	C139	0.301200	0.027620	0.678330
C1401	C140	0.257740	0.060150	0.628800
O1571	O157	0.200950	0.115790	0.795160
O1581	O158	0.073830	0.051010	0.836360
O1591	O159	0.046350	0.002170	0.668870
O1601	O160	0.171410	0.924770	0.669340
H2131	H213	0.055000	0.024100	0.862000
H2141	H214	0.138800	0.899200	0.670000
H2151	H215	0.060000	0.089700	0.830000
H2161	H216	0.032000	0.037200	0.652000
H2171	H217	0.040000	0.964800	0.652000
H2181	H218	0.187000	0.152200	0.781000
H2191	H219	0.233500	0.112000	0.821000
H2201	H220	0.210200	0.911000	0.675000
Pr211	Pr21	0.757720	0.856290	0.520320
O1611	O161	0.624290	0.710840	0.415360
O1621	O162	0.667740	0.796380	0.466690
O1631	O163	0.922610	0.717640	0.580320
O1641	O164	0.856080	0.802130	0.564540
N211	N21	0.769110	0.730160	0.504680
C1411	C141	0.666550	0.736820	0.450080
C1421	C142	0.722380	0.695710	0.474950
C1431	C143	0.725600	0.628600	0.468700
H2211	H221	0.692000	0.605600	0.448800
C1441	C144	0.779600	0.596500	0.492500
H2221	H222	0.783300	0.551500	0.488500
C1451	C145	0.828400	0.632300	0.522500
H2231	H223	0.865200	0.611600	0.539000
C1461	C146	0.821670	0.698800	0.527620
C1471	C147	0.871200	0.742260	0.560150
O1651	O165	0.704840	0.799050	0.615790
O1661	O166	0.663640	0.926170	0.551010
O1671	O167	0.831130	0.953650	0.502170
O1681	O168	0.830660	0.828590	0.424770
H2241	H224	0.638000	0.945000	0.524100
H2251	H225	0.830000	0.861200	0.399200
H2261	H226	0.670000	0.940000	0.589700
H2271	H227	0.848000	0.968000	0.537200
H2281	H228	0.848000	0.960000	0.464800
H2291	H229	0.719000	0.813000	0.652200
H2301	H230	0.679000	0.766500	0.612000
H2311	H231	0.825000	0.789800	0.411000
Pr221	Pr22	0.242280	0.356290	0.979680
O1691	O169	0.375710	0.210840	0.084640
O1701	O170	0.332260	0.296380	0.033310
O1711	O171	0.077390	0.217640	0.919680
O1721	O172	0.143920	0.302130	0.935460
N221	N22	0.230890	0.230160	0.995320
C1481	C148	0.333450	0.236820	0.049920
C1491	C149	0.277620	0.195710	0.025050
C1501	C150	0.274400	0.128600	0.031300
H2321	H232	0.308000	0.105600	0.051200
C1511	C151	0.220400	0.096500	0.007500
H2331	H233	0.216700	0.051500	0.011500
C1521	C152	0.171600	0.132300	0.977500
H2341	H234	0.134800	0.111600	0.961000
C1531	C153	0.178330	0.198800	0.972380
C1541	C154	0.128800	0.242260	0.939850
O1731	O173	0.295160	0.299050	0.884210
O1741	O174	0.336360	0.426170	0.948990
O1751	O175	0.168870	0.453650	0.997830
O1761	O176	0.169340	0.328590	0.075230
H2351	H235	0.362000	0.445000	0.975900
H2361	H236	0.170000	0.361200	0.100800
H2371	H237	0.330000	0.440000	0.910300
H2381	H238	0.152000	0.468000	0.962800
H2391	H239	0.152000	0.460000	0.035200
H2401	H240	0.281000	0.313000	0.847800
H2411	H241	0.321000	0.266500	0.888000
H2421	H242	0.175000	0.289800	0.089000
Pr231	Pr23	0.257720	0.643710	0.479680
O1771	O177	0.124290	0.789160	0.584640
O1781	O178	0.167740	0.703620	0.533310
O1791	O179	0.422610	0.782360	0.419680
O1801	O180	0.356080	0.697870	0.435460
N231	N23	0.269110	0.769840	0.495320
C1551	C155	0.166550	0.763180	0.549920
C1561	C156	0.222380	0.804290	0.525050
C1571	C157	0.225600	0.871400	0.531300
H2431	H243	0.192000	0.894400	0.551200
C1581	C158	0.279600	0.903500	0.507500
H2441	H244	0.283300	0.948500	0.511500
C1591	C159	0.328400	0.867700	0.477500
H2451	H245	0.365200	0.888400	0.461000
C1601	C160	0.321670	0.801200	0.472380
C1611	C161	0.371200	0.757740	0.439850
O1811	O181	0.204840	0.700950	0.384210
O1821	O182	0.163640	0.573830	0.448990
O1831	O183	0.331130	0.546350	0.497830
O1841	O184	0.330660	0.671410	0.575230
H2461	H246	0.138000	0.555000	0.475900
H2471	H247	0.330000	0.638800	0.600800
H2481	H248	0.170000	0.560000	0.410300
H2491	H249	0.348000	0.532000	0.462800
H2501	H250	0.348000	0.540000	0.535200
H2511	H251	0.219000	0.687000	0.347800
H2521	H252	0.179000	0.733500	0.388000
H2531	H253	0.325000	0.710200	0.589000
Pr241	Pr24	0.742280	0.143710	0.020320
O1851	O185	0.875710	0.289160	0.915360
O1861	O186	0.832260	0.203620	0.966690
O1871	O187	0.577390	0.282360	0.080320
O1881	O188	0.643920	0.197870	0.064540
N241	N24	0.730890	0.269840	0.004680
C1621	C162	0.833450	0.263180	0.950080
C1631	C163	0.777620	0.304290	0.974950
C1641	C164	0.774400	0.371400	0.968700
H2541	H254	0.808000	0.394400	0.948800
C1651	C165	0.720400	0.403500	0.992500
H2551	H255	0.716700	0.448500	0.988500
C1661	C166	0.671600	0.367700	0.022500
H2561	H256	0.634800	0.388400	0.039000
C1671	C167	0.678330	0.301200	0.027620
C1681	C168	0.628800	0.257740	0.060150
O1891	O189	0.795160	0.200950	0.115790
O1901	O190	0.836360	0.073830	0.051010
O1911	O191	0.668870	0.046350	0.002170
O1921	O192	0.669340	0.171410	0.924770
H2571	H257	0.862000	0.055000	0.024100
H2581	H258	0.670000	0.138800	0.899200
H2591	H259	0.830000	0.060000	0.089700
H2601	H260	0.652000	0.032000	0.037200
H2611	H261	0.652000	0.040000	0.964800
H2621	H262	0.781000	0.187000	0.152200
H2631	H263	0.821000	0.233500	0.112000
H2641	H264	0.675000	0.210200	0.911000
