data_ic050064gsi20050115_040515_freeONLY_PM
_symmetry_space_group_name_H-M	'P1'
_cell_length_a	12.531000
_cell_length_b	12.531000
_cell_length_c	18.476000
_cell_angle_alpha	90.000000
_cell_angle_beta	90.000000
_cell_angle_gamma	120.000000
_symmetry_Int_Tables_number 1

loop_
_symmetry_equiv_pos_as_xyz
'x,y,z'

loop_
_atom_site_label
_atom_site_type_symbol
_atom_site_fract_x
_atom_site_fract_y
_atom_site_fract_z
Fe11	Fe1	0.273000	0.492500	0.250000
Fe21	Fe2	0.727000	0.219500	0.750000
Fe31	Fe3	0.219500	0.727000	0.250000
Fe41	Fe4	0.507500	0.780500	0.250000
Fe51	Fe5	0.492500	0.273000	0.750000
Fe61	Fe6	0.780500	0.507500	0.750000
H11	H1	0.724800	0.679600	0.554500
H21	H2	0.275200	0.954800	0.054500
H31	H3	0.361600	0.398700	0.440200
H41	H4	0.037100	0.638400	0.440200
H51	H5	0.679600	0.724800	0.445500
H61	H6	0.601300	0.962900	0.059800
H71	H7	0.367900	0.324800	0.250000
H81	H8	0.398700	0.361600	0.940200
H91	H9	0.601300	0.962900	0.440200
H101	H10	0.679600	0.724800	0.054500
H111	H11	0.037100	0.638400	0.059800
H121	H12	0.275200	0.954800	0.445500
H131	H13	0.361600	0.398700	0.059800
H141	H14	0.043100	0.675200	0.750000
H151	H15	0.954800	0.275200	0.554500
H161	H16	0.320400	0.045200	0.945500
H171	H17	0.962900	0.601300	0.940200
H181	H18	0.324800	0.367900	0.750000
H191	H19	0.954800	0.275200	0.945500
H201	H20	0.675200	0.043100	0.250000
H211	H21	0.962900	0.601300	0.559800
H221	H22	0.956900	0.632100	0.250000
H231	H23	0.045200	0.320400	0.054500
H241	H24	0.398700	0.361600	0.559800
H251	H25	0.045200	0.320400	0.445500
H261	H26	0.320400	0.045200	0.554500
H271	H27	0.632100	0.956900	0.750000
H281	H28	0.638400	0.037100	0.559800
H291	H29	0.638400	0.037100	0.940200
H301	H30	0.724800	0.679600	0.945500
C11	C1	0.431400	0.947900	0.431500
C21	C2	0.091000	0.195000	0.808000
C31	C3	0.976000	0.544000	0.964700
C41	C4	0.716000	0.982000	0.750000
C51	C5	0.484000	0.595000	0.142300
C61	C6	0.909000	0.104000	0.192000
C71	C7	0.483500	0.052100	0.568500
C81	C8	0.767000	0.643000	0.250000
C91	C9	0.124000	0.357000	0.750000
C101	C10	0.483500	0.052100	0.931500
C111	C11	0.432000	0.456000	0.464700
C121	C12	0.025900	0.375400	0.467500
C131	C13	0.876000	0.233000	0.250000
C141	C14	0.805000	0.896000	0.692000
C151	C15	0.976000	0.544000	0.535300
C161	C16	0.091000	0.195000	0.692000
C171	C17	0.568000	0.024000	0.964700
C181	C18	0.104000	0.909000	0.808000
C191	C19	0.974100	0.349500	0.967500
C201	C20	0.024000	0.568000	0.464700
C211	C21	0.516500	0.568600	0.431500
C221	C22	0.624600	0.650500	0.467500
C231	C23	0.018000	0.734000	0.750000
C241	C24	0.974100	0.349500	0.532500
C251	C25	0.266000	0.284000	0.750000
C261	C26	0.624600	0.650500	0.032500
C271	C27	0.516500	0.568600	0.068500
C281	C28	0.024000	0.568000	0.035300
C291	C29	0.595000	0.484000	0.642300
C301	C30	0.233000	0.876000	0.750000
C311	C31	0.025900	0.375400	0.032500
C321	C32	0.432000	0.456000	0.035300
C331	C33	0.516000	0.111000	0.642300
C341	C34	0.104000	0.909000	0.692000
C351	C35	0.909000	0.104000	0.308000
C361	C36	0.947900	0.431400	0.568500
C371	C37	0.982000	0.716000	0.250000
C381	C38	0.484000	0.595000	0.357700
C391	C39	0.595000	0.484000	0.857700
C401	C40	0.431400	0.947900	0.068500
C411	C41	0.111000	0.516000	0.357700
C421	C42	0.349500	0.974100	0.032500
C431	C43	0.284000	0.266000	0.250000
C441	C44	0.643000	0.767000	0.750000
C451	C45	0.947900	0.431400	0.931500
C461	C46	0.375400	0.025900	0.967500
C471	C47	0.734000	0.018000	0.250000
C481	C48	0.889000	0.405000	0.642300
C491	C49	0.375400	0.025900	0.532500
C501	C50	0.456000	0.432000	0.535300
C511	C51	0.195000	0.091000	0.308000
C521	C52	0.544000	0.976000	0.035300
C531	C53	0.568000	0.024000	0.535300
C541	C54	0.896000	0.805000	0.308000
C551	C55	0.405000	0.889000	0.142300
C561	C56	0.805000	0.896000	0.808000
C571	C57	0.052100	0.483500	0.068500
C581	C58	0.052100	0.483500	0.431500
C591	C59	0.405000	0.889000	0.357700
C601	C60	0.896000	0.805000	0.192000
C611	C61	0.650500	0.624600	0.967500
C621	C62	0.544000	0.976000	0.464700
C631	C63	0.456000	0.432000	0.964700
C641	C64	0.195000	0.091000	0.192000
C651	C65	0.568600	0.516500	0.931500
C661	C66	0.516000	0.111000	0.857700
C671	C67	0.650500	0.624600	0.532500
C681	C68	0.889000	0.405000	0.857700
C691	C69	0.349500	0.974100	0.467500
C701	C70	0.111000	0.516000	0.142300
C711	C71	0.357000	0.124000	0.250000
C721	C72	0.568600	0.516500	0.568500
N11	N1	0.845000	0.107000	0.250000
N21	N2	0.107000	0.845000	0.750000
N31	N3	0.738000	0.893000	0.750000
N41	N4	0.262000	0.155000	0.250000
N51	N5	0.155000	0.262000	0.750000
N61	N6	0.893000	0.738000	0.250000
O11	O1	0.691800	0.911800	0.250000
O21	O2	0.301900	0.849900	0.330800
O31	O3	0.494700	0.884100	0.171900
O41	O4	0.610600	0.115900	0.671900
O51	O5	0.115900	0.610600	0.171900
O61	O6	0.150100	0.452000	0.330800
O71	O7	0.505300	0.389400	0.828100
O81	O8	0.150100	0.452000	0.169200
O91	O9	0.115900	0.610600	0.328100
O101	O10	0.452000	0.150100	0.669200
O111	O11	0.698100	0.548000	0.669200
O121	O12	0.911800	0.691800	0.750000
O131	O13	0.494700	0.884100	0.328100
O141	O14	0.849900	0.301900	0.669200
O151	O15	0.301900	0.849900	0.169200
O161	O16	0.308200	0.220000	0.750000
O171	O17	0.884100	0.494700	0.828100
O181	O18	0.666670	0.333340	0.750000
O191	O19	0.548000	0.698100	0.169200
O201	O20	0.389400	0.505300	0.328100
O211	O21	0.505300	0.389400	0.671900
O221	O22	0.610600	0.115900	0.828100
O231	O23	0.389400	0.505300	0.171900
O241	O24	0.698100	0.548000	0.830800
O251	O25	0.884100	0.494700	0.671900
O261	O26	0.452000	0.150100	0.830800
O271	O27	0.849900	0.301900	0.830800
O281	O28	0.548000	0.698100	0.330800
O291	O29	0.220000	0.308200	0.250000
O301	O30	0.780000	0.088200	0.750000
O311	O31	0.333330	0.666660	0.250000
O321	O32	0.088200	0.780000	0.250000
