data_ic0520162si20051122_054836_freeONLY_PM
_symmetry_space_group_name_H-M	'P1'
_cell_length_a	13.243300
_cell_length_b	26.339700
_cell_length_c	26.339700
_cell_angle_alpha	120.000000
_cell_angle_beta	90.000000
_cell_angle_gamma	90.000000
_symmetry_Int_Tables_number 1

loop_
_symmetry_equiv_pos_as_xyz
'x,y,z'

loop_
_atom_site_label
_atom_site_type_symbol
_atom_site_fract_x
_atom_site_fract_y
_atom_site_fract_z
Cd11	Cd1	0.000000	0.841120	0.000000
Cd21	Cd2	0.753760	0.751040	0.502080
Cd31	Cd3	0.248800	0.000000	0.249390
Cd41	Cd4	0.344360	0.333330	0.666660
Cd51	Cd5	0.751200	0.000000	0.249390
Cd61	Cd6	0.753760	0.248970	0.751040
Cd71	Cd7	0.751200	0.000000	0.750610
Cd81	Cd8	0.248800	0.000000	0.750610
Cd91	Cd9	0.000000	0.158880	0.000000
Cd101	Cd10	0.000000	0.000000	0.158880
Cd111	Cd11	0.500000	0.000000	0.341820
Cd121	Cd12	0.500000	0.341820	0.341820
Cd131	Cd13	0.655640	0.333330	0.666660
Cd141	Cd14	0.500000	0.658180	0.000000
Cd151	Cd15	0.500000	0.658180	0.658180
Cd161	Cd16	0.751200	0.750610	0.000000
Cd171	Cd17	0.246240	0.248970	0.751040
Cd181	Cd18	0.246240	0.751040	0.502080
Cd191	Cd19	0.751200	0.249390	0.249390
Cd201	Cd20	0.751200	0.750610	0.750610
Cd211	Cd21	0.753760	0.497930	0.248970
Cd221	Cd22	0.246240	0.248970	0.497930
Cd231	Cd23	0.000000	0.158880	0.158880
Cd241	Cd24	0.753760	0.502070	0.751030
Cd251	Cd25	0.248800	0.249390	0.249390
Cd261	Cd26	0.248800	0.249390	0.000000
Cd271	Cd27	0.500000	0.341820	0.000000
Cd281	Cd28	0.248800	0.750610	0.750610
Cd291	Cd29	0.344360	0.666670	0.333340
Cd301	Cd30	0.000000	0.000000	0.841120
Cd311	Cd31	0.246240	0.497930	0.248970
Cd321	Cd32	0.655640	0.666670	0.333340
Cd331	Cd33	0.248800	0.750610	0.000000
Cd341	Cd34	0.751200	0.249390	0.000000
Cd351	Cd35	0.246240	0.502070	0.751030
Cd361	Cd36	0.000000	0.841120	0.841120
Cd371	Cd37	0.753760	0.248970	0.497930
Cd381	Cd38	0.246240	0.751040	0.248970
Cd391	Cd39	0.753760	0.751040	0.248970
Cd401	Cd40	0.500000	0.000000	0.658180
H11	H1	0.680400	0.867800	0.132200
H21	H2	0.680400	0.264400	0.132200
H31	H3	0.319600	0.132200	0.264400
H41	H4	0.319600	0.735600	0.867800
H51	H5	0.000000	0.727550	0.455100
H61	H6	0.580500	0.678200	0.543600
H71	H7	0.000000	0.455100	0.727550
H81	H8	0.500000	0.453900	0.226950
H91	H9	0.419500	0.678200	0.543600
H101	H10	0.580500	0.321800	0.456400
H111	H11	0.680400	0.735600	0.867800
H121	H12	0.419500	0.543600	0.678200
H131	H13	0.500000	0.773050	0.546100
H141	H14	0.000000	0.544900	0.272450
H151	H15	0.580500	0.865400	0.321800
H161	H16	0.319600	0.867800	0.735600
H171	H17	0.500000	0.226950	0.773050
H181	H18	0.500000	0.773050	0.226950
H191	H19	0.419500	0.865400	0.321800
H201	H20	0.419500	0.321800	0.456400
H211	H21	0.000000	0.272450	0.727550
H221	H22	0.419500	0.456400	0.134600
H231	H23	0.500000	0.226950	0.453900
H241	H24	0.000000	0.727550	0.272450
H251	H25	0.580500	0.543600	0.678200
H261	H26	0.580500	0.456400	0.134600
H271	H27	0.500000	0.546100	0.773050
H281	H28	0.580500	0.134600	0.678200
H291	H29	0.319600	0.867800	0.132200
H301	H30	0.419500	0.678200	0.134600
H311	H31	0.319600	0.264400	0.132200
H321	H32	0.419500	0.543600	0.865400
H331	H33	0.680400	0.132200	0.264400
H341	H34	0.680400	0.132200	0.867800
H351	H35	0.580500	0.865400	0.543600
H361	H36	0.419500	0.865400	0.543600
H371	H37	0.419500	0.134600	0.456400
H381	H38	0.580500	0.321800	0.865400
H391	H39	0.580500	0.543600	0.865400
H401	H40	0.580500	0.678200	0.134600
H411	H41	0.580500	0.134600	0.456400
H421	H42	0.419500	0.321800	0.865400
H431	H43	0.000000	0.272450	0.544900
H441	H44	0.419500	0.134600	0.678200
H451	H45	0.680400	0.867800	0.735600
H461	H46	0.580500	0.456400	0.321800
H471	H47	0.419500	0.456400	0.321800
H481	H48	0.319600	0.132200	0.867800
C11	C1	0.049100	0.000000	0.326500
C21	C2	0.629700	0.304100	0.426200
C31	C3	0.370300	0.304100	0.426200
C41	C4	0.629700	0.573800	0.695900
C51	C5	0.370300	0.122100	0.426200
C61	C6	0.000000	0.748350	0.251650
C71	C7	0.629700	0.877900	0.573800
C81	C8	0.841600	0.562100	0.175600
C91	C9	0.158400	0.175600	0.613500
C101	C10	0.742400	0.121700	0.243400
C111	C11	0.500000	0.247750	0.752250
C121	C12	0.257600	0.121700	0.878300
C131	C13	0.049100	0.673500	0.673500
C141	C14	0.950900	0.000000	0.673500
C151	C15	0.548600	0.172700	0.172700
C161	C16	0.629700	0.304100	0.877900
C171	C17	0.158400	0.613500	0.175600
C181	C18	0.000000	0.503300	0.251650
C191	C19	0.629700	0.122100	0.695900
C201	C20	0.370300	0.695900	0.573800
C211	C21	0.500000	0.752250	0.504500
C221	C22	0.370300	0.573800	0.695900
C231	C23	0.257600	0.121700	0.243400
C241	C24	0.629700	0.877900	0.304100
C251	C25	0.742400	0.121700	0.878300
C261	C26	0.629700	0.122100	0.426200
C271	C27	0.000000	0.496700	0.748350
C281	C28	0.370300	0.877900	0.573800
C291	C29	0.000000	0.251650	0.748350
C301	C30	0.049100	0.000000	0.673500
C311	C31	0.370300	0.426200	0.304100
C321	C32	0.841600	0.175600	0.562100
C331	C33	0.841600	0.613500	0.175600
C341	C34	0.257600	0.243400	0.121700
C351	C35	0.158400	0.562100	0.175600
C361	C36	0.841600	0.437900	0.824400
C371	C37	0.370300	0.304100	0.877900
C381	C38	0.370300	0.122100	0.695900
C391	C39	0.451400	0.172700	0.172700
C401	C40	0.451400	0.827300	0.000000
C411	C41	0.548600	0.172700	0.000000
C421	C42	0.257600	0.878300	0.756600
C431	C43	0.500000	0.504500	0.752250
C441	C44	0.257600	0.878300	0.121700
C451	C45	0.629700	0.573800	0.877900
C461	C46	0.841600	0.613500	0.437900
C471	C47	0.500000	0.495500	0.247750
C481	C48	0.370300	0.877900	0.304100
C491	C49	0.841600	0.175600	0.613500
C501	C50	0.158400	0.437900	0.824400
C511	C51	0.548600	0.827300	0.000000
C521	C52	0.158400	0.613500	0.437900
C531	C53	0.370300	0.695900	0.122100
C541	C54	0.500000	0.752250	0.247750
C551	C55	0.370300	0.573800	0.877900
C561	C56	0.950900	0.000000	0.326500
C571	C57	0.841600	0.824400	0.386500
C581	C58	0.451400	0.827300	0.827300
C591	C59	0.950900	0.673500	0.000000
C601	C60	0.742400	0.878300	0.121700
C611	C61	0.629700	0.426200	0.122100
C621	C62	0.158400	0.437900	0.613500
C631	C63	0.049100	0.326500	0.326500
C641	C64	0.841600	0.386500	0.824400
C651	C65	0.158400	0.175600	0.562100
C661	C66	0.548600	0.000000	0.172700
C671	C67	0.257600	0.756600	0.878300
C681	C68	0.158400	0.824400	0.386500
C691	C69	0.629700	0.426200	0.304100
C701	C70	0.841600	0.386500	0.562100
C711	C71	0.548600	0.000000	0.827300
C721	C72	0.158400	0.386500	0.562100
C731	C73	0.451400	0.172700	0.000000
C741	C74	0.000000	0.251650	0.503300
C751	C75	0.950900	0.673500	0.673500
C761	C76	0.451400	0.000000	0.172700
C771	C77	0.629700	0.695900	0.122100
C781	C78	0.548600	0.827300	0.827300
C791	C79	0.841600	0.824400	0.437900
C801	C80	0.000000	0.748350	0.496700
C811	C81	0.742400	0.878300	0.756600
C821	C82	0.158400	0.824400	0.437900
C831	C83	0.950900	0.326500	0.326500
C841	C84	0.451400	0.000000	0.827300
C851	C85	0.370300	0.426200	0.122100
C861	C86	0.049100	0.326500	0.000000
C871	C87	0.742400	0.756600	0.878300
C881	C88	0.841600	0.437900	0.613500
C891	C89	0.742400	0.243400	0.121700
C901	C90	0.841600	0.562100	0.386500
C911	C91	0.158400	0.386500	0.824400
C921	C92	0.950900	0.326500	0.000000
C931	C93	0.500000	0.247750	0.495500
C941	C94	0.629700	0.695900	0.573800
C951	C95	0.158400	0.562100	0.386500
C961	C96	0.049100	0.673500	0.000000
N11	N1	0.872400	0.801700	0.875900
N21	N2	0.049200	0.207150	0.414300
N31	N3	0.753200	0.624700	0.249400
N41	N4	0.950800	0.792850	0.585700
N51	N5	0.213400	0.569700	0.347900
N61	N6	0.418400	0.220900	0.000000
N71	N7	0.710500	0.847700	0.276300
N81	N8	0.246800	0.249400	0.624700
N91	N9	0.626500	0.071700	0.375700
N101	N10	0.208300	0.927700	0.773400
N111	N11	0.872400	0.198300	0.074200
N121	N12	0.581600	0.000000	0.779100
N131	N13	0.549600	0.708150	0.291850
N141	N14	0.791700	0.845700	0.773400
N151	N15	0.918800	0.530100	0.765050
N161	N16	0.208300	0.773400	0.845700
N171	N17	0.127600	0.801700	0.875900
N181	N18	0.000000	0.749500	0.749500
N191	N19	0.245100	0.878800	0.255900
N201	N20	0.213400	0.652100	0.221800
N211	N21	0.626500	0.304000	0.375700
N221	N22	0.706400	0.928400	0.272600
N231	N23	0.786600	0.221800	0.652100
N241	N24	0.918600	0.278300	0.000000
N251	N25	0.049200	0.792850	0.585700
N261	N26	0.208300	0.845700	0.773400
N271	N27	0.293600	0.655800	0.928400
N281	N28	0.208300	0.072300	0.845700
N291	N29	0.208300	0.072300	0.226600
N301	N30	0.293600	0.344200	0.272600
N311	N31	0.417600	0.736200	0.472400
N321	N32	0.000000	0.250500	0.250500
N331	N33	0.289500	0.428600	0.152300
N341	N34	0.293600	0.655800	0.727400
N351	N35	0.582400	0.736200	0.472400
N361	N36	0.373500	0.696000	0.624300
N371	N37	0.791700	0.226600	0.072300
N381	N38	0.754900	0.878800	0.622900
N391	N39	0.791700	0.226600	0.154300
N401	N40	0.049200	0.792850	0.207150
N411	N41	0.246800	0.624700	0.375300
N421	N42	0.791700	0.845700	0.072300
N431	N43	0.373500	0.624300	0.928300
N441	N44	0.754900	0.878800	0.255900
N451	N45	0.918600	0.278300	0.278300
N461	N46	0.373500	0.071700	0.375700
N471	N47	0.450400	0.291850	0.708150
N481	N48	0.213400	0.221800	0.652100
N491	N49	0.293600	0.344200	0.071600
N501	N50	0.127600	0.875900	0.801700
N511	N51	0.582400	0.263800	0.736200
N521	N52	0.626500	0.304000	0.928300
N531	N53	0.918600	0.721700	0.000000
N541	N54	0.950800	0.414300	0.207150
N551	N55	0.418400	0.220900	0.220900
N561	N56	0.950800	0.207150	0.792850
N571	N57	0.246800	0.375300	0.624700
N581	N58	0.127600	0.925800	0.124100
N591	N59	0.373500	0.928300	0.304000
N601	N60	0.710500	0.276300	0.428600
N611	N61	0.289500	0.428600	0.276300
N621	N62	0.872400	0.124100	0.198300
N631	N63	0.626500	0.928300	0.304000
N641	N64	0.754900	0.255900	0.878800
N651	N65	0.373500	0.304000	0.375700
N661	N66	0.581600	0.000000	0.220900
N671	N67	0.549600	0.416300	0.708150
N681	N68	0.706400	0.344200	0.272600
N691	N69	0.127600	0.875900	0.074200
N701	N70	0.754900	0.377100	0.121200
N711	N71	0.208300	0.927700	0.154300
N721	N72	0.710500	0.276300	0.847700
N731	N73	0.500000	0.749400	0.749400
N741	N74	0.786600	0.778200	0.347900
N751	N75	0.450400	0.416300	0.708150
N761	N76	0.293600	0.272600	0.344200
N771	N77	0.791700	0.072300	0.845700
N781	N78	0.753200	0.624700	0.375300
N791	N79	0.213400	0.347900	0.778200
N801	N80	0.872400	0.124100	0.925800
N811	N81	0.918800	0.765050	0.234950
N821	N82	0.791700	0.773400	0.845700
N831	N83	0.289500	0.723700	0.152300
N841	N84	0.208300	0.226600	0.154300
N851	N85	0.246800	0.624700	0.249400
N861	N86	0.549600	0.583700	0.291850
N871	N87	0.289500	0.847700	0.571400
N881	N88	0.049200	0.414300	0.207150
N891	N89	0.786600	0.778200	0.430300
N901	N90	0.081400	0.278300	0.000000
N911	N91	0.918600	0.000000	0.278300
N921	N92	0.289500	0.152300	0.723700
N931	N93	0.245100	0.377100	0.121200
N941	N94	0.626500	0.624300	0.696000
N951	N95	0.373500	0.304000	0.928300
N961	N96	0.950800	0.207150	0.414300
N971	N97	0.754900	0.121200	0.744100
N981	N98	0.710500	0.571400	0.723700
N991	N99	0.872400	0.074200	0.198300
N1001	N100	0.213400	0.430300	0.778200
N1011	N101	0.213400	0.221800	0.569700
N1021	N102	0.000000	0.000000	0.250500
N1031	N103	0.289500	0.847700	0.276300
N1041	N104	0.289500	0.571400	0.847700
N1051	N105	0.213400	0.347900	0.569700
N1061	N106	0.626500	0.696000	0.624300
N1071	N107	0.626500	0.928300	0.624300
N1081	N108	0.208300	0.226600	0.072300
N1091	N109	0.000000	0.000000	0.749500
N1101	N110	0.500000	0.250600	0.000000
N1111	N111	0.754900	0.744100	0.622900
N1121	N112	0.706400	0.928400	0.655800
N1131	N113	0.500000	0.000000	0.749400
N1141	N114	0.417600	0.263800	0.527600
N1151	N115	0.208300	0.773400	0.927700
N1161	N116	0.127600	0.198300	0.074200
N1171	N117	0.753200	0.375300	0.624700
N1181	N118	0.081200	0.234950	0.765050
N1191	N119	0.786600	0.430300	0.778200
N1201	N120	0.753200	0.750600	0.375300
N1211	N121	0.213400	0.569700	0.221800
N1221	N122	0.245100	0.121200	0.377100
N1231	N123	0.081400	0.000000	0.278300
N1241	N124	0.245100	0.878800	0.622900
N1251	N125	0.000000	0.749500	0.000000
N1261	N126	0.786600	0.569700	0.347900
N1271	N127	0.872400	0.198300	0.124100
N1281	N128	0.582400	0.263800	0.527600
N1291	N129	0.289500	0.571400	0.723700
N1301	N130	0.293600	0.928400	0.655800
N1311	N131	0.950800	0.585700	0.792850
N1321	N132	0.245100	0.744100	0.622900
N1331	N133	0.791700	0.927700	0.154300
N1341	N134	0.373500	0.624300	0.696000
N1351	N135	0.373500	0.071700	0.696000
N1361	N136	0.289500	0.723700	0.571400
N1371	N137	0.245100	0.622900	0.744100
N1381	N138	0.549600	0.291850	0.708150
N1391	N139	0.127600	0.124100	0.925800
N1401	N140	0.127600	0.124100	0.198300
N1411	N141	0.127600	0.801700	0.925800
N1421	N142	0.791700	0.072300	0.226600
N1431	N143	0.706400	0.344200	0.071600
N1441	N144	0.918600	0.000000	0.721700
N1451	N145	0.293600	0.272600	0.928400
N1461	N146	0.710500	0.152300	0.723700
N1471	N147	0.245100	0.622900	0.878800
N1481	N148	0.710500	0.847700	0.571400
N1491	N149	0.872400	0.074200	0.875900
N1501	N150	0.626500	0.624300	0.928300
N1511	N151	0.417600	0.527600	0.263800
N1521	N152	0.786600	0.569700	0.221800
N1531	N153	0.373500	0.696000	0.071700
N1541	N154	0.918800	0.234950	0.469900
N1551	N155	0.417600	0.263800	0.736200
N1561	N156	0.791700	0.927700	0.773400
N1571	N157	0.872400	0.875900	0.074200
N1581	N158	0.081200	0.765050	0.530100
N1591	N159	0.918600	0.721700	0.721700
N1601	N160	0.582400	0.472400	0.736200
N1611	N161	0.289500	0.276300	0.847700
N1621	N162	0.754900	0.622900	0.744100
N1631	N163	0.081200	0.765050	0.234950
N1641	N164	0.450400	0.708150	0.291850
N1651	N165	0.754900	0.377100	0.255900
N1661	N166	0.710500	0.428600	0.276300
N1671	N167	0.872400	0.925800	0.801700
N1681	N168	0.706400	0.272600	0.344200
N1691	N169	0.872400	0.875900	0.801700
N1701	N170	0.549600	0.291850	0.583700
N1711	N171	0.417600	0.736200	0.263800
N1721	N172	0.918800	0.765050	0.530100
N1731	N173	0.872400	0.925800	0.124100
N1741	N174	0.786600	0.652100	0.221800
N1751	N175	0.081200	0.234950	0.469900
N1761	N176	0.213400	0.778200	0.347900
N1771	N177	0.706400	0.272600	0.928400
N1781	N178	0.081400	0.000000	0.721700
N1791	N179	0.289500	0.276300	0.428600
N1801	N180	0.581600	0.220900	0.220900
N1811	N181	0.245100	0.744100	0.121200
N1821	N182	0.373500	0.928300	0.624300
N1831	N183	0.706400	0.655800	0.727400
N1841	N184	0.753200	0.375300	0.750600
N1851	N185	0.582400	0.527600	0.263800
N1861	N186	0.245100	0.255900	0.377100
N1871	N187	0.710500	0.723700	0.152300
N1881	N188	0.706400	0.727400	0.071600
N1891	N189	0.293600	0.928400	0.272600
N1901	N190	0.753200	0.249400	0.624700
N1911	N191	0.626500	0.696000	0.071700
N1921	N192	0.127600	0.925800	0.801700
N1931	N193	0.500000	0.250600	0.250600
N1941	N194	0.710500	0.723700	0.571400
N1951	N195	0.706400	0.071600	0.727400
N1961	N196	0.581600	0.779100	0.000000
N1971	N197	0.786600	0.652100	0.430300
N1981	N198	0.754900	0.121200	0.377100
N1991	N199	0.213400	0.778200	0.430300
N2001	N200	0.418400	0.779100	0.000000
N2011	N201	0.245100	0.121200	0.744100
N2021	N202	0.706400	0.655800	0.928400
N2031	N203	0.710500	0.428600	0.152300
N2041	N204	0.245100	0.255900	0.878800
N2051	N205	0.582400	0.736200	0.263800
N2061	N206	0.373500	0.375700	0.304000
N2071	N207	0.127600	0.198300	0.124100
N2081	N208	0.626500	0.071700	0.696000
N2091	N209	0.373500	0.375700	0.071700
N2101	N210	0.786600	0.347900	0.778200
N2111	N211	0.049200	0.585700	0.792850
N2121	N212	0.293600	0.071600	0.344200
N2131	N213	0.049200	0.207150	0.792850
N2141	N214	0.213400	0.652100	0.430300
N2151	N215	0.293600	0.071600	0.727400
N2161	N216	0.417600	0.472400	0.736200
N2171	N217	0.450400	0.708150	0.416300
N2181	N218	0.213400	0.430300	0.652100
N2191	N219	0.418400	0.000000	0.779100
N2201	N220	0.293600	0.727400	0.071600
N2211	N221	0.246800	0.750600	0.375300
N2221	N222	0.754900	0.744100	0.121200
N2231	N223	0.127600	0.074200	0.875900
N2241	N224	0.081200	0.469900	0.234950
N2251	N225	0.081400	0.721700	0.721700
N2261	N226	0.710500	0.152300	0.428600
N2271	N227	0.786600	0.347900	0.569700
N2281	N228	0.872400	0.801700	0.925800
N2291	N229	0.549600	0.708150	0.416300
N2301	N230	0.081400	0.721700	0.000000
N2311	N231	0.500000	0.000000	0.250600
N2321	N232	0.208300	0.154300	0.226600
N2331	N233	0.918800	0.469900	0.234950
N2341	N234	0.081200	0.530100	0.765050
N2351	N235	0.418400	0.779100	0.779100
N2361	N236	0.786600	0.430300	0.652100
N2371	N237	0.791700	0.154300	0.927700
N2381	N238	0.081400	0.278300	0.278300
N2391	N239	0.626500	0.375700	0.304000
N2401	N240	0.293600	0.727400	0.655800
N2411	N241	0.581600	0.779100	0.779100
N2421	N242	0.786600	0.221800	0.569700
N2431	N243	0.754900	0.622900	0.878800
N2441	N244	0.450400	0.291850	0.583700
N2451	N245	0.000000	0.250500	0.000000
N2461	N246	0.754900	0.255900	0.377100
N2471	N247	0.626500	0.375700	0.071700
N2481	N248	0.710500	0.571400	0.847700
N2491	N249	0.791700	0.773400	0.927700
N2501	N250	0.500000	0.749400	0.000000
N2511	N251	0.246800	0.375300	0.750600
N2521	N252	0.706400	0.071600	0.344200
N2531	N253	0.208300	0.845700	0.072300
N2541	N254	0.208300	0.154300	0.927700
N2551	N255	0.918800	0.234950	0.765050
N2561	N256	0.450400	0.583700	0.291850
N2571	N257	0.127600	0.074200	0.198300
N2581	N258	0.418400	0.000000	0.220900
N2591	N259	0.791700	0.154300	0.226600
N2601	N260	0.245100	0.377100	0.255900
N2611	N261	0.706400	0.727400	0.655800
N2621	N262	0.581600	0.220900	0.000000
N2631	N263	0.289500	0.152300	0.428600
N2641	N264	0.950800	0.792850	0.207150
O11	O1	0.500000	0.431000	0.431000
O21	O2	0.500000	0.569000	0.000000
O31	O3	0.000000	0.000000	0.932000
O41	O4	0.500000	0.000000	0.431000
O51	O5	0.000000	0.932000	0.932000
O61	O6	0.500000	0.569000	0.569000
O71	O7	0.000000	0.068000	0.000000
O81	O8	0.500000	0.000000	0.569000
O91	O9	0.500000	0.431000	0.000000
O101	O10	0.000000	0.932000	0.000000
O111	O11	0.000000	0.000000	0.068000
O121	O12	0.000000	0.068000	0.068000
