data_ic051143vsi20050711_050730_freeONLY_PM
_symmetry_space_group_name_H-M	'P1'
_cell_length_a	9.765100
_cell_length_b	9.765100
_cell_length_c	11.328000
_cell_angle_alpha	104.578000
_cell_angle_beta	104.578000
_cell_angle_gamma	94.340800
_symmetry_Int_Tables_number 1

loop_
_symmetry_equiv_pos_as_xyz
'x,y,z'

loop_
_atom_site_label
_atom_site_type_symbol
_atom_site_fract_x
_atom_site_fract_y
_atom_site_fract_z
Na11	Na1	0.000000	0.000000	0.000000
Na21	Na2	0.000000	0.000000	0.500000
Zn11	Zn1	0.885030	0.114970	0.750000
Zn21	Zn2	0.114970	0.885030	0.250000
H11	H1	0.753000	0.501400	0.288200
H21	H2	0.501400	0.753000	0.788200
H31	H3	0.247000	0.498600	0.711800
H41	H4	0.730200	0.787000	0.923000
H51	H5	0.787400	0.309200	0.369800
H61	H6	0.878500	0.570100	0.721700
H71	H7	0.570100	0.878500	0.221700
H81	H8	0.429900	0.121500	0.778300
H91	H9	0.212600	0.690800	0.630200
H101	H10	0.690800	0.212600	0.130200
H111	H11	0.121500	0.429900	0.278300
H121	H12	0.787000	0.730200	0.423000
H131	H13	0.309200	0.787400	0.869800
H141	H14	0.213000	0.269800	0.577000
H151	H15	0.498600	0.247000	0.211800
H161	H16	0.269800	0.213000	0.077000
C11	C1	0.420300	0.836500	0.053400
C21	C2	0.141900	0.705700	0.394700
C31	C3	0.515700	0.779700	0.875700
C41	C4	0.579700	0.163500	0.946600
C51	C5	0.705700	0.141900	0.894700
C61	C6	0.220300	0.484300	0.624300
C71	C7	0.200600	0.347400	0.543800
C81	C8	0.443300	0.145300	0.865700
C91	C9	0.136800	0.178600	0.323300
C101	C10	0.652600	0.799400	0.956200
C111	C11	0.799300	0.400700	0.424500
C121	C12	0.821400	0.863200	0.176700
C131	C13	0.200700	0.599300	0.575500
C141	C14	0.326200	0.162200	0.913500
C151	C15	0.599300	0.200700	0.075500
C161	C16	0.294300	0.858100	0.105300
C171	C17	0.556700	0.854700	0.134300
C181	C18	0.178600	0.136800	0.823300
C191	C19	0.400700	0.799300	0.924500
C201	C20	0.145300	0.443300	0.365700
C211	C21	0.799400	0.652600	0.456200
C221	C22	0.779700	0.515700	0.375700
C231	C23	0.162200	0.326200	0.413500
C241	C24	0.863200	0.821400	0.676700
C251	C25	0.836500	0.420300	0.553400
C261	C26	0.837800	0.673800	0.586500
C271	C27	0.347400	0.200600	0.043800
C281	C28	0.854700	0.556700	0.634300
C291	C29	0.673800	0.837800	0.086500
C301	C30	0.858100	0.294300	0.605300
C311	C31	0.484300	0.220300	0.124300
C321	C32	0.163500	0.579700	0.446600
O11	O1	0.313800	0.886400	0.223500
O21	O2	0.856540	0.924580	0.625500
O31	O3	0.173700	0.844500	0.031500
O41	O4	0.826300	0.155500	0.968500
O51	O5	0.686200	0.113600	0.776500
O61	O6	0.112600	0.162600	0.208400
O71	O7	0.113600	0.686200	0.276500
O81	O8	0.844500	0.173700	0.531500
O91	O9	0.143460	0.075420	0.374500
O101	O10	0.886400	0.313800	0.723500
O111	O11	0.162600	0.112600	0.708400
O121	O12	0.155500	0.826300	0.468500
O131	O13	0.075420	0.143460	0.874500
O141	O14	0.887400	0.837400	0.791600
O151	O15	0.837400	0.887400	0.291600
O161	O16	0.924580	0.856540	0.125500
