data_ic060771psi20060614_113937_freeONLY_PM
_symmetry_space_group_name_H-M	'P1'
_cell_length_a	7.047900
_cell_length_b	15.307000
_cell_length_c	17.537000
_cell_angle_alpha	90.000000
_cell_angle_beta	90.000000
_cell_angle_gamma	90.000000
_symmetry_Int_Tables_number 1

loop_
_symmetry_equiv_pos_as_xyz
'x,y,z'

loop_
_atom_site_label
_atom_site_type_symbol
_atom_site_fract_x
_atom_site_fract_y
_atom_site_fract_z
V11	V1	0.754490	0.250000	0.750000
V21	V2	0.254490	0.250000	0.250000
V31	V3	0.500000	0.000000	0.500000
V41	V4	0.745510	0.750000	0.750000
V51	V5	0.000000	0.500000	0.000000
V61	V6	0.500000	0.500000	0.000000
V71	V7	0.245510	0.750000	0.250000
V81	V8	0.000000	0.000000	0.500000
P11	P1	0.244580	0.635210	0.099540
P21	P2	0.755420	0.364790	0.900460
P31	P3	0.244580	0.864790	0.400460
P41	P4	0.255420	0.364790	0.099540
P51	P5	0.744580	0.864790	0.599540
P61	P6	0.744580	0.635210	0.900460
P71	P7	0.255420	0.135210	0.400460
P81	P8	0.755420	0.135210	0.599540
H11	H1	0.551100	0.249900	0.577700
H21	H2	0.948900	0.750100	0.577700
H31	H3	0.663000	0.231000	0.288000
H41	H4	0.250000	0.500000	0.904000
H51	H5	0.051100	0.249900	0.422300
H61	H6	0.663000	0.269000	0.212000
H71	H7	0.750000	0.500000	0.096000
H81	H8	0.314500	0.762300	0.492400
H91	H9	0.750000	0.000000	0.404000
H101	H10	0.685500	0.262300	0.992400
H111	H11	0.948900	0.749900	0.922300
H121	H12	0.163000	0.231000	0.712000
H131	H13	0.337000	0.769000	0.712000
H141	H14	0.051100	0.250100	0.077700
H151	H15	0.814500	0.762300	0.507600
H161	H16	0.185500	0.262300	0.007600
H171	H17	0.837000	0.731000	0.212000
H181	H18	0.814500	0.737700	0.992400
H191	H19	0.448900	0.749900	0.077700
H201	H20	0.314500	0.737700	0.007600
H211	H21	0.685500	0.237700	0.507600
H221	H22	0.551100	0.250100	0.922300
H231	H23	0.448900	0.750100	0.422300
H241	H24	0.163000	0.269000	0.788000
H251	H25	0.337000	0.731000	0.788000
H261	H26	0.837000	0.769000	0.288000
H271	H27	0.185500	0.237700	0.492400
H281	H28	0.250000	0.000000	0.596000
C11	C1	0.798000	0.317000	0.588500
C21	C2	0.702000	0.683000	0.588500
C31	C3	0.702000	0.817000	0.911500
C41	C4	0.298000	0.317000	0.411500
C51	C5	0.298000	0.183000	0.088500
C61	C6	0.181900	0.240100	0.437200
C71	C7	0.318100	0.759900	0.437200
C81	C8	0.181900	0.259900	0.062800
C91	C9	0.202000	0.683000	0.411500
C101	C10	0.818100	0.759900	0.562800
C111	C11	0.318100	0.740100	0.062800
C121	C12	0.818100	0.740100	0.937200
C131	C13	0.681900	0.259900	0.937200
C141	C14	0.681900	0.240100	0.562800
C151	C15	0.798000	0.183000	0.911500
C161	C16	0.202000	0.817000	0.088500
O11	O1	0.566200	0.892530	0.556230
O21	O2	0.799000	0.353810	0.816120
O31	O3	0.250000	0.500000	0.957100
O41	O4	0.027400	0.250000	0.250000
O51	O5	0.933800	0.107470	0.556230
O61	O6	0.566200	0.607470	0.943770
O71	O7	0.472600	0.750000	0.250000
O81	O8	0.687800	0.669900	0.661500
O91	O9	0.918100	0.750000	0.250000
O101	O10	0.418100	0.750000	0.750000
O111	O11	0.872800	0.134100	0.957500
O121	O12	0.312200	0.169900	0.161500
O131	O13	0.872800	0.365900	0.542500
O141	O14	0.372800	0.365900	0.457500
O151	O15	0.701000	0.853810	0.683880
O161	O16	0.081900	0.250000	0.750000
O171	O17	0.299000	0.353810	0.183880
O181	O18	0.933800	0.392530	0.943770
O191	O19	0.299000	0.146190	0.316120
O201	O20	0.201000	0.646190	0.183880
O211	O21	0.812200	0.330100	0.661500
O221	O22	0.433800	0.107470	0.443770
O231	O23	0.127200	0.865900	0.042500
O241	O24	0.799000	0.146190	0.683880
O251	O25	0.687800	0.830100	0.838500
O261	O26	0.201000	0.853810	0.316120
O271	O27	0.372800	0.134100	0.042500
O281	O28	0.127200	0.634100	0.457500
O291	O29	0.627200	0.865900	0.957500
O301	O30	0.590200	0.072940	0.586270
O311	O31	0.409800	0.927060	0.413730
O321	O32	0.250000	0.000000	0.542900
O331	O33	0.581900	0.250000	0.250000
O341	O34	0.066200	0.607470	0.056230
O351	O35	0.750000	0.000000	0.457100
O361	O36	0.409800	0.572940	0.086270
O371	O37	0.972600	0.750000	0.750000
O381	O38	0.187800	0.669900	0.338500
O391	O39	0.701000	0.646190	0.816120
O401	O40	0.590200	0.427060	0.913730
O411	O41	0.909800	0.572940	0.913730
O421	O42	0.090200	0.427060	0.086270
O431	O43	0.527400	0.250000	0.750000
O441	O44	0.312200	0.330100	0.338500
O451	O45	0.066200	0.892530	0.443770
O461	O46	0.090200	0.072940	0.413730
O471	O47	0.750000	0.500000	0.042900
O481	O48	0.812200	0.169900	0.838500
O491	O49	0.909800	0.927060	0.586270
O501	O50	0.187800	0.830100	0.161500
O511	O51	0.433800	0.392530	0.056230
O521	O52	0.627200	0.634100	0.542500
