data_ic060608urom20060410_101638_freeONLY_PM
_symmetry_space_group_name_H-M	'P1'
_cell_length_a	8.854000
_cell_length_b	9.815000
_cell_length_c	13.474000
_cell_angle_alpha	90.000000
_cell_angle_beta	90.000000
_cell_angle_gamma	98.523000
_symmetry_Int_Tables_number 1

loop_
_symmetry_equiv_pos_as_xyz
'x,y,z'

loop_
_atom_site_label
_atom_site_type_symbol
_atom_site_fract_x
_atom_site_fract_y
_atom_site_fract_z
Zn11	Zn1	0.362990	0.424260	0.640380
Zn21	Zn2	0.637010	0.075740	0.140380
Zn31	Zn3	0.362990	0.924260	0.859620
Zn41	Zn4	0.637010	0.575740	0.359620
P11	P1	0.297810	0.503450	0.418590
P21	P2	0.702190	0.996550	0.918590
P31	P3	0.702190	0.496550	0.581410
P41	P4	0.297810	0.003450	0.081410
P51	P5	0.771910	0.317140	0.280690
P61	P6	0.228090	0.682860	0.719310
P71	P7	0.771910	0.817140	0.219310
P81	P8	0.228090	0.182860	0.780690
H11	H1	0.871100	0.972300	0.792700
H21	H2	0.960200	0.010100	0.891900
H31	H3	0.060000	0.260600	0.374900
H41	H4	0.987600	0.849500	0.316500
H51	H5	0.179900	0.290800	0.289200
H61	H6	0.060000	0.760600	0.125100
H71	H7	0.012400	0.650500	0.816500
H81	H8	0.940000	0.739400	0.625100
H91	H9	0.128900	0.027700	0.207300
H101	H10	0.039800	0.989900	0.108100
H111	H11	0.039800	0.489900	0.391900
H121	H12	0.710000	0.340400	0.487800
H131	H13	0.046300	0.304000	0.718000
H141	H14	0.987600	0.349500	0.183500
H151	H15	0.940000	0.239400	0.874900
H161	H16	0.953700	0.196000	0.218000
H171	H17	0.960200	0.510100	0.608100
H181	H18	0.871100	0.472300	0.707300
H191	H19	0.290000	0.659600	0.512200
H201	H20	0.179900	0.790800	0.210800
H211	H21	0.820100	0.209200	0.789200
H221	H22	0.710000	0.840400	0.012200
H231	H23	0.128900	0.527700	0.292700
H241	H24	0.953700	0.696000	0.282000
H251	H25	0.820100	0.709200	0.710800
H261	H26	0.046300	0.804000	0.782000
H271	H27	0.012400	0.150500	0.683500
H281	H28	0.290000	0.159600	0.987800
C11	C1	0.877100	0.531600	0.649390
C21	C2	0.912100	0.182000	0.817170
C31	C3	0.040400	0.709400	0.759600
C41	C4	0.959600	0.790600	0.259600
C51	C5	0.912100	0.682000	0.682830
C61	C6	0.122900	0.968400	0.149390
C71	C7	0.959600	0.290600	0.240400
C81	C8	0.877100	0.031600	0.850610
C91	C9	0.122900	0.468400	0.350610
C101	C10	0.087900	0.318000	0.317170
C111	C11	0.040400	0.209400	0.740400
C121	C12	0.087900	0.818000	0.182830
O11	O1	0.710370	0.095340	0.005230
O21	O2	0.573830	0.007860	0.846120
O31	O3	0.314200	0.657000	0.453600
O41	O4	0.735050	0.742680	0.121030
O51	O5	0.337870	0.240420	0.697170
O61	O6	0.685800	0.843000	0.953600
O71	O7	0.662130	0.759580	0.302830
O81	O8	0.264950	0.757320	0.621030
O91	O9	0.337870	0.740420	0.802830
O101	O10	0.573830	0.507860	0.653880
O111	O11	0.426170	0.492140	0.346120
O121	O12	0.426170	0.992140	0.153880
O131	O13	0.264950	0.257320	0.878970
O141	O14	0.289630	0.904660	0.994770
O151	O15	0.314200	0.157000	0.046400
O161	O16	0.685800	0.343000	0.546400
O171	O17	0.770530	0.472220	0.287510
O181	O18	0.229470	0.027780	0.787510
O191	O19	0.289630	0.404660	0.505230
O201	O20	0.770530	0.972220	0.212490
O211	O21	0.662130	0.259580	0.197170
O221	O22	0.229470	0.527780	0.712490
O231	O23	0.710370	0.595340	0.494770
O241	O24	0.735050	0.242680	0.378970
