data_ic101789u_si_002_freeONLY_PM
_symmetry_space_group_name_H-M	'P1'
_cell_length_a	17.286800
_cell_length_b	17.286800
_cell_length_c	17.286800
_cell_angle_alpha	109.471000
_cell_angle_beta	109.471000
_cell_angle_gamma	109.471000
_symmetry_Int_Tables_number 1

loop_
_symmetry_equiv_pos_as_xyz
'x,y,z'

loop_
_atom_site_label
_atom_site_type_symbol
_atom_site_fract_x
_atom_site_fract_y
_atom_site_fract_z
Ga11	Ga1	0.375000	0.750000	0.125000
Ga21	Ga2	0.125000	0.250000	0.375000
Ga31	Ga3	0.750000	0.625000	0.875000
Ga41	Ga4	0.625000	0.375000	0.250000
Ga51	Ga5	0.250000	0.875000	0.625000
Ga61	Ga6	0.875000	0.125000	0.750000
H11	H1	0.040900	0.020400	0.673100
H21	H2	0.540900	0.673100	0.020400
H31	H3	0.959100	0.979500	0.132200
H41	H4	0.673100	0.520400	0.040900
H51	H5	0.459100	0.132200	0.979500
H61	H6	0.152700	0.520500	0.479600
H71	H7	0.847300	0.367800	0.826900
H81	H8	0.520400	0.540900	0.173100
H91	H9	0.479500	0.459100	0.632200
H101	H10	0.132200	0.479500	0.959100
H111	H11	0.347300	0.826900	0.367800
H121	H12	0.979600	0.152700	0.020500
H131	H13	0.173100	0.040900	0.520400
H141	H14	0.020500	0.652700	0.979600
H151	H15	0.652700	0.479600	0.520500
H161	H16	0.632200	0.959100	0.479500
H171	H17	0.979500	0.632200	0.459100
H181	H18	0.520500	0.979600	0.652700
H191	H19	0.367800	0.326900	0.347300
H201	H20	0.326900	0.847300	0.867800
H211	H21	0.867800	0.347300	0.326900
H221	H22	0.020400	0.173100	0.540900
H231	H23	0.826900	0.867800	0.847300
H241	H24	0.479600	0.020500	0.152700
C11	C1	0.873010	0.021570	0.835340
C21	C2	0.164660	0.686230	0.537670
C31	C3	0.635680	0.544840	0.057300
C41	C4	0.024040	0.102650	0.613690
C51	C5	0.057300	0.044840	0.635680
C61	C6	0.364320	0.909160	0.921620
C71	C7	0.864320	0.921620	0.909160
C81	C8	0.011040	0.421390	0.397350
C91	C9	0.021570	0.335340	0.373010
C101	C10	0.186230	0.664660	0.037670
C111	C11	0.335340	0.873010	0.521570
C121	C12	0.835340	0.521570	0.873010
C131	C13	0.037670	0.164660	0.186230
C141	C14	0.648560	0.626990	0.962330
C151	C15	0.126990	0.148560	0.462330
C161	C16	0.975960	0.078610	0.089650
C171	C17	0.537670	0.186230	0.164660
C181	C18	0.851440	0.813770	0.978430
C191	C19	0.921390	0.511040	0.897350
C201	C20	0.386310	0.988960	0.910350
C211	C21	0.462330	0.648560	0.126990
C221	C22	0.910350	0.488960	0.386310
C231	C23	0.512460	0.955160	0.590840
C241	C24	0.148560	0.962330	0.626990
C251	C25	0.921620	0.409160	0.364320
C261	C26	0.373010	0.835340	0.021570
C271	C27	0.078380	0.487540	0.942700
C281	C28	0.313770	0.351440	0.478430
C291	C29	0.421390	0.897350	0.511040
C301	C30	0.351440	0.978430	0.813770
C311	C31	0.886310	0.910350	0.988960
C321	C32	0.044840	0.135680	0.557300
C331	C33	0.978430	0.313770	0.851440
C341	C34	0.102650	0.113690	0.524040
C351	C35	0.557300	0.635680	0.044840
C361	C36	0.478430	0.851440	0.313770
C371	C37	0.113690	0.024040	0.602650
C381	C38	0.544840	0.557300	0.135680
C391	C39	0.397350	0.921390	0.011040
C401	C40	0.455160	0.012460	0.090840
C411	C41	0.686230	0.037670	0.664660
C421	C42	0.962330	0.126990	0.648560
C431	C43	0.475960	0.089650	0.078610
C441	C44	0.613690	0.602650	0.024040
C451	C45	0.626990	0.462330	0.148560
C461	C46	0.090840	0.512460	0.455160
C471	C47	0.813770	0.478430	0.351440
C481	C48	0.487540	0.442700	0.578380
C491	C49	0.590840	0.455160	0.512460
C501	C50	0.410350	0.386310	0.488960
C511	C51	0.988960	0.410350	0.886310
C521	C52	0.078610	0.589650	0.475960
C531	C53	0.578380	0.942700	0.487540
C541	C54	0.897350	0.011040	0.921390
C551	C55	0.942700	0.987540	0.078380
C561	C56	0.602650	0.524040	0.113690
C571	C57	0.421620	0.364320	0.409160
C581	C58	0.012460	0.590840	0.955160
C591	C59	0.664660	0.537670	0.686230
C601	C60	0.089650	0.578610	0.975960
C611	C61	0.909160	0.421620	0.864320
C621	C62	0.524040	0.613690	0.102650
C631	C63	0.521570	0.373010	0.335340
C641	C64	0.442700	0.078380	0.987540
C651	C65	0.955160	0.090840	0.012460
C661	C66	0.589650	0.975960	0.578610
C671	C67	0.488960	0.886310	0.410350
C681	C68	0.409160	0.864320	0.421620
C691	C69	0.578610	0.475960	0.589650
C701	C70	0.511040	0.397350	0.421390
C711	C71	0.987540	0.578380	0.442700
C721	C72	0.135680	0.057300	0.544840
O11	O1	0.904120	0.109430	0.853790
O21	O2	0.205310	0.949670	0.595880
O31	O3	0.955380	0.256220	0.329720
O41	O4	0.449670	0.705310	0.095880
O51	O5	0.244360	0.294690	0.390570
O61	O6	0.550330	0.255640	0.146210
O71	O7	0.949670	0.095880	0.705310
O81	O8	0.426500	0.625660	0.170280
O91	O9	0.390570	0.794690	0.244360
O101	O10	0.743780	0.573500	0.699160
O111	O11	0.595880	0.449670	0.205310
O121	O12	0.109430	0.353790	0.404120
O131	O13	0.404120	0.853790	0.109430
O141	O14	0.329720	0.756220	0.955380
O151	O15	0.255640	0.646210	0.050330
O161	O16	0.756220	0.455380	0.829720
O171	O17	0.609430	0.404120	0.353790
O181	O18	0.095880	0.205310	0.449670
O191	O19	0.353790	0.904120	0.609430
O201	O20	0.374340	0.044620	0.800840
O211	O21	0.800840	0.544620	0.374340
O221	O22	0.890570	0.244360	0.794690
O231	O23	0.573500	0.199160	0.243780
O241	O24	0.625660	0.670280	0.926500
O251	O25	0.256220	0.829720	0.455380
O261	O26	0.044620	0.300840	0.874340
O271	O27	0.755640	0.050330	0.646210
O281	O28	0.243780	0.699160	0.573500
O291	O29	0.794690	0.744360	0.890570
O301	O30	0.829720	0.955380	0.756220
O311	O31	0.125660	0.926500	0.670280
O321	O32	0.670280	0.426500	0.125660
O331	O33	0.853790	0.609430	0.904120
O341	O34	0.199160	0.743780	0.073500
O351	O35	0.170280	0.125660	0.426500
O361	O36	0.050330	0.146210	0.255640
O371	O37	0.300840	0.374340	0.544620
O381	O38	0.705310	0.595880	0.949670
O391	O39	0.646210	0.550330	0.755640
O401	O40	0.744360	0.390570	0.294690
O411	O41	0.874340	0.800840	0.044620
O421	O42	0.699160	0.073500	0.743780
O431	O43	0.294690	0.890570	0.744360
O441	O44	0.146210	0.755640	0.550330
O451	O45	0.455380	0.329720	0.256220
O461	O46	0.073500	0.243780	0.199160
O471	O47	0.926500	0.170280	0.625660
O481	O48	0.544620	0.874340	0.300840
