data_ic2017598_si_001_freeONLY_PM
_symmetry_space_group_name_H-M	'P1'
_cell_length_a	18.106500
_cell_length_b	18.106500
_cell_length_c	18.106500
_cell_angle_alpha	60.000000
_cell_angle_beta	60.000000
_cell_angle_gamma	60.000000
_symmetry_Int_Tables_number 1

loop_
_symmetry_equiv_pos_as_xyz
'x,y,z'

loop_
_atom_site_label
_atom_site_type_symbol
_atom_site_fract_x
_atom_site_fract_y
_atom_site_fract_z
Zn11	Zn1	0.793540	0.619380	0.793540
Zn21	Zn2	0.619380	0.793540	0.793540
Zn31	Zn3	0.206460	0.206460	0.380620
Zn41	Zn4	0.793540	0.793540	0.793540
Zn51	Zn5	0.206460	0.380620	0.206460
Zn61	Zn6	0.206460	0.206460	0.206460
Zn71	Zn7	0.380620	0.206460	0.206460
Zn81	Zn8	0.793540	0.793540	0.619380
C11	C1	0.412900	0.536900	0.025100
C21	C2	0.974900	0.463100	0.974900
C31	C3	0.536900	0.025100	0.025100
C41	C4	0.946100	0.553900	0.553900
C51	C5	0.412900	0.025100	0.536900
C61	C6	0.553900	0.553900	0.946100
C71	C7	0.387300	0.387300	0.112700
C81	C8	0.463100	0.587100	0.974900
C91	C9	0.587100	0.463100	0.974900
C101	C10	0.946100	0.946100	0.553900
C111	C11	0.946100	0.553900	0.946100
C121	C12	0.025100	0.536900	0.412900
C131	C13	0.025100	0.412900	0.025100
C141	C14	0.887300	0.612700	0.887300
C151	C15	0.612700	0.887300	0.612700
C161	C16	0.387300	0.112700	0.112700
C171	C17	0.612700	0.887300	0.887300
C181	C18	0.612700	0.612700	0.887300
C191	C19	0.536900	0.412900	0.025100
C201	C20	0.587100	0.974900	0.974900
C211	C21	0.112700	0.387300	0.112700
C221	C22	0.463100	0.974900	0.974900
C231	C23	0.025100	0.412900	0.536900
C241	C24	0.887300	0.887300	0.612700
C251	C25	0.463100	0.974900	0.587100
C261	C26	0.387300	0.112700	0.387300
C271	C27	0.053900	0.446100	0.053900
C281	C28	0.412900	0.025100	0.025100
C291	C29	0.974900	0.974900	0.463100
C301	C30	0.887300	0.612700	0.612700
C311	C31	0.536900	0.025100	0.412900
C321	C32	0.974900	0.974900	0.587100
C331	C33	0.446100	0.053900	0.446100
C341	C34	0.025100	0.536900	0.025100
C351	C35	0.025100	0.025100	0.412900
C361	C36	0.112700	0.387300	0.387300
C371	C37	0.025100	0.025100	0.536900
C381	C38	0.974900	0.463100	0.587100
C391	C39	0.974900	0.587100	0.463100
C401	C40	0.553900	0.946100	0.946100
C411	C41	0.974900	0.587100	0.974900
C421	C42	0.446100	0.053900	0.053900
C431	C43	0.053900	0.446100	0.446100
C441	C44	0.112700	0.112700	0.387300
C451	C45	0.053900	0.053900	0.446100
C461	C46	0.553900	0.946100	0.553900
C471	C47	0.587100	0.974900	0.463100
C481	C48	0.446100	0.446100	0.053900
O11	O1	0.133600	0.429780	0.133600
O21	O2	0.133600	0.429780	0.303020
O31	O3	0.866400	0.570220	0.866400
O41	O4	0.303020	0.133600	0.429780
O51	O5	0.133600	0.133600	0.429780
O61	O6	0.866400	0.570220	0.696980
O71	O7	0.696980	0.866400	0.570220
O81	O8	0.866400	0.866400	0.570220
O91	O9	0.133600	0.303020	0.133600
O101	O10	0.429780	0.303020	0.133600
O111	O11	0.866400	0.696980	0.866400
O121	O12	0.133600	0.133600	0.303020
O131	O13	0.696980	0.866400	0.866400
O141	O14	0.570220	0.696980	0.866400
O151	O15	0.570220	0.866400	0.866400
O161	O16	0.133600	0.303020	0.429780
O171	O17	0.250000	0.250000	0.250000
O181	O18	0.303020	0.429780	0.133600
O191	O19	0.696980	0.570220	0.866400
O201	O20	0.570220	0.866400	0.696980
O211	O21	0.429780	0.133600	0.133600
O221	O22	0.866400	0.866400	0.696980
O231	O23	0.750000	0.750000	0.750000
O241	O24	0.303020	0.133600	0.133600
O251	O25	0.866400	0.696980	0.570220
O261	O26	0.429780	0.133600	0.303020
