data_ic401157n_si_002_freeONLY_PM
_symmetry_space_group_name_H-M	'P1'
_cell_length_a	16.268000
_cell_length_b	18.582000
_cell_length_c	34.589000
_cell_angle_alpha	90.000000
_cell_angle_beta	90.000000
_cell_angle_gamma	103.810000
_symmetry_Int_Tables_number 1

loop_
_symmetry_equiv_pos_as_xyz
'x,y,z'

loop_
_atom_site_label
_atom_site_type_symbol
_atom_site_fract_x
_atom_site_fract_y
_atom_site_fract_z
La11	La1	0.792970	0.295000	0.761860
La21	La2	0.956420	0.679390	0.248270
La31	La3	0.707030	0.705000	0.261860
La41	La4	0.207030	0.705000	0.238140
La51	La5	0.043580	0.320610	0.751730
La61	La6	0.292970	0.295000	0.738140
La71	La7	0.543580	0.320610	0.748270
La81	La8	0.456420	0.679390	0.251730
H11	H1	0.233200	0.667500	0.932700
H21	H2	0.044900	0.820200	0.332000
H31	H3	0.787500	0.587400	0.704300
H41	H4	0.051700	0.433200	0.134100
H51	H5	0.349400	0.640400	0.398800
H61	H6	0.541900	0.558100	0.304900
H71	H7	0.043100	0.243200	0.892900
H81	H8	0.955200	0.221800	0.342300
H91	H9	0.545200	0.322200	0.868100
H101	H10	0.681100	0.863900	0.546100
H111	H11	0.003000	0.783900	0.045500
H121	H12	0.723300	0.173300	0.676600
H131	H13	0.650600	0.359600	0.601200
H141	H14	0.746700	0.514200	0.361400
H151	H15	0.161700	0.524400	0.742800
H161	H16	0.844100	0.500900	0.734800
H171	H17	0.598600	0.516400	0.356800
H181	H18	0.138700	0.063400	0.291700
H191	H19	0.046300	0.939800	0.808100
H201	H20	0.748900	0.072200	0.642900
H211	H21	0.174000	0.968600	0.255500
H221	H22	0.212500	0.412600	0.295700
H231	H23	0.071800	0.427500	0.389200
H241	H24	0.205300	0.700600	0.067200
H251	H25	0.537600	0.713200	0.953100
H261	H26	0.300600	0.420100	0.111900
H271	H27	0.401400	0.483600	0.643200
H281	H28	0.862800	0.370500	0.596300
H291	H29	0.956900	0.756800	0.107100
H301	H30	0.674000	0.968600	0.244500
H311	H31	0.838300	0.475600	0.257200
H321	H32	0.958300	0.957500	0.618200
H331	H33	0.955100	0.179800	0.668000
H341	H34	0.456900	0.756800	0.392900
H351	H35	0.335700	0.314800	0.631500
H361	H36	0.246100	0.815900	0.846500
H371	H37	0.455100	0.179800	0.832000
H381	H38	0.360600	0.109300	0.343900
H391	H39	0.037600	0.713200	0.546900
H401	H40	0.642100	0.163700	0.950800
H411	H41	0.776700	0.826700	0.176600
H421	H42	0.954800	0.677800	0.368100
H431	H43	0.965500	0.501800	0.891900
H441	H44	0.294700	0.299400	0.567200
H451	H45	0.102800	0.697700	0.666000
H461	H46	0.246700	0.514200	0.138600
H471	H47	0.901400	0.483600	0.856800
H481	H48	0.541700	0.042500	0.118200
H491	H49	0.298100	0.632400	0.321400
H501	H50	0.001300	0.261300	0.507200
H511	H51	0.544900	0.820200	0.168000
H521	H52	0.142100	0.163700	0.549200
H531	H53	0.041900	0.558100	0.195100
H541	H54	0.769600	0.586000	0.082300
H551	H55	0.705300	0.700600	0.432800
H561	H56	0.892000	0.437300	0.120400
H571	H57	0.551700	0.433200	0.365900
H581	H58	0.287500	0.587400	0.795700
H591	H59	0.516600	0.915100	0.130900
H601	H60	0.751100	0.927800	0.142900
H611	H61	0.853700	0.489100	0.148000
H621	H62	0.462400	0.286800	0.046900
H631	H63	0.753900	0.184100	0.153500
H641	H64	0.699400	0.579900	0.888100
H651	H65	0.483400	0.084900	0.869100
H661	H66	0.998800	0.308900	0.568500
H671	H67	0.230400	0.414000	0.917700
H681	H68	0.501300	0.261300	0.992800
H691	H69	0.655900	0.499100	0.234800
H701	H70	0.614600	0.803000	0.500500
H711	H71	0.544800	0.778200	0.842300
H721	H72	0.181100	0.863900	0.953900
H731	H73	0.794700	0.299400	0.932800
H741	H74	0.012900	0.512100	0.358300
H751	H75	0.948300	0.566800	0.865900
H761	H76	0.849400	0.640400	0.101200
H771	H77	0.114600	0.803000	0.999500
H781	H78	0.857900	0.836300	0.450800
H791	H79	0.766800	0.332500	0.067300
H801	H80	0.248900	0.072200	0.857100
H811	H81	0.630900	0.673000	0.135200
H821	H82	0.826000	0.031400	0.744500
H831	H83	0.001200	0.691100	0.431500
H841	H84	0.987100	0.487900	0.641700
H851	H85	0.546300	0.939800	0.691900
H861	H86	0.990400	0.957000	0.219000
H871	H87	0.453700	0.060200	0.308100
H881	H88	0.361300	0.936600	0.791700
H891	H89	0.498800	0.308900	0.931500
H901	H90	0.155900	0.499100	0.265200
H911	H91	0.201900	0.367600	0.821400
H921	H92	0.746100	0.815900	0.653500
H931	H93	0.044800	0.778200	0.657700
H941	H94	0.869100	0.327000	0.635200
H951	H95	0.690400	0.437300	0.620700
H961	H96	0.634000	0.588000	0.663400
H971	H97	0.448300	0.566800	0.634100
H981	H98	0.134000	0.588000	0.836600
H991	H99	0.041700	0.042500	0.381800
H1001	H100	0.860600	0.109300	0.156100
H1011	H101	0.034500	0.498200	0.108100
H1021	H102	0.497000	0.216100	0.545500
H1031	H103	0.045200	0.322200	0.631900
H1041	H104	0.016600	0.915100	0.369100
H1051	H105	0.962400	0.286800	0.453100
H1061	H106	0.139400	0.890700	0.843900
H1071	H107	0.344100	0.500900	0.765200
H1081	H108	0.458300	0.957500	0.881800
H1091	H109	0.487100	0.487900	0.858300
H1101	H110	0.639400	0.890700	0.656100
H1111	H111	0.664300	0.685200	0.368500
H1121	H112	0.190400	0.437300	0.879300
H1131	H113	0.465500	0.501800	0.608100
H1141	H114	0.150600	0.359600	0.898800
H1151	H115	0.338300	0.475600	0.242800
H1161	H116	0.357900	0.836300	0.049200
H1171	H117	0.897200	0.302300	0.334000
H1181	H118	0.392000	0.437300	0.379600
H1191	H119	0.276700	0.826700	0.323400
H1201	H120	0.602800	0.697700	0.834000
H1211	H121	0.818900	0.136100	0.046100
H1221	H122	0.108000	0.562700	0.879600
H1231	H123	0.490400	0.957000	0.281000
H1241	H124	0.182600	0.174100	0.613300
H1251	H125	0.800600	0.420100	0.388100
H1261	H126	0.266800	0.332500	0.432700
H1271	H127	0.253300	0.485800	0.638600
H1281	H128	0.455200	0.221800	0.157700
H1291	H129	0.509600	0.043000	0.719000
H1301	H130	0.397200	0.302300	0.166000
H1311	H131	0.809600	0.562700	0.120700
H1321	H132	0.385400	0.197000	0.499500
H1331	H133	0.498700	0.738700	0.007200
H1341	H134	0.817400	0.825900	0.386700
H1351	H135	0.309900	0.287600	0.898800
H1361	H136	0.501200	0.691100	0.068500
H1371	H137	0.318900	0.136100	0.453900
H1381	H138	0.681400	0.366600	0.104000
H1391	H139	0.866000	0.412000	0.163400
H1401	H140	0.712500	0.412600	0.204300
H1411	H141	0.835700	0.314800	0.868500
H1421	H142	0.638700	0.063400	0.208300
H1431	H143	0.958100	0.441900	0.804900
H1441	H144	0.454800	0.677800	0.131900
H1451	H145	0.190100	0.712400	0.398800
H1461	H146	0.534500	0.498200	0.391900
H1471	H147	0.887400	0.379400	0.282600
H1481	H148	0.983400	0.084900	0.630900
H1491	H149	0.512900	0.512100	0.141700
H1501	H150	0.646300	0.510900	0.648000
H1511	H151	0.137200	0.629500	0.403700
H1521	H152	0.885400	0.197000	0.000500
H1531	H153	0.637200	0.629500	0.096300
H1541	H154	0.317400	0.825900	0.113300
H1551	H155	0.753300	0.485800	0.861400
H1561	H156	0.164300	0.685200	0.131500
H1571	H157	0.997000	0.216100	0.954500
H1581	H158	0.353700	0.489100	0.352000
H1591	H159	0.914100	0.867200	0.579200
H1601	H160	0.253900	0.184100	0.346500
H1611	H161	0.818600	0.633400	0.604000
H1621	H162	0.414100	0.867200	0.920800
H1631	H163	0.661700	0.524400	0.757200
H1641	H164	0.953700	0.060200	0.191900
H1651	H165	0.809900	0.287600	0.601200
H1661	H166	0.571800	0.427500	0.110800
H1671	H167	0.543100	0.243200	0.607100
H1681	H168	0.682600	0.174100	0.886700
H1691	H169	0.690100	0.712400	0.101200
H1701	H170	0.503000	0.783900	0.454500
H1711	H171	0.112600	0.620600	0.717400
H1721	H172	0.608000	0.562700	0.620400
H1731	H173	0.223300	0.173300	0.823400
H1741	H174	0.733200	0.667500	0.567300
H1751	H175	0.130900	0.673000	0.364800
H1761	H176	0.309600	0.562700	0.379300
H1771	H177	0.369100	0.327000	0.864800
H1781	H178	0.861300	0.936600	0.708300
H1791	H179	0.612600	0.620600	0.782600
H1801	H180	0.998700	0.738700	0.492800
H1811	H181	0.701900	0.367600	0.678600
H1821	H182	0.458100	0.441900	0.695100
H1831	H183	0.085900	0.132800	0.420800
H1841	H184	0.362800	0.370500	0.903700
H1851	H185	0.387400	0.379400	0.217400
H1861	H186	0.251100	0.927800	0.357100
H1871	H187	0.199400	0.579900	0.611900
H1881	H188	0.585900	0.132800	0.079200
H1891	H189	0.269600	0.586000	0.417700
H1901	H190	0.928200	0.572500	0.610800
H1911	H191	0.798100	0.632400	0.178600
H1921	H192	0.146300	0.510900	0.852000
H1931	H193	0.009600	0.043000	0.781000
H1941	H194	0.318600	0.633400	0.896000
H1951	H195	0.428200	0.572500	0.889200
H1961	H196	0.181400	0.366600	0.396000
H1971	H197	0.098600	0.516400	0.143200
H1981	H198	0.326000	0.031400	0.755500
H1991	H199	0.366000	0.412000	0.336600
H2001	H200	0.730400	0.414000	0.582300
C11	C1	0.021500	0.742600	0.566270
C21	C2	0.600200	0.681900	0.889300
C31	C3	0.045700	0.574100	0.288640
C41	C4	0.953700	0.516000	0.865900
C51	C5	0.028300	0.708400	0.166950
C61	C6	0.970700	0.790300	0.555960
C71	C7	0.354600	0.744500	0.170580
C81	C8	0.110600	0.545900	0.853100
C91	C9	0.537800	0.282400	0.922900
C101	C10	0.618500	0.247900	0.870960
C111	C11	0.831000	0.464600	0.283680
C121	C12	0.439700	0.951200	0.295000
C131	C13	0.847900	0.390700	0.338800
C141	C14	0.290500	0.507400	0.193080
C151	C15	0.565100	0.869500	0.176050
C161	C16	0.705300	0.928400	0.613400
C171	C17	0.403400	0.816000	0.276920
C181	C18	0.545700	0.574100	0.211360
C191	C19	0.733800	0.425700	0.791130
C201	C20	0.478500	0.257400	0.066270
C211	C21	0.647800	0.997200	0.662600
C221	C22	0.272200	0.286000	0.423900
C231	C23	0.935900	0.710600	0.384730
C241	C24	0.610600	0.545900	0.646900
C251	C25	0.453000	0.073900	0.845900
C261	C26	0.551600	0.165300	0.085310
C271	C27	0.752600	0.264600	0.114700
C281	C28	0.432600	0.762500	0.051330
C291	C29	0.720600	0.310700	0.144100
C301	C30	0.641200	0.957500	0.221910
C311	C31	0.046300	0.484000	0.134100
C321	C32	0.560300	0.048800	0.705000
C331	C33	0.799700	0.238300	0.051100
C341	C34	0.067400	0.237500	0.551330
C351	C35	0.899800	0.318100	0.389300
C361	C36	0.379600	0.986000	0.800000
C371	C37	0.360000	0.407400	0.201470
C381	C38	0.473500	0.218700	0.132140
C391	C39	0.314400	0.873400	0.321000
C401	C40	0.546300	0.484000	0.365900
C411	C41	0.747400	0.735400	0.614700
C421	C42	0.195400	0.830200	0.936300
C431	C43	0.567400	0.202800	0.017300
C441	C44	0.596600	0.184000	0.723080
C451	C45	0.948400	0.834700	0.585310
C461	C46	0.056500	0.721100	0.126490
C471	C47	0.453700	0.516000	0.634100
C481	C48	0.681300	0.733400	0.510700
C491	C49	0.168300	0.665800	0.385600
C501	C50	0.535300	0.762100	0.437600
C511	C51	0.115500	0.118500	0.797700
C521	C52	0.365400	0.174900	0.767990
C531	C53	0.630800	0.704000	0.386200
C541	C54	0.860000	0.407400	0.298530
C551	C55	0.702900	0.396100	0.606500
C561	C56	0.804600	0.169800	0.063700
C571	C57	0.211300	0.850500	0.898200
C581	C58	0.049000	0.736700	0.603370
C591	C59	0.621900	0.195900	0.934400
C601	C60	0.326800	0.566300	0.808700
C611	C61	0.669000	0.535400	0.783680
C621	C62	0.545000	0.120800	0.154700
C631	C63	0.918800	0.482700	0.691940
C641	C64	0.266200	0.574300	0.208870
C651	C65	0.343800	0.285900	0.575700
C661	C66	0.470700	0.790300	0.944040
C671	C67	0.350900	0.587400	0.846700
C681	C68	0.509100	0.747900	0.400400
C691	C69	0.910500	0.557500	0.636100
C701	C70	0.854100	0.797700	0.395890
C711	C71	0.455000	0.879200	0.845300
C721	C72	0.298800	0.934200	0.341000
C731	C73	0.381500	0.752100	0.129040
C741	C74	0.145400	0.255500	0.670580
C751	C75	0.009100	0.747900	0.099600
C761	C76	0.145900	0.202300	0.604110
C771	C77	0.521500	0.742600	0.933730
C781	C78	0.037800	0.282400	0.577100
C791	C79	0.640000	0.592600	0.798530
C801	C80	0.889400	0.454100	0.146900
C811	C81	0.223100	0.511800	0.654300
C821	C82	0.951000	0.263300	0.396630
C831	C83	0.943500	0.278900	0.873510
C841	C84	0.432600	0.797200	0.982700
C851	C85	0.060300	0.048800	0.795000
C861	C86	0.709500	0.492600	0.806920
C871	C87	0.843800	0.285900	0.924300
C881	C88	0.288700	0.149500	0.398200
C891	C89	0.692300	0.569100	0.861600
C901	C90	0.589500	0.442500	0.136100
C911	C91	0.751300	0.647200	0.168300
C921	C92	0.955000	0.879200	0.654700
C931	C93	0.788700	0.149500	0.101800
C941	C94	0.418800	0.482700	0.808060
C951	C95	0.858800	0.042500	0.721910
C961	C96	0.410500	0.557500	0.863900
C971	C97	0.251300	0.647200	0.331700
C981	C98	0.798800	0.934200	0.159000
C991	C99	0.776900	0.488200	0.345700
C1001	C100	0.471700	0.291600	0.666950
C1011	C101	0.263500	0.197500	0.372600
C1021	C102	0.089500	0.442500	0.363900
C1031	C103	0.652100	0.609300	0.838800
C1041	C104	0.865400	0.174900	0.732010
C1051	C105	0.524100	0.168600	0.122660
C1061	C106	0.393400	0.254600	0.549500
C1071	C107	0.567400	0.237500	0.948670
C1081	C108	0.748700	0.352800	0.668300
C1091	C109	0.354100	0.797700	0.104110
C1101	C110	0.727800	0.714000	0.576100
C1111	C111	0.766200	0.574300	0.291130
C1121	C112	0.831700	0.334200	0.614400
C1131	C113	0.141200	0.957500	0.278090
C1141	C114	0.247400	0.735400	0.885300
C1151	C115	0.067400	0.202800	0.482700
C1161	C116	0.779400	0.689300	0.644100
C1171	C117	0.192300	0.569100	0.638400
C1181	C118	0.723100	0.511800	0.845700
C1191	C119	0.318700	0.266600	0.489300
C1201	C120	0.209500	0.492600	0.693080
C1211	C121	0.454300	0.425900	0.788640
C1221	C122	0.276900	0.488200	0.154300
C1231	C123	0.014300	0.463700	0.812100
C1241	C124	0.294700	0.071600	0.386600
C1251	C125	0.233800	0.425700	0.708870
C1261	C126	0.878100	0.804100	0.434400
C1271	C127	0.384500	0.881500	0.297700
C1281	C128	0.826800	0.566300	0.691300
C1291	C129	0.152100	0.609300	0.661200
C1301	C130	0.181300	0.733400	0.989300
C1311	C131	0.549000	0.736700	0.896630
C1321	C132	0.881500	0.752100	0.370960
C1331	C133	0.794700	0.071600	0.113400
C1341	C134	0.869200	0.296000	0.886200
C1351	C135	0.236500	0.802500	0.872600
C1361	C136	0.807700	0.430900	0.361600
C1371	C137	0.202900	0.396100	0.893500
C1381	C138	0.581200	0.517300	0.191940
C1391	C139	0.130800	0.704000	0.113800
C1401	C140	0.445400	0.506800	0.845770
C1411	C141	0.081200	0.517300	0.308060
C1421	C142	0.331000	0.464600	0.216320
C1431	C143	0.606600	0.745400	0.450500
C1441	C144	0.220600	0.310700	0.355900
C1451	C145	0.985700	0.536300	0.187900
C1461	C146	0.953000	0.073900	0.654100
C1471	C147	0.962200	0.717600	0.422900
C1481	C148	0.369200	0.296000	0.613800
C1491	C149	0.579800	0.987700	0.687100
C1501	C150	0.926500	0.001300	0.666320
C1511	C151	0.173200	0.433700	0.308700
C1521	C152	0.888000	0.115900	0.709460
C1531	C153	0.634600	0.825100	0.232010
C1541	C154	0.879600	0.986000	0.700000
C1551	C155	0.100200	0.681900	0.610700
C1561	C156	0.639000	0.485200	0.209400
C1571	C157	0.205300	0.928400	0.886600
C1581	C158	0.434900	0.130500	0.823950
C1591	C159	0.147800	0.997200	0.837400
C1601	C160	0.443500	0.278900	0.626490
C1611	C161	0.673200	0.433700	0.191300
C1621	C162	0.564100	0.289400	0.884730
C1631	C163	0.526500	0.781300	0.867860
C1641	C164	0.656200	0.714100	0.424300
C1651	C165	0.420200	0.012300	0.312900
C1661	C166	0.945400	0.506800	0.654230
C1671	C167	0.612000	0.884100	0.209460
C1681	C168	0.378100	0.804100	0.065600
C1691	C169	0.064100	0.289400	0.615270
C1701	C170	0.047000	0.926100	0.345900
C1711	C171	0.352200	0.002800	0.337400
C1721	C172	0.096600	0.184000	0.776920
C1731	C173	0.934900	0.130500	0.676050
C1741	C174	0.485700	0.536300	0.312100
C1751	C175	0.248700	0.352800	0.831700
C1761	C176	0.149100	0.412600	0.346700
C1771	C177	0.514300	0.463700	0.687900
C1781	C178	0.347900	0.390700	0.161200
C1791	C179	0.029300	0.209700	0.444040
C1801	C180	0.920200	0.012300	0.187100
C1811	C181	0.399800	0.318100	0.110700
C1821	C182	0.490900	0.252100	0.599600
C1831	C183	0.389400	0.454100	0.353100
C1841	C184	0.134600	0.825100	0.267990
C1851	C185	0.426500	0.001300	0.833680
C1861	C186	0.620400	0.014000	0.200000
C1871	C187	0.893400	0.254600	0.950500
C1881	C188	0.279400	0.689300	0.855900
C1891	C189	0.884500	0.881500	0.202300
C1901	C190	0.024100	0.168600	0.377340
C1911	C191	0.156200	0.714100	0.075700
C1921	C192	0.547000	0.926100	0.154100
C1931	C193	0.772200	0.286000	0.076100
C1941	C194	0.528300	0.708400	0.333050
C1951	C195	0.118500	0.247900	0.629040
C1961	C196	0.297100	0.603900	0.393500
C1971	C197	0.932600	0.797200	0.517300
C1981	C198	0.331700	0.334200	0.885600
C1991	C199	0.615500	0.118500	0.702300
C2001	C200	0.685600	0.126600	0.679000
C2011	C201	0.556500	0.721100	0.373510
C2021	C202	0.475900	0.831400	0.877340
C2031	C203	0.026500	0.781300	0.632140
C2041	C204	0.464700	0.237900	0.562400
C2051	C205	0.954300	0.425900	0.711360
C2061	C206	0.299700	0.238300	0.448900
C2071	C207	0.736500	0.802500	0.627400
C2081	C208	0.121900	0.195900	0.565600
C2091	C209	0.435900	0.710600	0.115270
C2101	C210	0.695400	0.830200	0.563700
C2111	C211	0.529300	0.209700	0.055960
C2121	C212	0.790500	0.507400	0.306920
C2131	C213	0.462200	0.717600	0.077100
C2141	C214	0.304600	0.169800	0.436300
C2151	C215	0.711300	0.850500	0.601800
C2161	C216	0.045000	0.120800	0.345300
C2171	C217	0.814400	0.873400	0.179000
C2181	C218	0.701200	0.065800	0.659000
C2191	C219	0.065100	0.869500	0.323950
C2201	C220	0.106600	0.745400	0.049500
C2211	C221	0.850900	0.587400	0.653300
C2221	C222	0.852200	0.002800	0.162600
C2231	C223	0.361000	0.514800	0.790600
C2241	C224	0.307700	0.430900	0.138400
C2251	C225	0.185600	0.126600	0.821000
C2261	C226	0.169000	0.535400	0.716320
C2271	C227	0.073500	0.998700	0.333680
C2281	C228	0.358800	0.042500	0.778090
C2291	C229	0.227800	0.714000	0.923900
C2301	C230	0.978500	0.257400	0.433730
C2311	C231	0.112000	0.884100	0.290540
C2321	C232	0.448400	0.834700	0.914690
C2331	C233	0.903400	0.816000	0.223080
C2341	C234	0.051600	0.165300	0.414690
C2351	C235	0.861000	0.514800	0.709400
C2361	C236	0.140000	0.592600	0.701470
C2371	C237	0.939700	0.951200	0.205000
C2381	C238	0.200300	0.761700	0.948900
C2391	C239	0.388000	0.115900	0.790540
C2401	C240	0.645900	0.202300	0.895890
C2411	C241	0.700300	0.761700	0.551100
C2421	C242	0.573500	0.998700	0.166320
C2431	C243	0.990900	0.252100	0.900400
C2441	C244	0.201200	0.065800	0.841000
C2451	C245	0.932600	0.762500	0.448670
C2461	C246	0.645400	0.255500	0.829420
C2471	C247	0.120400	0.014000	0.300000
C2481	C248	0.668300	0.665800	0.114400
C2491	C249	0.797100	0.603900	0.106500
C2501	C250	0.763500	0.197500	0.127400
C2511	C251	0.139000	0.485200	0.290600
C2521	C252	0.973500	0.218700	0.367860
C2531	C253	0.252600	0.264600	0.385300
C2541	C254	0.054600	0.493200	0.345770
C2551	C255	0.971700	0.291600	0.833050
C2561	C256	0.451000	0.263300	0.103370
C2571	C257	0.818700	0.266600	0.010700
C2581	C258	0.975900	0.831400	0.622660
C2591	C259	0.964700	0.237900	0.937600
C2601	C260	0.035300	0.762100	0.062400
C2611	C261	0.079800	0.987700	0.812900
C2621	C262	0.554600	0.493200	0.154230
C2631	C263	0.854600	0.744500	0.329420
C2641	C264	0.649100	0.412600	0.153300
N11	N1	0.867000	0.234300	0.989720
N21	N2	0.738700	0.639300	0.130500
N31	N3	0.315800	0.636800	0.870100
N41	N4	0.684200	0.363200	0.129900
N51	N5	0.367000	0.234300	0.510280
N61	N6	0.884500	0.332600	0.352080
N71	N7	0.261300	0.360700	0.869500
N81	N8	0.475500	0.490700	0.339800
N91	N9	0.633000	0.765700	0.489720
N101	N10	0.115500	0.667400	0.647920
N111	N11	0.541400	0.236800	0.987560
N121	N12	0.958600	0.763200	0.487560
N131	N13	0.615500	0.667400	0.852080
N141	N14	0.837600	0.065900	0.144320
N151	N15	0.337600	0.065900	0.355680
N161	N16	0.024500	0.509300	0.839800
N171	N17	0.761300	0.360700	0.630500
N181	N18	0.458600	0.763200	0.012440
N191	N19	0.524500	0.509300	0.660200
N201	N20	0.052400	0.053900	0.356720
N211	N21	0.447600	0.946100	0.856720
N221	N22	0.947600	0.946100	0.643280
N231	N23	0.133000	0.765700	0.010280
N241	N24	0.162400	0.934100	0.855680
N251	N25	0.552400	0.053900	0.143280
N261	N26	0.041400	0.236800	0.512440
N271	N27	0.238700	0.639300	0.369500
N281	N28	0.184200	0.363200	0.370100
N291	N29	0.815800	0.636800	0.629900
N301	N30	0.384500	0.332600	0.147920
N311	N31	0.662400	0.934100	0.644320
N321	N32	0.975500	0.490700	0.160200
O11	O1	0.401700	0.719100	0.193050
O21	O2	0.785800	0.316800	0.998400
O31	O3	0.080100	0.702200	0.193720
O41	O4	0.549500	0.296800	0.674170
O51	O5	0.262500	0.016900	0.406500
O61	O6	0.554600	0.144300	0.187400
O71	O7	0.580400	0.603000	0.243170
O81	O8	0.520900	0.181800	0.732790
O91	O9	0.450500	0.703200	0.325830
O101	O10	0.479100	0.818200	0.267210
O111	O11	0.714200	0.683200	0.498400
O121	O12	0.049500	0.296800	0.825830
O131	O13	0.598300	0.280900	0.806950
O141	O14	0.699100	0.395300	0.760100
O151	O15	0.098300	0.280900	0.693050
O161	O16	0.627300	0.652600	0.916420
O171	O17	0.291500	0.328500	0.809890
O181	O18	0.985500	0.595800	0.303060
O191	O19	0.883600	0.836100	0.513470
O201	O20	0.307700	0.162100	0.743610
O211	O21	0.616400	0.163900	0.013470
O221	O22	0.210600	0.235700	0.680220
O231	O23	0.791500	0.328500	0.690110
O241	O24	0.070700	0.444700	0.793430
O251	O25	0.229800	0.300700	0.320760
O261	O26	0.116400	0.163900	0.486530
O271	O27	0.020900	0.181800	0.767210
O281	O28	0.419600	0.397000	0.756830
O291	O29	0.711100	0.597800	0.308410
O301	O30	0.979100	0.818200	0.232790
O311	O31	0.945400	0.855700	0.687400
O321	O32	0.080400	0.603000	0.256830
O331	O33	0.127300	0.652600	0.583580
O341	O34	0.208500	0.671500	0.309890
O351	O35	0.919900	0.297800	0.806280
O361	O36	0.270200	0.699300	0.820760
O371	O37	0.485500	0.595800	0.196940
O381	O38	0.237500	0.983100	0.906500
O391	O39	0.729800	0.300700	0.179240
O401	O40	0.372700	0.347400	0.083580
O411	O41	0.807700	0.162100	0.756390
O421	O42	0.737500	0.983100	0.593500
O431	O43	0.514500	0.404200	0.803060
O441	O44	0.929300	0.555300	0.206570
O451	O45	0.285800	0.316800	0.501600
O461	O46	0.843800	0.760400	0.230030
O471	O47	0.289400	0.764300	0.180220
O481	O48	0.788900	0.402200	0.808410
O491	O49	0.300900	0.604700	0.239900
O501	O50	0.199100	0.395300	0.739900
O511	O51	0.950500	0.703200	0.174170
O521	O52	0.405500	0.243700	0.774480
O531	O53	0.789400	0.764300	0.319780
O541	O54	0.570700	0.444700	0.706570
O551	O55	0.014500	0.404200	0.696940
O561	O56	0.708500	0.671500	0.190110
O571	O57	0.288900	0.402200	0.691590
O581	O58	0.383600	0.836100	0.986530
O591	O59	0.692300	0.837900	0.256390
O601	O60	0.710600	0.235700	0.819780
O611	O61	0.905500	0.243700	0.725520
O621	O62	0.419900	0.297800	0.693720
O631	O63	0.445400	0.855700	0.812600
O641	O64	0.429300	0.555300	0.293430
O651	O65	0.580100	0.702200	0.306280
O661	O66	0.872700	0.347400	0.416420
O671	O67	0.901700	0.719100	0.306950
O681	O68	0.594500	0.756300	0.225520
O691	O69	0.800900	0.604700	0.260100
O701	O70	0.656200	0.239600	0.730030
O711	O71	0.770200	0.699300	0.679240
O721	O72	0.192300	0.837900	0.243610
O731	O73	0.094500	0.756300	0.274480
O741	O74	0.919600	0.397000	0.743170
O751	O75	0.054600	0.144300	0.312600
O761	O76	0.762500	0.016900	0.093500
O771	O77	0.214200	0.683200	0.001600
O781	O78	0.156200	0.239600	0.769970
O791	O79	0.343800	0.760400	0.269970
O801	O80	0.211100	0.597800	0.191590
