data_ic402692p_si_003_freeONLY_PM
_symmetry_space_group_name_H-M	'P1'
_cell_length_a	13.871000
_cell_length_b	15.102000
_cell_length_c	19.994000
_cell_angle_alpha	90.000000
_cell_angle_beta	90.000000
_cell_angle_gamma	94.690000
_symmetry_Int_Tables_number 1

loop_
_symmetry_equiv_pos_as_xyz
'x,y,z'

loop_
_atom_site_label
_atom_site_type_symbol
_atom_site_fract_x
_atom_site_fract_y
_atom_site_fract_z
Zn11	Zn1	0.067540	0.555340	0.659900
Zn21	Zn2	0.553770	0.929920	0.562640
Zn31	Zn3	0.932460	0.944660	0.159900
Zn41	Zn4	0.932460	0.444660	0.340100
Zn51	Zn5	0.446230	0.070080	0.437360
Zn61	Zn6	0.067540	0.055340	0.840100
Zn71	Zn7	0.000000	0.500000	0.500000
Zn81	Zn8	0.553770	0.429920	0.937360
Zn91	Zn9	0.000000	0.000000	0.000000
Zn101	Zn10	0.446230	0.570080	0.062640
H11	H1	0.939000	0.806000	0.947000
H21	H2	0.810000	0.473000	0.751000
H31	H3	0.546000	0.843000	0.771600
H41	H4	0.258000	0.393000	0.114000
H51	H5	0.711000	0.225000	0.430000
H61	H6	0.498000	0.800000	0.989000
H71	H7	0.289000	0.775000	0.570000
H81	H8	0.289000	0.275000	0.930000
H91	H9	0.190000	0.027000	0.251000
H101	H10	0.454000	0.657000	0.271600
H111	H11	0.502000	0.700000	0.489000
H121	H12	0.742000	0.107000	0.614000
H131	H13	0.718000	0.903000	0.934000
H141	H14	0.711000	0.725000	0.070000
H151	H15	0.546000	0.343000	0.728400
H161	H16	0.718000	0.403000	0.566000
H171	H17	0.498000	0.300000	0.511000
H181	H18	0.190000	0.527000	0.249000
H191	H19	0.939000	0.306000	0.553000
H201	H20	0.810000	0.973000	0.749000
H211	H21	0.454000	0.157000	0.228400
H221	H22	0.031000	0.388000	0.208000
H231	H23	0.258000	0.893000	0.386000
H241	H24	0.282000	0.597000	0.434000
H251	H25	0.282000	0.097000	0.066000
H261	H26	0.061000	0.194000	0.053000
H271	H27	0.031000	0.888000	0.292000
H281	H28	0.742000	0.607000	0.886000
H291	H29	0.969000	0.612000	0.792000
H301	H30	0.969000	0.112000	0.708000
H311	H31	0.061000	0.694000	0.447000
H321	H32	0.502000	0.200000	0.011000
C11	C1	0.252000	0.277400	0.973290
C21	C2	0.723100	0.793600	0.435330
C31	C3	0.851000	0.204000	0.590650
C41	C4	0.168900	0.310600	0.606920
C51	C5	0.122600	0.396600	0.601330
C61	C6	0.714300	0.159600	0.521140
C71	C7	0.344400	0.585600	0.177220
C81	C8	0.167300	0.225200	0.984280
C91	C9	0.251700	0.648600	0.882590
C101	C10	0.326900	0.090800	0.248120
C111	C11	0.186100	0.172900	0.666060
C121	C12	0.619500	0.865200	0.862730
C131	C13	0.831100	0.189400	0.106920
C141	C14	0.837600	0.887000	0.275370
C151	C15	0.233600	0.851100	0.420280
C161	C16	0.380500	0.634800	0.362730
C171	C17	0.873100	0.481500	0.626580
C181	C18	0.285700	0.840400	0.478860
C191	C19	0.765000	0.213300	0.058320
C201	C20	0.233600	0.351100	0.079720
C211	C21	0.602900	0.369000	0.706100
C221	C22	0.759400	0.945500	0.778610
C231	C23	0.673100	0.409200	0.748120
C241	C24	0.149000	0.796000	0.409350
C251	C25	0.222900	0.057700	0.153160
C261	C26	0.326900	0.590800	0.251880
C271	C27	0.650300	0.818800	0.486630
C281	C28	0.235000	0.286700	0.558320
C291	C29	0.222900	0.557700	0.346840
C301	C30	0.837600	0.387000	0.224630
C311	C31	0.126900	0.518500	0.373420
C321	C32	0.619700	0.605500	0.990140
C331	C33	0.650300	0.318800	0.013370
C341	C34	0.252000	0.777400	0.526710
C351	C35	0.619700	0.105500	0.509860
C361	C36	0.673100	0.909200	0.751880
C371	C37	0.777100	0.942300	0.846840
C381	C38	0.162400	0.613000	0.775370
C391	C39	0.867400	0.842300	0.067550
C401	C40	0.162400	0.113000	0.724630
C411	C41	0.397100	0.131000	0.206100
C421	C42	0.777100	0.442300	0.653160
C431	C43	0.349700	0.681200	0.986630
C441	C44	0.766400	0.148900	0.579720
C451	C45	0.723100	0.293600	0.064670
C461	C46	0.905100	0.201700	0.654740
C471	C47	0.397100	0.631000	0.293900
C481	C48	0.186100	0.672900	0.833940
C491	C49	0.276900	0.206400	0.564670
C501	C50	0.115500	0.732800	0.456640
C511	C51	0.380300	0.894500	0.490140
C521	C52	0.714300	0.659600	0.978860
C531	C53	0.766400	0.648900	0.920280
C541	C54	0.853800	0.745500	0.338700
C551	C55	0.344400	0.085600	0.322780
C561	C56	0.285700	0.340400	0.021140
C571	C57	0.276900	0.706400	0.935330
C581	C58	0.251700	0.148600	0.617410
C591	C59	0.765000	0.713300	0.441680
C601	C60	0.873100	0.981500	0.873420
C611	C61	0.168900	0.810600	0.893080
C621	C62	0.349700	0.181200	0.513370
C631	C63	0.293900	0.098600	0.110410
C641	C64	0.115500	0.232800	0.043360
C651	C65	0.706100	0.401400	0.610410
C661	C66	0.905100	0.701700	0.845260
C671	C67	0.167300	0.725200	0.515720
C681	C68	0.748000	0.222600	0.473290
C691	C69	0.094900	0.298300	0.154740
C701	C70	0.853800	0.245500	0.161300
C711	C71	0.380300	0.394500	0.009860
C721	C72	0.619500	0.365200	0.637270
C731	C73	0.877400	0.103400	0.101330
C741	C74	0.884500	0.267200	0.543360
C751	C75	0.132600	0.657700	0.567550
C761	C76	0.146200	0.754500	0.838700
C771	C77	0.126900	0.018500	0.126580
C781	C78	0.748300	0.851400	0.382590
C791	C79	0.094900	0.798300	0.345260
C801	C80	0.832700	0.774800	0.015720
C811	C81	0.655600	0.914400	0.677220
C821	C82	0.539600	0.818100	0.903540
C831	C83	0.706100	0.901400	0.889590
C841	C84	0.149000	0.296000	0.090650
C851	C85	0.831100	0.689400	0.393080
C861	C86	0.748300	0.351400	0.117410
C871	C87	0.539600	0.318100	0.596460
C881	C88	0.884500	0.767200	0.956640
C891	C89	0.460400	0.181900	0.096460
C901	C90	0.813900	0.827100	0.333940
C911	C91	0.146200	0.254500	0.661300
C921	C92	0.602900	0.869000	0.793900
C931	C93	0.240600	0.054500	0.221390
C941	C94	0.759400	0.445500	0.721390
C951	C95	0.655600	0.414400	0.822780
C961	C96	0.235000	0.786700	0.941680
C971	C97	0.748000	0.722600	0.026710
C981	C98	0.867400	0.342300	0.432450
C991	C99	0.851000	0.704000	0.909350
C1001	C100	0.832700	0.274800	0.484280
C1011	C101	0.813900	0.327100	0.166060
C1021	C102	0.460400	0.681900	0.403540
C1031	C103	0.380500	0.134800	0.137270
C1041	C104	0.132600	0.157700	0.932450
C1051	C105	0.877400	0.603400	0.398670
C1061	C106	0.240600	0.554500	0.278610
C1071	C107	0.293900	0.598600	0.389590
C1081	C108	0.122600	0.896600	0.898670
O11	O1	0.890300	0.563740	0.344350
O21	O2	0.549600	0.827100	0.969170
O31	O3	0.273900	0.073980	0.360940
O41	O4	0.549600	0.327100	0.530830
O51	O5	0.567860	0.906550	0.658370
O61	O6	0.582230	0.610410	0.047100
O71	O7	0.471800	0.277100	0.622370
O81	O8	0.777100	0.436580	0.244900
O91	O9	0.392300	0.238680	0.476620
O101	O10	0.361200	0.598460	0.989620
O111	O11	0.607700	0.761320	0.523380
O121	O12	0.068900	0.731800	0.314140
O131	O13	0.583760	0.561390	0.941210
O141	O14	0.892940	0.465070	0.566990
O151	O15	0.607700	0.261320	0.976620
O161	O16	0.068900	0.231800	0.185860
O171	O17	0.638800	0.901540	0.489620
O181	O18	0.416240	0.938610	0.441210
O191	O19	0.817300	0.353400	0.381730
O201	O20	0.417770	0.389590	0.952900
O211	O21	0.182700	0.146600	0.881730
O221	O22	0.817300	0.853400	0.118270
O231	O23	0.924000	0.620400	0.826690
O241	O24	0.182700	0.646600	0.618270
O251	O25	0.074770	0.972300	0.167540
O261	O26	0.921370	0.382500	0.252480
O271	O27	0.050200	0.614810	0.560760
O281	O28	0.416240	0.438610	0.058790
O291	O29	0.777100	0.936580	0.255100
O301	O30	0.100400	0.921900	0.956020
O311	O31	0.273900	0.573980	0.139060
O321	O32	0.109700	0.436260	0.655650
O331	O33	0.899600	0.078100	0.043980
O341	O34	0.392300	0.738680	0.023380
O351	O35	0.109700	0.936260	0.844350
O361	O36	0.949800	0.885190	0.060760
O371	O37	0.931100	0.268200	0.685860
O381	O38	0.583760	0.061390	0.558790
O391	O39	0.107060	0.034930	0.066990
O401	O40	0.450400	0.672900	0.469170
O411	O41	0.074770	0.472300	0.332460
O421	O42	0.222900	0.563420	0.755100
O431	O43	0.567860	0.406550	0.841630
O441	O44	0.899600	0.578100	0.456020
O451	O45	0.471800	0.777100	0.877630
O461	O46	0.924000	0.120400	0.673310
O471	O47	0.417770	0.889590	0.547100
O481	O48	0.921370	0.882500	0.247520
O491	O49	0.432140	0.093450	0.341630
O501	O50	0.222900	0.063420	0.744900
O511	O51	0.582230	0.110410	0.452900
O521	O52	0.638800	0.401540	0.010380
O531	O53	0.361200	0.098460	0.510380
O541	O54	0.949800	0.385190	0.439240
O551	O55	0.076000	0.879600	0.326690
O561	O56	0.931100	0.768200	0.814140
O571	O57	0.528200	0.722900	0.377630
O581	O58	0.100400	0.421900	0.543980
O591	O59	0.050200	0.114810	0.939240
O601	O60	0.528200	0.222900	0.122370
O611	O61	0.078630	0.117500	0.752480
O621	O62	0.078630	0.617500	0.747520
O631	O63	0.726100	0.926020	0.639060
O641	O64	0.107060	0.534930	0.433010
O651	O65	0.450400	0.172900	0.030830
O661	O66	0.925230	0.527700	0.667540
O671	O67	0.890300	0.063740	0.155650
O681	O68	0.432140	0.593450	0.158370
O691	O69	0.076000	0.379600	0.173310
O701	O70	0.892940	0.965070	0.933010
O711	O71	0.726100	0.426020	0.860940
O721	O72	0.925230	0.027700	0.832460
