data_ic402280p_si_002_freeONLY_PM
_symmetry_space_group_name_H-M	'P1'
_cell_length_a	16.149100
_cell_length_b	20.689600
_cell_length_c	20.759200
_cell_angle_alpha	113.408000
_cell_angle_beta	98.040000
_cell_angle_gamma	90.077000
_symmetry_Int_Tables_number 1

loop_
_symmetry_equiv_pos_as_xyz
'x,y,z'

loop_
_atom_site_label
_atom_site_type_symbol
_atom_site_fract_x
_atom_site_fract_y
_atom_site_fract_z
Cu11	Cu1	0.670320	0.059220	0.062740
Cu21	Cu2	0.619140	0.189660	0.210010
Cu31	Cu3	0.829560	0.158420	0.189450
Cu41	Cu4	0.008460	0.076540	0.201050
Cu51	Cu5	0.957080	0.201180	0.349600
Cu61	Cu6	0.998690	0.907410	0.251470
Cu71	Cu7	0.066370	0.783620	0.112480
Cu81	Cu8	0.170300	0.827110	0.286690
Cu91	Cu9	0.382500	0.802960	0.290770
Cu101	Cu10	0.315410	0.930450	0.429170
Cu111	Cu11	0.141060	0.280870	0.484290
Cu121	Cu12	0.173800	0.454710	0.522810
Cu131	Cu13	0.319010	0.354600	0.558000
Cu141	Cu14	0.441240	0.280000	0.654230
Cu151	Cu15	0.504050	0.433040	0.645330
Cu161	Cu16	0.497050	0.567380	0.840150
Cu171	Cu17	0.559850	0.720860	0.832900
Cu181	Cu18	0.675910	0.651800	0.942780
Cu191	Cu19	0.821520	0.546380	0.980480
Cu201	Cu20	0.889460	0.691310	0.962450
S11	S1	0.092590	0.702510	0.354480
S21	S2	0.555060	0.798200	0.696140
S31	S3	0.934880	0.273860	0.125030
S41	S4	0.427380	0.205520	0.792020
O11	O1	0.135900	0.488700	0.119000
O21	O2	0.103400	0.388000	0.130800
O31	O3	0.204400	0.423100	0.390500
O41	O4	0.157900	0.517600	0.472400
O51	O5	0.137300	0.737100	0.425800
O61	O6	0.123500	0.725600	0.303600
O71	O7	0.003100	0.708700	0.354400
O81	O8	0.643100	0.993900	0.961600
O91	O9	0.683300	0.091700	0.952000
O101	O10	0.601500	0.109300	0.720400
O111	O11	0.637500	0.015400	0.629100
O121	O12	0.493900	0.789600	0.635200
O131	O13	0.634600	0.767300	0.679500
O141	O14	0.521500	0.776600	0.746400
O151	O15	0.843200	0.467200	0.013800
O161	O16	0.792300	0.552500	0.100400
O171	O17	0.844200	0.575300	0.337200
O181	O18	0.871000	0.485300	0.368600
O191	O19	0.997900	0.268900	0.181500
O201	O20	0.859100	0.233200	0.119800
O211	O21	0.969200	0.256700	0.060900
O221	O22	0.337700	0.002000	0.529200
O231	O23	0.290500	0.910100	0.546400
O241	O24	0.395500	0.897800	0.777800
O251	O25	0.362500	0.992100	0.869700
O261	O26	0.468900	0.226400	0.744500
O271	O27	0.346100	0.234300	0.800100
O281	O28	0.478700	0.220700	0.859700
O291	O29	0.718700	0.151420	0.139980
H11	H1	0.720400	0.184000	0.116400
O301	O30	0.946900	0.164690	0.229400
H21	H2	0.977100	0.199800	0.219300
O311	O31	0.199300	0.371120	0.545230
H31	H3	0.182300	0.382600	0.591900
O321	O32	0.436900	0.344650	0.584500
H41	H4	0.462400	0.319200	0.541900
O331	O33	0.062500	0.821980	0.229700
H51	H5	0.026900	0.786900	0.235600
O341	O34	0.272500	0.836240	0.349870
H61	H6	0.265800	0.803300	0.372400
O351	O35	0.563300	0.656260	0.901000
H71	H7	0.532400	0.681500	0.940200
O361	O36	0.783200	0.643080	0.990300
H81	H8	0.782600	0.670300	0.041100
O371	O37	0.300700	0.323700	0.436900
H91	H9	0.327700	0.353800	0.428100
H101	H10	0.248900	0.323100	0.421800
O381	O38	0.644500	0.732600	0.046200
H111	H11	0.621200	0.711600	0.067500
H121	H12	0.611000	0.760800	0.037500
N11	N1	0.916800	0.030000	0.117200
N21	N2	0.846700	0.063500	0.118100
N31	N3	0.787300	0.023800	0.065800
N41	N4	0.558800	0.102900	0.059100
N51	N5	0.542700	0.158200	0.115300
N61	N6	0.473300	0.186700	0.099200
N71	N7	0.838200	0.225400	0.348500
N81	N8	0.790000	0.208800	0.286000
N91	N9	0.709600	0.217700	0.294900
N101	N10	0.099100	0.127000	0.280800
N111	N11	0.076400	0.173700	0.341200
N121	N12	0.143100	0.196200	0.392500
N131	N13	0.990700	0.304400	0.397000
N141	N14	0.060200	0.330700	0.443500
N151	N15	0.066600	0.400400	0.464400
N161	N16	0.289900	0.496200	0.565200
N171	N17	0.344600	0.455300	0.582200
N181	N18	0.419400	0.488500	0.610100
N191	N19	0.205400	0.241100	0.546200
N201	N20	0.284200	0.265800	0.567400
N211	N21	0.319700	0.244700	0.616300
N221	N22	0.478800	0.186200	0.590500
N231	N23	0.550900	0.163800	0.611600
N241	N24	0.571300	0.107500	0.557900
N251	N25	0.589100	0.377000	0.675800
N261	N26	0.561700	0.319300	0.682200
N271	N27	0.625500	0.294500	0.712000
N281	N28	0.403900	0.369000	0.726900
N291	N29	0.440900	0.431400	0.737600
N301	N30	0.420900	0.480500	0.796000
N311	N31	0.578500	0.519900	0.689600
N321	N32	0.557700	0.570000	0.748500
N331	N33	0.591800	0.632300	0.756900
N341	N34	0.580400	0.514300	0.878600
N351	N35	0.652400	0.549200	0.915300
N361	N36	0.704300	0.508200	0.934400
N371	N37	0.682500	0.748500	0.864700
N381	N38	0.725900	0.719100	0.904800
N391	N39	0.808000	0.730800	0.907900
N401	N40	0.936400	0.592300	0.028700
N411	N41	0.960300	0.653600	0.025900
N421	N42	0.030700	0.680600	0.070200
N431	N43	0.411300	0.624700	0.813900
N441	N44	0.437500	0.684200	0.809000
N451	N45	0.372200	0.712300	0.785000
N461	N46	0.199900	0.962300	0.410300
N471	N47	0.148300	0.922200	0.352800
N481	N48	0.081800	0.956800	0.342000
N491	N49	0.917300	0.854300	0.163400
N501	N50	0.945600	0.806700	0.107200
N511	N51	0.885400	0.783100	0.051200
N521	N52	0.185000	0.763200	0.130700
N531	N53	0.223600	0.780800	0.197500
N541	N54	0.305400	0.770400	0.197500
N551	N55	0.915500	0.101000	0.327800
N561	N56	0.951300	0.048000	0.282300
N571	N57	0.925600	0.987200	0.284300
N581	N58	0.078100	0.994600	0.159600
N591	N59	0.064600	0.937000	0.171400
N601	N60	0.097500	0.882900	0.123500
C11	C1	0.821200	0.963200	0.030500
H131	H13	0.794300	0.925100	0.991200
C21	C2	0.902500	0.967100	0.062400
H141	H14	0.940600	0.932400	0.048500
C31	C3	0.444000	0.146200	0.030800
H151	H15	0.395400	0.152900	0.004900
C41	C4	0.497000	0.093600	0.005500
H161	H16	0.491300	0.058300	0.959900
C51	C5	0.708600	0.242000	0.364500
H171	H17	0.661100	0.253400	0.386500
C61	C6	0.788800	0.247500	0.398400
H181	H18	0.805800	0.263700	0.447200
C71	C7	0.208100	0.163000	0.365000
H191	H19	0.262500	0.168200	0.388900
C81	C8	0.181100	0.119500	0.294900
H201	H20	0.213900	0.090200	0.263100
C91	C9	0.001400	0.418100	0.430000
H211	H21	0.990300	0.463400	0.433700
C101	C10	0.953800	0.358000	0.388300
H221	H22	0.903700	0.355000	0.358700
C111	C11	0.412000	0.553700	0.612400
H231	H23	0.454000	0.589800	0.630600
C121	C12	0.332800	0.558000	0.583700
H241	H24	0.311600	0.597400	0.577700
C131	C13	0.189600	0.202700	0.582800
H251	H25	0.139000	0.179100	0.579300
C141	C14	0.263200	0.205300	0.626600
H261	H26	0.271500	0.183200	0.658000
C151	C15	0.510200	0.094500	0.502000
H271	H27	0.507700	0.058300	0.457100
C161	C16	0.453400	0.143800	0.523200
H281	H28	0.404700	0.147300	0.495300
C171	C17	0.693200	0.337300	0.724500
H291	H29	0.746800	0.332500	0.744500
C181	C18	0.669600	0.389200	0.702500
H301	H30	0.704100	0.426700	0.705600
C191	C19	0.368900	0.450400	0.822800
H311	H31	0.344500	0.473000	0.863400
C201	C20	0.358800	0.380300	0.779000
H321	H32	0.326000	0.346500	0.784600
C211	C21	0.637700	0.622600	0.704500
H331	H33	0.669300	0.657000	0.698800
C221	C22	0.628500	0.551600	0.661000
H341	H34	0.652000	0.529300	0.619900
C231	C23	0.664100	0.444500	0.908400
H351	H35	0.685500	0.404600	0.913000
C241	C24	0.587300	0.447100	0.874200
H361	H36	0.546800	0.409900	0.851900
C251	C25	0.818000	0.768600	0.869300
H371	H37	0.868700	0.784400	0.862500
C261	C26	0.739900	0.779600	0.841900
H381	H38	0.728000	0.804000	0.812800
C271	C27	0.053900	0.636400	0.100800
H391	H39	0.101700	0.642300	0.133900
C281	C28	0.995000	0.580600	0.075000
H401	H40	0.995500	0.541900	0.087200
C291	C29	0.303300	0.670200	0.775200
H411	H41	0.248600	0.677500	0.759900
C301	C30	0.329000	0.614400	0.792200
H421	H42	0.295000	0.576600	0.789000
C311	C31	0.091600	0.020400	0.394300
H431	H43	0.054500	0.056000	0.400800
C321	C32	0.165800	0.024900	0.437100
H441	H44	0.188600	0.064100	0.477300
C331	C33	0.816400	0.816900	0.072000
H451	H45	0.764400	0.811200	0.044000
C341	C34	0.837200	0.861400	0.142200
H461	H46	0.801500	0.891400	0.170300
C351	C35	0.320000	0.744900	0.130600
H471	H47	0.371400	0.732400	0.115400
C361	C36	0.244900	0.740400	0.088000
H481	H48	0.236600	0.724500	0.038800
C371	C37	0.871600	0.003300	0.331500
H491	H49	0.843200	0.971100	0.343000
C381	C38	0.865500	0.074000	0.359300
H501	H50	0.833000	0.099300	0.393600
C391	C39	0.132500	0.906700	0.080800
H511	H51	0.159100	0.880300	0.042600
C401	C40	0.121100	0.976500	0.104800
H521	H52	0.140000	0.007100	0.086300
C411	C41	0.118700	0.496900	0.232100
C421	C42	0.138700	0.468900	0.282400
H531	H53	0.147200	0.421000	0.267800
C431	C43	0.146300	0.511700	0.354100
C441	C44	0.130200	0.582500	0.376000
H541	H54	0.133300	0.610800	0.424100
C451	C45	0.109800	0.611000	0.326500
C461	C46	0.104700	0.569400	0.255100
H551	H55	0.091900	0.589100	0.222000
C471	C47	0.118600	0.454500	0.153500
C481	C48	0.171300	0.481200	0.408500
C491	C49	0.629200	0.993200	0.846100
C501	C50	0.631200	0.032200	0.805200
H561	H56	0.646400	0.080200	0.827200
C511	C51	0.611000	0.000500	0.732500
C521	C52	0.587800	0.929400	0.699500
H571	H57	0.575800	0.907600	0.650300
C531	C53	0.582500	0.890400	0.740400
C541	C54	0.603400	0.922000	0.813200
H581	H58	0.600200	0.895700	0.840300
C551	C55	0.654200	0.029900	0.925200
C561	C56	0.616700	0.044900	0.689800
C571	C57	0.875000	0.469800	0.248200
C581	C58	0.852200	0.498100	0.198900
H591	H59	0.833900	0.543700	0.213800
C591	C59	0.856100	0.459900	0.127200
C601	C60	0.883100	0.392500	0.104500
H601	H60	0.885800	0.366600	0.056700
C611	C61	0.906200	0.363400	0.153900
C621	C62	0.902700	0.401600	0.225200
H611	H61	0.918800	0.381800	0.257800
C631	C63	0.863800	0.512800	0.324300
C641	C64	0.827500	0.495900	0.076700
C651	C65	0.381200	0.004200	0.763500
C661	C66	0.358100	0.970500	0.690100
H621	H62	0.343200	0.922300	0.669600
C671	C67	0.356900	0.007800	0.646900
C681	C68	0.383200	0.079400	0.678100
H631	H63	0.385300	0.104900	0.650100
C691	C69	0.406200	0.112000	0.751200
C701	C70	0.402800	0.076100	0.794800
H641	H64	0.414700	0.099700	0.843900
C711	C71	0.325400	0.970200	0.568400
C721	C72	0.380700	0.961400	0.808300
Cu211	Cu21	0.329680	0.940780	0.937260
Cu221	Cu22	0.380860	0.810340	0.789990
Cu231	Cu23	0.170440	0.841580	0.810550
Cu241	Cu24	0.991540	0.923460	0.798950
Cu251	Cu25	0.042920	0.798820	0.650400
Cu261	Cu26	0.001310	0.092590	0.748530
Cu271	Cu27	0.933630	0.216380	0.887520
Cu281	Cu28	0.829700	0.172890	0.713310
Cu291	Cu29	0.617500	0.197040	0.709230
Cu301	Cu30	0.684590	0.069550	0.570830
Cu311	Cu31	0.858940	0.719130	0.515710
Cu321	Cu32	0.826200	0.545290	0.477190
Cu331	Cu33	0.680990	0.645400	0.442000
Cu341	Cu34	0.558760	0.720000	0.345770
Cu351	Cu35	0.495950	0.566960	0.354670
Cu361	Cu36	0.502950	0.432620	0.159850
Cu371	Cu37	0.440150	0.279140	0.167100
Cu381	Cu38	0.324090	0.348200	0.057220
Cu391	Cu39	0.178480	0.453620	0.019520
Cu401	Cu40	0.110540	0.308690	0.037550
S51	S5	0.907410	0.297490	0.645520
S61	S6	0.444940	0.201800	0.303860
S71	S7	0.065120	0.726140	0.874970
S81	S8	0.572620	0.794480	0.207980
O391	O39	0.864100	0.511300	0.881000
O401	O40	0.896600	0.612000	0.869200
O411	O41	0.795600	0.576900	0.609500
O421	O42	0.842100	0.482400	0.527600
O431	O43	0.862700	0.262900	0.574200
O441	O44	0.876500	0.274400	0.696400
O451	O45	0.996900	0.291300	0.645600
O461	O46	0.356900	0.006100	0.038400
O471	O47	0.316700	0.908300	0.048000
O481	O48	0.398500	0.890700	0.279600
O491	O49	0.362500	0.984600	0.370900
O501	O50	0.506100	0.210400	0.364800
O511	O51	0.365400	0.232700	0.320500
O521	O52	0.478500	0.223400	0.253600
O531	O53	0.156800	0.532800	0.986200
O541	O54	0.207700	0.447500	0.899600
O551	O55	0.155800	0.424700	0.662800
O561	O56	0.129000	0.514700	0.631400
O571	O57	0.002100	0.731100	0.818500
O581	O58	0.140900	0.766800	0.880200
O591	O59	0.030800	0.743300	0.939100
O601	O60	0.662300	0.998000	0.470800
O611	O61	0.709500	0.089900	0.453600
O621	O62	0.604500	0.102200	0.222200
O631	O63	0.637500	0.007900	0.130300
O641	O64	0.531100	0.773600	0.255500
O651	O65	0.653900	0.765700	0.199900
O661	O66	0.521300	0.779300	0.140300
O671	O67	0.281300	0.848580	0.860020
H651	H65	0.279600	0.816000	0.883600
O681	O68	0.053100	0.835310	0.770600
H661	H66	0.022900	0.800200	0.780700
O691	O69	0.800700	0.628880	0.454770
H671	H67	0.817700	0.617400	0.408100
O701	O70	0.563100	0.655350	0.415500
H681	H68	0.537600	0.680800	0.458100
O711	O71	0.937500	0.178020	0.770300
H691	H69	0.973100	0.213100	0.764400
O721	O72	0.727500	0.163760	0.650130
H701	H70	0.734200	0.196700	0.627600
O731	O73	0.436700	0.343740	0.099000
H711	H71	0.467600	0.318500	0.059800
O741	O74	0.216800	0.356920	0.009700
H721	H72	0.217400	0.329700	0.958900
O751	O75	0.699300	0.676300	0.563100
H731	H73	0.672300	0.646200	0.571900
H741	H74	0.751100	0.676900	0.578200
O761	O76	0.355500	0.267400	0.953800
H751	H75	0.378800	0.288400	0.932500
H761	H76	0.389000	0.239200	0.962500
N611	N61	0.083200	0.970000	0.882800
N621	N62	0.153300	0.936500	0.881900
N631	N63	0.212700	0.976200	0.934200
N641	N64	0.441200	0.897100	0.940900
N651	N65	0.457300	0.841800	0.884700
N661	N66	0.526700	0.813300	0.900800
N671	N67	0.161800	0.774600	0.651500
N681	N68	0.210000	0.791200	0.714000
N691	N69	0.290400	0.782300	0.705100
N701	N70	0.900900	0.873000	0.719200
N711	N71	0.923600	0.826300	0.658800
N721	N72	0.856900	0.803800	0.607500
N731	N73	0.009300	0.695600	0.603000
N741	N74	0.939800	0.669300	0.556500
N751	N75	0.933400	0.599600	0.535600
N761	N76	0.710100	0.503800	0.434800
N771	N77	0.655400	0.544700	0.417800
N781	N78	0.580600	0.511500	0.389900
N791	N79	0.794600	0.758900	0.453800
N801	N80	0.715800	0.734200	0.432600
N811	N81	0.680300	0.755300	0.383700
N821	N82	0.521200	0.813800	0.409500
N831	N83	0.449100	0.836200	0.388400
N841	N84	0.428700	0.892500	0.442100
N851	N85	0.410900	0.623000	0.324200
N861	N86	0.438300	0.680700	0.317800
N871	N87	0.374500	0.705500	0.288000
N881	N88	0.596100	0.631000	0.273100
N891	N89	0.559100	0.568600	0.262400
N901	N90	0.579100	0.519500	0.204000
N911	N91	0.421500	0.480100	0.310400
N921	N92	0.442300	0.430000	0.251500
N931	N93	0.408200	0.367700	0.243100
N941	N94	0.419600	0.485700	0.121400
N951	N95	0.347600	0.450800	0.084700
N961	N96	0.295700	0.491800	0.065600
N971	N97	0.317500	0.251500	0.135300
N981	N98	0.274100	0.280900	0.095200
N991	N99	0.192000	0.269200	0.092100
N1001	N100	0.063600	0.407700	0.971300
N1011	N101	0.039700	0.346400	0.974100
N1021	N102	0.969300	0.319400	0.929800
N1031	N103	0.588700	0.375300	0.186100
N1041	N104	0.562500	0.315800	0.191000
N1051	N105	0.627800	0.287700	0.215000
N1061	N106	0.800100	0.037700	0.589700
N1071	N107	0.851700	0.077800	0.647200
N1081	N108	0.918200	0.043200	0.658000
N1091	N109	0.082700	0.145700	0.836600
N1101	N110	0.054400	0.193300	0.892800
N1111	N111	0.114600	0.216900	0.948800
N1121	N112	0.815000	0.236800	0.869300
N1131	N113	0.776400	0.219200	0.802500
N1141	N114	0.694600	0.229600	0.802500
N1151	N115	0.084500	0.899000	0.672200
N1161	N116	0.048700	0.952000	0.717700
N1171	N117	0.074400	0.012800	0.715700
N1181	N118	0.921900	0.005400	0.840400
N1191	N119	0.935400	0.063000	0.828600
N1201	N120	0.902500	0.117100	0.876500
C731	C73	0.178800	0.036800	0.969500
H771	H77	0.205700	0.074900	0.008800
C741	C74	0.097500	0.032900	0.937600
H781	H78	0.059400	0.067600	0.951500
C751	C75	0.556000	0.853800	0.969200
H791	H79	0.604600	0.847100	0.995100
C761	C76	0.503000	0.906400	0.994500
H801	H80	0.508700	0.941700	0.040100
C771	C77	0.291400	0.758000	0.635500
H811	H81	0.338900	0.746600	0.613500
C781	C78	0.211200	0.752500	0.601600
H821	H82	0.194200	0.736300	0.552800
C791	C79	0.791900	0.837000	0.635000
H831	H83	0.737500	0.831800	0.611100
C801	C80	0.818900	0.880500	0.705100
H841	H84	0.786100	0.909800	0.736900
C811	C81	0.998600	0.581900	0.570000
H851	H85	0.009700	0.536600	0.566300
C821	C82	0.046200	0.642000	0.611700
H861	H86	0.096300	0.645000	0.641300
C831	C83	0.588000	0.446300	0.387600
H871	H87	0.546000	0.410200	0.369400
C841	C84	0.667200	0.442000	0.416300
H881	H88	0.688400	0.402600	0.422300
C851	C85	0.810400	0.797300	0.417200
H891	H89	0.861000	0.820900	0.420700
C861	C86	0.736800	0.794700	0.373400
H901	H90	0.728500	0.816800	0.342000
C871	C87	0.489800	0.905500	0.498000
H911	H91	0.492300	0.941700	0.542900
C881	C88	0.546600	0.856200	0.476800
H921	H92	0.595300	0.852700	0.504700
C891	C89	0.306800	0.662700	0.275500
H931	H93	0.253200	0.667500	0.255500
C901	C90	0.330400	0.610800	0.297500
H941	H94	0.295900	0.573300	0.294400
C911	C91	0.631100	0.549600	0.177200
H951	H95	0.655500	0.527000	0.136600
C921	C92	0.641200	0.619700	0.221000
H961	H96	0.674000	0.653500	0.215400
C931	C93	0.362300	0.377400	0.295500
H971	H97	0.330700	0.343000	0.301200
C941	C94	0.371500	0.448400	0.339000
H981	H98	0.348000	0.470700	0.380100
C951	C95	0.335900	0.555500	0.091600
H991	H99	0.314500	0.595400	0.087000
C961	C96	0.412700	0.552900	0.125800
H1001	H100	0.453200	0.590100	0.148100
C971	C97	0.182000	0.231400	0.130700
H1011	H101	0.131300	0.215600	0.137500
C981	C98	0.260100	0.220400	0.158100
H1021	H102	0.272000	0.196000	0.187200
C991	C99	0.946100	0.363600	0.899200
H1031	H103	0.898300	0.357700	0.866100
C1001	C100	0.005000	0.419400	0.925000
H1041	H104	0.004500	0.458100	0.912800
C1011	C101	0.696700	0.329800	0.224800
H1051	H105	0.751400	0.322500	0.240100
C1021	C102	0.671000	0.385600	0.207800
H1061	H106	0.705000	0.423400	0.211000
C1031	C103	0.908400	0.979600	0.605700
H1071	H107	0.945500	0.944000	0.599200
C1041	C104	0.834200	0.975100	0.562900
H1081	H108	0.811400	0.935900	0.522700
C1051	C105	0.183600	0.183100	0.928000
H1091	H109	0.235600	0.188800	0.956000
C1061	C106	0.162800	0.138600	0.857800
H1101	H110	0.198500	0.108600	0.829700
C1071	C107	0.680000	0.255100	0.869400
H1111	H111	0.628600	0.267600	0.884600
C1081	C108	0.755100	0.259600	0.912000
H1121	H112	0.763400	0.275500	0.961200
C1091	C109	0.128400	0.996700	0.668500
H1131	H113	0.156800	0.028900	0.657000
C1101	C110	0.134500	0.926000	0.640700
H1141	H114	0.167000	0.900700	0.606400
C1111	C111	0.867500	0.093300	0.919200
H1151	H115	0.840900	0.119700	0.957400
C1121	C112	0.878900	0.023500	0.895200
H1161	H116	0.860000	0.992900	0.913700
C1131	C113	0.881300	0.503100	0.767900
C1141	C114	0.861300	0.531100	0.717600
H1171	H117	0.852800	0.579000	0.732200
C1151	C115	0.853700	0.488300	0.645900
C1161	C116	0.869800	0.417500	0.624000
H1181	H118	0.866700	0.389200	0.575900
C1171	C117	0.890200	0.389000	0.673500
C1181	C118	0.895300	0.430600	0.744900
H1191	H119	0.908100	0.410900	0.778000
C1191	C119	0.881400	0.545500	0.846500
C1201	C120	0.828700	0.518800	0.591500
C1211	C121	0.370800	0.006800	0.153900
C1221	C122	0.368800	0.967800	0.194800
H1201	H120	0.353600	0.919800	0.172800
C1231	C123	0.389000	0.999500	0.267500
C1241	C124	0.412200	0.070600	0.300500
H1211	H121	0.424200	0.092400	0.349700
C1251	C125	0.417500	0.109600	0.259600
C1261	C126	0.396600	0.078000	0.186800
H1221	H122	0.399800	0.104300	0.159700
C1271	C127	0.345800	0.970100	0.074800
C1281	C128	0.383300	0.955100	0.310200
C1291	C129	0.125000	0.530200	0.751800
C1301	C130	0.147800	0.501900	0.801100
H1231	H123	0.166100	0.456300	0.786200
C1311	C131	0.143900	0.540100	0.872800
C1321	C132	0.116900	0.607500	0.895500
H1241	H124	0.114200	0.633400	0.943300
C1331	C133	0.093800	0.636600	0.846100
C1341	C134	0.097300	0.598400	0.774800
H1251	H125	0.081200	0.618200	0.742200
C1351	C135	0.136200	0.487200	0.675700
C1361	C136	0.172500	0.504100	0.923300
C1371	C137	0.618800	0.995800	0.236500
C1381	C138	0.641900	0.029500	0.309900
H1261	H126	0.656800	0.077700	0.330400
C1391	C139	0.643100	0.992200	0.353100
C1401	C140	0.616800	0.920600	0.321900
H1271	H127	0.614700	0.895100	0.349900
C1411	C141	0.593800	0.888000	0.248800
C1421	C142	0.597200	0.923900	0.205200
H1281	H128	0.585300	0.900300	0.156100
C1431	C143	0.674600	0.029800	0.431600
C1441	C144	0.619300	0.038600	0.191700
