data_ic403134c_si_002_freeONLY_PM
_symmetry_space_group_name_H-M	'P1'
_cell_length_a	5.399200
_cell_length_b	11.140800
_cell_length_c	13.681100
_cell_angle_alpha	90.885000
_cell_angle_beta	94.250000
_cell_angle_gamma	91.825000
_symmetry_Int_Tables_number 1

loop_
_symmetry_equiv_pos_as_xyz
'x,y,z'

loop_
_atom_site_label
_atom_site_type_symbol
_atom_site_fract_x
_atom_site_fract_y
_atom_site_fract_z
Li11	Li1	0.815200	0.513300	0.064300
Li21	Li2	0.196700	0.016200	0.442500
Li31	Li3	0.803300	0.983800	0.557500
Li41	Li4	0.184800	0.486700	0.935700
H11	H1	0.904400	0.914600	0.254500
H21	H2	0.574400	0.678900	0.654200
H31	H3	0.095600	0.085400	0.745500
H41	H4	0.050400	0.157100	0.277400
H51	H5	0.943400	0.771300	0.132100
H61	H6	0.425600	0.321100	0.345800
H71	H7	0.445600	0.160500	0.617200
H81	H8	0.056600	0.228700	0.867900
H91	H9	0.905700	0.701900	0.843300
H101	H10	0.498700	0.461300	0.227500
H111	H11	0.949600	0.842900	0.722600
H121	H12	0.554400	0.839500	0.382800
H131	H13	0.094300	0.298100	0.156700
H141	H14	0.501300	0.538700	0.772500
H151	H15	0.379500	0.300200	0.738800
H161	H16	0.620500	0.699800	0.261200
C11	C1	0.073900	0.785300	0.181900
C21	C2	0.569600	0.173200	0.669600
C31	C3	0.948800	0.130300	0.743800
C41	C4	0.042600	0.696700	0.803800
C51	C5	0.471000	0.742700	0.258300
C61	C6	0.931900	0.217800	0.267600
C71	C7	0.269900	0.777400	0.675390
C81	C8	0.926100	0.214700	0.818100
C91	C9	0.434000	0.685100	0.691700
C101	C10	0.957400	0.303300	0.196200
C111	C11	0.610100	0.397500	0.236700
C121	C12	0.730100	0.222600	0.324610
C131	C13	0.335100	0.633000	0.099650
C141	C14	0.566000	0.314900	0.308300
C151	C15	0.051200	0.869700	0.256200
C161	C16	0.430400	0.826800	0.330400
C171	C17	0.068100	0.782200	0.732400
C181	C18	0.529000	0.257300	0.741700
C191	C19	0.318700	0.868700	0.597190
C201	C20	0.681300	0.131300	0.402810
C211	C21	0.664900	0.367000	0.900350
C221	C22	0.709500	0.278100	0.818310
C231	C23	0.290500	0.721900	0.181690
C241	C24	0.389900	0.602500	0.763300
N11	N1	0.800700	0.392700	0.179360
N21	N2	0.199300	0.607300	0.820640
N31	N3	0.775800	0.108700	0.670010
N41	N4	0.224200	0.891300	0.329990
O11	O1	0.467400	0.126530	0.431440
O21	O2	0.555500	0.617400	0.084210
O31	O3	0.857300	0.066880	0.432950
O41	O4	0.147600	0.584020	0.054040
O51	O5	0.444500	0.382600	0.915790
O61	O6	0.852400	0.415980	0.945960
O71	O7	0.142700	0.933120	0.567050
O81	O8	0.532600	0.873470	0.568560
