data_ic402058f_si_004_freeONLY_PM
_symmetry_space_group_name_H-M	'P1'
_cell_length_a	11.439100
_cell_length_b	15.448100
_cell_length_c	19.115600
_cell_angle_alpha	94.625000
_cell_angle_beta	90.000000
_cell_angle_gamma	90.000000
_symmetry_Int_Tables_number 1

loop_
_symmetry_equiv_pos_as_xyz
'x,y,z'

loop_
_atom_site_label
_atom_site_type_symbol
_atom_site_fract_x
_atom_site_fract_y
_atom_site_fract_z
Cd11	Cd1	0.566370	0.543340	0.422900
Cd21	Cd2	0.433630	0.543340	0.922900
Cd31	Cd3	0.566370	0.456660	0.077100
Cd41	Cd4	0.531990	0.500000	0.750000
Cd51	Cd5	0.468010	0.500000	0.250000
Cd61	Cd6	0.433630	0.456660	0.577100
H11	H1	0.001400	0.763700	0.305100
H21	H2	0.314800	0.617900	0.692700
H31	H3	0.268000	0.720100	0.480400
H41	H4	0.681700	0.832800	0.755300
H51	H5	0.190200	0.019600	0.588500
H61	H6	0.150000	0.933000	0.367000
H71	H7	0.738200	0.710700	0.108800
H81	H8	0.150000	0.067000	0.133000
H91	H9	0.579100	0.706500	0.723200
H101	H10	0.119400	0.179000	0.999800
H111	H11	0.991900	0.836600	0.670100
H121	H12	0.844000	0.336000	0.714000
H131	H13	0.008100	0.836600	0.170100
H141	H14	0.195600	0.898200	0.761200
H151	H15	0.314800	0.382100	0.807300
H161	H16	0.001400	0.236300	0.194900
H171	H17	0.743000	0.806000	0.344000
H181	H18	0.008100	0.163400	0.329900
H191	H19	0.257000	0.194000	0.656000
H201	H20	0.156000	0.664000	0.286000
H211	H21	0.743000	0.194000	0.156000
H221	H22	0.311500	0.285200	0.475100
H231	H23	0.681700	0.167200	0.744700
H241	H24	0.261800	0.710700	0.608800
H251	H25	0.688500	0.714800	0.524900
H261	H26	0.791800	0.841300	0.556800
H271	H27	0.311500	0.714800	0.024900
H281	H28	0.208200	0.158700	0.443200
H291	H29	0.318300	0.832800	0.255300
H301	H30	0.420900	0.706500	0.223200
H311	H31	0.579100	0.293500	0.776800
H321	H32	0.738200	0.289300	0.391200
H331	H33	0.998600	0.236300	0.694900
H341	H34	0.318300	0.167200	0.244700
H351	H35	0.685200	0.382100	0.307300
H361	H36	0.850000	0.067000	0.633000
H371	H37	0.119400	0.821000	0.500200
H381	H38	0.732000	0.720100	0.980400
H391	H39	0.190200	0.980400	0.911500
H401	H40	0.791800	0.158700	0.943200
H411	H41	0.685200	0.617900	0.192700
H421	H42	0.880600	0.821000	0.000200
H431	H43	0.804400	0.101800	0.238800
H441	H44	0.804400	0.898200	0.261200
H451	H45	0.420900	0.293500	0.276800
H461	H46	0.998600	0.763700	0.805100
H471	H47	0.732000	0.279900	0.519600
H481	H48	0.880600	0.179000	0.499800
H491	H49	0.991900	0.163400	0.829900
H501	H50	0.809800	0.019600	0.088500
H511	H51	0.688500	0.285200	0.975100
H521	H52	0.156000	0.336000	0.214000
H531	H53	0.261800	0.289300	0.891200
H541	H54	0.268000	0.279900	0.019600
H551	H55	0.208200	0.841300	0.056800
H561	H56	0.809800	0.980400	0.411500
H571	H57	0.195600	0.101800	0.738800
H581	H58	0.850000	0.933000	0.867000
H591	H59	0.257000	0.806000	0.844000
H601	H60	0.844000	0.664000	0.786000
C11	C1	0.085300	0.030500	0.132200
C21	C2	0.375500	0.697310	0.121080
C31	C3	0.665800	0.644620	0.329900
C41	C4	0.055900	0.244600	0.160000
C51	C5	0.094500	0.052000	0.345240
C61	C6	0.254500	0.786500	0.797340
C71	C7	0.105500	0.079200	0.870240
C81	C8	0.873800	0.210400	0.543100
C91	C9	0.854600	0.695800	0.828220
C101	C10	0.779100	0.842200	0.247530
C111	C11	0.905500	0.052000	0.845240
C121	C12	0.559900	0.385660	0.898140
C131	C13	0.745500	0.213500	0.202660
C141	C14	0.375500	0.302690	0.378920
C151	C15	0.440100	0.614340	0.101860
C161	C16	0.022000	0.943700	0.892380
C171	C17	0.622100	0.266700	0.810250
C181	C18	0.978000	0.943700	0.392380
C191	C19	0.000600	0.891800	0.154420
C201	C20	0.048600	0.802300	0.404200
C211	C21	0.739800	0.270200	0.343810
C221	C22	0.894500	0.920800	0.129760
C231	C23	0.944100	0.244600	0.660000
C241	C24	0.377900	0.733300	0.189750
C251	C25	0.334200	0.355380	0.670100
C261	C26	0.253500	0.151900	0.340810
C271	C27	0.774500	0.317760	0.619490
C281	C28	0.774200	0.186800	0.322970
C291	C29	0.440100	0.385660	0.398140
C301	C30	0.085300	0.969500	0.367800
C311	C31	0.944100	0.755400	0.840000
C321	C32	0.779100	0.157800	0.252470
C331	C33	0.785000	0.270800	0.555200
C341	C34	0.260200	0.729800	0.656190
C351	C35	0.325100	0.619690	0.366360
C361	C36	0.745500	0.786500	0.297340
C371	C37	0.292400	0.674600	0.706500
C381	C38	0.674900	0.380310	0.633640
C391	C39	0.145400	0.695800	0.328220
C401	C40	0.749300	0.813900	0.590110
C411	C41	0.774200	0.813200	0.177030
C421	C42	0.624500	0.302690	0.878920
C431	C43	0.316700	0.191200	0.290900
C441	C44	0.377900	0.266700	0.310250
C451	C45	0.622100	0.733300	0.689750
C461	C46	0.118700	0.998100	0.894380
C471	C47	0.785000	0.729200	0.944800
C481	C48	0.316700	0.808800	0.209100
C491	C49	0.739800	0.729800	0.156190
C501	C50	0.978000	0.056300	0.107620
C511	C51	0.708400	0.297050	0.223030
C521	C52	0.746500	0.151900	0.840810
C531	C53	0.225800	0.813200	0.677030
C541	C54	0.225800	0.186800	0.822970
C551	C55	0.253500	0.848100	0.159190
C561	C56	0.250700	0.813900	0.090110
C571	C57	0.126200	0.789600	0.456900
C581	C58	0.022000	0.056300	0.607620
C591	C59	0.674900	0.619690	0.866360
C601	C60	0.055900	0.755400	0.340000
C611	C61	0.687600	0.261800	0.928760
C621	C62	0.118700	0.001900	0.605620
C631	C63	0.854600	0.304200	0.671780
C641	C64	0.220900	0.842200	0.747530
C651	C65	0.291600	0.702950	0.776970
C661	C66	0.687600	0.738200	0.571240
C671	C67	0.254500	0.213500	0.702660
C681	C68	0.094500	0.948000	0.154760
C691	C69	0.683300	0.191200	0.790900
C701	C70	0.105500	0.920800	0.629760
C711	C71	0.260200	0.270200	0.843810
C721	C72	0.624500	0.697310	0.621080
C731	C73	0.999400	0.108200	0.845580
C741	C74	0.774500	0.682240	0.880510
C751	C75	0.292400	0.325400	0.793500
C761	C76	0.559900	0.614340	0.601860
C771	C77	0.749300	0.186100	0.909890
C781	C78	0.325100	0.380310	0.133640
C791	C79	0.894500	0.079200	0.370240
C801	C80	0.220900	0.157800	0.752470
C811	C81	0.999400	0.891800	0.654420
C821	C82	0.225500	0.317760	0.119490
C831	C83	0.145400	0.304200	0.171780
C841	C84	0.881300	0.001900	0.105620
C851	C85	0.312400	0.738200	0.071240
C861	C86	0.291600	0.297050	0.723030
C871	C87	0.873800	0.789600	0.956900
C881	C88	0.225500	0.682240	0.380510
C891	C89	0.914700	0.030500	0.632200
C901	C90	0.881300	0.998100	0.394380
C911	C91	0.951400	0.197700	0.595800
C921	C92	0.914700	0.969500	0.867800
C931	C93	0.905500	0.948000	0.654760
C941	C94	0.707600	0.325400	0.293500
C951	C95	0.707600	0.674600	0.206500
C961	C96	0.708400	0.702950	0.276970
C971	C97	0.683300	0.808800	0.709100
C981	C98	0.048600	0.197700	0.095800
C991	C99	0.250700	0.186100	0.409890
C1001	C100	0.334200	0.644620	0.829900
C1011	C101	0.746500	0.848100	0.659190
C1021	C102	0.215000	0.270800	0.055200
C1031	C103	0.312400	0.261800	0.428760
C1041	C104	0.951400	0.802300	0.904200
C1051	C105	0.215000	0.729200	0.444800
C1061	C106	0.665800	0.355380	0.170100
C1071	C107	0.126200	0.210400	0.043100
C1081	C108	0.000600	0.108200	0.345580
O11	O1	0.040600	0.862890	0.916460
O21	O2	0.386400	0.397010	0.081570
O31	O3	0.325300	0.334320	0.605780
O41	O4	0.515400	0.425750	0.849780
O51	O5	0.451700	0.586270	0.039040
O61	O6	0.674700	0.334320	0.105780
O71	O7	0.959400	0.862890	0.416460
O81	O8	0.325300	0.665680	0.894220
O91	O9	0.380700	0.427560	0.691650
O101	O10	0.451700	0.413730	0.460960
O111	O11	0.515400	0.574250	0.650220
O121	O12	0.202600	0.133060	0.876010
O131	O13	0.798600	0.926050	0.682640
O141	O14	0.291400	0.455650	0.959420
O151	O15	0.660600	0.410770	0.695620
O161	O16	0.339400	0.410770	0.195620
O171	O17	0.613600	0.602990	0.918430
O181	O18	0.548300	0.586270	0.539040
O191	O19	0.619300	0.572440	0.308350
O201	O20	0.660600	0.589230	0.804380
O211	O21	0.484600	0.574250	0.150220
O221	O22	0.548300	0.413730	0.960960
O231	O23	0.201400	0.073950	0.317360
O241	O24	0.797400	0.866940	0.123990
O251	O25	0.291400	0.544350	0.540580
O261	O26	0.201400	0.926050	0.182640
O271	O27	0.708600	0.455650	0.459420
O281	O28	0.798600	0.073950	0.817360
O291	O29	0.339400	0.589230	0.304380
O301	O30	0.040600	0.137110	0.583540
O311	O31	0.386400	0.602990	0.418430
O321	O32	0.380700	0.572440	0.808350
O331	O33	0.202600	0.866940	0.623990
O341	O34	0.619300	0.427560	0.191650
O351	O35	0.674700	0.665680	0.394220
O361	O36	0.613600	0.397010	0.581570
O371	O37	0.959400	0.137110	0.083540
O381	O38	0.708600	0.544350	0.040580
O391	O39	0.484600	0.425750	0.349780
O401	O40	0.797400	0.133060	0.376010
