data_ic502643m_si_007_freeONLY_PM
_symmetry_space_group_name_H-M	'P1'
_cell_length_a	10.297000
_cell_length_b	30.563500
_cell_length_c	30.926200
_cell_angle_alpha	90.000000
_cell_angle_beta	90.000000
_cell_angle_gamma	91.468000
_symmetry_Int_Tables_number 1

loop_
_symmetry_equiv_pos_as_xyz
'x,y,z'

loop_
_atom_site_label
_atom_site_type_symbol
_atom_site_fract_x
_atom_site_fract_y
_atom_site_fract_z
Zn11	Zn1	0.168290	0.321860	0.326870
Zn21	Zn2	0.476590	0.163170	0.917540
Zn31	Zn3	0.473200	0.089920	0.842020
Zn41	Zn4	0.976590	0.663170	0.582460
Zn51	Zn5	0.125340	0.681680	0.669540
Zn61	Zn6	0.374660	0.818320	0.169540
Zn71	Zn7	0.526800	0.910080	0.157980
Zn81	Zn8	0.026800	0.410080	0.342020
Zn91	Zn9	0.625340	0.181680	0.830460
Zn101	Zn10	0.331710	0.178140	0.826870
Zn111	Zn11	0.523410	0.836830	0.082460
Zn121	Zn12	0.831710	0.678140	0.673130
Zn131	Zn13	0.874660	0.318320	0.330460
Zn141	Zn14	0.668290	0.821860	0.173130
Zn151	Zn15	0.973200	0.589920	0.657980
Zn161	Zn16	0.023410	0.336830	0.417540
H11	H1	0.997000	0.427500	0.520200
H21	H2	0.026900	0.882700	0.184000
H31	H3	0.712300	0.276200	0.498900
H41	H4	0.723000	0.686000	0.225000
H51	H5	0.223000	0.186000	0.275000
H61	H6	0.388600	0.225900	0.617400
H71	H7	0.497000	0.927500	0.979800
H81	H8	0.338700	0.490200	0.281100
H91	H9	0.676700	0.614100	0.249400
H101	H10	0.287700	0.723800	0.501100
H111	H11	0.838700	0.990200	0.218900
H121	H12	0.177500	0.220300	0.000600
H131	H13	0.643700	0.801900	0.312400
H141	H14	0.889000	0.944400	0.769700
H151	H15	0.730900	0.492700	0.284300
H161	H16	0.131600	0.809900	0.670700
H171	H17	0.677500	0.720300	0.499400
H181	H18	0.322500	0.279700	0.500600
H191	H19	0.661300	0.509800	0.718900
H201	H20	0.526900	0.382700	0.316000
H211	H21	0.518000	0.306600	0.390000
H221	H22	0.868400	0.190100	0.329300
H231	H23	0.503000	0.072500	0.020200
H241	H24	0.356300	0.198100	0.687600
H251	H25	0.161300	0.009800	0.781100
H261	H26	0.143700	0.301900	0.187600
H271	H27	0.631600	0.309900	0.829300
H281	H28	0.823300	0.885900	0.749400
H291	H29	0.473100	0.617300	0.684000
H301	H30	0.773800	0.265900	0.215800
H311	H31	0.433300	0.257800	0.560900
H321	H32	0.521100	0.018200	0.072200
H331	H33	0.822500	0.779700	0.999400
H341	H34	0.226200	0.734100	0.784200
H351	H35	0.566700	0.742200	0.439100
H361	H36	0.482000	0.693400	0.610000
H371	H37	0.324300	0.618300	0.194100
H381	H38	0.478900	0.981800	0.927800
H391	H39	0.269100	0.507300	0.715700
H401	H40	0.611000	0.555600	0.269700
H411	H41	0.212300	0.776200	0.001100
H421	H42	0.003000	0.572500	0.479800
H431	H43	0.175700	0.881700	0.694100
H441	H44	0.856300	0.698100	0.812400
H451	H45	0.787700	0.223800	0.998900
H461	H46	0.018000	0.806600	0.110000
H471	H47	0.368400	0.690100	0.170700
H481	H48	0.611400	0.774100	0.382600
H491	H49	0.933300	0.757800	0.939100
H501	H50	0.254500	0.761000	0.853200
H511	H51	0.230900	0.992700	0.215700
H521	H52	0.973100	0.117300	0.816000
H531	H53	0.021100	0.518200	0.427800
H541	H54	0.982000	0.193400	0.890000
H551	H55	0.769100	0.007300	0.784300
H561	H56	0.745500	0.239000	0.146800
H571	H57	0.726200	0.234100	0.715800
H581	H58	0.277000	0.314000	0.775000
H591	H59	0.675700	0.381700	0.805900
H601	H60	0.754500	0.261000	0.646800
H611	H61	0.111400	0.274100	0.117400
H621	H62	0.888600	0.725900	0.882600
H631	H63	0.389000	0.444400	0.730300
H641	H64	0.111000	0.055600	0.230300
H651	H65	0.777000	0.814000	0.725000
H661	H66	0.176700	0.114100	0.250600
H671	H67	0.323300	0.385900	0.750600
H681	H68	0.273800	0.765900	0.284200
H691	H69	0.066700	0.242200	0.060900
H701	H70	0.824300	0.118300	0.305900
H711	H71	0.245500	0.739000	0.353200
H721	H72	0.978900	0.481800	0.572200
C11	C1	0.069900	0.824910	0.686330
C21	C2	0.952200	0.805330	0.695960
C31	C3	0.721700	0.694410	0.581130
C41	C4	0.364300	0.707010	0.559370
C51	C5	0.221700	0.194410	0.918870
C61	C6	0.643000	0.672520	0.219160
C71	C7	0.415900	0.433370	0.299430
C81	C8	0.452200	0.305330	0.804040
C91	C9	0.044000	0.272780	0.137400
C101	C10	0.935800	0.710600	0.820510
C111	C11	0.965600	0.001860	0.777760
C121	C12	0.083400	0.023890	0.785440
C131	C13	0.981200	0.225600	0.005950
C141	C14	0.853100	0.066220	0.800950
C151	C15	0.434500	0.259910	0.818850
C161	C16	0.324700	0.751720	0.345000
C171	C17	0.029300	0.911710	0.193040
C181	C18	0.527900	0.186530	0.749500
C191	C19	0.238800	0.699880	0.583630
C201	C20	0.158200	0.732430	0.803990
C211	C21	0.503700	0.390970	0.775920
C221	C22	0.864300	0.207010	0.940630
C231	C23	0.384900	0.370920	0.766400
C241	C24	0.573500	0.245200	0.625700
C251	C25	0.018600	0.799590	0.080750
C261	C26	0.175300	0.748280	0.845000
C271	C27	0.073500	0.745200	0.874300
C281	C28	0.510900	0.967650	0.031800
C291	C29	0.135700	0.792990	0.059370
C301	C30	0.980900	0.568130	0.564540
C311	C31	0.099400	0.217330	0.985640
C321	C32	0.857000	0.827480	0.719160
C331	C33	0.518600	0.299590	0.419250
C341	C34	0.962100	0.286400	0.208210
C351	C35	0.537900	0.213600	0.708210
C361	C36	0.470700	0.588290	0.693040
C371	C37	0.569900	0.324910	0.813670
C381	C38	0.146900	0.933780	0.199050
C391	C39	0.512600	0.010460	0.043230
C401	C40	0.841800	0.267570	0.196010
C411	C41	0.987400	0.489540	0.543230
C421	C42	0.019100	0.431870	0.435460
C431	C43	0.996300	0.109030	0.275920
C441	C44	0.430100	0.675090	0.186330
C451	C45	0.596100	0.368190	0.799500
C461	C46	0.353100	0.566220	0.699050
C471	C47	0.903100	0.795510	0.057860
C481	C48	0.615100	0.629080	0.233600
C491	C49	0.915900	0.933370	0.200570
C501	C50	0.261200	0.800120	0.083630
C511	C51	0.972100	0.313470	0.249500
C521	C52	0.341800	0.767570	0.303990
C531	C53	0.778300	0.805590	0.081130
C541	C54	0.461900	0.562960	0.237730
C551	C55	0.956000	0.727220	0.862600
C561	C56	0.899300	0.237900	0.080490
C571	C57	0.596900	0.704490	0.557860
C581	C58	0.278300	0.305590	0.418870
C591	C59	0.518800	0.274400	0.505950
C601	C60	0.634400	0.280410	0.484450
C611	C61	0.711000	0.591190	0.691820
C621	C62	0.519100	0.931870	0.064540
C631	C63	0.084100	0.066630	0.799430
C641	C64	0.403100	0.295510	0.442140
C651	C65	0.934500	0.759910	0.681150
C661	C66	0.151700	0.977570	0.212830
C671	C67	0.064200	0.289400	0.179490
C681	C68	0.034400	0.998140	0.222240
C691	C69	0.365600	0.719590	0.515550
C701	C70	0.529300	0.411710	0.306960
C711	C71	0.738800	0.199880	0.916370
C721	C72	0.018800	0.774400	0.994050
C731	C73	0.771100	0.410920	0.313280
C741	C74	0.584100	0.566630	0.700570
C751	C75	0.865600	0.219590	0.984450
C761	C76	0.761200	0.300120	0.416370
C771	C77	0.900600	0.782670	0.014360
C781	C78	0.462100	0.786400	0.291790
C791	C79	0.211000	0.091190	0.808180
C801	C80	0.480900	0.068130	0.935460
C811	C81	0.884900	0.870920	0.733600
C821	C82	0.003700	0.890970	0.724080
C831	C83	0.998200	0.456790	0.511890
C841	C84	0.400600	0.282670	0.485640
C851	C85	0.903900	0.131810	0.299500
C861	C86	0.496300	0.609030	0.224080
C871	C87	0.047800	0.194670	0.304040
C881	C88	0.961900	0.062960	0.262270
C891	C89	0.930100	0.175090	0.313670
C901	C90	0.271100	0.910920	0.186720
C911	C91	0.481400	0.700410	0.580750
C921	C92	0.635700	0.292990	0.440630
C931	C93	0.651700	0.477570	0.287170
C941	C94	0.435800	0.210600	0.679490
C951	C95	0.065500	0.240090	0.318850
C961	C96	0.600700	0.262100	0.580490
C971	C97	0.547800	0.694670	0.195960
C981	C98	0.096100	0.868190	0.700500
C991	C99	0.027900	0.686530	0.750500
C1001	C100	0.970700	0.088290	0.806960
C1011	C101	0.487400	0.989540	0.956770
C1021	C102	0.228900	0.589080	0.686720
C1031	C103	0.675300	0.248280	0.655000
C1041	C104	0.115100	0.129080	0.266400
C1051	C105	0.534400	0.498140	0.277760
C1061	C106	0.289000	0.408810	0.308180
C1071	C107	0.465600	0.501860	0.722240
C1081	C108	0.544000	0.772780	0.362600
C1091	C109	0.038100	0.937040	0.737730
C1101	C110	0.134400	0.780410	0.015550
C1111	C111	0.357000	0.327480	0.780840
C1121	C112	0.538100	0.437040	0.762270
C1131	C113	0.564200	0.789400	0.320510
C1141	C114	0.728900	0.089080	0.813280
C1151	C115	0.001800	0.543210	0.488110
C1161	C116	0.456000	0.227220	0.637400
C1171	C117	0.100700	0.762100	0.919510
C1181	C118	0.416600	0.476110	0.285440
C1191	C119	0.489100	0.032350	0.968200
C1201	C120	0.848300	0.022430	0.787170
C1211	C121	0.646900	0.433780	0.300950
C1221	C122	0.399300	0.737900	0.419510
C1231	C123	0.143000	0.172520	0.280840
C1241	C124	0.583400	0.523890	0.714560
C1251	C125	0.481200	0.725600	0.494050
C1261	C126	0.789000	0.908810	0.191820
C1271	C127	0.472100	0.813470	0.250500
C1281	C128	0.599400	0.717330	0.514360
C1291	C129	0.012600	0.510460	0.456770
C1301	C130	0.501800	0.043210	0.011890
C1311	C131	0.037900	0.713600	0.791790
C1321	C132	0.989100	0.532350	0.531800
C1331	C133	0.926500	0.254800	0.125700
C1341	C134	0.916600	0.976110	0.214560
C1351	C135	0.348300	0.522430	0.712830
C1361	C136	0.498200	0.956790	0.988110
C1371	C137	0.824700	0.251720	0.155000
C1381	C138	0.658200	0.232430	0.696010
C1391	C139	0.010900	0.467650	0.468200
C1401	C140	0.981400	0.200410	0.919250
C1411	C141	0.403900	0.631810	0.200500
C1421	C142	0.096900	0.204490	0.942140
C1431	C143	0.426500	0.754800	0.374300
C1441	C144	0.565500	0.740090	0.181150
N11	N1	0.957900	0.958950	0.762080
N21	N2	0.510400	0.263830	0.551650
N31	N3	0.989600	0.236170	0.051650
N41	N4	0.457900	0.458950	0.737920
N51	N5	0.010400	0.763830	0.948350
N61	N6	0.042100	0.041050	0.237920
N71	N7	0.489600	0.736170	0.448350
N81	N8	0.542100	0.541050	0.262080
O11	O1	0.624500	0.067290	0.812790
O21	O2	0.522900	0.245840	0.838570
O31	O3	0.854000	0.045120	0.268770
O41	O4	0.713300	0.690320	0.620410
O51	O5	0.742000	0.128180	0.821470
O61	O6	0.476800	0.150910	0.856630
O71	O7	0.207500	0.777630	0.931220
O81	O8	0.213300	0.190320	0.879590
O91	O9	0.870000	0.302250	0.269550
O101	O10	0.977100	0.254160	0.338570
O111	O11	0.875500	0.432710	0.312790
O121	O12	0.023200	0.349090	0.356630
O131	O13	0.792500	0.222370	0.068780
O141	O14	0.707500	0.277630	0.568780
O151	O15	0.375500	0.932710	0.187210
O161	O16	0.258000	0.871820	0.178530
O171	O17	0.822400	0.690820	0.558530
O181	O18	0.758000	0.371820	0.321470
O191	O19	0.138800	0.692470	0.562280
O201	O20	0.861200	0.307530	0.437720
O211	O21	0.934100	0.666980	0.736490
O221	O22	0.242000	0.628180	0.678530
O231	O23	0.749000	0.201390	0.875940
O241	O24	0.166600	0.261560	0.308950
O251	O25	0.146000	0.954880	0.731230
O261	O26	0.370000	0.802250	0.230450
O271	O27	0.638800	0.192470	0.937720
O281	O28	0.124500	0.567290	0.687210
O291	O29	0.026800	0.443130	0.397030
O301	O30	0.286700	0.309680	0.379590
O311	O31	0.293900	0.367970	0.307860
O321	O32	0.354000	0.545120	0.231230
O331	O33	0.017600	0.393150	0.448870
O341	O34	0.793900	0.867970	0.192140
O351	O35	0.630000	0.197750	0.769550
O361	O36	0.130000	0.697750	0.730450
O371	O37	0.249000	0.701390	0.624060
O381	O38	0.477100	0.754160	0.161430
O391	O39	0.322400	0.190820	0.941470
O401	O40	0.177600	0.309180	0.441470
O411	O41	0.251000	0.798610	0.124060
O421	O42	0.666600	0.761560	0.191050
O431	O43	0.751000	0.298610	0.375940
O441	O44	0.311800	0.069240	0.814300
O451	O45	0.434100	0.166980	0.763510
O461	O46	0.811800	0.569240	0.685700
O471	O47	0.833400	0.738440	0.691050
O481	O48	0.982400	0.606850	0.551130
O491	O49	0.188200	0.430760	0.314300
O501	O50	0.065900	0.333020	0.263510
O511	O51	0.526800	0.943130	0.102970
O521	O52	0.786700	0.809680	0.120410
O531	O53	0.646000	0.454880	0.768770
O541	O54	0.333400	0.238440	0.808950
O551	O55	0.022900	0.745840	0.661430
O561	O56	0.677600	0.809180	0.058530
O571	O57	0.517600	0.893150	0.051130
O581	O58	0.973200	0.556870	0.602970
O591	O59	0.482400	0.106850	0.948870
O601	O60	0.292500	0.722370	0.431220
O611	O61	0.206100	0.132030	0.807860
O621	O62	0.523200	0.849090	0.143370
O631	O63	0.473200	0.056870	0.897030
O641	O64	0.976800	0.650910	0.643370
O651	O65	0.688200	0.930760	0.185700
O661	O66	0.361200	0.807530	0.062280
O671	O67	0.565900	0.833020	0.236490
O681	O68	0.706100	0.632030	0.692140
