data_ic500323r_si_001_freeONLY_PM
_symmetry_space_group_name_H-M	'P1'
_cell_length_a	11.312700
_cell_length_b	14.687000
_cell_length_c	14.766000
_cell_angle_alpha	85.881000
_cell_angle_beta	79.811000
_cell_angle_gamma	70.300000
_symmetry_Int_Tables_number 1

loop_
_symmetry_equiv_pos_as_xyz
'x,y,z'

loop_
_atom_site_label
_atom_site_type_symbol
_atom_site_fract_x
_atom_site_fract_y
_atom_site_fract_z
Fe11	Fe1	0.458200	0.493290	0.748000
Fe21	Fe2	0.894240	0.978740	0.747640
Fe31	Fe3	0.105760	0.021260	0.252360
Fe41	Fe4	0.541800	0.506710	0.252000
H11	H1	0.610600	0.559500	0.566300
H21	H2	0.794700	0.916300	0.442500
H31	H3	0.894600	0.382700	0.591400
H41	H4	0.689600	0.565200	0.068100
H51	H5	0.852200	0.581700	0.777800
H61	H6	0.911400	0.362800	0.109500
H71	H7	0.078000	0.729500	0.288400
H81	H8	0.210200	0.397700	0.486500
H91	H9	0.922000	0.270500	0.711600
H101	H10	0.130200	0.392700	0.989200
H111	H11	0.088600	0.637200	0.890500
H121	H12	0.310400	0.434800	0.931900
H131	H13	0.674700	0.538500	0.820500
H141	H14	0.975000	0.246100	0.221800
H151	H15	0.058400	0.404400	0.730400
H161	H16	0.179700	0.187800	0.430900
H171	H17	0.238200	0.448100	0.680200
H181	H18	0.869800	0.607300	0.010800
H191	H19	0.389400	0.440500	0.433700
H201	H20	0.205300	0.083700	0.557500
H211	H21	0.105400	0.617300	0.408600
H221	H22	0.951500	0.845800	0.080500
H231	H23	0.147800	0.418300	0.222200
H241	H24	0.761800	0.551900	0.319800
H251	H25	0.888900	0.957200	0.964400
H261	H26	0.820300	0.812200	0.569100
H271	H27	0.325300	0.461500	0.179500
H281	H28	0.111100	0.042800	0.035600
H291	H29	0.048500	0.154200	0.919500
H301	H30	0.941600	0.595600	0.269600
H311	H31	0.025000	0.753900	0.778200
H321	H32	0.789800	0.602300	0.513500
Pt11	Pt1	0.257200	0.752760	0.504980
Pt21	Pt2	0.669980	0.242450	0.994350
Pt31	Pt3	0.742800	0.247240	0.495020
Pt41	Pt4	0.330020	0.757550	0.005650
C11	C1	0.022500	0.729400	0.999000
C21	C2	0.609800	0.332200	0.588800
C31	C3	0.741500	0.570800	0.109200
C41	C4	0.929500	0.891800	0.949000
C51	C5	0.978200	0.255100	0.655600
C61	C6	0.965800	0.825100	0.019600
C71	C7	0.723300	0.139000	0.901000
C81	C8	0.201300	0.856000	0.410100
C91	C9	0.686700	0.348400	0.398500
C101	C10	0.603100	0.339400	0.899400
C111	C11	0.849400	0.596600	0.074300
C121	C12	0.396900	0.660600	0.100600
C131	C13	0.143400	0.145500	0.564500
C141	C14	0.156000	0.404800	0.360300
C151	C15	0.040800	0.677700	0.417200
C161	C16	0.150600	0.403400	0.925700
C171	C17	0.073300	0.393600	0.864900
C181	C18	0.805100	0.576600	0.733000
C191	C19	0.194900	0.423400	0.267000
C201	C20	0.070500	0.108200	0.051000
C211	C21	0.844000	0.595200	0.639700
C221	C22	0.926700	0.606400	0.135100
C231	C23	0.034100	0.299600	0.500500
C241	C24	0.991300	0.227000	0.160100
C251	C25	0.119800	0.836400	0.597900
C261	C26	0.107700	0.410500	0.773200
C271	C27	0.313300	0.651600	0.601500
C281	C28	0.965900	0.700400	0.499500
C291	C29	0.880200	0.163600	0.402100
C301	C30	0.892300	0.589500	0.226800
C311	C31	0.625700	0.344000	0.089200
C321	C32	0.008700	0.773000	0.839900
C331	C33	0.661200	0.563100	0.609100
C341	C34	0.698600	0.551100	0.757900
C351	C35	0.953100	0.297700	0.093000
C361	C36	0.301400	0.448900	0.242100
C371	C37	0.046900	0.702300	0.907000
C381	C38	0.798700	0.144000	0.589900
C391	C39	0.267100	0.858200	0.911500
C401	C40	0.231400	0.410900	0.423700
C411	C41	0.021800	0.744900	0.344400
C421	C42	0.338800	0.436900	0.390900
C431	C43	0.977500	0.270600	0.001000
C441	C44	0.390200	0.667800	0.411200
C451	C45	0.216300	0.436600	0.743400
C461	C46	0.959200	0.322300	0.582800
C471	C47	0.871200	0.793100	0.511600
C481	C48	0.276700	0.861000	0.099000
C491	C49	0.732900	0.141800	0.088500
C501	C50	0.374300	0.656000	0.910800
C511	C51	0.034200	0.174900	0.980400
C521	C52	0.258500	0.429200	0.890800
C531	C53	0.128800	0.206900	0.488400
C541	C54	0.856600	0.854500	0.435500
C551	C55	0.768600	0.589100	0.576300
C561	C56	0.783700	0.563400	0.256600
S11	S1	0.081010	0.636850	0.094210
S21	S2	0.918990	0.363150	0.905790
S31	S3	0.999170	0.378940	0.392890
S41	S4	0.000830	0.621060	0.607110
N11	N1	0.766200	0.081900	0.142100
N21	N2	0.040200	0.883500	0.650800
N31	N3	0.647200	0.406200	0.345800
N41	N4	0.759600	0.077100	0.848800
N51	N5	0.709400	0.553900	0.199200
N61	N6	0.352800	0.593800	0.654200
N71	N7	0.600800	0.400800	0.146000
N81	N8	0.928600	0.828800	0.350800
N91	N9	0.290600	0.446100	0.800800
N101	N10	0.463700	0.615600	0.358100
N111	N11	0.071400	0.171200	0.649200
N121	N12	0.624800	0.542800	0.697900
N131	N13	0.437400	0.606400	0.157500
N141	N14	0.233800	0.918100	0.857900
N151	N15	0.166800	0.915600	0.357500
N161	N16	0.959800	0.116500	0.349200
N171	N17	0.375200	0.457200	0.302100
N181	N18	0.562600	0.393600	0.842500
N191	N19	0.050700	0.132600	0.140500
N201	N20	0.833200	0.084400	0.642500
N211	N21	0.949300	0.867400	0.859500
N221	N22	0.240400	0.922900	0.151200
N231	N23	0.536300	0.384400	0.641900
N241	N24	0.399200	0.599200	0.854000
O11	O1	0.970200	0.962400	0.221400
O21	O2	0.029800	0.037600	0.778600
O31	O3	0.753000	0.919100	0.725600
O41	O4	0.247000	0.080900	0.274400
