data_ic502725y_si_003_freeONLY_PM
_symmetry_space_group_name_H-M	'P1'
_cell_length_a	9.194800
_cell_length_b	10.727000
_cell_length_c	10.727000
_cell_angle_alpha	114.583000
_cell_angle_beta	102.927000
_cell_angle_gamma	102.927000
_symmetry_Int_Tables_number 1

loop_
_symmetry_equiv_pos_as_xyz
'x,y,z'

loop_
_atom_site_label
_atom_site_type_symbol
_atom_site_fract_x
_atom_site_fract_y
_atom_site_fract_z
Th11	Th1	0.250000	0.481310	0.518690
Th21	Th2	0.750000	0.518690	0.481310
H11	H1	0.521800	0.203300	0.048900
H21	H2	0.252700	0.023500	0.482100
H31	H3	0.786600	0.463200	0.810400
H41	H4	0.070600	0.166300	0.019700
H51	H5	0.021800	0.048900	0.203300
H61	H6	0.752700	0.482100	0.023500
H71	H7	0.978200	0.951100	0.796700
H81	H8	0.929400	0.833700	0.980300
H91	H9	0.713400	0.189600	0.536800
H101	H10	0.570600	0.019700	0.166300
H111	H11	0.478200	0.796700	0.951100
H121	H12	0.247300	0.517900	0.976500
H131	H13	0.747300	0.976500	0.517900
H141	H14	0.213400	0.536800	0.189600
H151	H15	0.286600	0.810400	0.463200
H161	H16	0.429400	0.980300	0.833700
C11	C1	0.864800	0.215900	0.323700
C21	C2	0.357300	0.016400	0.872200
C31	C3	0.142700	0.127800	0.983600
C41	C4	0.135200	0.784100	0.676300
C51	C5	0.148100	0.511000	0.986000
C61	C6	0.857300	0.872200	0.016400
C71	C7	0.872500	0.478300	0.886900
C81	C8	0.694800	0.800200	0.938000
C91	C9	0.372500	0.886900	0.478300
C101	C10	0.020900	0.489900	0.872500
C111	C11	0.087100	0.997600	0.851000
C121	C12	0.305200	0.199800	0.062000
C131	C13	0.351900	0.014000	0.489000
C141	C14	0.912900	0.002400	0.149000
C151	C15	0.979100	0.510100	0.127500
C161	C16	0.587100	0.851000	0.997600
C171	C17	0.044200	0.480600	0.735600
C181	C18	0.364800	0.323700	0.215900
C191	C19	0.127500	0.521700	0.113100
C201	C20	0.851900	0.489000	0.014000
C211	C21	0.955800	0.519400	0.264400
C221	C22	0.627500	0.113100	0.521700
C231	C23	0.455800	0.264400	0.519400
C241	C24	0.642700	0.983600	0.127800
C251	C25	0.648100	0.986000	0.511000
C261	C26	0.520900	0.872500	0.489900
C271	C27	0.194800	0.938000	0.800200
C281	C28	0.635200	0.676300	0.784100
C291	C29	0.412900	0.149000	0.002400
C301	C30	0.544200	0.735600	0.480600
C311	C31	0.479100	0.127500	0.510100
C321	C32	0.805200	0.062000	0.199800
O11	O1	0.327200	0.280570	0.526030
O21	O2	0.511000	0.402880	0.272320
O31	O3	0.011000	0.272320	0.402880
O41	O4	0.066300	0.517630	0.356970
O51	O5	0.489000	0.597120	0.727680
O61	O6	0.827200	0.526030	0.280570
O71	O7	0.266900	0.338330	0.280670
O81	O8	0.733100	0.661670	0.719330
O91	O9	0.172800	0.473970	0.719430
O101	O10	0.989000	0.727680	0.597120
O111	O11	0.233100	0.719330	0.661670
O121	O12	0.933700	0.482370	0.643030
O131	O13	0.433700	0.643030	0.482370
O141	O14	0.566300	0.356970	0.517630
O151	O15	0.672800	0.719430	0.473970
O161	O16	0.766900	0.280670	0.338330
