data_ic502643m_si_008_freeONLY_PM
_symmetry_space_group_name_H-M	'P1'
_cell_length_a	10.349000
_cell_length_b	26.084000
_cell_length_c	32.284000
_cell_angle_alpha	90.000000
_cell_angle_beta	90.000000
_cell_angle_gamma	90.000000
_symmetry_Int_Tables_number 1

loop_
_symmetry_equiv_pos_as_xyz
'x,y,z'

loop_
_atom_site_label
_atom_site_type_symbol
_atom_site_fract_x
_atom_site_fract_y
_atom_site_fract_z
Zn11	Zn1	0.500000	0.846360	0.124350
Zn21	Zn2	0.500000	0.153640	0.875650
Zn31	Zn3	0.499710	0.789790	0.034780
Zn41	Zn4	0.000000	0.346360	0.375650
Zn51	Zn5	0.000000	0.653640	0.624350
Zn61	Zn6	0.847100	0.753270	0.613230
Zn71	Zn7	0.999710	0.289790	0.465220
Zn81	Zn8	0.846090	0.246800	0.386780
Zn91	Zn9	0.346090	0.746800	0.113220
Zn101	Zn10	0.653910	0.253200	0.886780
Zn111	Zn11	0.347100	0.253270	0.886770
Zn121	Zn12	0.153910	0.753200	0.613220
Zn131	Zn13	0.152900	0.246730	0.386770
Zn141	Zn14	0.000290	0.710210	0.534780
Zn151	Zn15	0.652900	0.746730	0.113230
Zn161	Zn16	0.500290	0.210210	0.965220
H11	H1	0.673600	0.401800	0.820400
H21	H2	0.042700	0.690800	0.758400
H31	H3	0.308100	0.428500	0.305900
H41	H4	0.569800	0.257800	0.616100
H51	H5	0.790100	0.887900	0.659900
H61	H6	0.501400	0.760000	0.554400
H71	H7	0.322100	0.117000	0.085900
H81	H8	0.924200	0.983900	0.232200
H91	H9	0.709900	0.612100	0.159900
H101	H10	0.188500	0.484200	0.625200
H111	H11	0.311500	0.015800	0.125200
H121	H12	0.865400	0.034000	0.271800
H131	H13	0.691900	0.571500	0.694100
H141	H14	0.498600	0.240000	0.445600
H151	H15	0.806400	0.250400	0.053900
H161	H16	0.305400	0.255500	0.553200
H171	H17	0.748900	0.547800	0.208500
H181	H18	0.957300	0.309200	0.241600
H191	H19	0.069800	0.757800	0.883900
H201	H20	0.463500	0.791400	0.329100
H211	H21	0.001400	0.260000	0.945600
H221	H22	0.326400	0.598200	0.179600
H231	H23	0.457300	0.809200	0.258400
H241	H24	0.677900	0.883000	0.914100
H251	H25	0.930200	0.242200	0.116100
H261	H26	0.542700	0.190800	0.741600
H271	H27	0.306500	0.571800	0.694900
H281	H28	0.819300	0.814600	0.736000
H291	H29	0.813200	0.832400	0.806700
H301	H30	0.193500	0.928200	0.194900
H311	H31	0.115900	0.537100	0.586800
H321	H32	0.248900	0.047800	0.291500
H331	H33	0.536500	0.208600	0.670900
H341	H34	0.000400	0.828700	0.120200
H351	H35	0.680700	0.685400	0.236000
H361	H36	0.884100	0.462900	0.413200
H371	H37	0.177900	0.383000	0.585900
H381	H38	0.808100	0.928500	0.194100
H391	H39	0.805400	0.755500	0.946800
H401	H40	0.693600	0.249600	0.553900
H411	H41	0.499600	0.671300	0.620200
H421	H42	0.319300	0.314600	0.764000
H431	H43	0.290100	0.387900	0.840100
H441	H44	0.998600	0.740000	0.054400
H451	H45	0.384100	0.962900	0.086800
H461	H46	0.109300	0.389600	0.536500
H471	H47	0.365400	0.534000	0.228200
H481	H48	0.430200	0.742200	0.383900
H491	H49	0.826400	0.098200	0.320400
H501	H50	0.999600	0.171300	0.879800
H511	H51	0.173600	0.901800	0.679600
H521	H52	0.963500	0.291400	0.170900
H531	H53	0.313200	0.332400	0.693300
H541	H54	0.251100	0.452200	0.791500
H551	H55	0.806500	0.071800	0.805100
H561	H56	0.075800	0.016100	0.767800
H571	H57	0.390700	0.110400	0.036500
H581	H58	0.575800	0.516100	0.732200
H591	H59	0.890700	0.610400	0.463500
H601	H60	0.634600	0.466000	0.771800
H611	H61	0.134600	0.966000	0.728200
H621	H62	0.811500	0.515800	0.374800
H631	H63	0.424200	0.483900	0.267800
H641	H64	0.751100	0.952200	0.708500
H651	H65	0.191900	0.071500	0.805900
H661	H66	0.180700	0.185400	0.264000
H671	H67	0.194600	0.244500	0.053200
H681	H68	0.615900	0.037100	0.913200
H691	H69	0.686800	0.667600	0.306700
H701	H70	0.688500	0.984200	0.874800
H711	H71	0.609300	0.889600	0.963500
H721	H72	0.693500	0.428200	0.305100
H731	H73	0.186800	0.167600	0.193300
H741	H74	0.500400	0.328700	0.379800
H751	H75	0.694600	0.744500	0.446800
H761	H76	0.209900	0.112100	0.340100
H771	H77	0.822100	0.617000	0.414100
H781	H78	0.193600	0.749600	0.946100
H791	H79	0.036500	0.708600	0.829100
H801	H80	0.306400	0.750400	0.446100
C11	C1	0.485600	0.388700	0.834900
C21	C2	0.916200	0.776600	0.869000
C31	C3	0.493000	0.346700	0.863200
C41	C4	0.424200	0.272200	0.675300
C51	C5	0.883400	0.746600	0.003100
C61	C6	0.507000	0.653300	0.136800
C71	C7	0.884200	0.086800	0.814100
C81	C8	0.565100	0.450300	0.785600
C91	C9	0.499900	0.243400	0.474600
C101	C10	0.881600	0.868800	0.160600
C111	C11	0.843400	0.581600	0.418800
C121	C12	0.383900	0.251600	0.538900
C131	C13	0.836300	0.942000	0.702700
C141	C14	0.558900	0.760300	0.198600
C151	C15	0.497800	0.046100	0.982300
C161	C16	0.113700	0.502300	0.578900
C171	C17	0.054500	0.455900	0.521200
C181	C18	0.887800	0.576300	0.455100
C191	C19	0.088400	0.912000	0.685400
C201	C20	0.434900	0.549700	0.214400
C211	C21	0.263100	0.349400	0.357700
C221	C22	0.554500	0.955900	0.978800
C231	C23	0.568400	0.749000	0.240400
C241	C24	0.384200	0.586800	0.685900
C251	C25	0.235600	0.747700	0.028800
C261	C26	0.000600	0.851400	0.142800
C271	C27	0.236900	0.150600	0.857700
C281	C28	0.500100	0.756600	0.525400
C291	C29	0.002200	0.453900	0.482300
C301	C30	0.001600	0.066700	0.802200
C311	C31	0.431600	0.251000	0.759600
C321	C32	0.911600	0.088000	0.314600
C331	C33	0.457000	0.994900	0.040300
C341	C34	0.613700	0.002300	0.921100
C351	C35	0.999700	0.400800	0.460000
C361	C36	0.363100	0.293200	0.745200
C371	C37	0.411600	0.588000	0.185400
C381	C38	0.118400	0.131200	0.839400
C391	C39	0.501600	0.566700	0.697800
C401	C40	0.503600	0.780600	0.268100
C411	C41	0.068400	0.249000	0.259600
C421	C42	0.492700	0.230000	0.689700
C431	C43	0.615900	0.248700	0.538800
C441	C44	0.264400	0.752300	0.528800
C451	C45	0.116600	0.253400	0.996900
C461	C46	0.763600	0.150000	0.859200
C471	C47	0.336300	0.442000	0.797300
C481	C48	0.359500	0.303800	0.703100
C491	C49	0.000300	0.599200	0.540000
C501	C50	0.934900	0.049700	0.285600
C511	C51	0.346100	0.031200	0.100600
C521	C52	0.996400	0.719400	0.768100
C531	C53	0.359600	0.403700	0.826300
C541	C54	0.259000	0.247200	0.472200
C551	C55	0.560900	0.534700	0.223000
C561	C56	0.945500	0.544100	0.478800
C571	C57	0.263600	0.650000	0.640800
C581	C58	0.065100	0.950300	0.714400
C591	C59	0.383400	0.246600	0.496900
C601	C60	0.500300	0.099200	0.960000
C611	C61	0.000100	0.256600	0.974600
C621	C62	0.502200	0.749100	0.439700
C631	C63	0.112200	0.423700	0.544900
C641	C64	0.153900	0.468800	0.600600
C651	C65	0.759000	0.747200	0.027800
C661	C66	0.385800	0.413000	0.314300
C671	C67	0.116100	0.248400	0.038900
C681	C68	0.999900	0.743400	0.025400
C691	C69	0.241000	0.252800	0.972200
C701	C70	0.591400	0.494100	0.249500
C711	C71	0.908600	0.005900	0.749500
C721	C72	0.736400	0.350000	0.359200
C731	C73	0.741000	0.752800	0.527800
C741	C74	0.500600	0.351400	0.357200
C751	C75	0.939100	0.965300	0.723000
C761	C76	0.614200	0.587000	0.685700
C771	C77	0.617300	0.369000	0.340300
C781	C78	0.764400	0.252300	0.971200
C791	C79	0.075800	0.227800	0.175300
C801	C80	0.120400	0.745300	0.003800
C811	C81	0.136900	0.206800	0.245200
C821	C82	0.863100	0.793200	0.754800
C831	C83	0.091400	0.994100	0.250500
C841	C84	0.379600	0.754700	0.503800
C851	C85	0.115900	0.748700	0.961200
C861	C86	0.924200	0.772200	0.824700
C871	C87	0.883900	0.751600	0.961100
C881	C88	0.514400	0.611300	0.165100
C891	C89	0.620400	0.245300	0.496200
C901	C90	0.439100	0.465300	0.777000
C911	C91	0.117300	0.869000	0.159700
C921	C92	0.382700	0.631000	0.659700
C931	C93	0.640400	0.596300	0.173700
C941	C94	0.499400	0.648600	0.642800
C951	C95	0.236400	0.850000	0.140800
C961	C96	0.343400	0.081600	0.081200
C971	C97	0.575800	0.727800	0.324700
C981	C98	0.997800	0.546100	0.517700
C991	C99	0.859500	0.803800	0.796900
C1001	C100	0.140500	0.196200	0.203100
C1011	C101	0.997800	0.750900	0.939700
C1021	C102	0.612200	0.923700	0.955100
C1031	C103	0.002200	0.249100	0.060300
C1041	C104	0.846100	0.531200	0.399400
C1051	C105	0.618400	0.631200	0.660600
C1061	C106	0.445500	0.044100	0.021200
C1071	C107	0.931600	0.751000	0.740400
C1081	C108	0.007000	0.153300	0.363200
C1091	C109	0.408600	0.505900	0.750500
C1101	C110	0.083800	0.223400	0.131000
C1111	C111	0.114200	0.087000	0.814300
C1121	C112	0.058900	0.260300	0.301400
C1131	C113	0.386300	0.997700	0.078900
C1141	C114	0.885800	0.913000	0.185700
C1151	C115	0.583800	0.723400	0.369000
C1161	C116	0.763100	0.849400	0.142300
C1171	C117	0.060900	0.034700	0.277000
C1181	C118	0.507300	0.770000	0.310300
C1191	C119	0.884100	0.251300	0.038800
C1201	C120	0.735600	0.247700	0.471200
C1211	C121	0.497800	0.250900	0.560300
C1221	C122	0.043000	0.505100	0.540300
C1231	C123	0.387800	0.076300	0.044900
C1241	C124	0.156600	0.418400	0.581200
C1251	C125	0.985600	0.888700	0.665100
C1261	C126	0.999400	0.148600	0.857200
C1271	C127	0.496400	0.219400	0.731900
C1281	C128	0.886300	0.497700	0.421100
C1291	C129	0.498400	0.433300	0.302200
C1301	C130	0.941100	0.739700	0.698600
C1311	C131	0.640500	0.696200	0.296900
C1321	C132	0.384100	0.751300	0.461200
C1331	C133	0.616100	0.748400	0.461100
C1341	C134	0.636900	0.706800	0.254800
C1351	C135	0.879600	0.254700	0.996200
C1361	C136	0.003600	0.280600	0.231900
C1371	C137	0.663700	0.558000	0.202700
C1381	C138	0.653900	0.968800	0.899400
C1391	C139	0.616600	0.753400	0.503100
C1401	C140	0.957000	0.494900	0.459700
C1411	C141	0.014400	0.111300	0.334900
C1421	C142	0.115800	0.913200	0.185900
C1431	C143	0.543000	0.005100	0.959700
C1441	C144	0.007300	0.270000	0.189700
C1451	C145	0.998400	0.933300	0.197800
C1461	C146	0.992700	0.730000	0.810300
C1471	C147	0.140400	0.096300	0.326300
C1481	C148	0.615800	0.413200	0.314100
C1491	C149	0.736900	0.650600	0.642300
C1501	C150	0.416200	0.276600	0.631000
C1511	C151	0.656600	0.918400	0.918800
C1521	C152	0.588400	0.412000	0.814600
C1531	C153	0.441100	0.239700	0.801400
C1541	C154	0.502200	0.953900	0.017700
C1551	C155	0.859600	0.903700	0.673700
C1561	C156	0.993000	0.846700	0.636800
C1571	C157	0.499700	0.900800	0.040000
C1581	C158	0.882700	0.131000	0.840300
C1591	C159	0.163700	0.058000	0.297300
C1601	C160	0.381600	0.368800	0.339400
N11	N1	0.999500	0.244900	0.103900
N21	N2	0.000500	0.755100	0.896100
N31	N3	0.500500	0.255100	0.603900
N41	N4	0.499500	0.744900	0.396100
N51	N5	0.996800	0.028400	0.774000
N61	N6	0.503200	0.471600	0.274000
N71	N7	0.496800	0.528400	0.726000
N81	N8	0.003200	0.971600	0.226000
O11	O1	0.231900	0.190500	0.877100
O21	O2	0.158800	0.734500	0.509300
O31	O3	0.003100	0.399200	0.421600
O41	O4	0.208300	0.974400	0.251200
O51	O5	0.259700	0.770400	0.563810
O61	O6	0.268700	0.690900	0.621900
O71	O7	0.260600	0.229700	0.436340
O81	O8	0.820600	0.804700	0.883600
O91	O9	0.708300	0.474400	0.248800
O101	O10	0.400400	0.324000	0.872700
O111	O11	0.655900	0.764900	0.009380
O121	O12	0.999800	0.363200	0.483100
O131	O13	0.240300	0.729600	0.063810
O141	O14	0.760600	0.729700	0.063660
O151	O15	0.996700	0.291200	0.312700
O161	O16	0.739400	0.770300	0.563660
O171	O17	0.996900	0.600800	0.578400
O181	O18	0.000400	0.282800	0.406710
O191	O19	0.344100	0.235100	0.990620
O201	O20	0.496900	0.100800	0.921600
O211	O21	0.999600	0.717200	0.593290
O221	O22	0.500400	0.782800	0.093290
O231	O23	0.842400	0.372000	0.350100
O241	O24	0.156200	0.372200	0.350400
O251	O25	0.841200	0.265500	0.490700
O261	O26	0.343800	0.127800	0.850400
O271	O27	0.342400	0.872000	0.149900
O281	O28	0.842600	0.767800	0.679800
O291	O29	0.100900	0.826900	0.624700
O301	O30	0.399100	0.673100	0.124700
O311	O31	0.768100	0.809500	0.122900
O321	O32	0.500200	0.136800	0.983100
O331	O33	0.740300	0.229600	0.436190
O341	O34	0.268100	0.309500	0.377100
O351	O35	0.656200	0.872200	0.149600
O361	O36	0.179400	0.195300	0.116400
O371	O37	0.503100	0.899200	0.078400
O381	O38	0.844100	0.735100	0.509380
O391	O39	0.341200	0.765500	0.009300
O401	O40	0.239400	0.270300	0.936340
O411	O41	0.599600	0.676000	0.127300
O421	O42	0.155900	0.264900	0.490620
O431	O43	0.231300	0.809100	0.121900
O441	O44	0.499600	0.217200	0.906710
O451	O45	0.003300	0.708800	0.687300
O461	O46	0.503300	0.208800	0.812700
O471	O47	0.900400	0.824000	0.627300
O481	O48	0.320600	0.304700	0.616400
O491	O49	0.291700	0.525600	0.751200
O501	O50	0.496700	0.791200	0.187300
O511	O51	0.000200	0.636800	0.516900
O521	O52	0.657400	0.732200	0.179800
O531	O53	0.342600	0.267800	0.820200
O541	O54	0.843800	0.627800	0.649600
O551	O55	0.791700	0.025600	0.748800
O561	O56	0.600900	0.326900	0.875300
O571	O57	0.731900	0.690500	0.622900
O581	O58	0.731300	0.309100	0.378100
O591	O59	0.679400	0.695300	0.383600
O601	O60	0.157600	0.628000	0.649900
O611	O61	0.899100	0.173100	0.375300
O621	O62	0.768700	0.190900	0.878100
O631	O63	0.657600	0.128000	0.850100
O641	O64	0.759700	0.270400	0.936190
O651	O65	0.658800	0.234500	0.990700
O661	O66	0.499800	0.863200	0.016900
O671	O67	0.157400	0.232200	0.320200
O681	O68	0.099600	0.176000	0.372700
