data_ic502730y_si_002_freeONLY_PM
_symmetry_space_group_name_H-M	'P1'
_cell_length_a	12.601100
_cell_length_b	13.736400
_cell_length_c	17.287400
_cell_angle_alpha	90.000000
_cell_angle_beta	90.000000
_cell_angle_gamma	90.000000
_symmetry_Int_Tables_number 1

loop_
_symmetry_equiv_pos_as_xyz
'x,y,z'

loop_
_atom_site_label
_atom_site_type_symbol
_atom_site_fract_x
_atom_site_fract_y
_atom_site_fract_z
V11	V1	0.750240	0.124830	0.750610
V21	V2	0.249760	0.124830	0.250610
V31	V3	0.750240	0.375170	0.750610
V41	V4	0.750240	0.875170	0.749390
V51	V5	0.750240	0.624830	0.749390
V61	V6	0.249760	0.624830	0.249390
V71	V7	0.249760	0.875170	0.249390
V81	V8	0.249760	0.375170	0.250610
H11	H1	0.068500	0.103700	0.454500
H21	H2	0.553100	0.853600	0.946900
H31	H3	0.547600	0.644800	0.558400
H41	H4	0.553100	0.146400	0.553100
H51	H5	0.446900	0.353600	0.053100
H61	H6	0.968100	0.104300	0.566700
H71	H7	0.446900	0.853600	0.446900
H81	H8	0.031900	0.604300	0.433300
H91	H9	0.111600	0.500000	0.250000
H101	H10	0.446900	0.146400	0.053100
H111	H11	0.068500	0.896300	0.045500
H121	H12	0.068500	0.603700	0.045500
H131	H13	0.386000	0.750000	0.268000
H141	H14	0.553100	0.353600	0.553100
H151	H15	0.968100	0.604300	0.933300
H161	H16	0.068500	0.396300	0.454500
H171	H17	0.888400	0.500000	0.750000
H181	H18	0.547600	0.855200	0.558400
H191	H19	0.968100	0.895700	0.933300
H201	H20	0.931500	0.896300	0.545500
H211	H21	0.031900	0.395700	0.066700
H221	H22	0.452400	0.644800	0.058400
H231	H23	0.386000	0.250000	0.232000
H241	H24	0.614000	0.250000	0.732000
H251	H25	0.931500	0.396300	0.954500
H261	H26	0.452400	0.144800	0.441600
H271	H27	0.547600	0.355200	0.941600
H281	H28	0.446900	0.646400	0.446900
H291	H29	0.031900	0.895700	0.433300
H301	H30	0.931500	0.603700	0.545500
H311	H31	0.888400	0.000000	0.750000
H321	H32	0.968100	0.395700	0.566700
H331	H33	0.111600	0.000000	0.250000
H341	H34	0.614000	0.750000	0.768000
H351	H35	0.547600	0.144800	0.941600
H361	H36	0.452400	0.855200	0.058400
H371	H37	0.452400	0.355200	0.441600
H381	H38	0.931500	0.103700	0.954500
H391	H39	0.031900	0.104300	0.066700
H401	H40	0.553100	0.646400	0.946900
C11	C1	0.924000	0.750000	0.557800
C21	C2	0.076000	0.750000	0.057800
C31	C3	0.468500	0.912500	0.468160
C41	C4	0.559500	0.999310	0.932750
C51	C5	0.471700	0.586500	0.035000
C61	C6	0.952500	0.837600	0.523430
C71	C7	0.471700	0.086500	0.465000
C81	C8	0.440500	0.500690	0.432750
C91	C9	0.863500	0.750000	0.632100
C101	C10	0.886300	0.750000	0.853300
C111	C11	0.531500	0.912500	0.968160
C121	C12	0.559500	0.499310	0.567250
C131	C13	0.531500	0.412500	0.531840
C141	C14	0.625300	0.502050	0.860730
C151	C15	0.136500	0.250000	0.367900
C161	C16	0.468500	0.412500	0.031840
C171	C17	0.559500	0.500690	0.932750
C181	C18	0.531500	0.087500	0.531840
C191	C19	0.559500	0.000690	0.567250
C201	C20	0.047500	0.837600	0.023430
C211	C21	0.987800	0.662800	0.956200
C221	C22	0.113700	0.750000	0.353300
C231	C23	0.374700	0.997950	0.360730
C241	C24	0.136500	0.750000	0.132100
C251	C25	0.471700	0.413500	0.465000
C261	C26	0.012200	0.662800	0.456200
C271	C27	0.957400	0.250000	0.576900
C281	C28	0.625300	0.997950	0.860730
C291	C29	0.952500	0.662400	0.523430
C301	C30	0.528300	0.586500	0.535000
C311	C31	0.047500	0.162400	0.476570
C321	C32	0.952500	0.337600	0.976570
C331	C33	0.468500	0.587500	0.468160
C341	C34	0.374700	0.497950	0.139270
C351	C35	0.886300	0.250000	0.646700
C361	C36	0.012200	0.337200	0.043800
C371	C37	0.987800	0.337200	0.543800
C381	C38	0.528300	0.086500	0.965000
C391	C39	0.987800	0.837200	0.956200
C401	C40	0.113700	0.250000	0.146700
C411	C41	0.468500	0.087500	0.031840
C421	C42	0.076000	0.250000	0.442200
C431	C43	0.012200	0.837200	0.456200
C441	C44	0.440500	0.000690	0.067250
C451	C45	0.957400	0.750000	0.923100
C461	C46	0.625300	0.497950	0.639270
C471	C47	0.042600	0.250000	0.076900
C481	C48	0.625300	0.002050	0.639270
C491	C49	0.924000	0.250000	0.942200
C501	C50	0.440500	0.499310	0.067250
C511	C51	0.531500	0.587500	0.968160
C521	C52	0.374700	0.502050	0.360730
C531	C53	0.042600	0.750000	0.423100
C541	C54	0.471700	0.913500	0.035000
C551	C55	0.528300	0.413500	0.965000
C561	C56	0.440500	0.999310	0.432750
C571	C57	0.987800	0.162800	0.543800
C581	C58	0.012200	0.162800	0.043800
C591	C59	0.863500	0.250000	0.867900
C601	C60	0.528300	0.913500	0.535000
C611	C61	0.374700	0.002050	0.139270
C621	C62	0.952500	0.162400	0.976570
C631	C63	0.047500	0.662400	0.023430
C641	C64	0.047500	0.337600	0.476570
O11	O1	0.159570	0.331210	0.339330
O21	O2	0.178100	0.500000	0.250000
O31	O3	0.656610	0.583410	0.837340
O41	O4	0.859210	0.831240	0.826890
O51	O5	0.140790	0.668760	0.326890
O61	O6	0.840430	0.831210	0.660670
O71	O7	0.356260	0.078220	0.328630
O81	O8	0.656610	0.416590	0.662660
O91	O9	0.343390	0.916590	0.337340
O101	O10	0.343390	0.416590	0.162660
O111	O11	0.140790	0.168760	0.173110
O121	O12	0.140790	0.331240	0.173110
O131	O13	0.343390	0.083410	0.162660
O141	O14	0.656610	0.083410	0.662660
O151	O15	0.656610	0.916590	0.837340
O161	O16	0.159570	0.668790	0.160670
O171	O17	0.356260	0.421780	0.328630
O181	O18	0.821900	0.500000	0.750000
O191	O19	0.643740	0.578220	0.671370
O201	O20	0.343390	0.583410	0.337340
O211	O21	0.140790	0.831240	0.326890
O221	O22	0.859210	0.668760	0.826890
O231	O23	0.643740	0.921780	0.671370
O241	O24	0.159570	0.168790	0.339330
O251	O25	0.643740	0.078220	0.828630
O261	O26	0.840430	0.331210	0.839330
O271	O27	0.859210	0.168760	0.673110
O281	O28	0.840430	0.668790	0.660670
O291	O29	0.356260	0.921780	0.171370
O301	O30	0.159570	0.831210	0.160670
O311	O31	0.356260	0.578220	0.171370
O321	O32	0.821900	0.000000	0.750000
O331	O33	0.679100	0.750000	0.753420
O341	O34	0.320900	0.250000	0.246580
O351	O35	0.178100	0.000000	0.250000
O361	O36	0.679100	0.250000	0.746580
O371	O37	0.320900	0.750000	0.253420
O381	O38	0.859210	0.331240	0.673110
O391	O39	0.643740	0.421780	0.828630
O401	O40	0.840430	0.168790	0.839330
