data_ic502643m_si_010_freeONLY_PM
_symmetry_space_group_name_H-M	'P1'
_cell_length_a	10.337100
_cell_length_b	31.939000
_cell_length_c	31.988000
_cell_angle_alpha	90.000000
_cell_angle_beta	90.000000
_cell_angle_gamma	91.937000
_symmetry_Int_Tables_number 1

loop_
_symmetry_equiv_pos_as_xyz
'x,y,z'

loop_
_atom_site_label
_atom_site_type_symbol
_atom_site_fract_x
_atom_site_fract_y
_atom_site_fract_z
Zn11	Zn1	0.469840	0.132490	0.800100
Zn21	Zn2	0.668050	0.783610	0.217750
Zn31	Zn3	0.376960	0.778360	0.212060
Zn41	Zn4	0.025760	0.297280	0.371330
Zn51	Zn5	0.974240	0.702720	0.628670
Zn61	Zn6	0.530160	0.867510	0.199900
Zn71	Zn7	0.876960	0.278360	0.287940
Zn81	Zn8	0.525760	0.797280	0.128670
Zn91	Zn9	0.831950	0.716390	0.717750
Zn101	Zn10	0.474240	0.202720	0.871330
Zn111	Zn11	0.331950	0.216390	0.782250
Zn121	Zn12	0.168050	0.283610	0.282250
Zn131	Zn13	0.030160	0.367510	0.300100
Zn141	Zn14	0.123040	0.721640	0.712060
Zn151	Zn15	0.623040	0.221640	0.787940
Zn161	Zn16	0.969840	0.632490	0.699900
H11	H1	0.942100	0.744700	0.986300
H21	H2	0.980900	0.479300	0.567200
H31	H3	0.283900	0.088500	0.244900
H41	H4	0.442100	0.244700	0.513700
H51	H5	0.512400	0.068700	0.021300
H61	H6	0.536600	0.970900	0.116600
H71	H7	0.390900	0.638100	0.209700
H81	H8	0.012400	0.568700	0.478700
H91	H9	0.034600	0.990200	0.746000
H101	H10	0.993900	0.618000	0.527600
H111	H11	0.829600	0.753400	0.045500
H121	H12	0.765600	0.050700	0.755700
H131	H13	0.216100	0.411500	0.744900
H141	H14	0.769900	0.249200	0.592300
H151	H15	0.284600	0.750700	0.548600
H161	H16	0.530200	0.339700	0.270300
H171	H17	0.639200	0.786100	0.356400
H181	H18	0.345800	0.447400	0.252700
H191	H19	0.030200	0.839700	0.229700
H201	H20	0.493900	0.118000	0.972400
H211	H21	0.915200	0.066600	0.279000
H221	H22	0.969800	0.160300	0.770300
H231	H23	0.415200	0.566600	0.221000
H241	H24	0.057900	0.255300	0.013700
H251	H25	0.139200	0.286100	0.143600
H261	H26	0.763000	0.660500	0.241700
H271	H27	0.463400	0.029100	0.883400
H281	H28	0.230100	0.750800	0.407700
H291	H29	0.762000	0.258900	0.163900
H301	H30	0.737000	0.839500	0.741700
H311	H31	0.730100	0.250800	0.092300
H321	H32	0.845800	0.947400	0.247300
H331	H33	0.584800	0.433400	0.779000
H341	H34	0.360800	0.213900	0.643600
H351	H35	0.980700	0.233600	0.844600
H361	H36	0.006100	0.382000	0.472400
H371	H37	0.890900	0.138100	0.290300
H381	H38	0.670400	0.746600	0.545500
H391	H39	0.890700	0.722400	0.927500
H401	H40	0.609300	0.777600	0.427500
H411	H41	0.965400	0.009800	0.254000
H421	H42	0.519300	0.266400	0.344600
H431	H43	0.557900	0.755300	0.486300
H441	H44	0.715400	0.249300	0.451400
H451	H45	0.738000	0.241100	0.663900
H461	H46	0.987600	0.431300	0.521300
H471	H47	0.109300	0.277600	0.072500
H481	H48	0.269900	0.749200	0.907700
H491	H49	0.480900	0.979300	0.932800
H501	H50	0.262000	0.758900	0.336100
H511	H51	0.263000	0.160500	0.258300
H521	H52	0.716100	0.911500	0.755100
H531	H53	0.036600	0.470900	0.383400
H541	H54	0.329600	0.253400	0.454500
H551	H55	0.609100	0.361900	0.790300
H561	H56	0.238000	0.741100	0.836100
H571	H57	0.109100	0.861900	0.709700
H581	H58	0.019100	0.520700	0.432800
H591	H59	0.487600	0.931300	0.978700
H601	H60	0.019300	0.766400	0.155400
H611	H61	0.506100	0.882000	0.027600
H621	H62	0.215400	0.749300	0.048600
H631	H63	0.963400	0.529100	0.616600
H641	H64	0.390700	0.222400	0.572500
H651	H65	0.237000	0.339500	0.758300
H661	H66	0.654200	0.552600	0.747300
H671	H67	0.783900	0.588500	0.255100
H681	H68	0.734400	0.449300	0.255700
H691	H69	0.784600	0.250700	0.951400
H701	H70	0.265600	0.550700	0.744300
H711	H71	0.170400	0.246600	0.954500
H721	H72	0.519100	0.020700	0.067200
H731	H73	0.469800	0.660300	0.729700
H741	H74	0.084800	0.933400	0.721000
H751	H75	0.234400	0.949300	0.244300
H761	H76	0.465400	0.509800	0.246000
H771	H77	0.860800	0.713900	0.856400
H781	H78	0.480700	0.733600	0.655400
H791	H79	0.534600	0.490200	0.754000
H801	H80	0.154200	0.052600	0.752700
C11	C1	0.032980	0.868630	0.233480
C21	C2	0.039700	0.273830	0.090680
C31	C3	0.942800	0.720920	0.866720
C41	C4	0.192700	0.141870	0.261810
C51	C5	0.137570	0.752930	0.062490
C61	C6	0.992100	0.589880	0.535210
C71	C7	0.705800	0.598350	0.245440
C81	C8	0.080690	0.109280	0.763130
C91	C9	0.394700	0.428700	0.761640
C101	C10	0.774500	0.369600	0.273120
C111	C11	0.688000	0.242340	0.602690
C121	C12	0.637570	0.252930	0.437510
C131	C13	0.538400	0.455360	0.252670
C141	C14	0.504400	0.982990	0.016320
C151	C15	0.976600	0.248410	0.959610
C161	C16	0.862430	0.247070	0.937510
C171	C17	0.970700	0.612180	0.610080
C181	C18	0.072700	0.156210	0.274260
C191	C19	0.406470	0.255310	0.439360
C201	C20	0.403200	0.261960	0.395680
C211	C21	0.455000	0.774040	0.339340
C221	C22	0.520600	0.921360	0.076720
C231	C23	0.331000	0.762840	0.354550
C241	C24	0.422800	0.433430	0.255680
C251	C25	0.807300	0.858130	0.738190
C261	C26	0.955000	0.274040	0.160660
C271	C27	0.998500	0.439340	0.493560
C281	C28	0.934100	0.797220	0.718780
C291	C29	0.759420	0.264030	0.370240
C301	C30	0.780300	0.769460	0.127220
C311	C31	0.479400	0.078640	0.923280
C321	C32	0.637600	0.259700	0.394590
C331	C33	0.001500	0.560660	0.506440
C341	C34	0.740580	0.235970	0.870240
C351	C35	0.020600	0.421360	0.423280
C361	C36	0.225500	0.630400	0.726880
C371	C37	0.565900	0.702780	0.218780
C381	C38	0.155600	0.934450	0.242770
C391	C39	0.501500	0.060660	0.993560
C401	C40	0.917800	0.262940	0.075380
C411	C41	0.045000	0.725960	0.839340
C421	C42	0.539700	0.773830	0.409320
C431	C43	0.495600	0.017010	0.983680
C441	C44	0.259420	0.764030	0.129760
C451	C45	0.029300	0.387820	0.389920
C461	C46	0.844400	0.065550	0.757230
C471	C47	0.961600	0.044640	0.752670
C481	C48	0.077200	0.066570	0.755680
C491	C49	0.725500	0.130400	0.773120
C501	C50	0.152100	0.891310	0.235890
C511	C51	0.572700	0.656210	0.225740
C521	C52	0.015600	0.914520	0.725260
C531	C53	0.476600	0.748410	0.540390
C541	C54	0.057200	0.279080	0.133280
C551	C55	0.530100	0.371670	0.781250
C561	C56	0.927300	0.843790	0.725740
C571	C57	0.362430	0.747070	0.562490
C581	C58	0.705200	0.633210	0.732380
C591	C59	0.862400	0.240300	0.894590
C601	C60	0.105300	0.071300	0.261640
C611	C61	0.007900	0.410120	0.464790
C621	C62	0.386100	0.759080	0.470040
C631	C63	0.593530	0.744690	0.560640
C641	C64	0.652100	0.391310	0.264110
C651	C65	0.984400	0.085480	0.274740
C661	C66	0.274500	0.869600	0.226880
C671	C67	0.240580	0.735970	0.629760
C681	C68	0.366100	0.474310	0.759310
C691	C69	0.557200	0.779080	0.366720
C701	C70	0.093530	0.244690	0.939360
C711	C71	0.030100	0.871670	0.718750
C721	C72	0.922800	0.933430	0.244320
C731	C73	0.847900	0.108690	0.764110
C741	C74	0.038400	0.955360	0.247330
C751	C75	0.460300	0.226170	0.590680
C761	C76	0.419310	0.390720	0.263130
C771	C77	0.461600	0.544640	0.747330
C781	C78	0.517100	0.992740	0.059150
C791	C79	0.427300	0.343790	0.774260
C801	C80	0.294200	0.401650	0.754560
C811	C81	0.442800	0.220920	0.633280
C821	C82	0.529300	0.887820	0.110080
C831	C83	0.519900	0.263230	0.373540
C841	C84	0.434100	0.297220	0.781220
C851	C85	0.973600	0.536560	0.588620
C861	C86	0.467020	0.631370	0.733480
C871	C87	0.017100	0.492740	0.440850
C881	C88	0.344400	0.565550	0.742770
C891	C89	0.692700	0.641870	0.238190
C901	C90	0.582200	0.237060	0.575380
C911	C91	0.347900	0.608690	0.735890
C921	C92	0.633900	0.525690	0.240690
C931	C93	0.082200	0.737060	0.924620
C941	C94	0.526900	0.221460	0.707100
C951	C95	0.596800	0.738040	0.604320
C961	C96	0.577200	0.566570	0.744320
C971	C97	0.205800	0.098350	0.254560
C981	C98	0.417800	0.762940	0.424620
C991	C99	0.188000	0.742340	0.897310
C1001	C100	0.219700	0.230540	0.872780
C1011	C101	0.205200	0.133210	0.767620
C1021	C102	0.605300	0.571300	0.238360
C1031	C103	0.470700	0.112180	0.889920
C1041	C104	0.515600	0.414520	0.774740
C1051	C105	0.473600	0.036560	0.911380
C1061	C106	0.026400	0.463440	0.411380
C1071	C107	0.960300	0.726170	0.909320
C1081	C108	0.019900	0.763230	0.126460
C1091	C109	0.831000	0.262840	0.145450
C1101	C110	0.980100	0.236770	0.873540
C1111	C111	0.482900	0.007260	0.940850
C1121	C112	0.492100	0.089880	0.964790
C1131	C113	0.065900	0.202780	0.281220
C1141	C114	0.473100	0.778540	0.292900
C1151	C115	0.866100	0.974310	0.740690
C1161	C116	0.919310	0.890720	0.236870
C1171	C117	0.469900	0.628330	0.218750
C1181	C118	0.982900	0.507260	0.559150
C1191	C119	0.480100	0.736770	0.626460
C1201	C120	0.307300	0.358130	0.761810
C1211	C121	0.973100	0.278540	0.207100
C1221	C122	0.004400	0.482990	0.483680
C1231	C123	0.545000	0.225960	0.660660
C1241	C124	0.523400	0.251590	0.459610
C1251	C125	0.969900	0.128330	0.281250
C1261	C126	0.526400	0.963440	0.088620
C1271	C127	0.169000	0.737160	0.854550
C1281	C128	0.023400	0.751590	0.040390
C1291	C129	0.133900	0.025690	0.259310
C1301	C130	0.794800	0.866790	0.232380
C1311	C131	0.967020	0.131370	0.766520
C1321	C132	0.894700	0.928700	0.738360
C1331	C133	0.995600	0.517010	0.516320
C1341	C134	0.669000	0.237160	0.645450
C1351	C135	0.794200	0.901650	0.745440
C1361	C136	0.096800	0.238040	0.895680
C1371	C137	0.280300	0.269460	0.372780
C1381	C138	0.812000	0.257660	0.102690
C1391	C139	0.498500	0.939340	0.006440
C1401	C140	0.137600	0.759700	0.105410
C1411	C141	0.312000	0.757660	0.397310
C1421	C142	0.484400	0.585480	0.225260
C1431	C143	0.886100	0.259080	0.029960
C1441	C144	0.655600	0.434450	0.257230
C1451	C145	0.906470	0.755310	0.060640
C1461	C146	0.979400	0.578640	0.576720
C1471	C147	0.580690	0.609280	0.736870
C1481	C148	0.113900	0.740920	0.970040
C1491	C149	0.362400	0.740300	0.605410
C1501	C150	0.719700	0.730540	0.627220
C1511	C151	0.294800	0.366790	0.267620
C1521	C152	0.903200	0.761960	0.104320
C1531	C153	0.026900	0.721460	0.792900
C1541	C154	0.507900	0.910120	0.035210
C1551	C155	0.532980	0.368630	0.266520
C1561	C156	0.613900	0.240920	0.529960
N11	N1	0.540620	0.499160	0.246230
N21	N2	0.981500	0.254450	0.003020
N31	N3	0.040620	0.999160	0.253770
N41	N4	0.481500	0.754450	0.496980
N51	N5	0.018500	0.745550	0.996980
N61	N6	0.959380	0.000840	0.746230
N71	N7	0.459380	0.500840	0.753770
N81	N8	0.518500	0.245550	0.503020
O11	O1	0.752600	0.515170	0.240830
O21	O2	0.787560	0.773090	0.165250
O31	O3	0.821070	0.728660	0.605390
O41	O4	0.576140	0.791500	0.279490
O51	O5	0.692930	0.887300	0.225770
O61	O6	0.622240	0.110250	0.772820
O71	O7	0.248700	0.738740	0.668660
O81	O8	0.524800	0.850830	0.097950
O91	O9	0.321070	0.228660	0.894610
O101	O10	0.037730	0.783600	0.705750
O111	O11	0.475200	0.149170	0.902050
O121	O12	0.638420	0.229370	0.890430
O131	O13	0.298500	0.327750	0.265660
O141	O14	0.462270	0.716400	0.205750
O151	O15	0.678930	0.771340	0.105390
O161	O16	0.225320	0.734890	0.983190
O171	O17	0.163640	0.223430	0.270450
O181	O18	0.923860	0.708500	0.779490
O191	O19	0.751300	0.261260	0.331340
O201	O20	0.623930	0.232120	0.727870
O211	O21	0.076140	0.291500	0.220510
O221	O22	0.712440	0.726910	0.665250
O231	O23	0.024800	0.350830	0.402050
O241	O24	0.192930	0.387300	0.274230
O251	O25	0.138420	0.729370	0.609570
O261	O26	0.251300	0.761260	0.168660
O271	O27	0.738240	0.169290	0.778740
O281	O28	0.178930	0.271340	0.394610
O291	O29	0.238240	0.669290	0.721260
O301	O30	0.701500	0.672250	0.734340
O311	O31	0.748700	0.238740	0.831340
O321	O32	0.376070	0.767880	0.272130
O331	O33	0.423860	0.208500	0.720510
O341	O34	0.032420	0.399550	0.352790
O351	O35	0.967580	0.600450	0.647210
O361	O36	0.877760	0.389750	0.272820
O371	O37	0.532420	0.899550	0.147210
O381	O38	0.212440	0.226910	0.834750
O391	O39	0.861580	0.270630	0.390430
O401	O40	0.252600	0.015170	0.259170
O411	O41	0.287560	0.273090	0.334750
O421	O42	0.974940	0.691480	0.687390
O431	O43	0.798500	0.827750	0.234340
O441	O44	0.761760	0.330710	0.278740
O451	O45	0.663640	0.723430	0.229550
O461	O46	0.975200	0.649170	0.597950
O471	O47	0.261760	0.830710	0.221260
O481	O48	0.876070	0.267880	0.227870
O491	O49	0.467580	0.100450	0.852790
O501	O50	0.025060	0.308520	0.312610
O511	O51	0.307070	0.112700	0.774230
O521	O52	0.201500	0.172250	0.765660
O531	O53	0.525060	0.808520	0.187390
O541	O54	0.774680	0.265110	0.016810
O551	O55	0.377760	0.889750	0.227180
O561	O56	0.361580	0.770630	0.109570
O571	O57	0.122240	0.610250	0.727180
O581	O58	0.725320	0.234890	0.516810
O591	O59	0.123930	0.732120	0.772130
O601	O60	0.836360	0.776570	0.729550
O611	O61	0.247400	0.484830	0.759170
O621	O62	0.336360	0.276570	0.770450
O631	O63	0.747400	0.984830	0.740830
O641	O64	0.962270	0.216400	0.294250
O651	O65	0.537730	0.283600	0.794250
O661	O66	0.474940	0.191480	0.812610
O671	O67	0.807070	0.612700	0.725770
O681	O68	0.274680	0.765110	0.483190
