data_ic502369y_si_002_freeONLY_PM
_symmetry_space_group_name_H-M	'P1'
_cell_length_a	7.772000
_cell_length_b	18.629000
_cell_length_c	19.518000
_cell_angle_alpha	90.000000
_cell_angle_beta	104.230000
_cell_angle_gamma	90.000000
_symmetry_Int_Tables_number 1

loop_
_symmetry_equiv_pos_as_xyz
'x,y,z'

loop_
_atom_site_label
_atom_site_type_symbol
_atom_site_fract_x
_atom_site_fract_y
_atom_site_fract_z
Co11	Co1	0.704100	0.560040	0.970520
Co21	Co2	0.801990	0.939970	0.035360
O11	O1	0.972900	0.918970	0.140290
H11	H1	0.010900	0.876100	0.145300
H21	H2	0.897300	0.928000	0.164200
O21	O2	0.011900	0.918180	0.997300
O31	O3	0.197800	0.955620	0.935530
O41	O4	0.799600	0.665550	0.972170
O51	O5	0.915300	0.589230	0.910990
O61	O6	0.511200	0.581240	0.877900
H31	H3	0.471600	0.622600	0.864900
H41	H4	0.418900	0.549100	0.855800
O71	O7	0.919800	0.539630	0.061950
O81	O8	0.394100	0.723960	0.837970
O91	O9	0.098900	0.723520	0.659240
O101	O10	0.567600	0.586480	0.578520
O111	O11	0.702300	0.666450	0.528810
O121	O12	0.551000	0.925850	0.538600
O131	O13	0.284700	0.953260	0.553160
N11	N1	0.621600	0.961800	0.935800
C11	C1	0.773800	0.966600	0.823200
H51	H5	0.824500	0.921000	0.816300
H61	H6	0.865700	0.002300	0.834100
H71	H7	0.687800	0.980100	0.780800
C21	C2	0.685400	0.961300	0.882800
C31	C3	0.107800	0.907800	0.955600
C41	C4	0.122900	0.832950	0.929900
C51	C5	0.011300	0.779520	0.944650
H81	H8	0.926600	0.790400	0.969400
C61	C6	0.028600	0.709560	0.921730
C71	C7	0.157500	0.693000	0.885700
H91	H9	0.168800	0.646300	0.870700
C81	C8	0.269500	0.746800	0.872100
C91	C9	0.252600	0.816800	0.893400
H101	H10	0.326300	0.852700	0.883600
C101	C10	0.908900	0.651700	0.935600
C111	C11	0.512100	0.776100	0.819400
H111	H11	0.584900	0.798400	0.861600
H121	H12	0.445100	0.813100	0.789500
C121	C12	0.626500	0.735200	0.780400
H131	H13	0.550000	0.708400	0.742200
H141	H14	0.698100	0.700900	0.812600
C131	C13	0.749500	0.782800	0.749700
H151	H15	0.823300	0.811700	0.786900
H161	H16	0.679600	0.814900	0.714500
C141	C14	0.866400	0.735200	0.715800
H171	H17	0.939500	0.705200	0.752200
H181	H18	0.790600	0.703800	0.681700
C151	C15	0.985300	0.776300	0.679400
H191	H19	0.915600	0.801000	0.638100
H201	H20	0.055000	0.811400	0.711200
C161	C16	0.224900	0.745700	0.625200
C171	C17	0.248100	0.816100	0.607200
H211	H21	0.176500	0.852200	0.618100
C181	C18	0.380900	0.832660	0.572300
C191	C19	0.489400	0.779150	0.556600
H221	H22	0.578500	0.790500	0.534200
C201	C20	0.463900	0.708120	0.574740
C211	C21	0.332500	0.691080	0.609100
H231	H23	0.316000	0.643800	0.621200
C221	C22	0.407300	0.909000	0.552700
C231	C23	0.582500	0.650500	0.558700
Co31	Co3	0.295900	0.060040	0.529480
Co41	Co4	0.198010	0.439970	0.464640
O141	O14	0.027100	0.418970	0.359710
H241	H24	0.989100	0.376100	0.354700
H251	H25	0.102700	0.428000	0.335800
O151	O15	0.988100	0.418180	0.502700
O161	O16	0.802200	0.455620	0.564470
O171	O17	0.200400	0.165550	0.527830
O181	O18	0.084700	0.089230	0.589010
O191	O19	0.488800	0.081240	0.622100
H261	H26	0.528400	0.122600	0.635100
H271	H27	0.581100	0.049100	0.644200
O201	O20	0.080200	0.039630	0.438050
O211	O21	0.605900	0.223960	0.662030
O221	O22	0.901100	0.223520	0.840760
O231	O23	0.432400	0.086480	0.921480
O241	O24	0.297700	0.166450	0.971190
O251	O25	0.449000	0.425850	0.961400
O261	O26	0.715300	0.453260	0.946840
N21	N2	0.378400	0.461800	0.564200
C241	C24	0.226200	0.466600	0.676800
H281	H28	0.175500	0.421000	0.683700
H291	H29	0.134300	0.502300	0.665900
H301	H30	0.312200	0.480100	0.719200
C251	C25	0.314600	0.461300	0.617200
C261	C26	0.892200	0.407800	0.544400
C271	C27	0.877100	0.332950	0.570100
C281	C28	0.988700	0.279520	0.555350
H311	H31	0.073400	0.290400	0.530600
C291	C29	0.971400	0.209560	0.578270
C301	C30	0.842500	0.193000	0.614300
H321	H32	0.831200	0.146300	0.629300
C311	C31	0.730500	0.246800	0.627900
C321	C32	0.747400	0.316800	0.606600
H331	H33	0.673700	0.352700	0.616400
C331	C33	0.091100	0.151700	0.564400
C341	C34	0.487900	0.276100	0.680600
H341	H34	0.415100	0.298400	0.638400
H351	H35	0.554900	0.313100	0.710500
C351	C35	0.373500	0.235200	0.719600
H361	H36	0.450000	0.208400	0.757800
H371	H37	0.301900	0.200900	0.687400
C361	C36	0.250500	0.282800	0.750300
H381	H38	0.176700	0.311700	0.713100
H391	H39	0.320400	0.314900	0.785500
C371	C37	0.133600	0.235200	0.784200
H401	H40	0.060500	0.205200	0.747800
H411	H41	0.209400	0.203800	0.818300
C381	C38	0.014700	0.276300	0.820600
H421	H42	0.084400	0.301000	0.861900
H431	H43	0.945000	0.311400	0.788800
C391	C39	0.775100	0.245700	0.874800
C401	C40	0.751900	0.316100	0.892800
H441	H44	0.823500	0.352200	0.881900
C411	C41	0.619100	0.332660	0.927700
C421	C42	0.510600	0.279150	0.943400
H451	H45	0.421500	0.290500	0.965800
C431	C43	0.536100	0.208120	0.925260
C441	C44	0.667500	0.191080	0.890900
H461	H46	0.684000	0.143800	0.878800
C451	C45	0.592700	0.409000	0.947300
C461	C46	0.417500	0.150500	0.941300
Co51	Co5	0.295900	0.439960	0.029480
Co61	Co6	0.198010	0.060030	0.964640
O271	O27	0.027100	0.081030	0.859710
H471	H47	0.989100	0.123900	0.854700
H481	H48	0.102700	0.072000	0.835800
O281	O28	0.988100	0.081820	0.002700
O291	O29	0.802200	0.044380	0.064470
O301	O30	0.200400	0.334450	0.027830
O311	O31	0.084700	0.410770	0.089010
O321	O32	0.488800	0.418760	0.122100
H491	H49	0.528400	0.377400	0.135100
H501	H50	0.581100	0.450900	0.144200
O331	O33	0.080200	0.460370	0.938050
O341	O34	0.605900	0.276040	0.162030
O351	O35	0.901100	0.276480	0.340760
O361	O36	0.432400	0.413520	0.421480
O371	O37	0.297700	0.333550	0.471190
O381	O38	0.449000	0.074150	0.461400
O391	O39	0.715300	0.046740	0.446840
N31	N3	0.378400	0.038200	0.064200
C471	C47	0.226200	0.033400	0.176800
H511	H51	0.175500	0.079000	0.183700
H521	H52	0.134300	0.997700	0.165900
H531	H53	0.312200	0.019900	0.219200
C481	C48	0.314600	0.038700	0.117200
C491	C49	0.892200	0.092200	0.044400
C501	C50	0.877100	0.167050	0.070100
C511	C51	0.988700	0.220480	0.055350
H541	H54	0.073400	0.209600	0.030600
C521	C52	0.971400	0.290440	0.078270
C531	C53	0.842500	0.307000	0.114300
H551	H55	0.831200	0.353700	0.129300
C541	C54	0.730500	0.253200	0.127900
C551	C55	0.747400	0.183200	0.106600
H561	H56	0.673700	0.147300	0.116400
C561	C56	0.091100	0.348300	0.064400
C571	C57	0.487900	0.223900	0.180600
H571	H57	0.415100	0.201600	0.138400
H581	H58	0.554900	0.186900	0.210500
C581	C58	0.373500	0.264800	0.219600
H591	H59	0.450000	0.291600	0.257800
H601	H60	0.301900	0.299100	0.187400
C591	C59	0.250500	0.217200	0.250300
H611	H61	0.176700	0.188300	0.213100
H621	H62	0.320400	0.185100	0.285500
C601	C60	0.133600	0.264800	0.284200
H631	H63	0.060500	0.294800	0.247800
H641	H64	0.209400	0.296200	0.318300
C611	C61	0.014700	0.223700	0.320600
H651	H65	0.084400	0.199000	0.361900
H661	H66	0.945000	0.188600	0.288800
C621	C62	0.775100	0.254300	0.374800
C631	C63	0.751900	0.183900	0.392800
H671	H67	0.823500	0.147800	0.381900
C641	C64	0.619100	0.167340	0.427700
C651	C65	0.510600	0.220850	0.443400
H681	H68	0.421500	0.209500	0.465800
C661	C66	0.536100	0.291880	0.425260
C671	C67	0.667500	0.308920	0.390900
H691	H69	0.684000	0.356200	0.378800
C681	C68	0.592700	0.091000	0.447300
C691	C69	0.417500	0.349500	0.441300
Co71	Co7	0.704100	0.939960	0.470520
Co81	Co8	0.801990	0.560030	0.535360
O401	O40	0.972900	0.581030	0.640290
H701	H70	0.010900	0.623900	0.645300
H711	H71	0.897300	0.572000	0.664200
O411	O41	0.011900	0.581820	0.497300
O421	O42	0.197800	0.544380	0.435530
O431	O43	0.799600	0.834450	0.472170
O441	O44	0.915300	0.910770	0.410990
O451	O45	0.511200	0.918760	0.377900
H721	H72	0.471600	0.877400	0.364900
H731	H73	0.418900	0.950900	0.355800
O461	O46	0.919800	0.960370	0.561950
O471	O47	0.394100	0.776040	0.337970
O481	O48	0.098900	0.776480	0.159240
O491	O49	0.567600	0.913520	0.078520
O501	O50	0.702300	0.833550	0.028810
O511	O51	0.551000	0.574150	0.038600
O521	O52	0.284700	0.546740	0.053160
N41	N4	0.621600	0.538200	0.435800
C701	C70	0.773800	0.533400	0.323200
H741	H74	0.824500	0.579000	0.316300
H751	H75	0.865700	0.497700	0.334100
H761	H76	0.687800	0.519900	0.280800
C711	C71	0.685400	0.538700	0.382800
C721	C72	0.107800	0.592200	0.455600
C731	C73	0.122900	0.667050	0.429900
C741	C74	0.011300	0.720480	0.444650
H771	H77	0.926600	0.709600	0.469400
C751	C75	0.028600	0.790440	0.421730
C761	C76	0.157500	0.807000	0.385700
H781	H78	0.168800	0.853700	0.370700
C771	C77	0.269500	0.753200	0.372100
C781	C78	0.252600	0.683200	0.393400
H791	H79	0.326300	0.647300	0.383600
C791	C79	0.908900	0.848300	0.435600
C801	C80	0.512100	0.723900	0.319400
H801	H80	0.584900	0.701600	0.361600
H811	H81	0.445100	0.686900	0.289500
C811	C81	0.626500	0.764800	0.280400
H821	H82	0.550000	0.791600	0.242200
H831	H83	0.698100	0.799100	0.312600
C821	C82	0.749500	0.717200	0.249700
H841	H84	0.823300	0.688300	0.286900
H851	H85	0.679600	0.685100	0.214500
C831	C83	0.866400	0.764800	0.215800
H861	H86	0.939500	0.794800	0.252200
H871	H87	0.790600	0.796200	0.181700
C841	C84	0.985300	0.723700	0.179400
H881	H88	0.915600	0.699000	0.138100
H891	H89	0.055000	0.688600	0.211200
C851	C85	0.224900	0.754300	0.125200
C861	C86	0.248100	0.683900	0.107200
H901	H90	0.176500	0.647800	0.118100
C871	C87	0.380900	0.667340	0.072300
C881	C88	0.489400	0.720850	0.056600
H911	H91	0.578500	0.709500	0.034200
C891	C89	0.463900	0.791880	0.074740
C901	C90	0.332500	0.808920	0.109100
H921	H92	0.316000	0.856200	0.121200
C911	C91	0.407300	0.591000	0.052700
C921	C92	0.582500	0.849500	0.058700
