data_ic5b00130_si_002_freeONLY_PM
_symmetry_space_group_name_H-M	'P1'
_cell_length_a	5.626000
_cell_length_b	17.655000
_cell_length_c	21.733000
_cell_angle_alpha	90.000000
_cell_angle_beta	90.000000
_cell_angle_gamma	90.000000
_symmetry_Int_Tables_number 1

loop_
_symmetry_equiv_pos_as_xyz
'x,y,z'

loop_
_atom_site_label
_atom_site_type_symbol
_atom_site_fract_x
_atom_site_fract_y
_atom_site_fract_z
Zn11	Zn1	0.154680	0.327580	0.204050
Zn21	Zn2	0.845320	0.827580	0.295950
Zn31	Zn3	0.154680	0.672420	0.795950
Zn41	Zn4	0.845320	0.172420	0.704050
H11	H1	0.753000	0.172500	0.201300
H21	H2	0.230000	0.537900	0.316000
H31	H3	0.899400	0.195900	0.395300
H41	H4	0.143400	0.762200	0.912000
H51	H5	0.230000	0.462100	0.684000
H61	H6	0.143400	0.237800	0.088000
H71	H7	0.753000	0.827500	0.798700
H81	H8	0.764600	0.442300	0.937600
H91	H9	0.494700	0.037000	0.194500
H101	H10	0.129700	0.219900	0.310500
H111	H11	0.880700	0.561300	0.123900
H121	H12	0.381300	0.694600	0.559400
H131	H13	0.770000	0.037900	0.184000
H141	H14	0.730300	0.607800	0.734600
H151	H15	0.791000	0.096200	0.288200
H161	H16	0.718400	0.397000	0.147500
H171	H17	0.347600	0.643800	0.361600
H181	H18	0.856600	0.737800	0.412000
H191	H19	0.730300	0.392200	0.265400
H201	H20	0.119300	0.938700	0.623900
H211	H21	0.331300	0.923700	0.710600
H221	H22	0.870300	0.280100	0.810500
H231	H23	0.281600	0.897000	0.352500
H241	H24	0.209000	0.596200	0.211800
H251	H25	0.494700	0.963000	0.805500
H261	H26	0.902700	0.216200	0.004800
H271	H27	0.129700	0.780100	0.689500
H281	H28	0.668700	0.423700	0.789400
H291	H29	0.281600	0.103000	0.647500
H301	H30	0.381300	0.305400	0.440600
H311	H31	0.718400	0.603000	0.852500
H321	H32	0.505300	0.463000	0.694500
H331	H33	0.870300	0.719900	0.189500
H341	H34	0.235400	0.057700	0.437600
H351	H35	0.269700	0.892200	0.234600
H361	H36	0.515900	0.129200	0.848300
H371	H37	0.097300	0.283800	0.504800
H381	H38	0.668700	0.576300	0.210600
H391	H39	0.484100	0.370800	0.348300
H401	H40	0.902700	0.783800	0.995200
H411	H41	0.764600	0.557700	0.062400
H421	H42	0.625800	0.177200	0.468200
H431	H43	0.899400	0.804100	0.604700
H441	H44	0.100600	0.304100	0.895300
H451	H45	0.618700	0.805400	0.059400
H461	H46	0.247000	0.327500	0.701300
H471	H47	0.625800	0.822800	0.531800
H481	H48	0.269700	0.107800	0.765400
H491	H49	0.791000	0.903800	0.711800
H501	H50	0.209000	0.403800	0.788200
H511	H51	0.618700	0.194600	0.940600
H521	H52	0.856600	0.262200	0.588000
H531	H53	0.247000	0.672500	0.298700
H541	H54	0.515900	0.870800	0.151700
H551	H55	0.119300	0.061300	0.376100
H561	H56	0.652400	0.856200	0.861600
H571	H57	0.097300	0.716200	0.495200
H581	H58	0.522000	0.116500	0.563500
H591	H59	0.652400	0.143800	0.138400
H601	H60	0.522000	0.883500	0.436500
H611	H61	0.478000	0.616500	0.936500
H621	H62	0.235400	0.942300	0.562400
H631	H63	0.478000	0.383500	0.063500
H641	H64	0.347600	0.356200	0.638400
H651	H65	0.484100	0.629200	0.651700
H661	H66	0.100600	0.695900	0.104700
H671	H67	0.770000	0.962100	0.816000
H681	H68	0.880700	0.438700	0.876100
H691	H69	0.505300	0.537000	0.305500
H701	H70	0.374200	0.322800	0.968200
H711	H71	0.331300	0.076300	0.289400
H721	H72	0.374200	0.677200	0.031800
C11	C1	0.999900	0.249000	0.818600
C21	C2	0.500100	0.769400	0.065300
C31	C3	0.200900	0.480050	0.213080
C41	C4	0.359400	0.563160	0.294800
C51	C5	0.384700	0.160300	0.841900
C61	C6	0.640600	0.936840	0.794800
C71	C7	0.319200	0.443860	0.775430
C81	C8	0.000100	0.749000	0.681400
C91	C9	0.492800	0.286700	0.973610
C101	C10	0.538200	0.559100	0.129140
C111	C11	0.243600	0.860500	0.381800
C121	C12	0.337600	0.218700	0.881960
C131	C13	0.507200	0.213300	0.473610
C141	C14	0.337600	0.781300	0.118040
C151	C15	0.999900	0.751000	0.181400
C161	C16	0.200900	0.519950	0.786920
C171	C17	0.609500	0.647900	0.931810
C181	C18	0.680800	0.943860	0.724570
C191	C19	0.235600	0.147700	0.791800
C201	C20	0.393400	0.185100	0.194900
C211	C21	0.656400	0.297300	0.025070
C221	C22	0.499900	0.730600	0.565300
C231	C23	0.538200	0.440900	0.870860
C241	C24	0.756400	0.360500	0.118200
C251	C25	0.625100	0.856200	0.817500
C261	C26	0.861200	0.764000	0.630610
C271	C27	0.500100	0.230600	0.934700
C281	C28	0.680800	0.056140	0.275430
C291	C29	0.606600	0.685100	0.305100
C301	C30	0.374900	0.356200	0.682500
C311	C31	0.359400	0.436840	0.705200
C321	C32	0.137100	0.753500	0.466770
C331	C33	0.374900	0.643800	0.317500
C341	C34	0.764400	0.352300	0.291800
C351	C35	0.994800	0.233700	0.583530
C361	C36	0.243600	0.139500	0.618200
C371	C37	0.343600	0.202700	0.525070
C381	C38	0.393400	0.814900	0.805100
C391	C39	0.005200	0.733700	0.916470
C401	C40	0.662400	0.281300	0.381960
C411	C41	0.615300	0.339700	0.341900
C421	C42	0.492800	0.713300	0.026390
C431	C43	0.138800	0.264000	0.869390
C441	C44	0.625100	0.143800	0.182500
C451	C45	0.799100	0.019950	0.713080
C461	C46	0.319200	0.556140	0.224570
C471	C47	0.656400	0.702700	0.974930
C481	C48	0.640600	0.063160	0.205200
C491	C49	0.138800	0.736000	0.130610
C501	C50	0.390500	0.147900	0.568190
C511	C51	0.994800	0.766300	0.416470
C521	C52	0.384700	0.839700	0.158100
C531	C53	0.507200	0.786700	0.526390
C541	C54	0.764400	0.647700	0.708200
C551	C55	0.235600	0.852300	0.208200
C561	C56	0.862900	0.746500	0.966770
C571	C57	0.756400	0.639500	0.881800
C581	C58	0.861200	0.236000	0.369390
C591	C59	0.499900	0.269400	0.434700
C601	C60	0.390500	0.852100	0.431810
C611	C61	0.461800	0.059100	0.370860
C621	C62	0.662400	0.718700	0.618040
C631	C63	0.000100	0.251000	0.318600
C641	C64	0.799100	0.980050	0.286920
C651	C65	0.615300	0.660300	0.658100
C661	C66	0.461800	0.940900	0.629140
C671	C67	0.606600	0.314900	0.694900
C681	C68	0.862900	0.253500	0.033230
C691	C69	0.609500	0.352100	0.068190
C701	C70	0.343600	0.797300	0.474930
C711	C71	0.137100	0.246500	0.533230
C721	C72	0.005200	0.266300	0.083530
N11	N1	0.246000	0.940600	0.601840
N21	N2	0.045400	0.190840	0.780330
N31	N3	0.460900	0.066060	0.308700
N41	N4	0.754000	0.440600	0.898160
N51	N5	0.539100	0.566060	0.191300
N61	N6	0.047400	0.818370	0.373340
N71	N7	0.952600	0.318370	0.126660
N81	N8	0.539100	0.433940	0.808700
N91	N9	0.954600	0.309160	0.280330
N101	N10	0.045400	0.809160	0.219670
N111	N11	0.246000	0.059400	0.398160
N121	N12	0.047400	0.181630	0.626660
N131	N13	0.952600	0.681630	0.873340
N141	N14	0.754000	0.559400	0.101840
N151	N15	0.460900	0.933940	0.691300
N161	N16	0.954600	0.690840	0.719670
O11	O1	0.348100	0.443590	0.899720
O21	O2	0.651900	0.056410	0.399720
O31	O3	0.982500	0.523060	0.789490
O41	O4	0.416400	0.256460	0.201490
O51	O5	0.017500	0.023060	0.710510
O61	O6	0.337400	0.422150	0.209370
O71	O7	0.017500	0.976940	0.289490
O81	O8	0.203700	0.848200	0.804590
O91	O9	0.583600	0.243540	0.701490
O101	O10	0.337400	0.577850	0.790630
O111	O11	0.651900	0.943590	0.600280
O121	O12	0.796300	0.348200	0.695410
O131	O13	0.203700	0.151800	0.195410
O141	O14	0.662600	0.077850	0.709370
O151	O15	0.982500	0.476940	0.210510
O161	O16	0.583600	0.756460	0.298510
O171	O17	0.348100	0.556410	0.100280
O181	O18	0.416400	0.743540	0.798510
O191	O19	0.796300	0.651800	0.304590
O201	O20	0.662600	0.922150	0.290630
