data_ic5b00194_si_002_freeONLY_PM
_symmetry_space_group_name_H-M	'P1'
_cell_length_a	14.469300
_cell_length_b	28.888800
_cell_length_c	33.362900
_cell_angle_alpha	90.000000
_cell_angle_beta	102.524000
_cell_angle_gamma	90.000000
_symmetry_Int_Tables_number 1

loop_
_symmetry_equiv_pos_as_xyz
'x,y,z'

loop_
_atom_site_label
_atom_site_type_symbol
_atom_site_fract_x
_atom_site_fract_y
_atom_site_fract_z
Cu11	Cu1	0.395290	0.867020	0.790580
Cu21	Cu2	0.130000	0.829930	0.260000
Cu31	Cu3	0.870000	0.329930	0.740000
Cu41	Cu4	0.073340	0.213160	0.146680
Cu51	Cu5	0.604710	0.367020	0.209420
Cu61	Cu6	0.926660	0.713160	0.853320
Cu71	Cu7	0.842140	0.118670	0.684280
Cu81	Cu8	0.434330	0.490240	0.868660
Cu91	Cu9	0.724430	0.789300	0.448860
Cu101	Cu10	0.275570	0.289300	0.551140
Cu111	Cu11	0.176970	0.537580	0.353940
Cu121	Cu12	0.121110	0.921100	0.242220
Cu131	Cu13	0.526870	0.961720	0.053740
Cu141	Cu14	0.092890	0.132700	0.185780
Cu151	Cu15	0.157860	0.618670	0.315720
Cu161	Cu16	0.314520	0.260120	0.629040
Cu171	Cu17	0.473130	0.461720	0.946260
Cu181	Cu18	0.685480	0.760120	0.370960
Cu191	Cu19	0.644030	0.385200	0.288060
Cu201	Cu20	0.823030	0.037580	0.646060
Cu211	Cu21	0.907110	0.632700	0.814220
Cu221	Cu22	0.355970	0.885200	0.711940
Cu231	Cu23	0.565670	0.990240	0.131340
Cu241	Cu24	0.878890	0.421100	0.757780
H11	H1	0.028900	0.470500	0.531200
H21	H2	0.007500	0.675000	0.708600
H31	H3	0.670400	0.123800	0.836800
H41	H4	0.550200	0.751300	0.609000
H51	H5	0.894400	0.484800	0.291000
H61	H6	0.918700	0.833900	0.338800
H71	H7	0.989300	0.465100	0.653000
H81	H8	0.333800	0.913900	0.166600
H91	H9	0.489200	0.766400	0.672600
H101	H10	0.992500	0.175000	0.291400
H111	H11	0.407900	0.126200	0.335800
H121	H12	0.908800	0.087900	0.534600
H131	H13	0.334600	0.061300	0.004800
H141	H14	0.276800	0.500900	0.106600
H151	H15	0.298900	0.175000	0.291400
H161	H16	0.132900	0.418000	0.572600
H171	H17	0.380600	0.832700	0.074800
H181	H18	0.850600	0.652900	0.969400
H191	H19	0.579900	0.333900	0.661200
H201	H20	0.739100	0.076400	0.788800
H211	H21	0.694200	0.832700	0.074800
H221	H22	0.316900	0.715100	0.136800
H231	H23	0.351700	0.279300	0.219200
H241	H24	0.950300	0.576400	0.211200
H251	H25	0.867500	0.279300	0.219200
H261	H26	0.832800	0.913900	0.166600
H271	H27	0.439700	0.418000	0.572600
H281	H28	0.670200	0.061300	0.004800
H291	H29	0.329800	0.561300	0.995200
H301	H30	0.105600	0.984800	0.709000
H311	H31	0.118800	0.652900	0.969400
H321	H32	0.407900	0.170400	0.506400
H331	H33	0.925200	0.032200	0.360800
H341	H34	0.497700	0.970500	0.468800
H351	H35	0.510800	0.266400	0.327400
H361	H36	0.396600	0.484800	0.291000
H371	H37	0.420100	0.833900	0.338800
H381	H38	0.329600	0.623800	0.163200
H391	H39	0.416600	0.480800	0.168600
H401	H40	0.744600	0.717400	0.989000
H411	H41	0.775500	0.530100	0.042600
H421	H42	0.318300	0.083800	0.121600
H431	H43	0.933500	0.669900	0.378400
H441	H44	0.663700	0.465100	0.653000
H451	H45	0.485900	0.532900	0.494800
H461	H46	0.560300	0.918000	0.427400
H471	H47	0.920700	0.786700	0.151400
H481	H48	0.625800	0.087900	0.534600
H491	H49	0.008900	0.532900	0.494800
H501	H50	0.833600	0.623800	0.163200
H511	H51	0.901500	0.670400	0.493600
H521	H52	0.971100	0.970500	0.468800
H531	H53	0.230700	0.786700	0.151400
H541	H54	0.497600	0.719100	0.549400
H551	H55	0.648300	0.779300	0.780800
H561	H56	0.260900	0.576400	0.211200
H571	H57	0.867100	0.918000	0.427400
H581	H58	0.927900	0.126200	0.335800
H591	H59	0.881200	0.152900	0.030600
H601	H60	0.681700	0.583800	0.878400
H611	H61	0.051800	0.719100	0.549400
H621	H62	0.180100	0.215100	0.863200
H631	H63	0.267100	0.530100	0.042600
H641	H64	0.091200	0.587900	0.465400
H651	H65	0.948200	0.219100	0.450600
H661	H66	0.010700	0.965100	0.347000
H671	H67	0.736400	0.284900	0.972200
H681	H68	0.074800	0.532200	0.639200
H691	H69	0.132500	0.779300	0.780800
H701	H70	0.755600	0.217400	0.011000
H711	H71	0.752000	0.480800	0.168600
H721	H72	0.583400	0.980800	0.831400
H731	H73	0.619400	0.332700	0.925200
H741	H74	0.374200	0.587900	0.465400
H751	H75	0.255400	0.217400	0.011000
H761	H76	0.732900	0.030100	0.957400
H771	H77	0.049700	0.076400	0.788800
H781	H78	0.149400	0.152900	0.030600
H791	H79	0.683100	0.215100	0.863200
H801	H80	0.081300	0.333900	0.661200
H811	H81	0.244400	0.717400	0.989000
H821	H82	0.183400	0.766400	0.672600
H831	H83	0.603400	0.984800	0.709000
H841	H84	0.444900	0.669900	0.378400
H851	H85	0.991100	0.032900	0.505200
H861	H86	0.819900	0.715100	0.136800
H871	H87	0.564400	0.532200	0.639200
H881	H88	0.666200	0.413900	0.833400
H891	H89	0.829800	0.500900	0.106600
H901	H90	0.723200	0.000900	0.893400
H911	H91	0.263600	0.784900	0.027800
H921	H92	0.816600	0.266400	0.327400
H931	H93	0.449800	0.251300	0.391000
H941	H94	0.098500	0.170400	0.506400
H951	H95	0.435600	0.032200	0.360800
H961	H96	0.803300	0.083800	0.121600
H971	H97	0.224500	0.030100	0.957400
H981	H98	0.058800	0.751300	0.609000
H991	H99	0.764200	0.784900	0.027800
H1001	H100	0.555100	0.169900	0.621600
H1011	H101	0.079300	0.286700	0.848600
H1021	H102	0.665400	0.561300	0.995200
H1031	H103	0.196700	0.583800	0.878400
H1041	H104	0.502400	0.219100	0.450600
H1051	H105	0.769300	0.286700	0.848600
H1061	H106	0.166400	0.123800	0.836800
H1071	H107	0.592100	0.670400	0.493600
H1081	H108	0.941200	0.251300	0.391000
H1091	H109	0.701100	0.675000	0.708600
H1101	H110	0.502300	0.470500	0.531200
H1111	H111	0.592100	0.626200	0.664200
H1121	H112	0.170200	0.000900	0.893400
H1131	H113	0.167200	0.413900	0.833400
H1141	H114	0.248000	0.980800	0.831400
H1151	H115	0.066500	0.169900	0.621600
H1161	H116	0.072100	0.626200	0.664200
H1171	H117	0.305800	0.332700	0.925200
H1181	H118	0.336300	0.965100	0.347000
H1191	H119	0.235800	0.284900	0.972200
H1201	H120	0.514100	0.032900	0.505200
C11	C1	0.937470	0.219300	0.393140
C21	C2	0.912870	0.679700	0.437940
C31	C3	0.822000	0.605200	0.139800
C41	C4	0.707500	0.257100	0.910000
C51	C5	0.904100	0.210600	0.320200
C61	C6	0.832650	0.710700	0.424900
C71	C7	0.807600	0.804700	0.109400
C81	C8	0.121700	0.310800	0.857200
C91	C9	0.510500	0.914000	0.404800
C101	C10	0.367300	0.879700	0.118400
C111	C11	0.087130	0.179700	0.562060
C121	C12	0.768290	0.699300	0.785580
C131	C13	0.288780	0.578700	0.975560
C141	C14	0.442300	0.274300	0.268200
C151	C15	0.065900	0.641500	0.883600
C161	C16	0.193580	0.216000	0.891760
C171	C17	0.915400	0.550700	0.215800
C181	C18	0.952900	0.660600	0.405800
C191	C19	0.200900	0.133600	0.039800
C201	C20	0.326600	0.886200	0.152200
C211	C21	0.464980	0.163900	0.524560
C221	C22	0.730310	0.388800	0.694620
C231	C23	0.235600	0.617000	0.986000
C241	C24	0.265720	0.546800	0.287240
C251	C25	0.723390	0.096800	0.936180
C261	C26	0.632700	0.379700	0.881600
C271	C27	0.680500	0.059600	0.857400
C281	C28	0.981320	0.896800	0.338440
C291	C29	0.947000	0.076200	0.412800
C301	C30	0.646470	0.337600	0.902740
C311	C31	0.069100	0.642400	0.639800
C321	C32	0.250160	0.812200	0.737920
C331	C33	0.178000	0.105200	0.860200
C341	C34	0.313220	0.078700	0.024440
C351	C35	0.925300	0.862600	0.351600
C361	C36	0.292500	0.757100	0.090000
C371	C37	0.734280	0.046800	0.712760
C381	C38	0.174400	0.386200	0.847800
C391	C39	0.016910	0.440300	0.642220
C401	C40	0.181410	0.332600	0.604620
C411	C41	0.979200	0.033900	0.476600
C421	C42	0.939100	0.033900	0.389200
C431	C43	0.374690	0.940300	0.357780
C441	C44	0.724300	0.048900	0.934200
C451	C45	0.549900	0.533900	0.610800
C461	C46	0.825900	0.274300	0.268200
C471	C47	0.514500	0.498200	0.545600
C481	C48	0.619530	0.997000	0.735460
C491	C49	0.751100	0.879700	0.118400
C501	C50	0.940420	0.663900	0.475440
C511	C51	0.218600	0.174700	0.959600
C521	C52	0.248900	0.379700	0.881600
C531	C53	0.642880	0.396800	0.661560
C541	C54	0.703140	0.125000	0.900880
C551	C55	0.237700	0.216700	0.982600
C561	C56	0.655400	0.029800	0.072600
C571	C57	0.884070	0.497000	0.264540
C581	C58	0.978000	0.859100	0.198800
C591	C59	0.249600	0.117000	0.014000
C601	C60	0.628320	0.761500	0.757240
C611	C61	0.227440	0.256500	0.958680
C621	C62	0.051950	0.698800	0.713700
C631	C63	0.203400	0.591100	0.906000
C641	C64	0.582800	0.529800	0.927400
C651	C65	0.505900	0.933400	0.764000
C661	C66	0.947000	0.200000	0.428200
C671	C67	0.357120	0.896800	0.338440
C681	C68	0.192400	0.304700	0.890600
C691	C69	0.603300	0.994800	0.809600
C701	C70	0.395560	0.627200	0.418320
C711	C71	0.764400	0.117000	0.014000
C721	C72	0.592250	0.710700	0.424900
C731	C73	0.743730	0.837600	0.097260
C741	C74	0.673400	0.386200	0.847800
C751	C75	0.882390	0.870300	0.381980
C761	C76	0.084600	0.050700	0.784200
C771	C77	0.934100	0.141500	0.116400
C781	C78	0.452900	0.117000	0.397400
C791	C79	0.790100	0.548900	0.065800
C801	C80	0.563100	0.692100	0.641600
C811	C81	0.956600	0.993600	0.417400
C821	C82	0.818590	0.832600	0.395380
C831	C83	0.053000	0.700000	0.571800
C841	C84	0.145050	0.621000	0.916100
C851	C85	0.259000	0.674700	0.040400
C861	C86	0.815500	0.532300	0.103800
C871	C87	0.344600	0.529800	0.927400
C881	C88	0.479500	0.147200	0.436200
C891	C89	0.933060	0.217800	0.247920
C901	C90	0.228950	0.121000	0.083900
C911	C91	0.426300	0.862600	0.351600
C921	C92	0.264500	0.810800	0.142800
C931	C93	0.485500	0.998200	0.454400
C941	C94	0.406920	0.613300	0.458440
C951	C95	0.105700	0.414000	0.595200
C961	C96	0.314860	0.217800	0.247920
C971	C97	0.741900	0.433400	0.236000
C981	C98	0.017290	0.699300	0.785580
C991	C99	0.043400	0.493600	0.582600
C1001	C100	0.450100	0.033900	0.389200
C1011	C101	0.423210	0.332600	0.604620
C1021	C102	0.525070	0.679700	0.437940
C1031	C103	0.156160	0.031100	0.815520
C1041	C104	0.804700	0.478300	0.229600
C1051	C105	0.055500	0.617000	0.602600
C1061	C106	0.762300	0.716700	0.017400
C1071	C107	0.184500	0.032300	0.896200
C1081	C108	0.276610	0.596800	0.063820
C1091	C109	0.535020	0.663900	0.475440
C1101	C110	0.699600	0.050700	0.784200
C1111	C111	0.512240	0.312200	0.262080
C1121	C112	0.806420	0.716000	0.108240
C1131	C113	0.269690	0.888800	0.305380
C1141	C114	0.115930	0.997000	0.735460
C1151	C115	0.029610	0.577700	0.547220
C1161	C116	0.948480	0.113300	0.541560
C1171	C117	0.274900	0.849800	0.163600
C1181	C118	0.051520	0.613300	0.458440
C1191	C119	0.371680	0.261500	0.242760
C1201	C120	0.256270	0.337600	0.902740
C1211	C121	0.520500	0.647200	0.563800
C1221	C122	0.288300	0.532300	0.103800
C1231	C123	0.921500	0.192100	0.358400
C1241	C124	0.823100	0.559600	0.142600
C1251	C125	0.854950	0.121000	0.083900
C1261	C126	0.340640	0.531100	0.184480
C1271	C127	0.434720	0.913100	0.107240
C1281	C128	0.749840	0.312200	0.262080
C1291	C129	0.075220	0.606400	0.383840
C1301	C130	0.797500	0.757100	0.090000
C1311	C131	0.174100	0.774300	0.731800
C1321	C132	0.711220	0.078700	0.024440
C1331	C133	0.772560	0.756500	0.041320
C1341	C134	0.203210	0.175200	0.912620
C1351	C135	0.796600	0.091100	0.094000
C1361	C136	0.455670	0.219300	0.393140
C1371	C137	0.021520	0.546800	0.287240
C1381	C138	0.206300	0.994800	0.809600
C1391	C139	0.825600	0.886200	0.152200
C1401	C140	0.779200	0.359100	0.801200
C1411	C141	0.167350	0.210700	0.575100
C1421	C142	0.741000	0.174700	0.959600
C1431	C143	0.472200	0.639600	0.490200
C1441	C144	0.481200	0.200000	0.428200
C1451	C145	0.817700	0.641500	0.883600
C1461	C146	0.308620	0.606400	0.383840
C1471	C147	0.482390	0.077700	0.452780
C1481	C148	0.301800	0.804700	0.109400
C1491	C149	0.534200	0.576200	0.587200
C1501	C150	0.176900	0.059600	0.857400
C1511	C151	0.711700	0.032300	0.896200
C1521	C152	0.930900	0.142400	0.360200
C1531	C153	0.497400	0.033900	0.476600
C1541	C154	0.956700	0.147200	0.436200
C1551	C155	0.296860	0.625000	0.099120
C1561	C156	0.750400	0.617000	0.986000
C1571	C157	0.871080	0.261500	0.242760
C1581	C158	0.970390	0.077700	0.452780
C1591	C159	0.983090	0.940300	0.357780
C1601	C160	0.117610	0.370300	0.618020
C1611	C161	0.258100	0.933400	0.764000
C1621	C162	0.888700	0.849800	0.163600
C1631	C163	0.212790	0.096800	0.936180
C1641	C164	0.047100	0.160600	0.594200
C1651	C165	0.518800	0.700000	0.571800
C1661	C166	0.686780	0.578700	0.975560
C1671	C167	0.672520	0.913100	0.107240
C1681	C168	0.573700	0.362600	0.648400
C1691	C169	0.209900	0.048900	0.934200
C1701	C170	0.698180	0.216000	0.891760
C1711	C171	0.202500	0.257100	0.910000
C1721	C172	0.231710	0.199300	0.214420
C1731	C173	0.725680	0.069600	0.066160
C1741	C174	0.771050	0.621000	0.916100
C1751	C175	0.436900	0.192100	0.358400
C1761	C176	0.964310	0.388800	0.694620
C1771	C177	0.487760	0.812200	0.737920
C1781	C178	0.544330	0.719300	0.606860
C1791	C179	0.300400	0.550700	0.215800
C1801	C180	0.317800	0.605200	0.139800
C1811	C181	0.557700	0.774300	0.731800
C1821	C182	0.022000	0.359100	0.801200
C1831	C183	0.022760	0.627200	0.418320
C1841	C184	0.301820	0.716000	0.108240
C1851	C185	0.924780	0.106400	0.616160
C1861	C186	0.074700	0.362600	0.648400
C1871	C187	0.661750	0.698800	0.713700
C1881	C188	0.319500	0.559600	0.142600
C1891	C189	0.500410	0.370300	0.618020
C1901	C190	0.536840	0.752900	0.692480
C1911	C191	0.407750	0.210700	0.575100
C1921	C192	0.062530	0.719300	0.606860
C1931	C193	0.268760	0.756500	0.041320
C1941	C194	0.220800	0.859100	0.198800
C1951	C195	0.416100	0.210600	0.320200
C1961	C196	0.060900	0.533900	0.610800
C1971	C197	0.043300	0.647200	0.563800
C1981	C198	0.527800	0.139600	0.509800
C1991	C199	0.275700	0.548900	0.065800
C2001	C200	0.982710	0.199300	0.214420
C2011	C201	0.674510	0.027500	0.743620
C2021	C202	0.547100	0.617000	0.602600
C2031	C203	0.197740	0.125000	0.900880
C2041	C204	0.078500	0.692100	0.641600
C2051	C205	0.551910	0.447900	0.607220
C2061	C206	0.604440	0.127200	0.581680
C2071	C207	0.625310	0.440300	0.642220
C2081	C208	0.565280	0.413100	0.892760
C2091	C209	0.735500	0.310800	0.857200
C2101	C210	0.547100	0.160600	0.594200
C2111	C211	0.583900	0.710600	0.679800
C2121	C212	0.787210	0.596800	0.063820
C2131	C213	0.517610	0.577700	0.547220
C2141	C214	0.725100	0.349800	0.836400
C2151	C215	0.744900	0.216700	0.982600
C2161	C216	0.796790	0.675200	0.087380
C2171	C217	0.325490	0.527500	0.256380
C2181	C218	0.059580	0.163900	0.524560
C2191	C219	0.659520	0.569600	0.933840
C2201	C220	0.055310	0.447900	0.607220
C2211	C221	0.878300	0.810800	0.142800
C2221	C222	0.380470	0.497000	0.264540
C2231	C223	0.731240	0.256500	0.958680
C2241	C224	0.338250	0.198800	0.286300
C2251	C225	0.035690	0.888800	0.305380
C2261	C226	0.182300	0.141500	0.116400
C2271	C227	0.069110	0.027500	0.743620
C2281	C228	0.053000	0.576200	0.587200
C2291	C229	0.327480	0.413100	0.892760
C2301	C230	0.502600	0.533900	0.523400
C2311	C231	0.709410	0.175200	0.912620
C2321	C232	0.452900	0.660600	0.405800
C2331	C233	0.155640	0.752900	0.692480
C2341	C234	0.575100	0.978300	0.770400
C2351	C235	0.353530	0.837600	0.097260
C2361	C236	0.702600	0.591100	0.906000
C2371	C237	0.417200	0.029800	0.072600
C2381	C238	0.685140	0.717800	0.752080
C2391	C239	0.018000	0.639600	0.490200
C2401	C240	0.255100	0.716700	0.017400
C2411	C241	0.944690	0.947900	0.392780
C2421	C242	0.463160	0.252900	0.307520
C2431	C243	0.968900	0.998200	0.454400
C2441	C244	0.066940	0.717800	0.752080
C2451	C245	0.429300	0.142400	0.360200
C2461	C246	0.111300	0.349800	0.836400
C2471	C247	0.844360	0.252900	0.307520
C2481	C248	0.978480	0.046800	0.712760
C2491	C249	0.424900	0.478300	0.229600
C2501	C250	0.944500	0.117000	0.397400
C2511	C251	0.128920	0.761500	0.757240
C2521	C252	0.948050	0.198800	0.286300
C2531	C253	0.593080	0.113300	0.541560
C2541	C254	0.793700	0.494800	0.190400
C2551	C255	0.659360	0.031100	0.815520
C2561	C256	0.020800	0.533900	0.523400
C2571	C257	0.781400	0.674700	0.040400
C2581	C258	0.340480	0.069600	0.066160
C2591	C259	0.982000	0.139600	0.509800
C2601	C260	0.290590	0.675200	0.087380
C2611	C261	0.095900	0.710600	0.679800
C2621	C262	0.691380	0.106400	0.616160
C2631	C263	0.977240	0.127200	0.581680
C2641	C264	0.274320	0.569600	0.933840
C2651	C265	0.698200	0.304700	0.890600
C2661	C266	0.465800	0.076200	0.412800
C2671	C267	0.843840	0.531100	0.184480
C2681	C268	0.894300	0.914000	0.404800
C2691	C269	0.474930	0.179700	0.562060
C2701	C270	0.396700	0.494800	0.190400
C2711	C271	0.448090	0.947900	0.392780
C2721	C272	0.031100	0.498200	0.545600
C2731	C273	0.930890	0.527500	0.256380
C2741	C274	0.297400	0.091100	0.094000
C2751	C275	0.570700	0.642400	0.639800
C2761	C276	0.018680	0.396800	0.661560
C2771	C277	0.682200	0.105200	0.860200
C2781	C278	0.539200	0.493600	0.582600
C2791	C279	0.161100	0.633600	0.960200
C2801	C280	0.799100	0.633600	0.960200
C2811	C281	0.195300	0.978300	0.770400
C2821	C282	0.576790	0.832600	0.395380
C2831	C283	0.460800	0.993600	0.417400
C2841	C284	0.489500	0.414000	0.595200
C2851	C285	0.802260	0.625000	0.099120
C2861	C286	0.838900	0.133600	0.039800
C2871	C287	0.499590	0.870300	0.381980
C2881	C288	0.494100	0.433400	0.236000
N11	N1	0.226450	0.133100	0.970100
N21	N2	0.743650	0.133100	0.970100
N31	N3	0.773550	0.633100	0.029900
N41	N4	0.030920	0.624900	0.531840
N51	N5	0.499080	0.124900	0.468160
N61	N6	0.256350	0.633100	0.029900
N71	N7	0.500920	0.624900	0.531840
N81	N8	0.969080	0.124900	0.468160
O11	O1	0.865560	0.254600	0.731120
O21	O2	0.807500	0.970800	0.615000
O31	O3	0.255660	0.519200	0.313720
O41	O4	0.401860	0.215100	0.612320
O51	O5	0.028580	0.614800	0.855760
O61	O6	0.204480	0.160200	0.220160
O71	O7	0.733150	0.429000	0.273300
O81	O8	0.944610	0.347300	0.701020
O91	O9	0.348380	0.532600	0.885960
O101	O10	0.799510	0.401100	0.796220
O111	O11	0.507100	0.449200	0.014200
O121	O12	0.692370	0.415300	0.203940
O131	O13	0.222600	0.305800	0.632800
O141	O14	0.210460	0.215100	0.612320
O151	O15	0.369290	0.239800	0.546780
O161	O16	0.058060	0.519200	0.313720
O171	O17	0.883840	0.493900	0.767680
O181	O18	0.789540	0.715100	0.387680
O191	O19	0.046640	0.922300	0.285480
O201	O20	0.285860	0.566300	0.389920
O211	O21	0.630710	0.739800	0.453220
O221	O22	0.895940	0.066300	0.610080
O231	O23	0.372730	0.412400	0.929660
O241	O24	0.189380	0.330800	0.567560
O251	O25	0.459850	0.929000	0.726700
O261	O26	0.307630	0.915300	0.796060
O271	O27	0.757200	0.798300	0.514400
O281	O28	0.916060	0.131100	0.642520
O291	O29	0.237840	0.587600	0.280880
O301	O30	0.511040	0.318900	0.222880
O311	O31	0.488960	0.818900	0.777120
O321	O32	0.984320	0.660200	0.779840
O331	O33	0.971420	0.114800	0.144240
O341	O34	0.651620	0.032600	0.114040
O351	O35	0.762160	0.087600	0.719120
O361	O36	0.015150	0.823700	0.216900
O371	O37	0.652180	0.738000	0.304360
O381	O38	0.172820	0.114800	0.144240
O391	O39	0.996710	0.401100	0.796220
O401	O40	0.941900	0.779300	0.883800
O411	O41	0.273540	0.631100	0.357480
O421	O42	0.148270	0.182200	0.110140
O431	O43	0.347820	0.238000	0.695640
O441	O44	0.756410	0.347300	0.701020
O451	O45	0.527770	0.442300	0.864140
O461	O46	0.462420	0.032600	0.114040
O471	O47	0.511570	0.415300	0.203940
O481	O48	0.537580	0.532600	0.885960
O491	O49	0.116160	0.993900	0.232320
O501	O50	0.427300	0.846300	0.854600
O511	O51	0.761160	0.422300	0.714520
O521	O52	0.192500	0.470800	0.385000
O531	O53	0.238840	0.922300	0.285480
O541	O54	0.621820	0.830800	0.432440
O551	O55	0.739720	0.334300	0.290040
O561	O56	0.043040	0.587600	0.280880
O571	O57	0.200490	0.901100	0.203780
O581	O58	0.617620	0.007100	0.048840
O591	O59	0.488430	0.915300	0.796060
O601	O60	0.242800	0.298300	0.485600
O611	O61	0.288160	0.818900	0.777120
O621	O62	0.003290	0.901100	0.203780
O631	O63	0.324700	0.892600	0.649400
O641	O64	0.266850	0.929000	0.726700
O651	O65	0.777400	0.805800	0.367200
O661	O66	0.827180	0.614800	0.855760
O671	O67	0.711840	0.318900	0.222880
O681	O68	0.400610	0.510700	0.801220
O691	O69	0.726460	0.131100	0.642520
O701	O70	0.134440	0.754600	0.268880
O711	O71	0.492900	0.949200	0.985800
O721	O72	0.941940	0.019200	0.686280
O731	O73	0.194320	0.226600	0.187440
O741	O74	0.627270	0.912400	0.070340
O751	O75	0.260280	0.834300	0.709960
O761	O76	0.798250	0.323700	0.783100
O771	O77	0.568780	0.507100	0.951160
O781	O78	0.810620	0.830800	0.432440
O791	O79	0.675300	0.392600	0.350600
O801	O80	0.550320	0.334300	0.290040
O811	O81	0.714140	0.066300	0.610080
O821	O82	0.038130	0.682200	0.889860
O831	O83	0.449680	0.834300	0.709960
O841	O84	0.006880	0.726600	0.812560
O851	O85	0.382380	0.507100	0.951160
O861	O86	0.805680	0.726600	0.812560
O871	O87	0.177490	0.239800	0.546780
O881	O88	0.890210	0.570800	0.780420
O891	O89	0.243590	0.847300	0.298980
O901	O90	0.961870	0.182200	0.110140
O911	O91	0.599390	0.010700	0.198780
O921	O92	0.956960	0.087600	0.719120
O931	O93	0.744340	0.019200	0.686280
O941	O94	0.083940	0.631100	0.357480
O951	O95	0.953360	0.422300	0.714520
O961	O96	0.055390	0.847300	0.298980
O971	O97	0.993120	0.226600	0.187440
O981	O98	0.822510	0.739800	0.453220
O991	O99	0.336370	0.442300	0.864140
O1001	O100	0.572700	0.346300	0.145400
O1011	O101	0.109790	0.070800	0.219580
O1021	O102	0.984850	0.323700	0.783100
O1031	O103	0.795520	0.660200	0.779840
O1041	O104	0.431220	0.007100	0.048840
O1051	O105	0.058100	0.279300	0.116200
O1061	O106	0.598140	0.715100	0.387680
O1071	O107	0.410200	0.305800	0.632800
O1081	O108	0.851730	0.682200	0.889860
O1091	O109	0.556930	0.412400	0.929660
O1101	O110	0.104060	0.566300	0.389920
O1111	O111	0.201750	0.823700	0.216900
O1121	O112	0.663630	0.942300	0.135860
O1131	O113	0.472230	0.942300	0.135860
O1141	O114	0.443070	0.912400	0.070340
O1151	O115	0.378180	0.330800	0.567560
O1161	O116	0.015680	0.160200	0.220160
O1171	O117	0.540150	0.429000	0.273300
O1181	O118	0.589800	0.805800	0.367200
