data_ic5b00592_si_002_freeONLY_PM
_symmetry_space_group_name_H-M	'P1'
_cell_length_a	9.448300
_cell_length_b	29.042000
_cell_length_c	30.750000
_cell_angle_alpha	90.000000
_cell_angle_beta	90.000000
_cell_angle_gamma	90.000000
_symmetry_Int_Tables_number 1

loop_
_symmetry_equiv_pos_as_xyz
'x,y,z'

loop_
_atom_site_label
_atom_site_type_symbol
_atom_site_fract_x
_atom_site_fract_y
_atom_site_fract_z
Ni11	Ni1	0.139600	0.731300	0.111380
Ni21	Ni2	0.835500	0.966340	0.286980
Ni31	Ni3	0.860400	0.231300	0.388620
Ni41	Ni4	0.164500	0.466340	0.213020
H11	H1	0.007600	0.512800	0.165900
H21	H2	0.960100	0.586200	0.386100
H31	H3	0.739900	0.110700	0.094600
H41	H4	0.250000	0.616900	0.296300
H51	H5	0.930200	0.814100	0.180500
H61	H6	0.108100	0.206500	0.125300
H71	H7	0.719900	0.293200	0.360700
H81	H8	0.193200	0.659400	0.234100
H91	H9	0.971800	0.614500	0.132900
H101	H10	0.027100	0.873700	0.226600
H111	H11	0.972900	0.373700	0.273400
H121	H12	0.928700	0.442800	0.241400
H131	H13	0.748300	0.405800	0.278600
H141	H14	0.709000	0.702800	0.137100
H151	H15	0.536400	0.536200	0.496400
H161	H16	0.999600	0.171300	0.415300
H171	H17	0.235500	0.652300	0.372500
H181	H18	0.763100	0.002900	0.199800
H191	H19	0.226000	0.346700	0.382900
H201	H20	0.317600	0.556100	0.247200
H211	H21	0.105600	0.259200	0.368300
H221	H22	0.950200	0.169700	0.975900
H231	H23	0.675300	0.231600	0.088100
H241	H24	0.500400	0.556200	0.423200
H251	H25	0.866600	0.351300	0.351600
H261	H26	0.782600	0.175300	0.476000
H271	H27	0.407600	0.589800	0.344300
H281	H28	0.568200	0.607700	0.345500
H291	H29	0.533900	0.850900	0.113500
H301	H30	0.481700	0.237000	0.135500
H311	H31	0.391600	0.486500	0.190600
H321	H32	0.324700	0.731600	0.411900
H331	H33	0.253200	0.633000	0.107600
H341	H34	0.000400	0.671300	0.084700
H351	H35	0.236900	0.502900	0.300200
H361	H36	0.503000	0.800700	0.318100
H371	H37	0.133400	0.851300	0.148400
H381	H38	0.928800	0.944900	0.198800
H391	H39	0.008600	0.378100	0.179200
H401	H40	0.231800	0.067200	0.991300
H411	H41	0.071200	0.444900	0.301200
H421	H42	0.219400	0.221100	0.054400
H431	H43	0.894400	0.759200	0.131700
H441	H44	0.269500	0.948800	0.304900
H451	H45	0.613700	0.713500	0.443100
H461	H46	0.069800	0.314100	0.319500
H471	H47	0.806800	0.159400	0.265900
H481	H48	0.386300	0.213500	0.056900
H491	H49	0.652200	0.451900	0.107100
H501	H50	0.836200	0.901300	0.184500
H511	H51	0.506700	0.150600	0.049800
H521	H52	0.473800	0.089100	0.988800
H531	H53	0.146000	0.187400	0.198700
H541	H54	0.307400	0.748300	0.016100
H551	H55	0.794300	0.318100	0.443900
H561	H56	0.466100	0.350900	0.386500
H571	H57	0.067400	0.168500	0.090000
H581	H58	0.774000	0.846700	0.117100
H591	H59	0.938700	0.935900	0.383700
H601	H60	0.369800	0.548300	0.151800
H611	H61	0.651400	0.969900	0.176200
H621	H62	0.557700	0.437500	0.148600
H631	H63	0.431800	0.107700	0.154500
H641	H64	0.140000	0.125400	0.038600
H651	H65	0.780600	0.721100	0.445600
H661	H66	0.862200	0.121700	0.030700
H671	H67	0.518300	0.737000	0.364500
H681	H68	0.350300	0.982500	0.183900
H691	H69	0.163800	0.401300	0.315500
H701	H70	0.383100	0.032800	0.356700
H711	H71	0.616900	0.532800	0.143300
H721	H72	0.075500	0.790300	0.196100
H731	H73	0.623000	0.206200	0.407000
H741	H74	0.224000	0.090800	0.326900
H751	H75	0.726500	0.645500	0.487500
H761	H76	0.607800	0.486900	0.237500
H771	H77	0.932600	0.668500	0.410000
H781	H78	0.361300	0.653100	0.043200
H791	H79	0.431200	0.934200	0.185000
H801	H80	0.392200	0.986900	0.262500
H811	H81	0.608400	0.986500	0.309400
H821	H82	0.991400	0.878100	0.320800
H831	H83	0.463600	0.036200	0.003600
H841	H84	0.406200	0.262000	0.424100
H851	H85	0.049800	0.669700	0.524100
H861	H86	0.530400	0.049300	0.274900
H871	H87	0.164000	0.226700	0.304600
H881	H88	0.624300	0.079200	0.049000
H891	H89	0.292800	0.105800	0.098000
H901	H90	0.146900	0.616100	0.070600
H911	H91	0.499600	0.056200	0.076800
H921	H92	0.891900	0.706500	0.374700
H931	H93	0.682400	0.056100	0.252800
H941	H94	0.273500	0.145500	0.012500
H951	H95	0.399900	0.346400	0.434600
H961	H96	0.461300	0.731400	0.031200
H971	H97	0.003500	0.211300	0.297500
H981	H98	0.854800	0.382000	0.200800
H991	H99	0.776000	0.590800	0.173100
H1001	H100	0.763300	0.279600	0.033300
H1011	H101	0.942100	0.473800	0.107200
H1021	H102	0.638700	0.153100	0.456800
H1031	H103	0.854000	0.687400	0.301300
H1041	H104	0.501600	0.271400	0.381600
H1051	H105	0.061300	0.435900	0.116300
H1061	H106	0.079500	0.639600	0.165500
H1071	H107	0.592400	0.089800	0.155700
H1081	H108	0.028200	0.114500	0.367100
H1091	H109	0.551900	0.645300	0.158500
H1101	H110	0.526200	0.589100	0.511200
H1111	H111	0.762000	0.994600	0.385800
H1121	H112	0.768200	0.567200	0.508700
H1131	H113	0.348600	0.469900	0.323800
H1141	H114	0.498900	0.944500	0.256300
H1151	H115	0.858700	0.040100	0.385400
H1161	H116	0.448100	0.145300	0.341500
H1171	H117	0.653200	0.656000	0.198800
H1181	H118	0.150300	0.296300	0.073300
H1191	H119	0.238000	0.494600	0.114200
H1201	H120	0.793100	0.490900	0.168600
H1211	H121	0.730500	0.448800	0.195100
H1221	H122	0.751600	0.551000	0.459200
H1231	H123	0.568800	0.434200	0.315000
H1241	H124	0.377000	0.706200	0.093000
H1251	H125	0.886300	0.867400	0.255900
H1261	H126	0.649700	0.482500	0.316100
H1271	H127	0.347800	0.951900	0.392900
H1281	H128	0.205700	0.818100	0.056100
H1291	H129	0.248400	0.051000	0.040800
H1301	H130	0.764500	0.152300	0.127500
H1311	H131	0.249400	0.157100	0.389500
H1321	H132	0.920500	0.139600	0.334500
H1331	H133	0.280100	0.793200	0.139300
H1341	H134	0.501100	0.444500	0.243700
H1351	H135	0.235500	0.565000	0.179300
H1361	H136	0.469600	0.549300	0.225100
H1371	H137	0.145200	0.882000	0.299200
H1381	H138	0.346800	0.156000	0.301200
H1391	H139	0.137800	0.621700	0.469300
H1401	H140	0.260100	0.610700	0.405400
H1411	H141	0.330500	0.419500	0.264100
H1421	H142	0.251700	0.905800	0.221400
H1431	H143	0.039900	0.086200	0.113900
H1441	H144	0.057900	0.973800	0.392800
H1451	H145	0.385000	0.189000	0.191200
H1461	H146	0.538700	0.231400	0.468800
H1471	H147	0.688200	0.346100	0.413300
H1481	H148	0.996500	0.711300	0.202500
H1491	H149	0.236700	0.779600	0.466700
H1501	H150	0.375700	0.579200	0.451000
H1511	H151	0.000700	0.035900	0.172100
H1521	H152	0.834400	0.860000	0.380300
H1531	H153	0.764500	0.065000	0.320700
H1541	H154	0.113700	0.367400	0.244100
H1551	H155	0.311800	0.846100	0.086700
H1561	H156	0.165600	0.360000	0.119700
H1571	H157	0.493300	0.650600	0.450200
H1581	H158	0.442300	0.937500	0.351400
H1591	H159	0.750600	0.657100	0.110500
H1601	H160	0.669500	0.919500	0.235900
H1611	H161	0.707200	0.605800	0.402000
H1621	H162	0.291000	0.202800	0.362900
H1631	H163	0.630200	0.048300	0.348200
H1641	H164	0.498400	0.771400	0.118400
H1651	H165	0.893200	0.637000	0.243100
H1661	H166	0.849700	0.796300	0.426700
H1671	H167	0.746800	0.133000	0.392400
H1681	H168	0.593800	0.762000	0.075900
H1691	H169	0.141300	0.540100	0.114600
H1701	H170	0.071300	0.942800	0.258600
H1711	H171	0.999300	0.535900	0.327900
H1721	H172	0.860000	0.625400	0.461400
H1731	H173	0.615000	0.689000	0.308800
H1741	H174	0.106800	0.137000	0.256900
H1751	H175	0.836000	0.726700	0.195400
H1761	H176	0.558200	0.731500	0.246500
H1771	H177	0.992400	0.012800	0.334100
H1781	H178	0.692600	0.248300	0.483900
H1791	H179	0.217400	0.675300	0.024000
H1801	H180	0.206900	0.990900	0.331400
H1811	H181	0.441800	0.231500	0.253500
H1821	H182	0.497000	0.300700	0.181900
H1831	H183	0.750000	0.116900	0.203700
H1841	H184	0.600100	0.846400	0.065400
H1851	H185	0.853100	0.116100	0.429400
H1861	H186	0.924500	0.290300	0.303900
H1871	H187	0.028400	0.831200	0.112100
H1881	H188	0.971600	0.331200	0.387900
C11	C1	0.386000	0.532800	0.236800
C21	C2	0.014000	0.796300	0.170700
C31	C3	0.700000	0.717300	0.425300
C41	C4	0.591100	0.831200	0.094000
C51	C5	0.946500	0.596600	0.357000
C61	C6	0.312500	0.640100	0.286200
C71	C7	0.948000	0.890100	0.241300
C81	C8	0.629700	0.199400	0.265500
C91	C9	0.468000	0.617600	0.346300
C101	C10	0.417500	0.262000	0.132300
C111	C11	0.050100	0.081700	0.220000
C121	C12	0.077800	0.215900	0.319700
C131	C13	0.187800	0.643800	0.084600
C141	C14	0.441900	0.068300	0.012300
C151	C15	0.253900	0.171000	0.360100
C161	C16	0.062000	0.900000	0.309300
C171	C17	0.562200	0.148900	0.191600
C181	C18	0.371200	0.955300	0.202300
C191	C19	0.721400	0.314800	0.421000
C201	C20	0.135000	0.729100	0.500600
C211	C21	0.529400	0.683000	0.293600
C221	C22	0.812200	0.143800	0.415400
C231	C23	0.675000	0.875000	0.316400
C241	C24	0.721200	0.165400	0.250700
C251	C25	0.883500	0.656600	0.306700
C261	C26	0.661000	0.228800	0.301200
C271	C27	0.349600	0.142700	0.330800
C281	C28	0.216600	0.747500	0.467200
C291	C29	0.157800	0.653800	0.468700
C301	C30	0.105600	0.682200	0.501300
C311	C31	0.746100	0.671000	0.139900
C321	C32	0.906700	0.626700	0.272100
C331	C33	0.278600	0.814800	0.079000
C341	C34	0.894400	0.182200	0.998700
C351	C35	0.544000	0.471400	0.258400
C361	C36	0.130500	0.175100	0.114900
C371	C37	0.718000	0.037700	0.333500
C381	C38	0.678500	0.631300	0.422000
C391	C39	0.321500	0.131300	0.078000
C401	C40	0.268900	0.719100	0.434700
C411	C41	0.779300	0.797200	0.404700
C421	C42	0.866100	0.920200	0.209700
C431	C43	0.300000	0.217300	0.074700
C441	C44	0.815600	0.016000	0.366900
C451	C45	0.273400	0.669800	0.050800
C461	C46	0.184400	0.516000	0.133100
C471	C47	0.437800	0.648900	0.308400
C481	C48	0.614000	0.032800	0.263200
C491	C49	0.922200	0.715900	0.180300
C501	C50	0.994000	0.457200	0.130400
C511	C51	0.760500	0.172200	0.064600
C521	C52	0.842200	0.153800	0.031300
C531	C53	0.370000	0.959400	0.362300
C541	C54	0.220700	0.297200	0.095300
C551	C55	0.325000	0.375000	0.183600
C561	C56	0.052000	0.390100	0.258700
C571	C57	0.582500	0.762000	0.367700
C581	C58	0.096700	0.141500	0.150900
C591	C59	0.938000	0.400000	0.190700
C601	C60	0.783400	0.247500	0.032800
C611	C61	0.478800	0.580000	0.445300
C621	C62	0.865000	0.229100	0.999400
C631	C63	0.573400	0.799800	0.340100
C641	C64	0.495600	0.708200	0.256600
C651	C65	0.229800	0.335000	0.122900
C661	C66	0.770200	0.835000	0.377100
C671	C67	0.731100	0.219100	0.065300
C681	C68	0.969800	0.566600	0.322500
C691	C69	0.718800	0.573700	0.481000
C701	C70	0.314500	0.260700	0.100100
C711	C71	0.525800	0.783600	0.089500
C721	C72	0.083000	0.761400	0.531400
C731	C73	0.628800	0.455300	0.297700
C741	C74	0.558100	0.568300	0.487700
C751	C75	0.007300	0.644800	0.142700
C761	C76	0.278800	0.665400	0.249300
C771	C77	0.481200	0.128000	0.073100
C781	C78	0.474200	0.283600	0.410500
C791	C79	0.518800	0.628000	0.426900
C801	C80	0.094200	0.822600	0.135800
C811	C81	0.532000	0.117600	0.153700
C821	C82	0.986000	0.296300	0.329300
C831	C83	0.756500	0.622600	0.465600
C841	C84	0.685500	0.760700	0.399900
C851	C85	0.687500	0.140100	0.213800
C861	C86	0.053500	0.096600	0.143000
C871	C87	0.288300	0.642800	0.398900
C881	C88	0.006000	0.957200	0.369600
C891	C89	0.629200	0.244700	0.458500
C901	C90	0.116500	0.156600	0.193300
C911	C91	0.370300	0.699400	0.234500
C921	C92	0.030200	0.066600	0.177500
C931	C93	0.408900	0.331200	0.406000
C941	C94	0.685000	0.980800	0.204900
C951	C95	0.239500	0.672200	0.435400
C961	C96	0.903300	0.641500	0.349100
C971	C97	0.238000	0.958500	0.334200
C981	C98	0.630000	0.459400	0.137700
C991	C99	0.989000	0.551400	0.245500
C1001	C100	0.650400	0.642700	0.169200
C1011	C101	0.011000	0.051400	0.254500
C1021	C102	0.869500	0.675100	0.385100
C1031	C103	0.133900	0.420200	0.290300
C1041	C104	0.521200	0.080000	0.054700
C1051	C105	0.711700	0.142800	0.101100
C1061	C106	0.949900	0.581700	0.280000
C1071	C107	0.726600	0.169800	0.449200
C1081	C108	0.992700	0.144800	0.357300
C1091	C109	0.315000	0.480800	0.295100
C1101	C110	0.917000	0.261400	0.968600
C1111	C111	0.470600	0.183000	0.206400
C1121	C112	0.456000	0.971400	0.241600
C1131	C113	0.243500	0.122600	0.034400
C1141	C114	0.281200	0.073700	0.019000
C1151	C115	0.332800	0.336300	0.155100
C1161	C116	0.370800	0.744700	0.041500
C1171	C117	0.504400	0.208200	0.243400
C1181	C118	0.762000	0.458500	0.165800
C1191	C119	0.282000	0.537700	0.166500
C1201	C120	0.667200	0.836300	0.344900
C1211	C121	0.426600	0.299800	0.159900
C1221	C122	0.339000	0.728800	0.198800
C1231	C123	0.905800	0.322600	0.364200
C1241	C124	0.093300	0.126700	0.227900
N11	N1	0.396800	0.789400	0.061000
N21	N2	0.739500	0.941100	0.230000
N31	N3	0.277800	0.174700	0.099300
N41	N4	0.438600	0.642500	0.387900
N51	N5	0.891600	0.671800	0.160200
N61	N6	0.926900	0.990800	0.342800
N71	N7	0.789300	0.294300	0.382100
N81	N8	0.969600	0.752600	0.150200
N91	N9	0.030400	0.252600	0.349800
N101	N10	0.320400	0.505200	0.201700
N111	N11	0.071500	0.669700	0.105600
N121	N12	0.073100	0.490800	0.157200
N131	N13	0.106300	0.930900	0.343900
N141	N14	0.695200	0.213500	0.426400
N151	N15	0.928500	0.169700	0.394400
N161	N16	0.108400	0.171800	0.339800
N171	N17	0.722200	0.674700	0.400700
N181	N18	0.429900	0.504200	0.273000
N191	N19	0.603200	0.289400	0.439000
N201	N20	0.304800	0.713500	0.073600
N211	N21	0.001000	0.925400	0.272000
N221	N22	0.210700	0.794300	0.117900
N231	N23	0.679600	0.005200	0.298300
N241	N24	0.260500	0.441100	0.270000
N251	N25	0.893700	0.430900	0.156100
N261	N26	0.999000	0.425400	0.228000
N271	N27	0.570100	0.004200	0.227000
N281	N28	0.561400	0.142500	0.112100
O11	O1	0.397200	0.371200	0.219800
O21	O2	0.580600	0.507200	0.142000
O31	O3	0.762800	0.431800	0.288000
O41	O4	0.112700	0.798500	0.535000
O51	O5	0.066900	0.517400	0.251700
O61	O6	0.687600	0.593600	0.171900
O71	O7	0.261800	0.411900	0.177100
O81	O8	0.602800	0.871200	0.280200
O91	O9	0.385200	0.768100	0.191800
O101	O10	0.269000	0.321700	0.387000
O111	O11	0.254800	0.706800	0.166300
O121	O12	0.738200	0.911900	0.322900
O131	O13	0.985400	0.741300	0.556200
O141	O14	0.014600	0.241300	0.943800
O151	O15	0.745200	0.206800	0.333700
O161	O16	0.731000	0.821700	0.113000
O171	O17	0.237200	0.931800	0.212000
O181	O18	0.090700	0.057900	0.292200
O191	O19	0.312400	0.093600	0.328100
O201	O20	0.614800	0.268100	0.308200
O211	O21	0.419400	0.007200	0.358000
O221	O22	0.933100	0.017400	0.248300
O231	O23	0.887300	0.298500	0.965000
O241	O24	0.909300	0.557900	0.207800
Ni51	Ni5	0.164500	0.533660	0.786980
Ni61	Ni6	0.139600	0.268700	0.888620
Ni71	Ni7	0.835500	0.033660	0.713020
Ni81	Ni8	0.860400	0.768700	0.611380
H1891	H189	0.165600	0.640000	0.880300
H1901	H190	0.493300	0.349400	0.549800
H1911	H191	0.836200	0.098700	0.815500
H1921	H192	0.049800	0.330300	0.475900
H1931	H193	0.780600	0.278900	0.554400
H1941	H194	0.568800	0.565800	0.685000
H1951	H195	0.653200	0.344000	0.801200
H1961	H196	0.688200	0.653900	0.586700
H1971	H197	0.518300	0.263000	0.635500
H1981	H198	0.928700	0.557200	0.758600
H1991	H199	0.069800	0.685900	0.680500
H2001	H200	0.469600	0.450700	0.774900
H2011	H201	0.894400	0.240800	0.868300
H2021	H202	0.391600	0.513500	0.809400
H2031	H203	0.971600	0.668800	0.612100
H2041	H204	0.145200	0.118000	0.700800
H2051	H205	0.075500	0.209700	0.803900
H2061	H206	0.615000	0.311000	0.691200
H2071	H207	0.849700	0.203700	0.573300
H2081	H208	0.028200	0.885500	0.632900
H2091	H209	0.652200	0.548100	0.892900
H2101	H210	0.431800	0.892300	0.845500
H2111	H211	0.392200	0.013100	0.737500
H2121	H212	0.928800	0.055100	0.801200
H2131	H213	0.251700	0.094200	0.778600
H2141	H214	0.106800	0.863000	0.743100
H2151	H215	0.071300	0.057200	0.741400
H2161	H216	0.608400	0.013500	0.690600
H2171	H217	0.137800	0.378300	0.530700
H2181	H218	0.071200	0.555100	0.698800
H2191	H219	0.834400	0.140000	0.619700
H2201	H220	0.751600	0.449000	0.540800
H2211	H221	0.253200	0.367000	0.892400
H2221	H222	0.466100	0.649100	0.613500
H2231	H223	0.538700	0.768600	0.531200
H2241	H224	0.273500	0.854500	0.987500
H2251	H225	0.206900	0.009100	0.668600
H2261	H226	0.164000	0.773300	0.695400
H2271	H227	0.854800	0.618000	0.799200
H2281	H228	0.481700	0.763000	0.864500
H2291	H229	0.003500	0.788700	0.702500
H2301	H230	0.399900	0.653600	0.565400
H2311	H231	0.858700	0.959900	0.614600
H2321	H232	0.238000	0.505400	0.885800
H2331	H233	0.383100	0.967200	0.643300
H2341	H234	0.140000	0.874600	0.961400
H2351	H235	0.992400	0.987200	0.665900
H2361	H236	0.782600	0.824700	0.524000
H2371	H237	0.996500	0.288700	0.797500
H2381	H238	0.649700	0.517500	0.683900
H2391	H239	0.317600	0.443900	0.752800
H2401	H240	0.028400	0.168800	0.887900
H2411	H241	0.235500	0.347700	0.627500
H2421	H242	0.533900	0.149100	0.886500
H2431	H243	0.236900	0.497100	0.699800
H2441	H244	0.638700	0.846900	0.543200
H2451	H245	0.763300	0.720400	0.966700
H2461	H246	0.930200	0.185900	0.819500
H2471	H247	0.498400	0.228600	0.881600
H2481	H248	0.592400	0.910200	0.844300
H2491	H249	0.692600	0.751700	0.516100
H2501	H250	0.557700	0.562500	0.851400
H2511	H251	0.536400	0.463800	0.503600
H2521	H252	0.530400	0.950700	0.725100
H2531	H253	0.506700	0.849400	0.950200
H2541	H254	0.463600	0.963800	0.996400
H2551	H255	0.291000	0.797200	0.637100
H2561	H256	0.558200	0.268500	0.753500
H2571	H257	0.854000	0.312600	0.698700
H2581	H258	0.311800	0.153900	0.913300
H2591	H259	0.853100	0.883900	0.570600
H2601	H260	0.224000	0.909200	0.673100
H2611	H261	0.593800	0.238000	0.924100
H2621	H262	0.793100	0.509100	0.831400
H2631	H263	0.406200	0.738000	0.575900
H2641	H264	0.008600	0.621900	0.820800
H2651	H265	0.236700	0.220400	0.533300
H2661	H266	0.669500	0.080500	0.764100
H2671	H267	0.385000	0.811000	0.808800
H2681	H268	0.061300	0.564100	0.883700
H2691	H269	0.193200	0.340600	0.765900
H2701	H270	0.499600	0.943800	0.923200
H2711	H271	0.739900	0.889300	0.905400
H2721	H272	0.442300	0.062500	0.648600
H2731	H273	0.991400	0.121900	0.679200
H2741	H274	0.431200	0.065800	0.815000
H2751	H275	0.774000	0.153300	0.882900
H2761	H276	0.942100	0.526200	0.892800
H2771	H277	0.623000	0.793800	0.593000
H2781	H278	0.498900	0.055500	0.743700
H2791	H279	0.624300	0.920800	0.951000
H2801	H280	0.330500	0.580500	0.735900
H2811	H281	0.292800	0.894200	0.902000
H2821	H282	0.750600	0.342900	0.889500
H2831	H283	0.375700	0.420800	0.549000
H2841	H284	0.448100	0.854700	0.658500
H2851	H285	0.441800	0.768500	0.746500
H2861	H286	0.324700	0.268400	0.588100
H2871	H287	0.764500	0.935000	0.679300
H2881	H288	0.920500	0.860400	0.665500
H2891	H289	0.960100	0.413800	0.613900
H2901	H290	0.361300	0.346900	0.956800
H2911	H291	0.348600	0.530100	0.676200
H2921	H292	0.750000	0.883100	0.796300
H2931	H293	0.350300	0.017500	0.816100
H2941	H294	0.377000	0.293800	0.907000
H2951	H295	0.707200	0.394200	0.598000
H2961	H296	0.607800	0.513100	0.762500
H2971	H297	0.105600	0.740800	0.631700
H2981	H298	0.163800	0.598700	0.684500
H2991	H299	0.461300	0.268600	0.968800
H3001	H300	0.133400	0.148700	0.851600
H3011	H301	0.473800	0.910900	0.011200
H3021	H302	0.938700	0.064100	0.616300
H3031	H303	0.141300	0.459900	0.885400
H3041	H304	0.269500	0.051200	0.695100
H3051	H305	0.249400	0.842900	0.610500
H3061	H306	0.347800	0.048100	0.607100
H3071	H307	0.709000	0.297200	0.862900
H3081	H308	0.369800	0.451700	0.848200
H3091	H309	0.497000	0.699300	0.818100
H3101	H310	0.503000	0.199300	0.681900
H3111	H311	0.501100	0.555500	0.756300
H3121	H312	0.250000	0.383100	0.703700
H3131	H313	0.971800	0.385500	0.867100
H3141	H314	0.219400	0.778900	0.945600
H3151	H315	0.067400	0.831500	0.910000
H3161	H316	0.806800	0.840600	0.734100
H3171	H317	0.386300	0.786500	0.943100
H3181	H318	0.613700	0.286500	0.556900
H3191	H319	0.891900	0.293500	0.625300
H3201	H320	0.217400	0.324700	0.976000
H3211	H321	0.248400	0.949000	0.959200
H3221	H322	0.860000	0.374600	0.538600
H3231	H323	0.146900	0.383900	0.929400
H3241	H324	0.836000	0.273300	0.804600
H3251	H325	0.616900	0.467200	0.856700
H3261	H326	0.746800	0.867000	0.607600
H3271	H327	0.950200	0.830300	0.024100
H3281	H328	0.000700	0.964100	0.827900
H3291	H329	0.893200	0.363000	0.756900
H3301	H330	0.526200	0.410900	0.488800
H3311	H331	0.763100	0.997100	0.800200
H3321	H332	0.551900	0.354700	0.841500
H3331	H333	0.500400	0.443800	0.576800
H3341	H334	0.794300	0.681900	0.556100
H3351	H335	0.866600	0.648700	0.648400
H3361	H336	0.079500	0.360400	0.834500
H3371	H337	0.999300	0.464100	0.672100
H3381	H338	0.600100	0.153600	0.934600
H3391	H339	0.764500	0.847700	0.872500
H3401	H340	0.231800	0.932800	0.008700
H3411	H341	0.932600	0.331500	0.590000
H3421	H342	0.630200	0.951700	0.651800
H3431	H343	0.924500	0.709700	0.696100
H3441	H344	0.651400	0.030100	0.823800
H3451	H345	0.150300	0.703700	0.926700
H3461	H346	0.776000	0.409200	0.826900
H3471	H347	0.280100	0.206800	0.860700
H3481	H348	0.039900	0.913800	0.886100
H3491	H349	0.999600	0.828700	0.584700
H3501	H350	0.726500	0.354500	0.512500
H3511	H351	0.108100	0.793500	0.874700
H3521	H352	0.113700	0.632600	0.755900
H3531	H353	0.226000	0.653300	0.617100
H3541	H354	0.730500	0.551200	0.804900
H3551	H355	0.886300	0.132600	0.744100
H3561	H356	0.260100	0.389300	0.594600
H3571	H357	0.000400	0.328700	0.915300
H3581	H358	0.307400	0.251700	0.983900
H3591	H359	0.407600	0.410200	0.655700
H3601	H360	0.862200	0.878300	0.969300
H3611	H361	0.501600	0.728600	0.618400
H3621	H362	0.762000	0.005400	0.614200
H3631	H363	0.768200	0.432800	0.491300
H3641	H364	0.682400	0.943900	0.747200
H3651	H365	0.235500	0.435000	0.820700
H3661	H366	0.972900	0.626300	0.726600
H3671	H367	0.748300	0.594200	0.721400
H3681	H368	0.568200	0.392300	0.654500
H3691	H369	0.719900	0.706800	0.639300
H3701	H370	0.346800	0.844000	0.698800
H3711	H371	0.146000	0.812600	0.801300
H3721	H372	0.027100	0.126300	0.773400
H3731	H373	0.205700	0.181900	0.943900
H3741	H374	0.675300	0.768400	0.911900
H3751	H375	0.007600	0.487200	0.834100
H3761	H376	0.057900	0.026200	0.607200
C1251	C125	0.470600	0.817000	0.793600
C1261	C126	0.969800	0.433400	0.677500
C1271	C127	0.762000	0.541500	0.834200
C1281	C128	0.558100	0.431700	0.512300
C1291	C129	0.135000	0.270900	0.499400
C1301	C130	0.760500	0.827800	0.935400
C1311	C131	0.437800	0.351100	0.691600
C1321	C132	0.986000	0.703700	0.670700
C1331	C133	0.629200	0.755300	0.541500
C1341	C134	0.678500	0.368700	0.578000
C1351	C135	0.116500	0.843400	0.806700
C1361	C136	0.312500	0.359900	0.713800
C1371	C137	0.948000	0.109900	0.758700
C1381	C138	0.812200	0.856200	0.584600
C1391	C139	0.481200	0.872000	0.926900
C1401	C140	0.281200	0.926300	0.981000
C1411	C141	0.650400	0.357300	0.830800
C1421	C142	0.718000	0.962300	0.666500
C1431	C143	0.468000	0.382400	0.653700
C1441	C144	0.495600	0.291800	0.743400
C1451	C145	0.721200	0.834600	0.749300
C1461	C146	0.521200	0.920000	0.945300
C1471	C147	0.053500	0.903400	0.857000
C1481	C148	0.989000	0.448600	0.754500
C1491	C149	0.077800	0.784100	0.680300
C1501	C150	0.614000	0.967200	0.736800
C1511	C151	0.675000	0.125000	0.683600
C1521	C152	0.783400	0.752500	0.967200
C1531	C153	0.685000	0.019200	0.795100
C1541	C154	0.721400	0.685200	0.579000
C1551	C155	0.992700	0.855200	0.642700
C1561	C156	0.007300	0.355200	0.857300
C1571	C157	0.525800	0.216400	0.910500
C1581	C158	0.441900	0.931700	0.987700
C1591	C159	0.370300	0.300600	0.765500
C1601	C160	0.014000	0.203700	0.829300
C1611	C161	0.239500	0.327800	0.564600
C1621	C162	0.770200	0.165000	0.622900
C1631	C163	0.685500	0.239300	0.600100
C1641	C164	0.629700	0.800600	0.734500
C1651	C165	0.842200	0.846200	0.968700
C1661	C166	0.278600	0.185200	0.921000
C1671	C167	0.093300	0.873300	0.772100
C1681	C168	0.815600	0.984000	0.633100
C1691	C169	0.011000	0.948600	0.745500
C1701	C170	0.216600	0.252500	0.532800
C1711	C171	0.544000	0.528600	0.741600
C1721	C172	0.386000	0.467200	0.763200
C1731	C173	0.518800	0.372000	0.573100
C1741	C174	0.894400	0.817800	0.001300
C1751	C175	0.332800	0.663700	0.844900
C1761	C176	0.300000	0.782700	0.925300
C1771	C177	0.417500	0.738000	0.867700
C1781	C178	0.253900	0.829000	0.639900
C1791	C179	0.630000	0.540600	0.862300
C1801	C180	0.426600	0.700200	0.840100
C1811	C181	0.229800	0.665000	0.877100
C1821	C182	0.184400	0.484000	0.866900
C1831	C183	0.157800	0.346200	0.531300
C1841	C184	0.371200	0.044700	0.797700
C1851	C185	0.661000	0.771200	0.698800
C1861	C186	0.865000	0.770900	0.000600
C1871	C187	0.187800	0.356200	0.915400
C1881	C188	0.866100	0.079800	0.790300
C1891	C189	0.779300	0.202800	0.595300
C1901	C190	0.094200	0.177400	0.864200
C1911	C191	0.478800	0.420000	0.554700
C1921	C192	0.917000	0.738600	0.031400
C1931	C193	0.869500	0.324900	0.614900
C1941	C194	0.731100	0.780900	0.934700
C1951	C195	0.282000	0.462300	0.833500
C1961	C196	0.582500	0.238000	0.632300
C1971	C197	0.949900	0.418300	0.720000
C1981	C198	0.105600	0.317800	0.498700
C1991	C199	0.349600	0.857300	0.669200
C2001	C200	0.315000	0.519200	0.704900
C2011	C201	0.994000	0.542800	0.869600
C2021	C202	0.573400	0.200200	0.659900
C2031	C203	0.504400	0.791800	0.756600
C2041	C204	0.050100	0.918300	0.780000
C2051	C205	0.938000	0.600000	0.809300
C2061	C206	0.700000	0.282700	0.574700
C2071	C207	0.529400	0.317000	0.706400
C2081	C208	0.746100	0.329000	0.860100
C2091	C209	0.288300	0.357200	0.601100
C2101	C210	0.278800	0.334600	0.750700
C2111	C211	0.325000	0.625000	0.816400
C2121	C212	0.922200	0.284100	0.819700
C2131	C213	0.052000	0.609900	0.741300
C2141	C214	0.130500	0.824900	0.885100
C2151	C215	0.628800	0.544700	0.702300
C2161	C216	0.687500	0.859900	0.786200
C2171	C217	0.711700	0.857200	0.898900
C2181	C218	0.321500	0.868700	0.922000
C2191	C219	0.083000	0.238600	0.468600
C2201	C220	0.883500	0.343400	0.693300
C2211	C221	0.370000	0.040600	0.637700
C2221	C222	0.667200	0.163700	0.655100
C2231	C223	0.906700	0.373300	0.727900
C2241	C224	0.946500	0.403400	0.643000
C2251	C225	0.273400	0.330200	0.949200
C2261	C226	0.268900	0.280900	0.565300
C2271	C227	0.562200	0.851100	0.808400
C2281	C228	0.314500	0.739300	0.899900
C2291	C229	0.408900	0.668800	0.594000
C2301	C230	0.905800	0.677400	0.635800
C2311	C231	0.474200	0.716400	0.589500
C2321	C232	0.903300	0.358500	0.650900
C2331	C233	0.456000	0.028600	0.758400
C2341	C234	0.096700	0.858500	0.849100
C2351	C235	0.718800	0.426300	0.519000
C2361	C236	0.238000	0.041500	0.665800
C2371	C237	0.220700	0.702800	0.904700
C2381	C238	0.133900	0.579800	0.709700
C2391	C239	0.062000	0.100000	0.690700
C2401	C240	0.030200	0.933400	0.822500
C2411	C241	0.726600	0.830200	0.550800
C2421	C242	0.591100	0.168800	0.906000
C2431	C243	0.370800	0.255300	0.958500
C2441	C244	0.006000	0.042800	0.630400
C2451	C245	0.243500	0.877400	0.965600
C2461	C246	0.532000	0.882400	0.846300
C2471	C247	0.339000	0.271200	0.801200
C2481	C248	0.756500	0.377400	0.534400
N291	N29	0.561400	0.857500	0.887900
N301	N30	0.739500	0.058900	0.770000
N311	N31	0.570100	0.995800	0.773000
N321	N32	0.999000	0.574600	0.772000
N331	N33	0.277800	0.825300	0.900700
N341	N34	0.679600	0.994800	0.701700
N351	N35	0.210700	0.205700	0.882100
N361	N36	0.071500	0.330300	0.894400
N371	N37	0.001000	0.074600	0.728000
N381	N38	0.030400	0.747400	0.650200
N391	N39	0.396800	0.210600	0.939000
N401	N40	0.304800	0.286500	0.926400
N411	N41	0.106300	0.069100	0.656100
N421	N42	0.891600	0.328200	0.839800
N431	N43	0.695200	0.786500	0.573600
N441	N44	0.969600	0.247400	0.849800
N451	N45	0.438600	0.357500	0.612100
N461	N46	0.789300	0.705700	0.617900
N471	N47	0.722200	0.325300	0.599300
N481	N48	0.928500	0.830300	0.605600
N491	N49	0.320400	0.494800	0.798300
N501	N50	0.073100	0.509200	0.842800
N511	N51	0.108400	0.828200	0.660200
N521	N52	0.429900	0.495800	0.727000
N531	N53	0.260500	0.558900	0.730000
N541	N54	0.893700	0.569100	0.843900
N551	N55	0.926900	0.009200	0.657200
N561	N56	0.603200	0.710600	0.561000
O251	O25	0.985400	0.258700	0.443800
O261	O26	0.254800	0.293200	0.833700
O271	O27	0.112700	0.201500	0.465000
O281	O28	0.745200	0.793200	0.666300
O291	O29	0.731000	0.178300	0.887000
O301	O30	0.419400	0.992800	0.642000
O311	O31	0.614800	0.731900	0.691800
O321	O32	0.687600	0.406400	0.828100
O331	O33	0.909300	0.442100	0.792200
O341	O34	0.385200	0.231900	0.808200
O351	O35	0.602800	0.128800	0.719800
O361	O36	0.066900	0.482600	0.748300
O371	O37	0.397200	0.628800	0.780200
O381	O38	0.312400	0.906400	0.671900
O391	O39	0.762800	0.568200	0.712000
O401	O40	0.887300	0.701500	0.035000
O411	O41	0.269000	0.678300	0.613000
O421	O42	0.014600	0.758700	0.056200
O431	O43	0.090700	0.942100	0.707800
O441	O44	0.261800	0.588100	0.822900
O451	O45	0.738200	0.088100	0.677100
O461	O46	0.933100	0.982600	0.751700
O471	O47	0.237200	0.068200	0.788000
O481	O48	0.580600	0.492800	0.858000
