data_ic9002115_si_001_freeONLY_PM
_symmetry_space_group_name_H-M	'P1'
_cell_length_a	6.746400
_cell_length_b	13.497200
_cell_length_c	25.023500
_cell_angle_alpha	105.398000
_cell_angle_beta	90.000000
_cell_angle_gamma	104.473000
_symmetry_Int_Tables_number 1

loop_
_symmetry_equiv_pos_as_xyz
'x,y,z'

loop_
_atom_site_label
_atom_site_type_symbol
_atom_site_fract_x
_atom_site_fract_y
_atom_site_fract_z
Zn11	Zn1	0.950580	0.130060	0.034240
Zn21	Zn2	0.820520	0.869940	0.465760
Zn31	Zn3	0.179480	0.130060	0.534240
Zn41	Zn4	0.049420	0.869940	0.965760
H11	H1	0.257000	0.736400	0.663500
H21	H2	0.381700	0.797000	0.422300
H31	H3	0.099300	0.473800	0.539500
H41	H4	0.374500	0.473800	0.039500
H51	H5	0.087400	0.674200	0.427400
H61	H6	0.037600	0.119600	0.813600
H71	H7	0.618300	0.203000	0.577700
H81	H8	0.402900	0.791400	0.253800
H91	H9	0.258700	0.036400	0.354700
H101	H10	0.566000	0.786400	0.830700
H111	H11	0.223800	0.130000	0.737600
H121	H12	0.607600	0.420600	0.466600
H131	H13	0.444900	0.998600	0.079600
H141	H14	0.434000	0.213600	0.169300
H151	H15	0.388500	0.791400	0.753800
H161	H16	0.082000	0.119600	0.313600
H171	H17	0.741300	0.963600	0.645300
H181	H18	0.912600	0.325800	0.572600
H191	H19	0.093800	0.870000	0.762400
H201	H20	0.415300	0.797000	0.922300
H211	H21	0.918000	0.880400	0.686400
H221	H22	0.777700	0.036400	0.854700
H231	H23	0.553700	0.998600	0.579600
H241	H24	0.625500	0.526200	0.960500
H251	H25	0.743000	0.263600	0.336500
H261	H26	0.962400	0.880400	0.186400
H271	H27	0.584700	0.203000	0.077700
H281	H28	0.320800	0.295000	0.474600
H291	H29	0.974200	0.295000	0.974600
H301	H30	0.446300	0.001400	0.420400
H311	H31	0.611500	0.208600	0.246200
H321	H32	0.413200	0.325800	0.072600
H331	H33	0.520600	0.263600	0.836500
H341	H34	0.479400	0.736400	0.163500
H351	H35	0.813000	0.420600	0.966600
H361	H36	0.220400	0.786400	0.330700
H371	H37	0.929400	0.230600	0.404000
H381	H38	0.586800	0.674200	0.927400
H391	H39	0.555100	0.001400	0.920400
H401	H40	0.597100	0.208600	0.746200
H411	H41	0.222300	0.963600	0.145300
H421	H42	0.025800	0.705000	0.025400
H431	H43	0.779600	0.213600	0.669300
H441	H44	0.679200	0.705000	0.525400
H451	H45	0.301200	0.230600	0.904000
H461	H46	0.900700	0.526200	0.460500
H471	H47	0.070600	0.769400	0.596000
H481	H48	0.776200	0.870000	0.262400
H491	H49	0.906200	0.130000	0.237600
H501	H50	0.187000	0.579400	0.033400
H511	H51	0.698800	0.769400	0.096000
H521	H52	0.392400	0.579400	0.533400
C11	C1	0.400220	0.110240	0.918110
C21	C2	0.481390	0.468380	0.016400
C31	C3	0.492790	0.946380	0.596720
C41	C4	0.605420	0.810040	0.106760
C51	C5	0.277720	0.808840	0.255540
C61	C6	0.206680	0.678560	0.447460
C71	C7	0.386890	0.622380	0.510180
C81	C8	0.383810	0.752020	0.444600
C91	C9	0.834840	0.083480	0.458430
C101	C10	0.204620	0.810040	0.606760
C111	C11	0.986990	0.468380	0.516400
C121	C12	0.468880	0.191160	0.244460
C131	C13	0.013010	0.531620	0.483600
C141	C14	0.139460	0.697920	0.005190
C151	C15	0.471880	0.678560	0.947460
C161	C16	0.558460	0.697920	0.505190
C171	C17	0.793960	0.161920	0.788300
C181	C18	0.321630	0.926060	0.136510
C191	C19	0.980310	0.828820	0.305200
C201	C20	0.206040	0.838080	0.211700
C211	C21	0.795180	0.389960	0.519480
C221	C22	0.860540	0.302080	0.994810
C231	C23	0.516850	0.850300	0.664080
C241	C24	0.518610	0.531620	0.983600
C251	C25	0.848510	0.828820	0.805200
C261	C26	0.904160	0.855520	0.261120
C271	C27	0.683560	0.209720	0.352690
C281	C28	0.167460	0.805120	0.301580
C291	C29	0.613110	0.377620	0.489820
C301	C30	0.678370	0.073940	0.863490
C311	C31	0.594780	0.389960	0.019480
C321	C32	0.453590	0.946380	0.096720
C331	C33	0.632040	0.838080	0.711700
C341	C34	0.526160	0.209720	0.852690
C351	C35	0.289980	0.889760	0.581890
C361	C36	0.441540	0.302080	0.494810
C371	C37	0.151490	0.171180	0.194800
C381	C38	0.134170	0.167540	0.643100
C391	C39	0.722280	0.191160	0.744460
C401	C40	0.405220	0.610040	0.980520
C411	C41	0.531120	0.808840	0.755540
C421	C42	0.984690	0.138980	0.784700
C431	C43	0.033370	0.167540	0.143100
C441	C44	0.394580	0.189960	0.893240
C451	C45	0.528120	0.321440	0.052540
C461	C46	0.751360	0.916520	0.041570
C471	C47	0.599780	0.889760	0.081890
C481	C48	0.204820	0.610040	0.480520
C491	C49	0.546410	0.053620	0.903280
C501	C50	0.333450	0.850300	0.164080
C511	C51	0.095840	0.144480	0.738880
C521	C52	0.604430	0.926060	0.636510
C531	C53	0.362340	0.194880	0.198420
C541	C54	0.631790	0.247980	0.055400
C551	C55	0.154290	0.138980	0.284700
C561	C56	0.966630	0.832460	0.856900
C571	C57	0.019690	0.171180	0.694800
C581	C58	0.235490	0.622380	0.010180
C591	C59	0.832540	0.194880	0.698420
C601	C60	0.483150	0.149700	0.335920
C611	C61	0.616190	0.247980	0.555400
C621	C62	0.395570	0.073940	0.363490
C631	C63	0.048640	0.144480	0.238880
C641	C64	0.507210	0.053620	0.403280
C651	C65	0.951360	0.855520	0.761120
C661	C66	0.165160	0.916520	0.541570
C671	C67	0.015310	0.861020	0.215300
C681	C68	0.865830	0.832460	0.356900
C691	C69	0.795380	0.189960	0.393240
C701	C70	0.367960	0.161920	0.288300
C711	C71	0.316440	0.790280	0.647310
C721	C72	0.473840	0.790280	0.147310
C731	C73	0.666550	0.149700	0.835920
C741	C74	0.637660	0.805120	0.801580
C751	C75	0.368210	0.752020	0.944600
C761	C76	0.845710	0.861020	0.715300
C771	C77	0.764510	0.377620	0.989820
C781	C78	0.248640	0.083480	0.958430
C791	C79	0.793320	0.321440	0.552540
C801	C80	0.710020	0.110240	0.418110
N11	N1	0.797930	0.237860	0.027600
N21	N2	0.202070	0.762140	0.972400
N31	N3	0.439930	0.237860	0.527600
N41	N4	0.560070	0.762140	0.472400
O11	O1	0.748380	0.993160	0.021940
O21	O2	0.133260	0.161120	0.099410
O31	O3	0.244780	0.993160	0.521940
O41	O4	0.251620	0.006840	0.978060
O51	O5	0.027860	0.161120	0.599410
O61	O6	0.016440	0.140680	0.471660
O71	O7	0.124240	0.140680	0.971660
O81	O8	0.147740	0.830880	0.855890
O91	O9	0.755220	0.006840	0.478060
O101	O10	0.866740	0.838880	0.900590
O111	O11	0.972140	0.838880	0.400590
O121	O12	0.316860	0.169120	0.644110
O131	O13	0.875760	0.859320	0.028340
O141	O14	0.983560	0.859320	0.528340
O151	O15	0.683140	0.830880	0.355890
O161	O16	0.852260	0.169120	0.144110
