data_ICAROV_freeONLY_PM
_symmetry_space_group_name_H-M	'P1'
_cell_length_a	27.560000
_cell_length_b	27.560000
_cell_length_c	27.560000
_cell_angle_alpha	90.000000
_cell_angle_beta	90.000000
_cell_angle_gamma	90.000000
_symmetry_Int_Tables_number 1

loop_
_symmetry_equiv_pos_as_xyz
'x,y,z'

loop_
_atom_site_label
_atom_site_type_symbol
_atom_site_fract_x
_atom_site_fract_y
_atom_site_fract_z
Ni11	Ni1	0.500000	0.798440	0.000000
Ni21	Ni2	0.500000	0.201560	0.000000
Ni31	Ni3	0.000000	0.500000	0.798440
Ni41	Ni4	0.000000	0.500000	0.201560
Ni51	Ni5	0.798440	0.000000	0.500000
Ni61	Ni6	0.201560	0.000000	0.500000
Ni71	Ni7	0.298440	0.000000	0.500000
Ni81	Ni8	0.701560	0.000000	0.500000
Ni91	Ni9	0.000000	0.500000	0.701560
Ni101	Ni10	0.000000	0.500000	0.298440
Ni111	Ni11	0.500000	0.298440	0.000000
Ni121	Ni12	0.500000	0.701560	0.000000
H11	H1	0.609800	0.822600	0.888800
H21	H2	0.668300	0.822100	0.829500
H31	H3	0.390200	0.177400	0.888800
H41	H4	0.331700	0.177900	0.829500
H51	H5	0.390200	0.822600	0.111200
H61	H6	0.331700	0.822100	0.170500
H71	H7	0.609800	0.177400	0.111200
H81	H8	0.668300	0.177900	0.170500
H91	H9	0.888800	0.609800	0.822600
H101	H10	0.829500	0.668300	0.822100
H111	H11	0.888800	0.390200	0.177400
H121	H12	0.829500	0.331700	0.177900
H131	H13	0.111200	0.390200	0.822600
H141	H14	0.170500	0.331700	0.822100
H151	H15	0.111200	0.609800	0.177400
H161	H16	0.170500	0.668300	0.177900
H171	H17	0.822600	0.888800	0.609800
H181	H18	0.822100	0.829500	0.668300
H191	H19	0.177400	0.888800	0.390200
H201	H20	0.177900	0.829500	0.331700
H211	H21	0.822600	0.111200	0.390200
H221	H22	0.822100	0.170500	0.331700
H231	H23	0.177400	0.111200	0.609800
H241	H24	0.177900	0.170500	0.668300
H251	H25	0.322600	0.109800	0.611200
H261	H26	0.322100	0.168300	0.670500
H271	H27	0.677400	0.890200	0.611200
H281	H28	0.677900	0.831700	0.670500
H291	H29	0.322600	0.890200	0.388800
H301	H30	0.322100	0.831700	0.329500
H311	H31	0.677400	0.109800	0.388800
H321	H32	0.677900	0.168300	0.329500
H331	H33	0.109800	0.388800	0.677400
H341	H34	0.168300	0.329500	0.677900
H351	H35	0.890200	0.388800	0.322600
H361	H36	0.831700	0.329500	0.322100
H371	H37	0.890200	0.611200	0.677400
H381	H38	0.831700	0.670500	0.677900
H391	H39	0.109800	0.611200	0.322600
H401	H40	0.168300	0.670500	0.322100
H411	H41	0.388800	0.322600	0.890200
H421	H42	0.329500	0.322100	0.831700
H431	H43	0.388800	0.677400	0.109800
H441	H44	0.329500	0.677900	0.168300
H451	H45	0.611200	0.322600	0.109800
H461	H46	0.670500	0.322100	0.168300
H471	H47	0.611200	0.677400	0.890200
H481	H48	0.670500	0.677900	0.831700
H491	H49	0.390200	0.177400	0.111200
H501	H50	0.331700	0.177900	0.170500
H511	H51	0.609800	0.822600	0.111200
H521	H52	0.668300	0.822100	0.170500
H531	H53	0.609800	0.177400	0.888800
H541	H54	0.668300	0.177900	0.829500
H551	H55	0.390200	0.822600	0.888800
H561	H56	0.331700	0.822100	0.829500
H571	H57	0.111200	0.390200	0.177400
H581	H58	0.170500	0.331700	0.177900
H591	H59	0.111200	0.609800	0.822600
H601	H60	0.170500	0.668300	0.822100
H611	H61	0.888800	0.609800	0.177400
H621	H62	0.829500	0.668300	0.177900
H631	H63	0.888800	0.390200	0.822600
H641	H64	0.829500	0.331700	0.822100
H651	H65	0.177400	0.111200	0.390200
H661	H66	0.177900	0.170500	0.331700
H671	H67	0.822600	0.111200	0.609800
H681	H68	0.822100	0.170500	0.668300
H691	H69	0.177400	0.888800	0.609800
H701	H70	0.177900	0.829500	0.668300
H711	H71	0.822600	0.888800	0.390200
H721	H72	0.822100	0.829500	0.331700
H731	H73	0.677400	0.890200	0.388800
H741	H74	0.677900	0.831700	0.329500
H751	H75	0.322600	0.109800	0.388800
H761	H76	0.322100	0.168300	0.329500
H771	H77	0.677400	0.109800	0.611200
H781	H78	0.677900	0.168300	0.670500
H791	H79	0.322600	0.890200	0.611200
H801	H80	0.322100	0.831700	0.670500
H811	H81	0.890200	0.611200	0.322600
H821	H82	0.831700	0.670500	0.322100
H831	H83	0.109800	0.611200	0.677400
H841	H84	0.168300	0.670500	0.677900
H851	H85	0.109800	0.388800	0.322600
H861	H86	0.168300	0.329500	0.322100
H871	H87	0.890200	0.388800	0.677400
H881	H88	0.831700	0.329500	0.677900
H891	H89	0.611200	0.677400	0.109800
H901	H90	0.670500	0.677900	0.168300
H911	H91	0.611200	0.322600	0.890200
H921	H92	0.670500	0.322100	0.831700
H931	H93	0.388800	0.677400	0.890200
H941	H94	0.329500	0.677900	0.831700
H951	H95	0.388800	0.322600	0.109800
H961	H96	0.329500	0.322100	0.168300
H971	H97	0.750000	0.690700	0.809300
H981	H98	0.250000	0.309300	0.809300
H991	H99	0.250000	0.690700	0.190700
H1001	H100	0.750000	0.309300	0.190700
H1011	H101	0.809300	0.750000	0.690700
H1021	H102	0.809300	0.250000	0.309300
H1031	H103	0.190700	0.250000	0.690700
H1041	H104	0.190700	0.750000	0.309300
H1051	H105	0.690700	0.809300	0.750000
H1061	H106	0.309300	0.809300	0.250000
H1071	H107	0.690700	0.190700	0.250000
H1081	H108	0.309300	0.190700	0.750000
H1091	H109	0.250000	0.309300	0.190700
H1101	H110	0.750000	0.690700	0.190700
H1111	H111	0.750000	0.309300	0.809300
H1121	H112	0.250000	0.690700	0.809300
H1131	H113	0.190700	0.250000	0.309300
H1141	H114	0.190700	0.750000	0.690700
H1151	H115	0.809300	0.750000	0.309300
H1161	H116	0.809300	0.250000	0.690700
H1171	H117	0.309300	0.190700	0.250000
H1181	H118	0.690700	0.190700	0.750000
H1191	H119	0.309300	0.809300	0.750000
H1201	H120	0.690700	0.809300	0.250000
H1211	H121	0.500000	0.962900	0.926500
H1221	H122	0.500000	0.878800	0.929200
H1231	H123	0.500000	0.037100	0.926500
H1241	H124	0.500000	0.121200	0.929200
H1251	H125	0.500000	0.962900	0.073500
H1261	H126	0.500000	0.878800	0.070800
H1271	H127	0.500000	0.037100	0.073500
H1281	H128	0.500000	0.121200	0.070800
H1291	H129	0.926500	0.500000	0.962900
H1301	H130	0.929200	0.500000	0.878800
H1311	H131	0.926500	0.500000	0.037100
H1321	H132	0.929200	0.500000	0.121200
H1331	H133	0.073500	0.500000	0.962900
H1341	H134	0.070800	0.500000	0.878800
H1351	H135	0.073500	0.500000	0.037100
H1361	H136	0.070800	0.500000	0.121200
H1371	H137	0.962900	0.926500	0.500000
H1381	H138	0.878800	0.929200	0.500000
H1391	H139	0.037100	0.926500	0.500000
H1401	H140	0.121200	0.929200	0.500000
H1411	H141	0.962900	0.073500	0.500000
H1421	H142	0.878800	0.070800	0.500000
H1431	H143	0.037100	0.073500	0.500000
H1441	H144	0.121200	0.070800	0.500000
H1451	H145	0.462900	0.000000	0.573500
H1461	H146	0.378800	0.000000	0.570800
H1471	H147	0.537100	0.000000	0.573500
H1481	H148	0.621200	0.000000	0.570800
H1491	H149	0.462900	0.000000	0.426500
H1501	H150	0.378800	0.000000	0.429200
H1511	H151	0.537100	0.000000	0.426500
H1521	H152	0.621200	0.000000	0.429200
H1531	H153	0.000000	0.426500	0.537100
H1541	H154	0.000000	0.429200	0.621200
H1551	H155	0.000000	0.426500	0.462900
H1561	H156	0.000000	0.429200	0.378800
H1571	H157	0.000000	0.573500	0.537100
H1581	H158	0.000000	0.570800	0.621200
H1591	H159	0.000000	0.573500	0.462900
H1601	H160	0.000000	0.570800	0.378800
H1611	H161	0.426500	0.462900	0.000000
H1621	H162	0.429200	0.378800	0.000000
H1631	H163	0.426500	0.537100	0.000000
H1641	H164	0.429200	0.621200	0.000000
H1651	H165	0.573500	0.462900	0.000000
H1661	H166	0.570800	0.378800	0.000000
H1671	H167	0.573500	0.537100	0.000000
H1681	H168	0.570800	0.621200	0.000000
C11	C1	0.621790	0.793180	0.877310
C21	C2	0.657000	0.792840	0.841820
C31	C3	0.378210	0.206820	0.877310
C41	C4	0.343000	0.207160	0.841820
C51	C5	0.378210	0.793180	0.122690
C61	C6	0.343000	0.792840	0.158180
C71	C7	0.621790	0.206820	0.122690
C81	C8	0.657000	0.207160	0.158180
C91	C9	0.877310	0.621790	0.793180
C101	C10	0.841820	0.657000	0.792840
C111	C11	0.877310	0.378210	0.206820
C121	C12	0.841820	0.343000	0.207160
C131	C13	0.122690	0.378210	0.793180
C141	C14	0.158180	0.343000	0.792840
C151	C15	0.122690	0.621790	0.206820
C161	C16	0.158180	0.657000	0.207160
C171	C17	0.793180	0.877310	0.621790
C181	C18	0.792840	0.841820	0.657000
C191	C19	0.206820	0.877310	0.378210
C201	C20	0.207160	0.841820	0.343000
C211	C21	0.793180	0.122690	0.378210
C221	C22	0.792840	0.158180	0.343000
C231	C23	0.206820	0.122690	0.621790
C241	C24	0.207160	0.158180	0.657000
C251	C25	0.293180	0.121790	0.622690
C261	C26	0.292840	0.157000	0.658180
C271	C27	0.706820	0.878210	0.622690
C281	C28	0.707160	0.843000	0.658180
C291	C29	0.293180	0.878210	0.377310
C301	C30	0.292840	0.843000	0.341820
C311	C31	0.706820	0.121790	0.377310
C321	C32	0.707160	0.157000	0.341820
C331	C33	0.121790	0.377310	0.706820
C341	C34	0.157000	0.341820	0.707160
C351	C35	0.878210	0.377310	0.293180
C361	C36	0.843000	0.341820	0.292840
C371	C37	0.878210	0.622690	0.706820
C381	C38	0.843000	0.658180	0.707160
C391	C39	0.121790	0.622690	0.293180
C401	C40	0.157000	0.658180	0.292840
C411	C41	0.377310	0.293180	0.878210
C421	C42	0.341820	0.292840	0.843000
C431	C43	0.377310	0.706820	0.121790
C441	C44	0.341820	0.707160	0.157000
C451	C45	0.622690	0.293180	0.121790
C461	C46	0.658180	0.292840	0.157000
C471	C47	0.622690	0.706820	0.878210
C481	C48	0.658180	0.707160	0.843000
C491	C49	0.378210	0.206820	0.122690
C501	C50	0.343000	0.207160	0.158180
C511	C51	0.621790	0.793180	0.122690
C521	C52	0.657000	0.792840	0.158180
C531	C53	0.621790	0.206820	0.877310
C541	C54	0.657000	0.207160	0.841820
C551	C55	0.378210	0.793180	0.877310
C561	C56	0.343000	0.792840	0.841820
C571	C57	0.122690	0.378210	0.206820
C581	C58	0.158180	0.343000	0.207160
C591	C59	0.122690	0.621790	0.793180
C601	C60	0.158180	0.657000	0.792840
C611	C61	0.877310	0.621790	0.206820
C621	C62	0.841820	0.657000	0.207160
C631	C63	0.877310	0.378210	0.793180
C641	C64	0.841820	0.343000	0.792840
C651	C65	0.206820	0.122690	0.378210
C661	C66	0.207160	0.158180	0.343000
C671	C67	0.793180	0.122690	0.621790
C681	C68	0.792840	0.158180	0.657000
C691	C69	0.206820	0.877310	0.621790
C701	C70	0.207160	0.841820	0.657000
C711	C71	0.793180	0.877310	0.378210
C721	C72	0.792840	0.841820	0.343000
C731	C73	0.706820	0.878210	0.377310
C741	C74	0.707160	0.843000	0.341820
C751	C75	0.293180	0.121790	0.377310
C761	C76	0.292840	0.157000	0.341820
C771	C77	0.706820	0.121790	0.622690
C781	C78	0.707160	0.157000	0.658180
C791	C79	0.293180	0.878210	0.622690
C801	C80	0.292840	0.843000	0.658180
C811	C81	0.878210	0.622690	0.293180
C821	C82	0.843000	0.658180	0.292840
C831	C83	0.121790	0.622690	0.706820
C841	C84	0.157000	0.658180	0.707160
C851	C85	0.121790	0.377310	0.293180
C861	C86	0.157000	0.341820	0.292840
C871	C87	0.878210	0.377310	0.706820
C881	C88	0.843000	0.341820	0.707160
C891	C89	0.622690	0.706820	0.121790
C901	C90	0.658180	0.707160	0.157000
C911	C91	0.622690	0.293180	0.878210
C921	C92	0.658180	0.292840	0.843000
C931	C93	0.377310	0.706820	0.878210
C941	C94	0.341820	0.707160	0.843000
C951	C95	0.377310	0.293180	0.121790
C961	C96	0.341820	0.292840	0.157000
C971	C97	0.500000	0.972760	0.000000
C981	C98	0.500000	0.027240	0.000000
C991	C99	0.000000	0.500000	0.972760
C1001	C100	0.000000	0.500000	0.027240
C1011	C101	0.972760	0.000000	0.500000
C1021	C102	0.027240	0.000000	0.500000
C1031	C103	0.472760	0.000000	0.500000
C1041	C104	0.527240	0.000000	0.500000
C1051	C105	0.000000	0.500000	0.527240
C1061	C106	0.000000	0.500000	0.472760
C1071	C107	0.500000	0.472760	0.000000
C1081	C108	0.500000	0.527240	0.000000
C1091	C109	0.565620	0.750000	0.934380
C1101	C110	0.604090	0.750000	0.895910
C1111	C111	0.714040	0.750000	0.785960
C1121	C112	0.675790	0.750000	0.824210
C1131	C113	0.434380	0.250000	0.934380
C1141	C114	0.395910	0.250000	0.895910
C1151	C115	0.285960	0.250000	0.785960
C1161	C116	0.324210	0.250000	0.824210
C1171	C117	0.434380	0.750000	0.065620
C1181	C118	0.395910	0.750000	0.104090
C1191	C119	0.285960	0.750000	0.214040
C1201	C120	0.324210	0.750000	0.175790
C1211	C121	0.565620	0.250000	0.065620
C1221	C122	0.604090	0.250000	0.104090
C1231	C123	0.714040	0.250000	0.214040
C1241	C124	0.675790	0.250000	0.175790
C1251	C125	0.934380	0.565620	0.750000
C1261	C126	0.895910	0.604090	0.750000
C1271	C127	0.785960	0.714040	0.750000
C1281	C128	0.824210	0.675790	0.750000
C1291	C129	0.934380	0.434380	0.250000
C1301	C130	0.895910	0.395910	0.250000
C1311	C131	0.785960	0.285960	0.250000
C1321	C132	0.824210	0.324210	0.250000
C1331	C133	0.065620	0.434380	0.750000
C1341	C134	0.104090	0.395910	0.750000
C1351	C135	0.214040	0.285960	0.750000
C1361	C136	0.175790	0.324210	0.750000
C1371	C137	0.065620	0.565620	0.250000
C1381	C138	0.104090	0.604090	0.250000
C1391	C139	0.214040	0.714040	0.250000
C1401	C140	0.175790	0.675790	0.250000
C1411	C141	0.750000	0.934380	0.565620
C1421	C142	0.750000	0.895910	0.604090
C1431	C143	0.750000	0.785960	0.714040
C1441	C144	0.750000	0.824210	0.675790
C1451	C145	0.250000	0.934380	0.434380
C1461	C146	0.250000	0.895910	0.395910
C1471	C147	0.250000	0.785960	0.285960
C1481	C148	0.250000	0.824210	0.324210
C1491	C149	0.750000	0.065620	0.434380
C1501	C150	0.750000	0.104090	0.395910
C1511	C151	0.750000	0.214040	0.285960
C1521	C152	0.750000	0.175790	0.324210
C1531	C153	0.250000	0.065620	0.565620
C1541	C154	0.250000	0.104090	0.604090
C1551	C155	0.250000	0.214040	0.714040
C1561	C156	0.250000	0.175790	0.675790
C1571	C157	0.434380	0.250000	0.065620
C1581	C158	0.395910	0.250000	0.104090
C1591	C159	0.285960	0.250000	0.214040
C1601	C160	0.324210	0.250000	0.175790
C1611	C161	0.565620	0.750000	0.065620
C1621	C162	0.604090	0.750000	0.104090
C1631	C163	0.714040	0.750000	0.214040
C1641	C164	0.675790	0.750000	0.175790
C1651	C165	0.565620	0.250000	0.934380
C1661	C166	0.604090	0.250000	0.895910
C1671	C167	0.714040	0.250000	0.785960
C1681	C168	0.675790	0.250000	0.824210
C1691	C169	0.434380	0.750000	0.934380
C1701	C170	0.395910	0.750000	0.895910
C1711	C171	0.285960	0.750000	0.785960
C1721	C172	0.324210	0.750000	0.824210
C1731	C173	0.065620	0.434380	0.250000
C1741	C174	0.104090	0.395910	0.250000
C1751	C175	0.214040	0.285960	0.250000
C1761	C176	0.175790	0.324210	0.250000
C1771	C177	0.065620	0.565620	0.750000
C1781	C178	0.104090	0.604090	0.750000
C1791	C179	0.214040	0.714040	0.750000
C1801	C180	0.175790	0.675790	0.750000
C1811	C181	0.934380	0.565620	0.250000
C1821	C182	0.895910	0.604090	0.250000
C1831	C183	0.785960	0.714040	0.250000
C1841	C184	0.824210	0.675790	0.250000
C1851	C185	0.934380	0.434380	0.750000
C1861	C186	0.895910	0.395910	0.750000
C1871	C187	0.785960	0.285960	0.750000
C1881	C188	0.824210	0.324210	0.750000
C1891	C189	0.250000	0.065620	0.434380
C1901	C190	0.250000	0.104090	0.395910
C1911	C191	0.250000	0.214040	0.285960
C1921	C192	0.250000	0.175790	0.324210
C1931	C193	0.750000	0.065620	0.565620
C1941	C194	0.750000	0.104090	0.604090
C1951	C195	0.750000	0.214040	0.714040
C1961	C196	0.750000	0.175790	0.675790
C1971	C197	0.250000	0.934380	0.565620
C1981	C198	0.250000	0.895910	0.604090
C1991	C199	0.250000	0.785960	0.714040
C2001	C200	0.250000	0.824210	0.675790
C2011	C201	0.750000	0.934380	0.434380
C2021	C202	0.750000	0.895910	0.395910
C2031	C203	0.750000	0.785960	0.285960
C2041	C204	0.750000	0.824210	0.324210
C2051	C205	0.750000	0.714570	0.785430
C2061	C206	0.250000	0.285430	0.785430
C2071	C207	0.250000	0.714570	0.214570
C2081	C208	0.750000	0.285430	0.214570
C2091	C209	0.785430	0.750000	0.714570
C2101	C210	0.785430	0.250000	0.285430
C2111	C211	0.214570	0.250000	0.714570
C2121	C212	0.214570	0.750000	0.285430
C2131	C213	0.714570	0.785430	0.750000
C2141	C214	0.285430	0.785430	0.250000
C2151	C215	0.714570	0.214570	0.250000
C2161	C216	0.285430	0.214570	0.750000
C2171	C217	0.250000	0.285430	0.214570
C2181	C218	0.750000	0.714570	0.214570
C2191	C219	0.750000	0.285430	0.785430
C2201	C220	0.250000	0.714570	0.785430
C2211	C221	0.214570	0.250000	0.285430
C2221	C222	0.214570	0.750000	0.714570
C2231	C223	0.785430	0.750000	0.285430
C2241	C224	0.785430	0.250000	0.714570
C2251	C225	0.285430	0.214570	0.250000
C2261	C226	0.714570	0.214570	0.750000
C2271	C227	0.285430	0.785430	0.750000
C2281	C228	0.714570	0.785430	0.250000
C2291	C229	0.500000	0.946790	0.956100
C2301	C230	0.500000	0.896170	0.958100
C2311	C231	0.500000	0.053210	0.956100
C2321	C232	0.500000	0.103830	0.958100
C2331	C233	0.500000	0.946790	0.043900
C2341	C234	0.500000	0.896170	0.041900
C2351	C235	0.500000	0.053210	0.043900
C2361	C236	0.500000	0.103830	0.041900
C2371	C237	0.956100	0.500000	0.946790
C2381	C238	0.958100	0.500000	0.896170
C2391	C239	0.956100	0.500000	0.053210
C2401	C240	0.958100	0.500000	0.103830
C2411	C241	0.043900	0.500000	0.946790
C2421	C242	0.041900	0.500000	0.896170
C2431	C243	0.043900	0.500000	0.053210
C2441	C244	0.041900	0.500000	0.103830
C2451	C245	0.946790	0.956100	0.500000
C2461	C246	0.896170	0.958100	0.500000
C2471	C247	0.053210	0.956100	0.500000
C2481	C248	0.103830	0.958100	0.500000
C2491	C249	0.946790	0.043900	0.500000
C2501	C250	0.896170	0.041900	0.500000
C2511	C251	0.053210	0.043900	0.500000
C2521	C252	0.103830	0.041900	0.500000
C2531	C253	0.446790	0.000000	0.543900
C2541	C254	0.396170	0.000000	0.541900
C2551	C255	0.553210	0.000000	0.543900
C2561	C256	0.603830	0.000000	0.541900
C2571	C257	0.446790	0.000000	0.456100
C2581	C258	0.396170	0.000000	0.458100
C2591	C259	0.553210	0.000000	0.456100
C2601	C260	0.603830	0.000000	0.458100
C2611	C261	0.000000	0.456100	0.553210
C2621	C262	0.000000	0.458100	0.603830
C2631	C263	0.000000	0.456100	0.446790
C2641	C264	0.000000	0.458100	0.396170
C2651	C265	0.000000	0.543900	0.553210
C2661	C266	0.000000	0.541900	0.603830
C2671	C267	0.000000	0.543900	0.446790
C2681	C268	0.000000	0.541900	0.396170
C2691	C269	0.456100	0.446790	0.000000
C2701	C270	0.458100	0.396170	0.000000
C2711	C271	0.456100	0.553210	0.000000
C2721	C272	0.458100	0.603830	0.000000
C2731	C273	0.543900	0.446790	0.000000
C2741	C274	0.541900	0.396170	0.000000
C2751	C275	0.543900	0.553210	0.000000
C2761	C276	0.541900	0.603830	0.000000
N11	N1	0.500000	0.871600	0.000000
N21	N2	0.500000	0.128400	0.000000
N31	N3	0.000000	0.500000	0.871600
N41	N4	0.000000	0.500000	0.128400
N51	N5	0.871600	0.000000	0.500000
N61	N6	0.128400	0.000000	0.500000
N71	N7	0.371600	0.000000	0.500000
N81	N8	0.628400	0.000000	0.500000
N91	N9	0.000000	0.500000	0.628400
N101	N10	0.000000	0.500000	0.371600
N111	N11	0.500000	0.371600	0.000000
N121	N12	0.500000	0.628400	0.000000
O11	O1	0.550810	0.790410	0.948840
O21	O2	0.449190	0.209590	0.948840
O31	O3	0.449190	0.790410	0.051160
O41	O4	0.550810	0.209590	0.051160
O51	O5	0.948840	0.550810	0.790410
O61	O6	0.948840	0.449190	0.209590
O71	O7	0.051160	0.449190	0.790410
O81	O8	0.051160	0.550810	0.209590
O91	O9	0.790410	0.948840	0.550810
O101	O10	0.209590	0.948840	0.449190
O111	O11	0.790410	0.051160	0.449190
O121	O12	0.209590	0.051160	0.550810
O131	O13	0.290410	0.050810	0.551160
O141	O14	0.709590	0.949190	0.551160
O151	O15	0.290410	0.949190	0.448840
O161	O16	0.709590	0.050810	0.448840
O171	O17	0.050810	0.448840	0.709590
O181	O18	0.949190	0.448840	0.290410
O191	O19	0.949190	0.551160	0.709590
O201	O20	0.050810	0.551160	0.290410
O211	O21	0.448840	0.290410	0.949190
O221	O22	0.448840	0.709590	0.050810
O231	O23	0.551160	0.290410	0.050810
O241	O24	0.551160	0.709590	0.949190
O251	O25	0.449190	0.209590	0.051160
O261	O26	0.550810	0.790410	0.051160
O271	O27	0.550810	0.209590	0.948840
O281	O28	0.449190	0.790410	0.948840
O291	O29	0.051160	0.449190	0.209590
O301	O30	0.051160	0.550810	0.790410
O311	O31	0.948840	0.550810	0.209590
O321	O32	0.948840	0.449190	0.790410
O331	O33	0.209590	0.051160	0.449190
O341	O34	0.790410	0.051160	0.550810
O351	O35	0.209590	0.948840	0.550810
O361	O36	0.790410	0.948840	0.449190
O371	O37	0.709590	0.949190	0.448840
O381	O38	0.290410	0.050810	0.448840
O391	O39	0.709590	0.050810	0.551160
O401	O40	0.290410	0.949190	0.551160
O411	O41	0.949190	0.551160	0.290410
O421	O42	0.050810	0.551160	0.709590
O431	O43	0.050810	0.448840	0.290410
O441	O44	0.949190	0.448840	0.709590
O451	O45	0.551160	0.709590	0.050810
O461	O46	0.551160	0.290410	0.949190
O471	O47	0.448840	0.709590	0.949190
O481	O48	0.448840	0.290410	0.050810
