data_ICEGED_freeONLY_PM
_symmetry_space_group_name_H-M	'P1'
_cell_length_a	11.840000
_cell_length_b	12.324700
_cell_length_c	13.736200
_cell_angle_alpha	92.615000
_cell_angle_beta	112.675000
_cell_angle_gamma	109.040000
_symmetry_Int_Tables_number 1

loop_
_symmetry_equiv_pos_as_xyz
'x,y,z'

loop_
_atom_site_label
_atom_site_type_symbol
_atom_site_fract_x
_atom_site_fract_y
_atom_site_fract_z
Cd11	Cd1	0.115090	0.233320	0.460840
Cd21	Cd2	0.884910	0.766680	0.539160
Cd31	Cd3	0.000000	0.500000	0.500000
H11	H1	0.455300	0.331000	0.884700
H21	H2	0.399300	0.631200	0.934000
H31	H3	0.892200	0.548900	0.095600
H41	H4	0.137800	0.396600	0.069900
H51	H5	0.340500	0.075000	0.493600
H61	H6	0.469100	0.807300	0.518900
H71	H7	0.098800	0.984500	0.358300
H81	H8	0.053600	0.805400	0.281700
H91	H9	0.898600	0.729300	0.225800
H101	H10	0.975300	0.777000	0.153400
H111	H11	0.816100	0.978600	0.155700
H121	H12	0.822600	0.887800	0.072800
H131	H13	0.746400	0.840800	0.145700
H141	H14	0.234900	0.216300	0.297400
H151	H15	0.314900	0.256300	0.175000
H161	H16	0.413400	0.389400	0.200000
H171	H17	0.470500	0.287200	0.220700
H181	H18	0.532100	0.411700	0.485500
H191	H19	0.609200	0.386400	0.419200
H201	H20	0.552300	0.488600	0.398400
H211	H21	0.169000	0.049000	0.559000
H221	H22	0.236000	0.144000	0.630000
H231	H23	0.544700	0.669000	0.115300
H241	H24	0.600700	0.368800	0.066000
H251	H25	0.107800	0.451100	0.904400
H261	H26	0.862200	0.603400	0.930100
H271	H27	0.659500	0.925000	0.506400
H281	H28	0.530900	0.192700	0.481100
H291	H29	0.901200	0.015500	0.641700
H301	H30	0.946400	0.194600	0.718300
H311	H31	0.101400	0.270700	0.774200
H321	H32	0.024700	0.223000	0.846600
H331	H33	0.183900	0.021400	0.844300
H341	H34	0.177400	0.112200	0.927200
H351	H35	0.253600	0.159200	0.854300
H361	H36	0.765100	0.783700	0.702600
H371	H37	0.685100	0.743700	0.825000
H381	H38	0.586600	0.610600	0.800000
H391	H39	0.529500	0.712800	0.779300
H401	H40	0.467900	0.588300	0.514500
H411	H41	0.390800	0.613600	0.580800
H421	H42	0.447700	0.511400	0.601600
H431	H43	0.831000	0.951000	0.441000
H441	H44	0.764000	0.856000	0.370000
C11	C1	0.322300	0.455600	0.776970
C21	C2	0.413300	0.478400	0.891550
C31	C3	0.473300	0.399800	0.931300
C41	C4	0.440300	0.577500	0.960600
C51	C5	0.040700	0.441300	0.206600
C61	C6	0.019700	0.469500	0.099800
C71	C7	0.936500	0.529500	0.056800
C81	C8	0.082300	0.439000	0.041800
C91	C9	0.266100	0.852800	0.515500
C101	C10	0.386100	0.929400	0.508100
C111	C11	0.405300	0.044200	0.496300
C121	C12	0.481600	0.886100	0.511300
C131	C13	0.022800	0.991800	0.305200
C141	C14	0.969700	0.794500	0.221300
C151	C15	0.822200	0.902200	0.143400
C161	C16	0.313000	0.269000	0.355300
C171	C17	0.402100	0.314000	0.223200
C181	C18	0.536700	0.410300	0.415800
C191	C19	0.677700	0.544400	0.223030
C201	C20	0.586700	0.521600	0.108450
C211	C21	0.526700	0.600200	0.068700
C221	C22	0.559700	0.422500	0.039400
C231	C23	0.959300	0.558700	0.793400
C241	C24	0.980300	0.530500	0.900200
C251	C25	0.063500	0.470500	0.943200
C261	C26	0.917700	0.561000	0.958200
C271	C27	0.733900	0.147200	0.484500
C281	C28	0.613900	0.070600	0.491900
C291	C29	0.594700	0.955800	0.503700
C301	C30	0.518400	0.113900	0.488700
C311	C31	0.977200	0.008200	0.694800
C321	C32	0.030300	0.205500	0.778700
C331	C33	0.177800	0.097800	0.856600
C341	C34	0.687000	0.731000	0.644700
C351	C35	0.597900	0.686000	0.776800
C361	C36	0.463300	0.589700	0.584200
N11	N1	0.254100	0.522770	0.733260
N21	N2	0.183900	0.469880	0.630120
N31	N3	0.209580	0.376390	0.613020
N41	N4	0.297100	0.364880	0.704980
N51	N5	0.066900	0.347940	0.239660
N61	N6	0.072900	0.356630	0.338970
N71	N7	0.052100	0.450700	0.362790
N81	N8	0.031300	0.506140	0.280980
N91	N9	0.233700	0.737260	0.509380
N101	N10	0.118870	0.700630	0.516750
N111	N11	0.083570	0.790390	0.527110
N121	N12	0.175100	0.887910	0.526080
N131	N13	0.942300	0.901200	0.225900
N141	N14	0.413200	0.327600	0.332900
N151	N15	0.745900	0.477230	0.266740
N161	N16	0.816100	0.530120	0.369880
N171	N17	0.790420	0.623610	0.386980
N181	N18	0.702900	0.635120	0.295020
N191	N19	0.933100	0.652060	0.760340
N201	N20	0.927100	0.643370	0.661030
N211	N21	0.947900	0.549300	0.637210
N221	N22	0.968700	0.493860	0.719020
N231	N23	0.766300	0.262740	0.490620
N241	N24	0.881130	0.299370	0.483250
N251	N25	0.916430	0.209610	0.472890
N261	N26	0.824900	0.112090	0.473920
N271	N27	0.057700	0.098800	0.774100
N281	N28	0.586800	0.672400	0.667100
O11	O1	0.008100	0.083510	0.315960
O21	O2	0.313270	0.277690	0.445290
O31	O3	0.171100	0.112760	0.577100
O41	O4	0.991900	0.916490	0.684040
O51	O5	0.686730	0.722310	0.554710
O61	O6	0.828900	0.887240	0.422900
