data_ICIKEL_freeONLY_PM
_symmetry_space_group_name_H-M	'P1'
_cell_length_a	48.448000
_cell_length_b	48.898000
_cell_length_c	35.851000
_cell_angle_alpha	90.000000
_cell_angle_beta	131.502000
_cell_angle_gamma	90.000000
_symmetry_Int_Tables_number 1

loop_
_symmetry_equiv_pos_as_xyz
'x,y,z'

loop_
_atom_site_label
_atom_site_type_symbol
_atom_site_fract_x
_atom_site_fract_y
_atom_site_fract_z
C11	C1	0.334200	0.516900	0.623100
C21	C2	0.306300	0.502400	0.580500
C31	C3	0.303300	0.474300	0.583100
C41	C4	0.328200	0.460800	0.628400
C51	C5	0.356100	0.475400	0.671000
C61	C6	0.359100	0.503400	0.668400
C71	C7	0.056000	0.556300	0.602500
C81	C8	0.026900	0.546700	0.598100
C91	C9	0.999600	0.530600	0.557600
C101	C10	0.001300	0.524100	0.521400
C111	C11	0.030400	0.533700	0.525800
C121	C12	0.057700	0.549800	0.566300
C131	C13	0.092500	0.636300	0.752200
C141	C14	0.056300	0.645600	0.718600
C151	C15	0.035600	0.647100	0.732700
C161	C16	0.051200	0.639300	0.780400
C171	C17	0.087300	0.630000	0.814000
C181	C18	0.108000	0.628500	0.799900
C191	C19	0.134600	0.563310	0.475800
C201	C20	0.116900	0.567500	0.426100
C211	C21	0.093300	0.547700	0.390800
C221	C22	0.087300	0.523660	0.405300
C231	C23	0.104900	0.519470	0.455000
C241	C24	0.128600	0.539300	0.490300
C251	C25	0.415900	0.727600	0.042900
C261	C26	0.428400	0.739900	0.086700
C271	C27	0.456800	0.727900	0.132400
C281	C28	0.472600	0.703600	0.134300
C291	C29	0.460100	0.691300	0.090500
C301	C30	0.431700	0.703300	0.044800
C311	C31	0.213300	0.467200	0.690600
C321	C32	0.224900	0.441000	0.691600
C331	C33	0.199100	0.421000	0.659800
C341	C34	0.161700	0.427200	0.627000
C351	C35	0.150100	0.453400	0.626000
C361	C36	0.175900	0.473400	0.657800
C371	C37	0.343400	0.578000	0.513500
C381	C38	0.373300	0.561800	0.550300
C391	C39	0.409000	0.571700	0.577700
C401	C40	0.414700	0.597600	0.568200
C411	C41	0.384800	0.613800	0.531300
C421	C42	0.349100	0.603900	0.504000
C431	C43	0.140000	0.496000	0.706100
C441	C44	0.143900	0.471500	0.728800
C451	C45	0.115600	0.452300	0.702900
C461	C46	0.083500	0.457700	0.654300
C471	C47	0.079600	0.482200	0.631600
C481	C48	0.107900	0.501300	0.657500
C491	C49	0.364000	0.488500	0.844700
C501	C50	0.394800	0.480800	0.892800
C511	C51	0.417800	0.460200	0.900200
C521	C52	0.409900	0.447300	0.859600
C531	C53	0.379100	0.455000	0.811500
C541	C54	0.356100	0.475600	0.804000
C551	C55	0.155400	0.716000	0.810200
C561	C56	0.154200	0.692800	0.831400
C571	C57	0.145700	0.695100	0.861500
C581	C58	0.138500	0.720600	0.870400
C591	C59	0.139600	0.743900	0.849100
C601	C60	0.148100	0.741600	0.819000
C611	C61	0.058000	0.590800	0.490900
C621	C62	0.025700	0.601900	0.455000
C631	C63	0.008900	0.561900	0.407500
C641	C64	0.063800	0.568700	0.476500
C651	C65	0.232300	0.498700	0.594000
C661	C66	0.201600	0.492900	0.544700
C671	C67	0.192900	0.465900	0.528400
C681	C68	0.214900	0.444800	0.561500
C691	C69	0.245500	0.450600	0.610800
C701	C70	0.254200	0.477600	0.627000
C711	C71	0.400900	0.533200	0.788000
C721	C72	0.424300	0.558200	0.803500
C731	C73	0.466300	0.549700	0.850700
C741	C74	0.425500	0.513700	0.832000
C751	C75	0.331600	0.682300	0.008400
C761	C76	0.294900	0.684500	0.995100
C771	C77	0.298800	0.705800	0.029000
C781	C78	0.341400	0.699800	0.077600
C791	C79	0.364800	0.685900	0.061000
C801	C80	0.423900	0.552600	0.983900
C811	C81	0.448100	0.550200	0.037300
C821	C82	0.484500	0.536500	0.058800
C831	C83	0.490200	0.528800	0.027100
C841	C84	0.468800	0.531400	0.977500
C851	C85	0.430500	0.543300	0.955200
C861	C86	0.933800	0.689300	0.542400
C871	C87	0.957300	0.691700	0.594900
C881	C88	0.944700	0.683600	0.618200
C891	C89	0.907300	0.675000	0.592000
C901	C90	0.878900	0.676000	0.535600
C911	C91	0.896000	0.683200	0.513500
C921	C92	0.341100	0.759700	0.735200
C931	C93	0.255300	0.838400	0.730600
C941	C94	0.300300	0.643200	0.524300
C951	C95	0.259200	0.835300	0.695400
C961	C96	0.120900	0.815900	0.572400
C971	C97	0.526500	0.667800	0.927700
C981	C98	0.138900	0.508300	0.360400
C991	C99	0.134300	0.737500	0.526700
C1001	C100	0.126000	0.761800	0.499300
C1011	C101	0.276900	0.580500	0.006300
C1021	C102	0.253900	0.813000	0.754900
C1031	C103	0.264100	0.810900	0.683500
C1041	C104	0.344400	0.853000	0.892400
C1051	C105	0.228500	0.684800	0.493700
C1061	C106	0.186600	0.499100	0.358600
C1071	C107	0.538300	0.616900	0.049000
C1081	C108	0.468500	0.606400	0.992700
C1091	C109	0.165300	0.504600	0.412500
C1101	C110	0.093700	0.798600	0.561000
C1111	C111	0.195600	0.606000	0.455600
C1121	C112	0.965900	0.667400	0.374800
C1131	C113	0.174100	0.622900	0.413100
C1141	C114	0.509300	0.595400	0.020700
C1151	C115	0.348500	0.805200	0.880700
C1161	C116	0.102300	0.773800	0.583800
C1171	C117	0.213200	0.731100	0.466100
C1181	C118	0.507400	0.622200	0.935400
C1191	C119	0.320700	0.603600	0.355200
C1201	C120	0.494400	0.749100	0.886500
C1211	C121	0.321000	0.798200	0.881800
C1221	C122	0.319200	0.683400	0.499100
C1231	C123	0.115800	0.714100	0.499600
C1241	C124	0.321700	0.576200	0.338600
C1251	C125	0.185400	0.617600	0.936700
C1261	C126	0.148400	0.506400	0.332200
C1271	C127	0.171900	0.586200	0.365400
C1281	C128	0.166400	0.780500	0.630400
C1291	C129	0.320300	0.785800	0.661900
C1301	C130	0.290100	0.675300	0.447000
C1311	C131	0.083500	0.737900	0.422800
C1321	C132	0.228500	0.706600	0.468900
C1331	C133	0.488500	0.676900	0.896700
C1341	C134	0.194000	0.608600	0.908200
C1351	C135	0.101100	0.761200	0.448100
C1361	C136	0.319800	0.761900	0.683300
C1371	C137	0.163300	0.598300	0.939600
C1381	C138	0.262900	0.786600	0.704800
C1391	C139	0.518600	0.743300	0.938900
C1401	C140	0.265400	0.653400	0.431800
C1411	C141	0.210700	0.494700	0.410300
C1421	C142	0.315400	0.846400	0.891000
C1431	C143	0.362600	0.806600	0.743100
C1441	C144	0.533900	0.642000	0.948800
C1451	C145	0.951700	0.683100	0.390500
C1461	C146	0.200100	0.497100	0.437100
C1471	C147	0.180100	0.585100	0.882300
C1481	C148	0.415200	0.617300	0.748100
C1491	C149	0.199500	0.712300	0.515700
C1501	C150	0.528800	0.644700	0.050800
C1511	C151	0.363600	0.781900	0.766500
C1521	C152	0.460700	0.658100	0.884200
C1531	C153	0.463600	0.635100	0.997200
C1541	C154	0.505000	0.735200	0.960000
C1551	C155	0.340500	0.808300	0.691400
C1561	C156	0.975000	0.695200	0.437000
C1571	C157	0.466700	0.732900	0.931700
C1581	C158	0.090400	0.713300	0.448300
C1591	C159	0.214200	0.687900	0.517800
C1601	C160	0.302000	0.609300	0.370800
C1611	C161	0.204100	0.579200	0.452800
C1621	C162	0.012800	0.690700	0.469100
C1631	C163	0.490100	0.652700	0.019100
C1641	C164	0.259400	0.788400	0.739600
C1651	C165	0.197800	0.734400	0.489100
C1661	C166	0.442700	0.739300	0.881900
C1671	C167	0.137200	0.764500	0.617900
C1681	C168	0.360000	0.831200	0.885100
C1691	C169	0.455800	0.747600	0.858300
C1701	C170	0.327300	0.664700	0.542500
C1711	C171	0.297500	0.555700	0.334700
C1721	C172	0.984600	0.619400	0.515000
C1731	C173	0.147500	0.575000	0.913400
C1741	C174	0.193500	0.568400	0.409600
C1751	C175	0.305500	0.820000	0.889700
C1761	C176	0.157100	0.806200	0.605600
C1771	C177	0.162700	0.612900	0.367000
C1781	C178	0.272700	0.637800	0.471500
C1791	C179	0.469200	0.631500	0.902100
C1801	C180	0.277100	0.561400	0.345000
C1811	C181	0.278700	0.587100	0.365900
C1821	C182	0.004700	0.663400	0.406900
C1831	C183	0.155600	0.567200	0.881900
C1841	C184	0.028200	0.675300	0.454300
C1851	C185	0.927800	0.598700	0.430400
C1861	C186	0.440800	0.446900	0.010900
C1871	C187	0.405200	0.427500	0.983600
C1881	C188	0.269000	0.746100	0.908600
C1891	C189	0.081500	0.783000	0.691600
C1901	C190	0.292000	0.756100	0.951200
C1911	C191	0.430400	0.519700	0.518000
C1921	C192	0.079700	0.754000	0.694400
C1931	C193	0.033000	0.783500	0.599600
C1941	C194	0.059200	0.798000	0.643600
C1951	C195	0.032300	0.752800	0.602700
C1961	C196	0.419400	0.718200	0.711700
C1971	C197	0.391700	0.723700	0.662200
C1981	C198	0.353800	0.714500	0.634700
C1991	C199	0.414900	0.703800	0.742600
C2001	C200	0.376700	0.694800	0.714800
C2011	C201	0.056600	0.740300	0.648200
C2021	C202	0.348200	0.699700	0.665400
C2031	C203	0.298600	0.598000	0.997300
C2041	C204	0.273200	0.590500	0.039900
S11	S1	0.341750	0.698720	0.861620
S21	S2	0.197990	0.631170	0.636750
S31	S3	0.231030	0.680910	0.754330
S41	S4	0.195540	0.601200	0.743930
S51	S5	0.307520	0.652550	0.745460
S61	S6	0.272460	0.572680	0.738260
S71	S7	0.306550	0.622310	0.854560
S81	S8	0.451190	0.721680	0.962300
S91	S9	0.269930	0.544610	0.844720
S101	S10	0.123960	0.659980	0.645710
S111	S11	0.342850	0.729940	0.764800
S121	S12	0.089260	0.613950	0.539510
S131	S13	0.230520	0.715660	0.644890
S141	S14	0.275770	0.600050	0.634730
S151	S15	0.160510	0.589650	0.518500
S161	S16	0.213470	0.658130	0.545670
S171	S17	0.369780	0.779830	0.871470
S181	S18	0.040960	0.706870	0.527940
S191	S19	0.258410	0.758490	0.767610
S201	S20	0.173420	0.522140	0.745970
S211	S21	0.148080	0.732280	0.648750
S221	S22	0.161200	0.548690	0.623240
S231	S23	0.125540	0.682100	0.531240
S241	S24	0.414580	0.670790	0.843500
S251	S25	0.230460	0.557110	0.503460
S261	S26	0.228970	0.651660	0.864790
S271	S27	0.415430	0.646040	0.959250
S281	S28	0.380310	0.744310	0.985900
S291	S29	0.302510	0.691340	0.634530
S301	S30	0.385900	0.591360	0.848810
S311	S31	0.163760	0.716440	0.769260
S321	S32	0.053780	0.704040	0.653590
S331	S33	0.257720	0.485240	0.441940
S341	S34	0.274710	0.727620	0.871620
S351	S35	0.185300	0.573770	0.839140
S361	S36	0.350290	0.535690	0.740660
S371	S37	0.246400	0.493200	0.727100
S381	S38	0.247090	0.537680	0.339120
S391	S39	0.248140	0.530150	0.625630
S401	S40	0.346110	0.663460	0.973920
S411	S41	0.117180	0.635350	0.732860
S421	S42	0.368990	0.619420	0.721450
S431	S43	0.381140	0.569910	0.958620
S441	S44	0.307970	0.623750	0.566520
S451	S45	0.348190	0.504160	0.464450
S461	S46	0.019720	0.634750	0.573440
S471	S47	0.335390	0.515900	0.836460
S481	S48	0.302680	0.588500	0.955460
S491	S49	0.344400	0.553450	0.626590
S501	S50	0.091560	0.575450	0.645000
S511	S51	0.948550	0.696920	0.509870
S521	S52	0.299840	0.566600	0.478080
Cd11	Cd1	0.189220	0.642580	0.696960
Cd21	Cd2	0.263240	0.614530	0.690290
Cd31	Cd3	0.261300	0.585920	0.795320
Cd41	Cd4	0.217010	0.721750	0.699760
Cd51	Cd5	0.152430	0.592780	0.582720
Cd61	Cd6	0.295180	0.662630	0.802060
Cd71	Cd7	0.370710	0.630370	0.793930
Cd81	Cd8	0.372440	0.606950	0.900950
Cd91	Cd9	0.156830	0.561040	0.686500
Cd101	Cd10	0.227220	0.536890	0.674920
Cd111	Cd11	0.109070	0.694680	0.582610
Cd121	Cd12	0.323060	0.742910	0.813260
Cd131	Cd13	0.195700	0.674420	0.595310
Cd141	Cd14	0.338410	0.556470	0.794000
Cd151	Cd15	0.080660	0.619540	0.602630
Cd161	Cd16	0.291060	0.632810	0.908410
Cd171	Cd17	0.338020	0.705860	0.928000
Cd181	Cd18	0.016770	0.686150	0.565830
Cd191	Cd19	0.293880	0.696750	0.697500
Cd201	Cd20	0.406160	0.683740	0.903280
Cd211	Cd21	0.282650	0.643210	0.603550
Cd221	Cd22	0.287210	0.523230	0.430460
Cd231	Cd23	0.225230	0.690960	0.818370
Cd241	Cd24	0.237290	0.503600	0.787280
Cd251	Cd25	0.223730	0.570060	0.565570
Cd261	Cd26	0.183910	0.617780	0.799890
Cd271	Cd27	0.250190	0.556360	0.892790
Cd281	Cd28	0.117540	0.682730	0.702950
Cd291	Cd29	0.337220	0.531780	0.905510
Cd301	Cd30	0.293450	0.574140	0.542100
Cd311	Cd31	0.414410	0.759860	0.958990
Cd321	Cd32	0.335680	0.573890	0.683330
C2051	C205	0.299900	0.622800	0.025000
C2061	C206	0.467000	0.522500	0.853000
C2071	C207	0.959200	0.624600	0.456900
C2081	C208	0.376500	0.440500	0.960000
C2091	C209	0.259000	0.621300	0.043000
C2101	C210	0.035900	0.550900	0.442000
C2111	C211	0.384800	0.525100	0.482300
C2121	C212	0.479400	0.631800	0.801400
C2131	C213	0.993600	0.583000	0.404000
C2141	C214	0.235500	0.769900	0.858700
C2151	C215	0.414900	0.592600	0.717000
C2161	C216	0.220700	0.793800	0.864000
C2171	C217	0.250300	0.788700	0.927600
C2181	C218	0.439100	0.630100	0.778800
C2191	C219	0.489100	0.611900	0.792200
C2201	C220	0.288600	0.778500	0.972200
C2211	C221	0.834200	0.016900	0.623100
C2221	C222	0.806300	0.002400	0.580500
C2231	C223	0.803300	0.974300	0.583100
C2241	C224	0.828200	0.960800	0.628400
C2251	C225	0.856100	0.975400	0.671000
C2261	C226	0.859100	0.003400	0.668400
C2271	C227	0.556000	0.056300	0.602500
C2281	C228	0.526900	0.046700	0.598100
C2291	C229	0.499600	0.030600	0.557600
C2301	C230	0.501300	0.024100	0.521400
C2311	C231	0.530400	0.033700	0.525800
C2321	C232	0.557700	0.049800	0.566300
C2331	C233	0.592500	0.136300	0.752200
C2341	C234	0.556300	0.145600	0.718600
C2351	C235	0.535600	0.147100	0.732700
C2361	C236	0.551200	0.139300	0.780400
C2371	C237	0.587300	0.130000	0.814000
C2381	C238	0.608000	0.128500	0.799900
C2391	C239	0.634600	0.063310	0.475800
C2401	C240	0.616900	0.067500	0.426100
C2411	C241	0.593300	0.047700	0.390800
C2421	C242	0.587300	0.023660	0.405300
C2431	C243	0.604900	0.019470	0.455000
C2441	C244	0.628600	0.039300	0.490300
C2451	C245	0.915900	0.227600	0.042900
C2461	C246	0.928400	0.239900	0.086700
C2471	C247	0.956800	0.227900	0.132400
C2481	C248	0.972600	0.203600	0.134300
C2491	C249	0.960100	0.191300	0.090500
C2501	C250	0.931700	0.203300	0.044800
C2511	C251	0.713300	0.967200	0.690600
C2521	C252	0.724900	0.941000	0.691600
C2531	C253	0.699100	0.921000	0.659800
C2541	C254	0.661700	0.927200	0.627000
C2551	C255	0.650100	0.953400	0.626000
C2561	C256	0.675900	0.973400	0.657800
C2571	C257	0.843400	0.078000	0.513500
C2581	C258	0.873300	0.061800	0.550300
C2591	C259	0.909000	0.071700	0.577700
C2601	C260	0.914700	0.097600	0.568200
C2611	C261	0.884800	0.113800	0.531300
C2621	C262	0.849100	0.103900	0.504000
C2631	C263	0.640000	0.996000	0.706100
C2641	C264	0.643900	0.971500	0.728800
C2651	C265	0.615600	0.952300	0.702900
C2661	C266	0.583500	0.957700	0.654300
C2671	C267	0.579600	0.982200	0.631600
C2681	C268	0.607900	0.001300	0.657500
C2691	C269	0.864000	0.988500	0.844700
C2701	C270	0.894800	0.980800	0.892800
C2711	C271	0.917800	0.960200	0.900200
C2721	C272	0.909900	0.947300	0.859600
C2731	C273	0.879100	0.955000	0.811500
C2741	C274	0.856100	0.975600	0.804000
C2751	C275	0.655400	0.216000	0.810200
C2761	C276	0.654200	0.192800	0.831400
C2771	C277	0.645700	0.195100	0.861500
C2781	C278	0.638500	0.220600	0.870400
C2791	C279	0.639600	0.243900	0.849100
C2801	C280	0.648100	0.241600	0.819000
C2811	C281	0.558000	0.090800	0.490900
C2821	C282	0.525700	0.101900	0.455000
C2831	C283	0.508900	0.061900	0.407500
C2841	C284	0.563800	0.068700	0.476500
C2851	C285	0.732300	0.998700	0.594000
C2861	C286	0.701600	0.992900	0.544700
C2871	C287	0.692900	0.965900	0.528400
C2881	C288	0.714900	0.944800	0.561500
C2891	C289	0.745500	0.950600	0.610800
C2901	C290	0.754200	0.977600	0.627000
C2911	C291	0.900900	0.033200	0.788000
C2921	C292	0.924300	0.058200	0.803500
C2931	C293	0.966300	0.049700	0.850700
C2941	C294	0.925500	0.013700	0.832000
C2951	C295	0.831600	0.182300	0.008400
C2961	C296	0.794900	0.184500	0.995100
C2971	C297	0.798800	0.205800	0.029000
C2981	C298	0.841400	0.199800	0.077600
C2991	C299	0.864800	0.185900	0.061000
C3001	C300	0.923900	0.052600	0.983900
C3011	C301	0.948100	0.050200	0.037300
C3021	C302	0.984500	0.036500	0.058800
C3031	C303	0.990200	0.028800	0.027100
C3041	C304	0.968800	0.031400	0.977500
C3051	C305	0.930500	0.043300	0.955200
C3061	C306	0.433800	0.189300	0.542400
C3071	C307	0.457300	0.191700	0.594900
C3081	C308	0.444700	0.183600	0.618200
C3091	C309	0.407300	0.175000	0.592000
C3101	C310	0.378900	0.176000	0.535600
C3111	C311	0.396000	0.183200	0.513500
C3121	C312	0.841100	0.259700	0.735200
C3131	C313	0.755300	0.338400	0.730600
C3141	C314	0.800300	0.143200	0.524300
C3151	C315	0.759200	0.335300	0.695400
C3161	C316	0.620900	0.315900	0.572400
C3171	C317	0.026500	0.167800	0.927700
C3181	C318	0.638900	0.008300	0.360400
C3191	C319	0.634300	0.237500	0.526700
C3201	C320	0.626000	0.261800	0.499300
C3211	C321	0.776900	0.080500	0.006300
C3221	C322	0.753900	0.313000	0.754900
C3231	C323	0.764100	0.310900	0.683500
C3241	C324	0.844400	0.353000	0.892400
C3251	C325	0.728500	0.184800	0.493700
C3261	C326	0.686600	0.999100	0.358600
C3271	C327	0.038300	0.116900	0.049000
C3281	C328	0.968500	0.106400	0.992700
C3291	C329	0.665300	0.004600	0.412500
C3301	C330	0.593700	0.298600	0.561000
C3311	C331	0.695600	0.106000	0.455600
C3321	C332	0.465900	0.167400	0.374800
C3331	C333	0.674100	0.122900	0.413100
C3341	C334	0.009300	0.095400	0.020700
C3351	C335	0.848500	0.305200	0.880700
C3361	C336	0.602300	0.273800	0.583800
C3371	C337	0.713200	0.231100	0.466100
C3381	C338	0.007400	0.122200	0.935400
C3391	C339	0.820700	0.103600	0.355200
C3401	C340	0.994400	0.249100	0.886500
C3411	C341	0.821000	0.298200	0.881800
C3421	C342	0.819200	0.183400	0.499100
C3431	C343	0.615800	0.214100	0.499600
C3441	C344	0.821700	0.076200	0.338600
C3451	C345	0.685400	0.117600	0.936700
C3461	C346	0.648400	0.006400	0.332200
C3471	C347	0.671900	0.086200	0.365400
C3481	C348	0.666400	0.280500	0.630400
C3491	C349	0.820300	0.285800	0.661900
C3501	C350	0.790100	0.175300	0.447000
C3511	C351	0.583500	0.237900	0.422800
C3521	C352	0.728500	0.206600	0.468900
C3531	C353	0.988500	0.176900	0.896700
C3541	C354	0.694000	0.108600	0.908200
C3551	C355	0.601100	0.261200	0.448100
C3561	C356	0.819800	0.261900	0.683300
C3571	C357	0.663300	0.098300	0.939600
C3581	C358	0.762900	0.286600	0.704800
C3591	C359	0.018600	0.243300	0.938900
C3601	C360	0.765400	0.153400	0.431800
C3611	C361	0.710700	0.994700	0.410300
C3621	C362	0.815400	0.346400	0.891000
C3631	C363	0.862600	0.306600	0.743100
C3641	C364	0.033900	0.142000	0.948800
C3651	C365	0.451700	0.183100	0.390500
C3661	C366	0.700100	0.997100	0.437100
C3671	C367	0.680100	0.085100	0.882300
C3681	C368	0.915200	0.117300	0.748100
C3691	C369	0.699500	0.212300	0.515700
C3701	C370	0.028800	0.144700	0.050800
C3711	C371	0.863600	0.281900	0.766500
C3721	C372	0.960700	0.158100	0.884200
C3731	C373	0.963600	0.135100	0.997200
C3741	C374	0.005000	0.235200	0.960000
C3751	C375	0.840500	0.308300	0.691400
C3761	C376	0.475000	0.195200	0.437000
C3771	C377	0.966700	0.232900	0.931700
C3781	C378	0.590400	0.213300	0.448300
C3791	C379	0.714200	0.187900	0.517800
C3801	C380	0.802000	0.109300	0.370800
C3811	C381	0.704100	0.079200	0.452800
C3821	C382	0.512800	0.190700	0.469100
C3831	C383	0.990100	0.152700	0.019100
C3841	C384	0.759400	0.288400	0.739600
C3851	C385	0.697800	0.234400	0.489100
C3861	C386	0.942700	0.239300	0.881900
C3871	C387	0.637200	0.264500	0.617900
C3881	C388	0.860000	0.331200	0.885100
C3891	C389	0.955800	0.247600	0.858300
C3901	C390	0.827300	0.164700	0.542500
C3911	C391	0.797500	0.055700	0.334700
C3921	C392	0.484600	0.119400	0.515000
C3931	C393	0.647500	0.075000	0.913400
C3941	C394	0.693500	0.068400	0.409600
C3951	C395	0.805500	0.320000	0.889700
C3961	C396	0.657100	0.306200	0.605600
C3971	C397	0.662700	0.112900	0.367000
C3981	C398	0.772700	0.137800	0.471500
C3991	C399	0.969200	0.131500	0.902100
C4001	C400	0.777100	0.061400	0.345000
C4011	C401	0.778700	0.087100	0.365900
C4021	C402	0.504700	0.163400	0.406900
C4031	C403	0.655600	0.067200	0.881900
C4041	C404	0.528200	0.175300	0.454300
C4051	C405	0.427800	0.098700	0.430400
C4061	C406	0.940800	0.946900	0.010900
C4071	C407	0.905200	0.927500	0.983600
C4081	C408	0.769000	0.246100	0.908600
C4091	C409	0.581500	0.283000	0.691600
C4101	C410	0.792000	0.256100	0.951200
C4111	C411	0.930400	0.019700	0.518000
C4121	C412	0.579700	0.254000	0.694400
C4131	C413	0.533000	0.283500	0.599600
C4141	C414	0.559200	0.298000	0.643600
C4151	C415	0.532300	0.252800	0.602700
C4161	C416	0.919400	0.218200	0.711700
C4171	C417	0.891700	0.223700	0.662200
C4181	C418	0.853800	0.214500	0.634700
C4191	C419	0.914900	0.203800	0.742600
C4201	C420	0.876700	0.194800	0.714800
C4211	C421	0.556600	0.240300	0.648200
C4221	C422	0.848200	0.199700	0.665400
C4231	C423	0.798600	0.098000	0.997300
C4241	C424	0.773200	0.090500	0.039900
S531	S53	0.841750	0.198720	0.861620
S541	S54	0.697990	0.131170	0.636750
S551	S55	0.731030	0.180910	0.754330
S561	S56	0.695540	0.101200	0.743930
S571	S57	0.807520	0.152550	0.745460
S581	S58	0.772460	0.072680	0.738260
S591	S59	0.806550	0.122310	0.854560
S601	S60	0.951190	0.221680	0.962300
S611	S61	0.769930	0.044610	0.844720
S621	S62	0.623960	0.159980	0.645710
S631	S63	0.842850	0.229940	0.764800
S641	S64	0.589260	0.113950	0.539510
S651	S65	0.730520	0.215660	0.644890
S661	S66	0.775770	0.100050	0.634730
S671	S67	0.660510	0.089650	0.518500
S681	S68	0.713470	0.158130	0.545670
S691	S69	0.869780	0.279830	0.871470
S701	S70	0.540960	0.206870	0.527940
S711	S71	0.758410	0.258490	0.767610
S721	S72	0.673420	0.022140	0.745970
S731	S73	0.648080	0.232280	0.648750
S741	S74	0.661200	0.048690	0.623240
S751	S75	0.625540	0.182100	0.531240
S761	S76	0.914580	0.170790	0.843500
S771	S77	0.730460	0.057110	0.503460
S781	S78	0.728970	0.151660	0.864790
S791	S79	0.915430	0.146040	0.959250
S801	S80	0.880310	0.244310	0.985900
S811	S81	0.802510	0.191340	0.634530
S821	S82	0.885900	0.091360	0.848810
S831	S83	0.663760	0.216440	0.769260
S841	S84	0.553780	0.204040	0.653590
S851	S85	0.757720	0.985240	0.441940
S861	S86	0.774710	0.227620	0.871620
S871	S87	0.685300	0.073770	0.839140
S881	S88	0.850290	0.035690	0.740660
S891	S89	0.746400	0.993200	0.727100
S901	S90	0.747090	0.037680	0.339120
S911	S91	0.748140	0.030150	0.625630
S921	S92	0.846110	0.163460	0.973920
S931	S93	0.617180	0.135350	0.732860
S941	S94	0.868990	0.119420	0.721450
S951	S95	0.881140	0.069910	0.958620
S961	S96	0.807970	0.123750	0.566520
S971	S97	0.848190	0.004160	0.464450
S981	S98	0.519720	0.134750	0.573440
S991	S99	0.835390	0.015900	0.836460
S1001	S100	0.802680	0.088500	0.955460
S1011	S101	0.844400	0.053450	0.626590
S1021	S102	0.591560	0.075450	0.645000
S1031	S103	0.448550	0.196920	0.509870
S1041	S104	0.799840	0.066600	0.478080
Cd331	Cd33	0.689220	0.142580	0.696960
Cd341	Cd34	0.763240	0.114530	0.690290
Cd351	Cd35	0.761300	0.085920	0.795320
Cd361	Cd36	0.717010	0.221750	0.699760
Cd371	Cd37	0.652430	0.092780	0.582720
Cd381	Cd38	0.795180	0.162630	0.802060
Cd391	Cd39	0.870710	0.130370	0.793930
Cd401	Cd40	0.872440	0.106950	0.900950
Cd411	Cd41	0.656830	0.061040	0.686500
Cd421	Cd42	0.727220	0.036890	0.674920
Cd431	Cd43	0.609070	0.194680	0.582610
Cd441	Cd44	0.823060	0.242910	0.813260
Cd451	Cd45	0.695700	0.174420	0.595310
Cd461	Cd46	0.838410	0.056470	0.794000
Cd471	Cd47	0.580660	0.119540	0.602630
Cd481	Cd48	0.791060	0.132810	0.908410
Cd491	Cd49	0.838020	0.205860	0.928000
Cd501	Cd50	0.516770	0.186150	0.565830
Cd511	Cd51	0.793880	0.196750	0.697500
Cd521	Cd52	0.906160	0.183740	0.903280
Cd531	Cd53	0.782650	0.143210	0.603550
Cd541	Cd54	0.787210	0.023230	0.430460
Cd551	Cd55	0.725230	0.190960	0.818370
Cd561	Cd56	0.737290	0.003600	0.787280
Cd571	Cd57	0.723730	0.070060	0.565570
Cd581	Cd58	0.683910	0.117780	0.799890
Cd591	Cd59	0.750190	0.056360	0.892790
Cd601	Cd60	0.617540	0.182730	0.702950
Cd611	Cd61	0.837220	0.031780	0.905510
Cd621	Cd62	0.793450	0.074140	0.542100
Cd631	Cd63	0.914410	0.259860	0.958990
Cd641	Cd64	0.835680	0.073890	0.683330
C4251	C425	0.799900	0.122800	0.025000
C4261	C426	0.967000	0.022500	0.853000
C4271	C427	0.459200	0.124600	0.456900
C4281	C428	0.876500	0.940500	0.960000
C4291	C429	0.759000	0.121300	0.043000
C4301	C430	0.535900	0.050900	0.442000
C4311	C431	0.884800	0.025100	0.482300
C4321	C432	0.979400	0.131800	0.801400
C4331	C433	0.493600	0.083000	0.404000
C4341	C434	0.735500	0.269900	0.858700
C4351	C435	0.914900	0.092600	0.717000
C4361	C436	0.720700	0.293800	0.864000
C4371	C437	0.750300	0.288700	0.927600
C4381	C438	0.939100	0.130100	0.778800
C4391	C439	0.989100	0.111900	0.792200
C4401	C440	0.788600	0.278500	0.972200
C4411	C441	0.334200	0.483100	0.123100
C4421	C442	0.306300	0.497600	0.080500
C4431	C443	0.303300	0.525700	0.083100
C4441	C444	0.328200	0.539200	0.128400
C4451	C445	0.356100	0.524600	0.171000
C4461	C446	0.359100	0.496600	0.168400
C4471	C447	0.056000	0.443700	0.102500
C4481	C448	0.026900	0.453300	0.098100
C4491	C449	0.999600	0.469400	0.057600
C4501	C450	0.001300	0.475900	0.021400
C4511	C451	0.030400	0.466300	0.025800
C4521	C452	0.057700	0.450200	0.066300
C4531	C453	0.092500	0.363700	0.252200
C4541	C454	0.056300	0.354400	0.218600
C4551	C455	0.035600	0.352900	0.232700
C4561	C456	0.051200	0.360700	0.280400
C4571	C457	0.087300	0.370000	0.314000
C4581	C458	0.108000	0.371500	0.299900
C4591	C459	0.134600	0.436690	0.975800
C4601	C460	0.116900	0.432500	0.926100
C4611	C461	0.093300	0.452300	0.890800
C4621	C462	0.087300	0.476340	0.905300
C4631	C463	0.104900	0.480530	0.955000
C4641	C464	0.128600	0.460700	0.990300
C4651	C465	0.415900	0.272400	0.542900
C4661	C466	0.428400	0.260100	0.586700
C4671	C467	0.456800	0.272100	0.632400
C4681	C468	0.472600	0.296400	0.634300
C4691	C469	0.460100	0.308700	0.590500
C4701	C470	0.431700	0.296700	0.544800
C4711	C471	0.213300	0.532800	0.190600
C4721	C472	0.224900	0.559000	0.191600
C4731	C473	0.199100	0.579000	0.159800
C4741	C474	0.161700	0.572800	0.127000
C4751	C475	0.150100	0.546600	0.126000
C4761	C476	0.175900	0.526600	0.157800
C4771	C477	0.343400	0.422000	0.013500
C4781	C478	0.373300	0.438200	0.050300
C4791	C479	0.409000	0.428300	0.077700
C4801	C480	0.414700	0.402400	0.068200
C4811	C481	0.384800	0.386200	0.031300
C4821	C482	0.349100	0.396100	0.004000
C4831	C483	0.140000	0.504000	0.206100
C4841	C484	0.143900	0.528500	0.228800
C4851	C485	0.115600	0.547700	0.202900
C4861	C486	0.083500	0.542300	0.154300
C4871	C487	0.079600	0.517800	0.131600
C4881	C488	0.107900	0.498700	0.157500
C4891	C489	0.364000	0.511500	0.344700
C4901	C490	0.394800	0.519200	0.392800
C4911	C491	0.417800	0.539800	0.400200
C4921	C492	0.409900	0.552700	0.359600
C4931	C493	0.379100	0.545000	0.311500
C4941	C494	0.356100	0.524400	0.304000
C4951	C495	0.155400	0.284000	0.310200
C4961	C496	0.154200	0.307200	0.331400
C4971	C497	0.145700	0.304900	0.361500
C4981	C498	0.138500	0.279400	0.370400
C4991	C499	0.139600	0.256100	0.349100
C5001	C500	0.148100	0.258400	0.319000
C5011	C501	0.058000	0.409200	0.990900
C5021	C502	0.025700	0.398100	0.955000
C5031	C503	0.008900	0.438100	0.907500
C5041	C504	0.063800	0.431300	0.976500
C5051	C505	0.232300	0.501300	0.094000
C5061	C506	0.201600	0.507100	0.044700
C5071	C507	0.192900	0.534100	0.028400
C5081	C508	0.214900	0.555200	0.061500
C5091	C509	0.245500	0.549400	0.110800
C5101	C510	0.254200	0.522400	0.127000
C5111	C511	0.400900	0.466800	0.288000
C5121	C512	0.424300	0.441800	0.303500
C5131	C513	0.466300	0.450300	0.350700
C5141	C514	0.425500	0.486300	0.332000
C5151	C515	0.331600	0.317700	0.508400
C5161	C516	0.294900	0.315500	0.495100
C5171	C517	0.298800	0.294200	0.529000
C5181	C518	0.341400	0.300200	0.577600
C5191	C519	0.364800	0.314100	0.561000
C5201	C520	0.423900	0.447400	0.483900
C5211	C521	0.448100	0.449800	0.537300
C5221	C522	0.484500	0.463500	0.558800
C5231	C523	0.490200	0.471200	0.527100
C5241	C524	0.468800	0.468600	0.477500
C5251	C525	0.430500	0.456700	0.455200
C5261	C526	0.933800	0.310700	0.042400
C5271	C527	0.957300	0.308300	0.094900
C5281	C528	0.944700	0.316400	0.118200
C5291	C529	0.907300	0.325000	0.092000
C5301	C530	0.878900	0.324000	0.035600
C5311	C531	0.896000	0.316800	0.013500
C5321	C532	0.341100	0.240300	0.235200
C5331	C533	0.255300	0.161600	0.230600
C5341	C534	0.300300	0.356800	0.024300
C5351	C535	0.259200	0.164700	0.195400
C5361	C536	0.120900	0.184100	0.072400
C5371	C537	0.526500	0.332200	0.427700
C5381	C538	0.138900	0.491700	0.860400
C5391	C539	0.134300	0.262500	0.026700
C5401	C540	0.126000	0.238200	0.999300
C5411	C541	0.276900	0.419500	0.506300
C5421	C542	0.253900	0.187000	0.254900
C5431	C543	0.264100	0.189100	0.183500
C5441	C544	0.344400	0.147000	0.392400
C5451	C545	0.228500	0.315200	0.993700
C5461	C546	0.186600	0.500900	0.858600
C5471	C547	0.538300	0.383100	0.549000
C5481	C548	0.468500	0.393600	0.492700
C5491	C549	0.165300	0.495400	0.912500
C5501	C550	0.093700	0.201400	0.061000
C5511	C551	0.195600	0.394000	0.955600
C5521	C552	0.965900	0.332600	0.874800
C5531	C553	0.174100	0.377100	0.913100
C5541	C554	0.509300	0.404600	0.520700
C5551	C555	0.348500	0.194800	0.380700
C5561	C556	0.102300	0.226200	0.083800
C5571	C557	0.213200	0.268900	0.966100
C5581	C558	0.507400	0.377800	0.435400
C5591	C559	0.320700	0.396400	0.855200
C5601	C560	0.494400	0.250900	0.386500
C5611	C561	0.321000	0.201800	0.381800
C5621	C562	0.319200	0.316600	0.999100
C5631	C563	0.115800	0.285900	0.999600
C5641	C564	0.321700	0.423800	0.838600
C5651	C565	0.185400	0.382400	0.436700
C5661	C566	0.148400	0.493600	0.832200
C5671	C567	0.171900	0.413800	0.865400
C5681	C568	0.166400	0.219500	0.130400
C5691	C569	0.320300	0.214200	0.161900
C5701	C570	0.290100	0.324700	0.947000
C5711	C571	0.083500	0.262100	0.922800
C5721	C572	0.228500	0.293400	0.968900
C5731	C573	0.488500	0.323100	0.396700
C5741	C574	0.194000	0.391400	0.408200
C5751	C575	0.101100	0.238800	0.948100
C5761	C576	0.319800	0.238100	0.183300
C5771	C577	0.163300	0.401700	0.439600
C5781	C578	0.262900	0.213400	0.204800
C5791	C579	0.518600	0.256700	0.438900
C5801	C580	0.265400	0.346600	0.931800
C5811	C581	0.210700	0.505300	0.910300
C5821	C582	0.315400	0.153600	0.391000
C5831	C583	0.362600	0.193400	0.243100
C5841	C584	0.533900	0.358000	0.448800
C5851	C585	0.951700	0.316900	0.890500
C5861	C586	0.200100	0.502900	0.937100
C5871	C587	0.180100	0.414900	0.382300
C5881	C588	0.415200	0.382700	0.248100
C5891	C589	0.199500	0.287700	0.015700
C5901	C590	0.528800	0.355300	0.550800
C5911	C591	0.363600	0.218100	0.266500
C5921	C592	0.460700	0.341900	0.384200
C5931	C593	0.463600	0.364900	0.497200
C5941	C594	0.505000	0.264800	0.460000
C5951	C595	0.340500	0.191700	0.191400
C5961	C596	0.975000	0.304800	0.937000
C5971	C597	0.466700	0.267100	0.431700
C5981	C598	0.090400	0.286700	0.948300
C5991	C599	0.214200	0.312100	0.017800
C6001	C600	0.302000	0.390700	0.870800
C6011	C601	0.204100	0.420800	0.952800
C6021	C602	0.012800	0.309300	0.969100
C6031	C603	0.490100	0.347300	0.519100
C6041	C604	0.259400	0.211600	0.239600
C6051	C605	0.197800	0.265600	0.989100
C6061	C606	0.442700	0.260700	0.381900
C6071	C607	0.137200	0.235500	0.117900
C6081	C608	0.360000	0.168800	0.385100
C6091	C609	0.455800	0.252400	0.358300
C6101	C610	0.327300	0.335300	0.042500
C6111	C611	0.297500	0.444300	0.834700
C6121	C612	0.984600	0.380600	0.015000
C6131	C613	0.147500	0.425000	0.413400
C6141	C614	0.193500	0.431600	0.909600
C6151	C615	0.305500	0.180000	0.389700
C6161	C616	0.157100	0.193800	0.105600
C6171	C617	0.162700	0.387100	0.867000
C6181	C618	0.272700	0.362200	0.971500
C6191	C619	0.469200	0.368500	0.402100
C6201	C620	0.277100	0.438600	0.845000
C6211	C621	0.278700	0.412900	0.865900
C6221	C622	0.004700	0.336600	0.906900
C6231	C623	0.155600	0.432800	0.381900
C6241	C624	0.028200	0.324700	0.954300
C6251	C625	0.927800	0.401300	0.930400
C6261	C626	0.440800	0.553100	0.510900
C6271	C627	0.405200	0.572500	0.483600
C6281	C628	0.269000	0.253900	0.408600
C6291	C629	0.081500	0.217000	0.191600
C6301	C630	0.292000	0.243900	0.451200
C6311	C631	0.430400	0.480300	0.018000
C6321	C632	0.079700	0.246000	0.194400
C6331	C633	0.033000	0.216500	0.099600
C6341	C634	0.059200	0.202000	0.143600
C6351	C635	0.032300	0.247200	0.102700
C6361	C636	0.419400	0.281800	0.211700
C6371	C637	0.391700	0.276300	0.162200
C6381	C638	0.353800	0.285500	0.134700
C6391	C639	0.414900	0.296200	0.242600
C6401	C640	0.376700	0.305200	0.214800
C6411	C641	0.056600	0.259700	0.148200
C6421	C642	0.348200	0.300300	0.165400
C6431	C643	0.298600	0.402000	0.497300
C6441	C644	0.273200	0.409500	0.539900
S1051	S105	0.341750	0.301280	0.361620
S1061	S106	0.197990	0.368830	0.136750
S1071	S107	0.231030	0.319090	0.254330
S1081	S108	0.195540	0.398800	0.243930
S1091	S109	0.307520	0.347450	0.245460
S1101	S110	0.272460	0.427320	0.238260
S1111	S111	0.306550	0.377690	0.354560
S1121	S112	0.451190	0.278320	0.462300
S1131	S113	0.269930	0.455390	0.344720
S1141	S114	0.123960	0.340020	0.145710
S1151	S115	0.342850	0.270060	0.264800
S1161	S116	0.089260	0.386050	0.039510
S1171	S117	0.230520	0.284340	0.144890
S1181	S118	0.275770	0.399950	0.134730
S1191	S119	0.160510	0.410350	0.018500
S1201	S120	0.213470	0.341870	0.045670
S1211	S121	0.369780	0.220170	0.371470
S1221	S122	0.040960	0.293130	0.027940
S1231	S123	0.258410	0.241510	0.267610
S1241	S124	0.173420	0.477860	0.245970
S1251	S125	0.148080	0.267720	0.148750
S1261	S126	0.161200	0.451310	0.123240
S1271	S127	0.125540	0.317900	0.031240
S1281	S128	0.414580	0.329210	0.343500
S1291	S129	0.230460	0.442890	0.003460
S1301	S130	0.228970	0.348340	0.364790
S1311	S131	0.415430	0.353960	0.459250
S1321	S132	0.380310	0.255690	0.485900
S1331	S133	0.302510	0.308660	0.134530
S1341	S134	0.385900	0.408640	0.348810
S1351	S135	0.163760	0.283560	0.269260
S1361	S136	0.053780	0.295960	0.153590
S1371	S137	0.257720	0.514760	0.941940
S1381	S138	0.274710	0.272380	0.371620
S1391	S139	0.185300	0.426230	0.339140
S1401	S140	0.350290	0.464310	0.240660
S1411	S141	0.246400	0.506800	0.227100
S1421	S142	0.247090	0.462320	0.839120
S1431	S143	0.248140	0.469850	0.125630
S1441	S144	0.346110	0.336540	0.473920
S1451	S145	0.117180	0.364650	0.232860
S1461	S146	0.368990	0.380580	0.221450
S1471	S147	0.381140	0.430090	0.458620
S1481	S148	0.307970	0.376250	0.066520
S1491	S149	0.348190	0.495840	0.964450
S1501	S150	0.019720	0.365250	0.073440
S1511	S151	0.335390	0.484100	0.336460
S1521	S152	0.302680	0.411500	0.455460
S1531	S153	0.344400	0.446550	0.126590
S1541	S154	0.091560	0.424550	0.145000
S1551	S155	0.948550	0.303080	0.009870
S1561	S156	0.299840	0.433400	0.978080
Cd651	Cd65	0.189220	0.357420	0.196960
Cd661	Cd66	0.263240	0.385470	0.190290
Cd671	Cd67	0.261300	0.414080	0.295320
Cd681	Cd68	0.217010	0.278250	0.199760
Cd691	Cd69	0.152430	0.407220	0.082720
Cd701	Cd70	0.295180	0.337370	0.302060
Cd711	Cd71	0.370710	0.369630	0.293930
Cd721	Cd72	0.372440	0.393050	0.400950
Cd731	Cd73	0.156830	0.438960	0.186500
Cd741	Cd74	0.227220	0.463110	0.174920
Cd751	Cd75	0.109070	0.305320	0.082610
Cd761	Cd76	0.323060	0.257090	0.313260
Cd771	Cd77	0.195700	0.325580	0.095310
Cd781	Cd78	0.338410	0.443520	0.294000
Cd791	Cd79	0.080660	0.380460	0.102630
Cd801	Cd80	0.291060	0.367190	0.408410
Cd811	Cd81	0.338020	0.294140	0.428000
Cd821	Cd82	0.016770	0.313850	0.065830
Cd831	Cd83	0.293880	0.303250	0.197500
Cd841	Cd84	0.406160	0.316260	0.403280
Cd851	Cd85	0.282650	0.356790	0.103550
Cd861	Cd86	0.287210	0.476770	0.930460
Cd871	Cd87	0.225230	0.309040	0.318370
Cd881	Cd88	0.237290	0.496400	0.287280
Cd891	Cd89	0.223730	0.429940	0.065570
Cd901	Cd90	0.183910	0.382220	0.299890
Cd911	Cd91	0.250190	0.443640	0.392790
Cd921	Cd92	0.117540	0.317270	0.202950
Cd931	Cd93	0.337220	0.468220	0.405510
Cd941	Cd94	0.293450	0.425860	0.042100
Cd951	Cd95	0.414410	0.240140	0.458990
Cd961	Cd96	0.335680	0.426110	0.183330
C6451	C645	0.299900	0.377200	0.525000
C6461	C646	0.467000	0.477500	0.353000
C6471	C647	0.959200	0.375400	0.956900
C6481	C648	0.376500	0.559500	0.460000
C6491	C649	0.259000	0.378700	0.543000
C6501	C650	0.035900	0.449100	0.942000
C6511	C651	0.384800	0.474900	0.982300
C6521	C652	0.479400	0.368200	0.301400
C6531	C653	0.993600	0.417000	0.904000
C6541	C654	0.235500	0.230100	0.358700
C6551	C655	0.414900	0.407400	0.217000
C6561	C656	0.220700	0.206200	0.364000
C6571	C657	0.250300	0.211300	0.427600
C6581	C658	0.439100	0.369900	0.278800
C6591	C659	0.489100	0.388100	0.292200
C6601	C660	0.288600	0.221500	0.472200
C6611	C661	0.834200	0.983100	0.123100
C6621	C662	0.806300	0.997600	0.080500
C6631	C663	0.803300	0.025700	0.083100
C6641	C664	0.828200	0.039200	0.128400
C6651	C665	0.856100	0.024600	0.171000
C6661	C666	0.859100	0.996600	0.168400
C6671	C667	0.556000	0.943700	0.102500
C6681	C668	0.526900	0.953300	0.098100
C6691	C669	0.499600	0.969400	0.057600
C6701	C670	0.501300	0.975900	0.021400
C6711	C671	0.530400	0.966300	0.025800
C6721	C672	0.557700	0.950200	0.066300
C6731	C673	0.592500	0.863700	0.252200
C6741	C674	0.556300	0.854400	0.218600
C6751	C675	0.535600	0.852900	0.232700
C6761	C676	0.551200	0.860700	0.280400
C6771	C677	0.587300	0.870000	0.314000
C6781	C678	0.608000	0.871500	0.299900
C6791	C679	0.634600	0.936690	0.975800
C6801	C680	0.616900	0.932500	0.926100
C6811	C681	0.593300	0.952300	0.890800
C6821	C682	0.587300	0.976340	0.905300
C6831	C683	0.604900	0.980530	0.955000
C6841	C684	0.628600	0.960700	0.990300
C6851	C685	0.915900	0.772400	0.542900
C6861	C686	0.928400	0.760100	0.586700
C6871	C687	0.956800	0.772100	0.632400
C6881	C688	0.972600	0.796400	0.634300
C6891	C689	0.960100	0.808700	0.590500
C6901	C690	0.931700	0.796700	0.544800
C6911	C691	0.713300	0.032800	0.190600
C6921	C692	0.724900	0.059000	0.191600
C6931	C693	0.699100	0.079000	0.159800
C6941	C694	0.661700	0.072800	0.127000
C6951	C695	0.650100	0.046600	0.126000
C6961	C696	0.675900	0.026600	0.157800
C6971	C697	0.843400	0.922000	0.013500
C6981	C698	0.873300	0.938200	0.050300
C6991	C699	0.909000	0.928300	0.077700
C7001	C700	0.914700	0.902400	0.068200
C7011	C701	0.884800	0.886200	0.031300
C7021	C702	0.849100	0.896100	0.004000
C7031	C703	0.640000	0.004000	0.206100
C7041	C704	0.643900	0.028500	0.228800
C7051	C705	0.615600	0.047700	0.202900
C7061	C706	0.583500	0.042300	0.154300
C7071	C707	0.579600	0.017800	0.131600
C7081	C708	0.607900	0.998700	0.157500
C7091	C709	0.864000	0.011500	0.344700
C7101	C710	0.894800	0.019200	0.392800
C7111	C711	0.917800	0.039800	0.400200
C7121	C712	0.909900	0.052700	0.359600
C7131	C713	0.879100	0.045000	0.311500
C7141	C714	0.856100	0.024400	0.304000
C7151	C715	0.655400	0.784000	0.310200
C7161	C716	0.654200	0.807200	0.331400
C7171	C717	0.645700	0.804900	0.361500
C7181	C718	0.638500	0.779400	0.370400
C7191	C719	0.639600	0.756100	0.349100
C7201	C720	0.648100	0.758400	0.319000
C7211	C721	0.558000	0.909200	0.990900
C7221	C722	0.525700	0.898100	0.955000
C7231	C723	0.508900	0.938100	0.907500
C7241	C724	0.563800	0.931300	0.976500
C7251	C725	0.732300	0.001300	0.094000
C7261	C726	0.701600	0.007100	0.044700
C7271	C727	0.692900	0.034100	0.028400
C7281	C728	0.714900	0.055200	0.061500
C7291	C729	0.745500	0.049400	0.110800
C7301	C730	0.754200	0.022400	0.127000
C7311	C731	0.900900	0.966800	0.288000
C7321	C732	0.924300	0.941800	0.303500
C7331	C733	0.966300	0.950300	0.350700
C7341	C734	0.925500	0.986300	0.332000
C7351	C735	0.831600	0.817700	0.508400
C7361	C736	0.794900	0.815500	0.495100
C7371	C737	0.798800	0.794200	0.529000
C7381	C738	0.841400	0.800200	0.577600
C7391	C739	0.864800	0.814100	0.561000
C7401	C740	0.923900	0.947400	0.483900
C7411	C741	0.948100	0.949800	0.537300
C7421	C742	0.984500	0.963500	0.558800
C7431	C743	0.990200	0.971200	0.527100
C7441	C744	0.968800	0.968600	0.477500
C7451	C745	0.930500	0.956700	0.455200
C7461	C746	0.433800	0.810700	0.042400
C7471	C747	0.457300	0.808300	0.094900
C7481	C748	0.444700	0.816400	0.118200
C7491	C749	0.407300	0.825000	0.092000
C7501	C750	0.378900	0.824000	0.035600
C7511	C751	0.396000	0.816800	0.013500
C7521	C752	0.841100	0.740300	0.235200
C7531	C753	0.755300	0.661600	0.230600
C7541	C754	0.800300	0.856800	0.024300
C7551	C755	0.759200	0.664700	0.195400
C7561	C756	0.620900	0.684100	0.072400
C7571	C757	0.026500	0.832200	0.427700
C7581	C758	0.638900	0.991700	0.860400
C7591	C759	0.634300	0.762500	0.026700
C7601	C760	0.626000	0.738200	0.999300
C7611	C761	0.776900	0.919500	0.506300
C7621	C762	0.753900	0.687000	0.254900
C7631	C763	0.764100	0.689100	0.183500
C7641	C764	0.844400	0.647000	0.392400
C7651	C765	0.728500	0.815200	0.993700
C7661	C766	0.686600	0.000900	0.858600
C7671	C767	0.038300	0.883100	0.549000
C7681	C768	0.968500	0.893600	0.492700
C7691	C769	0.665300	0.995400	0.912500
C7701	C770	0.593700	0.701400	0.061000
C7711	C771	0.695600	0.894000	0.955600
C7721	C772	0.465900	0.832600	0.874800
C7731	C773	0.674100	0.877100	0.913100
C7741	C774	0.009300	0.904600	0.520700
C7751	C775	0.848500	0.694800	0.380700
C7761	C776	0.602300	0.726200	0.083800
C7771	C777	0.713200	0.768900	0.966100
C7781	C778	0.007400	0.877800	0.435400
C7791	C779	0.820700	0.896400	0.855200
C7801	C780	0.994400	0.750900	0.386500
C7811	C781	0.821000	0.701800	0.381800
C7821	C782	0.819200	0.816600	0.999100
C7831	C783	0.615800	0.785900	0.999600
C7841	C784	0.821700	0.923800	0.838600
C7851	C785	0.685400	0.882400	0.436700
C7861	C786	0.648400	0.993600	0.832200
C7871	C787	0.671900	0.913800	0.865400
C7881	C788	0.666400	0.719500	0.130400
C7891	C789	0.820300	0.714200	0.161900
C7901	C790	0.790100	0.824700	0.947000
C7911	C791	0.583500	0.762100	0.922800
C7921	C792	0.728500	0.793400	0.968900
C7931	C793	0.988500	0.823100	0.396700
C7941	C794	0.694000	0.891400	0.408200
C7951	C795	0.601100	0.738800	0.948100
C7961	C796	0.819800	0.738100	0.183300
C7971	C797	0.663300	0.901700	0.439600
C7981	C798	0.762900	0.713400	0.204800
C7991	C799	0.018600	0.756700	0.438900
C8001	C800	0.765400	0.846600	0.931800
C8011	C801	0.710700	0.005300	0.910300
C8021	C802	0.815400	0.653600	0.391000
C8031	C803	0.862600	0.693400	0.243100
C8041	C804	0.033900	0.858000	0.448800
C8051	C805	0.451700	0.816900	0.890500
C8061	C806	0.700100	0.002900	0.937100
C8071	C807	0.680100	0.914900	0.382300
C8081	C808	0.915200	0.882700	0.248100
C8091	C809	0.699500	0.787700	0.015700
C8101	C810	0.028800	0.855300	0.550800
C8111	C811	0.863600	0.718100	0.266500
C8121	C812	0.960700	0.841900	0.384200
C8131	C813	0.963600	0.864900	0.497200
C8141	C814	0.005000	0.764800	0.460000
C8151	C815	0.840500	0.691700	0.191400
C8161	C816	0.475000	0.804800	0.937000
C8171	C817	0.966700	0.767100	0.431700
C8181	C818	0.590400	0.786700	0.948300
C8191	C819	0.714200	0.812100	0.017800
C8201	C820	0.802000	0.890700	0.870800
C8211	C821	0.704100	0.920800	0.952800
C8221	C822	0.512800	0.809300	0.969100
C8231	C823	0.990100	0.847300	0.519100
C8241	C824	0.759400	0.711600	0.239600
C8251	C825	0.697800	0.765600	0.989100
C8261	C826	0.942700	0.760700	0.381900
C8271	C827	0.637200	0.735500	0.117900
C8281	C828	0.860000	0.668800	0.385100
C8291	C829	0.955800	0.752400	0.358300
C8301	C830	0.827300	0.835300	0.042500
C8311	C831	0.797500	0.944300	0.834700
C8321	C832	0.484600	0.880600	0.015000
C8331	C833	0.647500	0.925000	0.413400
C8341	C834	0.693500	0.931600	0.909600
C8351	C835	0.805500	0.680000	0.389700
C8361	C836	0.657100	0.693800	0.105600
C8371	C837	0.662700	0.887100	0.867000
C8381	C838	0.772700	0.862200	0.971500
C8391	C839	0.969200	0.868500	0.402100
C8401	C840	0.777100	0.938600	0.845000
C8411	C841	0.778700	0.912900	0.865900
C8421	C842	0.504700	0.836600	0.906900
C8431	C843	0.655600	0.932800	0.381900
C8441	C844	0.528200	0.824700	0.954300
C8451	C845	0.427800	0.901300	0.930400
C8461	C846	0.940800	0.053100	0.510900
C8471	C847	0.905200	0.072500	0.483600
C8481	C848	0.769000	0.753900	0.408600
C8491	C849	0.581500	0.717000	0.191600
C8501	C850	0.792000	0.743900	0.451200
C8511	C851	0.930400	0.980300	0.018000
C8521	C852	0.579700	0.746000	0.194400
C8531	C853	0.533000	0.716500	0.099600
C8541	C854	0.559200	0.702000	0.143600
C8551	C855	0.532300	0.747200	0.102700
C8561	C856	0.919400	0.781800	0.211700
C8571	C857	0.891700	0.776300	0.162200
C8581	C858	0.853800	0.785500	0.134700
C8591	C859	0.914900	0.796200	0.242600
C8601	C860	0.876700	0.805200	0.214800
C8611	C861	0.556600	0.759700	0.148200
C8621	C862	0.848200	0.800300	0.165400
C8631	C863	0.798600	0.902000	0.497300
C8641	C864	0.773200	0.909500	0.539900
S1571	S157	0.841750	0.801280	0.361620
S1581	S158	0.697990	0.868830	0.136750
S1591	S159	0.731030	0.819090	0.254330
S1601	S160	0.695540	0.898800	0.243930
S1611	S161	0.807520	0.847450	0.245460
S1621	S162	0.772460	0.927320	0.238260
S1631	S163	0.806550	0.877690	0.354560
S1641	S164	0.951190	0.778320	0.462300
S1651	S165	0.769930	0.955390	0.344720
S1661	S166	0.623960	0.840020	0.145710
S1671	S167	0.842850	0.770060	0.264800
S1681	S168	0.589260	0.886050	0.039510
S1691	S169	0.730520	0.784340	0.144890
S1701	S170	0.775770	0.899950	0.134730
S1711	S171	0.660510	0.910350	0.018500
S1721	S172	0.713470	0.841870	0.045670
S1731	S173	0.869780	0.720170	0.371470
S1741	S174	0.540960	0.793130	0.027940
S1751	S175	0.758410	0.741510	0.267610
S1761	S176	0.673420	0.977860	0.245970
S1771	S177	0.648080	0.767720	0.148750
S1781	S178	0.661200	0.951310	0.123240
S1791	S179	0.625540	0.817900	0.031240
S1801	S180	0.914580	0.829210	0.343500
S1811	S181	0.730460	0.942890	0.003460
S1821	S182	0.728970	0.848340	0.364790
S1831	S183	0.915430	0.853960	0.459250
S1841	S184	0.880310	0.755690	0.485900
S1851	S185	0.802510	0.808660	0.134530
S1861	S186	0.885900	0.908640	0.348810
S1871	S187	0.663760	0.783560	0.269260
S1881	S188	0.553780	0.795960	0.153590
S1891	S189	0.757720	0.014760	0.941940
S1901	S190	0.774710	0.772380	0.371620
S1911	S191	0.685300	0.926230	0.339140
S1921	S192	0.850290	0.964310	0.240660
S1931	S193	0.746400	0.006800	0.227100
S1941	S194	0.747090	0.962320	0.839120
S1951	S195	0.748140	0.969850	0.125630
S1961	S196	0.846110	0.836540	0.473920
S1971	S197	0.617180	0.864650	0.232860
S1981	S198	0.868990	0.880580	0.221450
S1991	S199	0.881140	0.930090	0.458620
S2001	S200	0.807970	0.876250	0.066520
S2011	S201	0.848190	0.995840	0.964450
S2021	S202	0.519720	0.865250	0.073440
S2031	S203	0.835390	0.984100	0.336460
S2041	S204	0.802680	0.911500	0.455460
S2051	S205	0.844400	0.946550	0.126590
S2061	S206	0.591560	0.924550	0.145000
S2071	S207	0.448550	0.803080	0.009870
S2081	S208	0.799840	0.933400	0.978080
Cd971	Cd97	0.689220	0.857420	0.196960
Cd981	Cd98	0.763240	0.885470	0.190290
Cd991	Cd99	0.761300	0.914080	0.295320
Cd1001	Cd100	0.717010	0.778250	0.199760
Cd1011	Cd101	0.652430	0.907220	0.082720
Cd1021	Cd102	0.795180	0.837370	0.302060
Cd1031	Cd103	0.870710	0.869630	0.293930
Cd1041	Cd104	0.872440	0.893050	0.400950
Cd1051	Cd105	0.656830	0.938960	0.186500
Cd1061	Cd106	0.727220	0.963110	0.174920
Cd1071	Cd107	0.609070	0.805320	0.082610
Cd1081	Cd108	0.823060	0.757090	0.313260
Cd1091	Cd109	0.695700	0.825580	0.095310
Cd1101	Cd110	0.838410	0.943520	0.294000
Cd1111	Cd111	0.580660	0.880460	0.102630
Cd1121	Cd112	0.791060	0.867190	0.408410
Cd1131	Cd113	0.838020	0.794140	0.428000
Cd1141	Cd114	0.516770	0.813850	0.065830
Cd1151	Cd115	0.793880	0.803250	0.197500
Cd1161	Cd116	0.906160	0.816250	0.403280
Cd1171	Cd117	0.782650	0.856790	0.103550
Cd1181	Cd118	0.787210	0.976770	0.930460
Cd1191	Cd119	0.725230	0.809040	0.318370
Cd1201	Cd120	0.737290	0.996400	0.287280
Cd1211	Cd121	0.723730	0.929930	0.065570
Cd1221	Cd122	0.683910	0.882220	0.299890
Cd1231	Cd123	0.750190	0.943640	0.392790
Cd1241	Cd124	0.617540	0.817270	0.202950
Cd1251	Cd125	0.837220	0.968220	0.405510
Cd1261	Cd126	0.793450	0.925860	0.042100
Cd1271	Cd127	0.914410	0.740140	0.458990
Cd1281	Cd128	0.835680	0.926110	0.183330
C8651	C865	0.799900	0.877200	0.525000
C8661	C866	0.967000	0.977500	0.353000
C8671	C867	0.459200	0.875400	0.956900
C8681	C868	0.876500	0.059500	0.460000
C8691	C869	0.759000	0.878700	0.543000
C8701	C870	0.535900	0.949100	0.942000
C8711	C871	0.884800	0.974900	0.982300
C8721	C872	0.979400	0.868200	0.301400
C8731	C873	0.493600	0.917000	0.904000
C8741	C874	0.735500	0.730100	0.358700
C8751	C875	0.914900	0.907400	0.217000
C8761	C876	0.720700	0.706200	0.364000
C8771	C877	0.750300	0.711300	0.427600
C8781	C878	0.939100	0.869900	0.278800
C8791	C879	0.989100	0.888100	0.292200
C8801	C880	0.788600	0.721500	0.472200
C8811	C881	0.665800	0.516900	0.876900
C8821	C882	0.693700	0.502400	0.919500
C8831	C883	0.696700	0.474300	0.916900
C8841	C884	0.671800	0.460800	0.871600
C8851	C885	0.643900	0.475400	0.829000
C8861	C886	0.640900	0.503400	0.831600
C8871	C887	0.944000	0.556300	0.897500
C8881	C888	0.973100	0.546700	0.901900
C8891	C889	0.000400	0.530600	0.942400
C8901	C890	0.998700	0.524100	0.978600
C8911	C891	0.969600	0.533700	0.974200
C8921	C892	0.942300	0.549800	0.933700
C8931	C893	0.907500	0.636300	0.747800
C8941	C894	0.943700	0.645600	0.781400
C8951	C895	0.964400	0.647100	0.767300
C8961	C896	0.948800	0.639300	0.719600
C8971	C897	0.912700	0.630000	0.686000
C8981	C898	0.892000	0.628500	0.700100
C8991	C899	0.865400	0.563310	0.024200
C9001	C900	0.883100	0.567500	0.073900
C9011	C901	0.906700	0.547700	0.109200
C9021	C902	0.912700	0.523660	0.094700
C9031	C903	0.895100	0.519470	0.045000
C9041	C904	0.871400	0.539300	0.009700
C9051	C905	0.584100	0.727600	0.457100
C9061	C906	0.571600	0.739900	0.413300
C9071	C907	0.543200	0.727900	0.367600
C9081	C908	0.527400	0.703600	0.365700
C9091	C909	0.539900	0.691300	0.409500
C9101	C910	0.568300	0.703300	0.455200
C9111	C911	0.786700	0.467200	0.809400
C9121	C912	0.775100	0.441000	0.808400
C9131	C913	0.800900	0.421000	0.840200
C9141	C914	0.838300	0.427200	0.873000
C9151	C915	0.849900	0.453400	0.874000
C9161	C916	0.824100	0.473400	0.842200
C9171	C917	0.656600	0.578000	0.986500
C9181	C918	0.626700	0.561800	0.949700
C9191	C919	0.591000	0.571700	0.922300
C9201	C920	0.585300	0.597600	0.931800
C9211	C921	0.615200	0.613800	0.968700
C9221	C922	0.650900	0.603900	0.996000
C9231	C923	0.860000	0.496000	0.793900
C9241	C924	0.856100	0.471500	0.771200
C9251	C925	0.884400	0.452300	0.797100
C9261	C926	0.916500	0.457700	0.845700
C9271	C927	0.920400	0.482200	0.868400
C9281	C928	0.892100	0.501300	0.842500
C9291	C929	0.636000	0.488500	0.655300
C9301	C930	0.605200	0.480800	0.607200
C9311	C931	0.582200	0.460200	0.599800
C9321	C932	0.590100	0.447300	0.640400
C9331	C933	0.620900	0.455000	0.688500
C9341	C934	0.643900	0.475600	0.696000
C9351	C935	0.844600	0.716000	0.689800
C9361	C936	0.845800	0.692800	0.668600
C9371	C937	0.854300	0.695100	0.638500
C9381	C938	0.861500	0.720600	0.629600
C9391	C939	0.860400	0.743900	0.650900
C9401	C940	0.851900	0.741600	0.681000
C9411	C941	0.942000	0.590800	0.009100
C9421	C942	0.974300	0.601900	0.045000
C9431	C943	0.991100	0.561900	0.092500
C9441	C944	0.936200	0.568700	0.023500
C9451	C945	0.767700	0.498700	0.906000
C9461	C946	0.798400	0.492900	0.955300
C9471	C947	0.807100	0.465900	0.971600
C9481	C948	0.785100	0.444800	0.938500
C9491	C949	0.754500	0.450600	0.889200
C9501	C950	0.745800	0.477600	0.873000
C9511	C951	0.599100	0.533200	0.712000
C9521	C952	0.575700	0.558200	0.696500
C9531	C953	0.533700	0.549700	0.649300
C9541	C954	0.574500	0.513700	0.668000
C9551	C955	0.668400	0.682300	0.491600
C9561	C956	0.705100	0.684500	0.504900
C9571	C957	0.701200	0.705800	0.471000
C9581	C958	0.658600	0.699800	0.422400
C9591	C959	0.635200	0.685900	0.439000
C9601	C960	0.576100	0.552600	0.516100
C9611	C961	0.551900	0.550200	0.462700
C9621	C962	0.515500	0.536500	0.441200
C9631	C963	0.509800	0.528800	0.472900
C9641	C964	0.531200	0.531400	0.522500
C9651	C965	0.569500	0.543300	0.544800
C9661	C966	0.066200	0.689300	0.957600
C9671	C967	0.042700	0.691700	0.905100
C9681	C968	0.055300	0.683600	0.881800
C9691	C969	0.092700	0.675000	0.908000
C9701	C970	0.121100	0.676000	0.964400
C9711	C971	0.104000	0.683200	0.986500
C9721	C972	0.658900	0.759700	0.764800
C9731	C973	0.744700	0.838400	0.769400
C9741	C974	0.699700	0.643200	0.975700
C9751	C975	0.740800	0.835300	0.804600
C9761	C976	0.879100	0.815900	0.927600
C9771	C977	0.473500	0.667800	0.572300
C9781	C978	0.861100	0.508300	0.139600
C9791	C979	0.865700	0.737500	0.973300
C9801	C980	0.874000	0.761800	0.000700
C9811	C981	0.723100	0.580500	0.493700
C9821	C982	0.746100	0.813000	0.745100
C9831	C983	0.735900	0.810900	0.816500
C9841	C984	0.655600	0.853000	0.607600
C9851	C985	0.771500	0.684800	0.006300
C9861	C986	0.813400	0.499100	0.141400
C9871	C987	0.461700	0.616900	0.451000
C9881	C988	0.531500	0.606400	0.507300
C9891	C989	0.834700	0.504600	0.087500
C9901	C990	0.906300	0.798600	0.939000
C9911	C991	0.804400	0.606000	0.044400
C9921	C992	0.034100	0.667400	0.125200
C9931	C993	0.825900	0.622900	0.086900
C9941	C994	0.490700	0.595400	0.479300
C9951	C995	0.651500	0.805200	0.619300
C9961	C996	0.897700	0.773800	0.916200
C9971	C997	0.786800	0.731100	0.033900
C9981	C998	0.492600	0.622200	0.564600
C9991	C999	0.679300	0.603600	0.144800
C10001	C1000	0.505600	0.749100	0.613500
C10011	C1001	0.679000	0.798200	0.618200
C10021	C1002	0.680800	0.683400	0.000900
C10031	C1003	0.884200	0.714100	0.000400
C10041	C1004	0.678300	0.576200	0.161400
C10051	C1005	0.814600	0.617600	0.563300
C10061	C1006	0.851600	0.506400	0.167800
C10071	C1007	0.828100	0.586200	0.134600
C10081	C1008	0.833600	0.780500	0.869600
C10091	C1009	0.679700	0.785800	0.838100
C10101	C1010	0.709900	0.675300	0.053000
C10111	C1011	0.916500	0.737900	0.077200
C10121	C1012	0.771500	0.706600	0.031100
C10131	C1013	0.511500	0.676900	0.603300
C10141	C1014	0.806000	0.608600	0.591800
C10151	C1015	0.898900	0.761200	0.051900
C10161	C1016	0.680200	0.761900	0.816700
C10171	C1017	0.836700	0.598300	0.560400
C10181	C1018	0.737100	0.786600	0.795200
C10191	C1019	0.481400	0.743300	0.561100
C10201	C1020	0.734600	0.653400	0.068200
C10211	C1021	0.789300	0.494700	0.089700
C10221	C1022	0.684600	0.846400	0.609000
C10231	C1023	0.637400	0.806600	0.756900
C10241	C1024	0.466100	0.642000	0.551200
C10251	C1025	0.048300	0.683100	0.109500
C10261	C1026	0.799900	0.497100	0.062900
C10271	C1027	0.819900	0.585100	0.617700
C10281	C1028	0.584800	0.617300	0.751900
C10291	C1029	0.800500	0.712300	0.984300
C10301	C1030	0.471200	0.644700	0.449200
C10311	C1031	0.636400	0.781900	0.733500
C10321	C1032	0.539300	0.658100	0.615800
C10331	C1033	0.536400	0.635100	0.502800
C10341	C1034	0.495000	0.735200	0.540000
C10351	C1035	0.659500	0.808300	0.808600
C10361	C1036	0.025000	0.695200	0.063000
C10371	C1037	0.533300	0.732900	0.568300
C10381	C1038	0.909600	0.713300	0.051700
C10391	C1039	0.785800	0.687900	0.982200
C10401	C1040	0.698000	0.609300	0.129200
C10411	C1041	0.795900	0.579200	0.047200
C10421	C1042	0.987200	0.690700	0.030900
C10431	C1043	0.509900	0.652700	0.480900
C10441	C1044	0.740600	0.788400	0.760400
C10451	C1045	0.802200	0.734400	0.010900
C10461	C1046	0.557300	0.739300	0.618100
C10471	C1047	0.862800	0.764500	0.882100
C10481	C1048	0.640000	0.831200	0.614900
C10491	C1049	0.544200	0.747600	0.641700
C10501	C1050	0.672700	0.664700	0.957500
C10511	C1051	0.702500	0.555700	0.165300
C10521	C1052	0.015400	0.619400	0.985000
C10531	C1053	0.852500	0.575000	0.586600
C10541	C1054	0.806500	0.568400	0.090400
C10551	C1055	0.694500	0.820000	0.610300
C10561	C1056	0.842900	0.806200	0.894400
C10571	C1057	0.837300	0.612900	0.133000
C10581	C1058	0.727300	0.637800	0.028500
C10591	C1059	0.530800	0.631500	0.597900
C10601	C1060	0.722900	0.561400	0.155000
C10611	C1061	0.721300	0.587100	0.134100
C10621	C1062	0.995300	0.663400	0.093100
C10631	C1063	0.844400	0.567200	0.618100
C10641	C1064	0.971800	0.675300	0.045700
C10651	C1065	0.072200	0.598700	0.069600
C10661	C1066	0.559200	0.446900	0.489100
C10671	C1067	0.594800	0.427500	0.516400
C10681	C1068	0.731000	0.746100	0.591400
C10691	C1069	0.918500	0.783000	0.808400
C10701	C1070	0.708000	0.756100	0.548800
C10711	C1071	0.569600	0.519700	0.982000
C10721	C1072	0.920300	0.754000	0.805600
C10731	C1073	0.967000	0.783500	0.900400
C10741	C1074	0.940800	0.798000	0.856400
C10751	C1075	0.967700	0.752800	0.897300
C10761	C1076	0.580600	0.718200	0.788300
C10771	C1077	0.608300	0.723700	0.837800
C10781	C1078	0.646200	0.714500	0.865300
C10791	C1079	0.585100	0.703800	0.757400
C10801	C1080	0.623300	0.694800	0.785200
C10811	C1081	0.943400	0.740300	0.851800
C10821	C1082	0.651800	0.699700	0.834600
C10831	C1083	0.701400	0.598000	0.502700
C10841	C1084	0.726800	0.590500	0.460100
S2091	S209	0.658250	0.698720	0.638380
S2101	S210	0.802010	0.631170	0.863250
S2111	S211	0.768970	0.680910	0.745670
S2121	S212	0.804460	0.601200	0.756070
S2131	S213	0.692480	0.652550	0.754540
S2141	S214	0.727540	0.572680	0.761740
S2151	S215	0.693450	0.622310	0.645440
S2161	S216	0.548810	0.721680	0.537700
S2171	S217	0.730070	0.544610	0.655280
S2181	S218	0.876040	0.659980	0.854290
S2191	S219	0.657150	0.729940	0.735200
S2201	S220	0.910740	0.613950	0.960490
S2211	S221	0.769480	0.715660	0.855110
S2221	S222	0.724230	0.600050	0.865270
S2231	S223	0.839490	0.589650	0.981500
S2241	S224	0.786530	0.658130	0.954330
S2251	S225	0.630220	0.779830	0.628530
S2261	S226	0.959040	0.706870	0.972060
S2271	S227	0.741590	0.758490	0.732390
S2281	S228	0.826580	0.522140	0.754030
S2291	S229	0.851920	0.732280	0.851250
S2301	S230	0.838800	0.548690	0.876760
S2311	S231	0.874460	0.682100	0.968760
S2321	S232	0.585420	0.670790	0.656500
S2331	S233	0.769540	0.557110	0.996540
S2341	S234	0.771030	0.651660	0.635210
S2351	S235	0.584570	0.646040	0.540750
S2361	S236	0.619690	0.744310	0.514100
S2371	S237	0.697490	0.691340	0.865470
S2381	S238	0.614100	0.591360	0.651190
S2391	S239	0.836240	0.716440	0.730740
S2401	S240	0.946220	0.704040	0.846410
S2411	S241	0.742280	0.485240	0.058060
S2421	S242	0.725290	0.727620	0.628380
S2431	S243	0.814700	0.573770	0.660860
S2441	S244	0.649710	0.535690	0.759340
S2451	S245	0.753600	0.493200	0.772900
S2461	S246	0.752910	0.537680	0.160880
S2471	S247	0.751860	0.530150	0.874370
S2481	S248	0.653890	0.663460	0.526080
S2491	S249	0.882820	0.635350	0.767140
S2501	S250	0.631010	0.619420	0.778550
S2511	S251	0.618860	0.569910	0.541380
S2521	S252	0.692030	0.623750	0.933480
S2531	S253	0.651810	0.504160	0.035550
S2541	S254	0.980280	0.634750	0.926560
S2551	S255	0.664610	0.515900	0.663540
S2561	S256	0.697320	0.588500	0.544540
S2571	S257	0.655600	0.553450	0.873410
S2581	S258	0.908440	0.575450	0.855000
S2591	S259	0.051450	0.696920	0.990130
S2601	S260	0.700160	0.566600	0.021920
Cd1291	Cd129	0.810780	0.642580	0.803040
Cd1301	Cd130	0.736760	0.614530	0.809710
Cd1311	Cd131	0.738700	0.585920	0.704680
Cd1321	Cd132	0.782990	0.721750	0.800240
Cd1331	Cd133	0.847570	0.592780	0.917280
Cd1341	Cd134	0.704820	0.662630	0.697940
Cd1351	Cd135	0.629290	0.630370	0.706070
Cd1361	Cd136	0.627560	0.606950	0.599050
Cd1371	Cd137	0.843170	0.561040	0.813500
Cd1381	Cd138	0.772780	0.536890	0.825080
Cd1391	Cd139	0.890930	0.694680	0.917390
Cd1401	Cd140	0.676940	0.742910	0.686740
Cd1411	Cd141	0.804300	0.674420	0.904690
Cd1421	Cd142	0.661590	0.556470	0.706000
Cd1431	Cd143	0.919340	0.619540	0.897370
Cd1441	Cd144	0.708940	0.632810	0.591590
Cd1451	Cd145	0.661980	0.705860	0.572000
Cd1461	Cd146	0.983230	0.686150	0.934170
Cd1471	Cd147	0.706120	0.696750	0.802500
Cd1481	Cd148	0.593840	0.683740	0.596720
Cd1491	Cd149	0.717350	0.643210	0.896450
Cd1501	Cd150	0.712790	0.523230	0.069540
Cd1511	Cd151	0.774770	0.690960	0.681630
Cd1521	Cd152	0.762710	0.503600	0.712720
Cd1531	Cd153	0.776270	0.570060	0.934430
Cd1541	Cd154	0.816090	0.617780	0.700110
Cd1551	Cd155	0.749810	0.556360	0.607210
Cd1561	Cd156	0.882460	0.682730	0.797050
Cd1571	Cd157	0.662780	0.531780	0.594490
Cd1581	Cd158	0.706550	0.574140	0.957900
Cd1591	Cd159	0.585590	0.759860	0.541010
Cd1601	Cd160	0.664320	0.573890	0.816670
C10851	C1085	0.700100	0.622800	0.475000
C10861	C1086	0.533000	0.522500	0.647000
C10871	C1087	0.040800	0.624600	0.043100
C10881	C1088	0.623500	0.440500	0.540000
C10891	C1089	0.741000	0.621300	0.457000
C10901	C1090	0.964100	0.550900	0.058000
C10911	C1091	0.615200	0.525100	0.017700
C10921	C1092	0.520600	0.631800	0.698600
C10931	C1093	0.006400	0.583000	0.096000
C10941	C1094	0.764500	0.769900	0.641300
C10951	C1095	0.585100	0.592600	0.783000
C10961	C1096	0.779300	0.793800	0.636000
C10971	C1097	0.749700	0.788700	0.572400
C10981	C1098	0.560900	0.630100	0.721200
C10991	C1099	0.510900	0.611900	0.707800
C11001	C1100	0.711400	0.778500	0.527800
C11011	C1101	0.165800	0.016900	0.876900
C11021	C1102	0.193700	0.002400	0.919500
C11031	C1103	0.196700	0.974300	0.916900
C11041	C1104	0.171800	0.960800	0.871600
C11051	C1105	0.143900	0.975400	0.829000
C11061	C1106	0.140900	0.003400	0.831600
C11071	C1107	0.444000	0.056300	0.897500
C11081	C1108	0.473100	0.046700	0.901900
C11091	C1109	0.500400	0.030600	0.942400
C11101	C1110	0.498700	0.024100	0.978600
C11111	C1111	0.469600	0.033700	0.974200
C11121	C1112	0.442300	0.049800	0.933700
C11131	C1113	0.407500	0.136300	0.747800
C11141	C1114	0.443700	0.145600	0.781400
C11151	C1115	0.464400	0.147100	0.767300
C11161	C1116	0.448800	0.139300	0.719600
C11171	C1117	0.412700	0.130000	0.686000
C11181	C1118	0.392000	0.128500	0.700100
C11191	C1119	0.365400	0.063310	0.024200
C11201	C1120	0.383100	0.067500	0.073900
C11211	C1121	0.406700	0.047700	0.109200
C11221	C1122	0.412700	0.023660	0.094700
C11231	C1123	0.395100	0.019470	0.045000
C11241	C1124	0.371400	0.039300	0.009700
C11251	C1125	0.084100	0.227600	0.457100
C11261	C1126	0.071600	0.239900	0.413300
C11271	C1127	0.043200	0.227900	0.367600
C11281	C1128	0.027400	0.203600	0.365700
C11291	C1129	0.039900	0.191300	0.409500
C11301	C1130	0.068300	0.203300	0.455200
C11311	C1131	0.286700	0.967200	0.809400
C11321	C1132	0.275100	0.941000	0.808400
C11331	C1133	0.300900	0.921000	0.840200
C11341	C1134	0.338300	0.927200	0.873000
C11351	C1135	0.349900	0.953400	0.874000
C11361	C1136	0.324100	0.973400	0.842200
C11371	C1137	0.156600	0.078000	0.986500
C11381	C1138	0.126700	0.061800	0.949700
C11391	C1139	0.091000	0.071700	0.922300
C11401	C1140	0.085300	0.097600	0.931800
C11411	C1141	0.115200	0.113800	0.968700
C11421	C1142	0.150900	0.103900	0.996000
C11431	C1143	0.360000	0.996000	0.793900
C11441	C1144	0.356100	0.971500	0.771200
C11451	C1145	0.384400	0.952300	0.797100
C11461	C1146	0.416500	0.957700	0.845700
C11471	C1147	0.420400	0.982200	0.868400
C11481	C1148	0.392100	0.001300	0.842500
C11491	C1149	0.136000	0.988500	0.655300
C11501	C1150	0.105200	0.980800	0.607200
C11511	C1151	0.082200	0.960200	0.599800
C11521	C1152	0.090100	0.947300	0.640400
C11531	C1153	0.120900	0.955000	0.688500
C11541	C1154	0.143900	0.975600	0.696000
C11551	C1155	0.344600	0.216000	0.689800
C11561	C1156	0.345800	0.192800	0.668600
C11571	C1157	0.354300	0.195100	0.638500
C11581	C1158	0.361500	0.220600	0.629600
C11591	C1159	0.360400	0.243900	0.650900
C11601	C1160	0.351900	0.241600	0.681000
C11611	C1161	0.442000	0.090800	0.009100
C11621	C1162	0.474300	0.101900	0.045000
C11631	C1163	0.491100	0.061900	0.092500
C11641	C1164	0.436200	0.068700	0.023500
C11651	C1165	0.267700	0.998700	0.906000
C11661	C1166	0.298400	0.992900	0.955300
C11671	C1167	0.307100	0.965900	0.971600
C11681	C1168	0.285100	0.944800	0.938500
C11691	C1169	0.254500	0.950600	0.889200
C11701	C1170	0.245800	0.977600	0.873000
C11711	C1171	0.099100	0.033200	0.712000
C11721	C1172	0.075700	0.058200	0.696500
C11731	C1173	0.033700	0.049700	0.649300
C11741	C1174	0.074500	0.013700	0.668000
C11751	C1175	0.168400	0.182300	0.491600
C11761	C1176	0.205100	0.184500	0.504900
C11771	C1177	0.201200	0.205800	0.471000
C11781	C1178	0.158600	0.199800	0.422400
C11791	C1179	0.135200	0.185900	0.439000
C11801	C1180	0.076100	0.052600	0.516100
C11811	C1181	0.051900	0.050200	0.462700
C11821	C1182	0.015500	0.036500	0.441200
C11831	C1183	0.009800	0.028800	0.472900
C11841	C1184	0.031200	0.031400	0.522500
C11851	C1185	0.069500	0.043300	0.544800
C11861	C1186	0.566200	0.189300	0.957600
C11871	C1187	0.542700	0.191700	0.905100
C11881	C1188	0.555300	0.183600	0.881800
C11891	C1189	0.592700	0.175000	0.908000
C11901	C1190	0.621100	0.176000	0.964400
C11911	C1191	0.604000	0.183200	0.986500
C11921	C1192	0.158900	0.259700	0.764800
C11931	C1193	0.244700	0.338400	0.769400
C11941	C1194	0.199700	0.143200	0.975700
C11951	C1195	0.240800	0.335300	0.804600
C11961	C1196	0.379100	0.315900	0.927600
C11971	C1197	0.973500	0.167800	0.572300
C11981	C1198	0.361100	0.008300	0.139600
C11991	C1199	0.365700	0.237500	0.973300
C12001	C1200	0.374000	0.261800	0.000700
C12011	C1201	0.223100	0.080500	0.493700
C12021	C1202	0.246100	0.313000	0.745100
C12031	C1203	0.235900	0.310900	0.816500
C12041	C1204	0.155600	0.353000	0.607600
C12051	C1205	0.271500	0.184800	0.006300
C12061	C1206	0.313400	0.999100	0.141400
C12071	C1207	0.961700	0.116900	0.451000
C12081	C1208	0.031500	0.106400	0.507300
C12091	C1209	0.334700	0.004600	0.087500
C12101	C1210	0.406300	0.298600	0.939000
C12111	C1211	0.304400	0.106000	0.044400
C12121	C1212	0.534100	0.167400	0.125200
C12131	C1213	0.325900	0.122900	0.086900
C12141	C1214	0.990700	0.095400	0.479300
C12151	C1215	0.151500	0.305200	0.619300
C12161	C1216	0.397700	0.273800	0.916200
C12171	C1217	0.286800	0.231100	0.033900
C12181	C1218	0.992600	0.122200	0.564600
C12191	C1219	0.179300	0.103600	0.144800
C12201	C1220	0.005600	0.249100	0.613500
C12211	C1221	0.179000	0.298200	0.618200
C12221	C1222	0.180800	0.183400	0.000900
C12231	C1223	0.384200	0.214100	0.000400
C12241	C1224	0.178300	0.076200	0.161400
C12251	C1225	0.314600	0.117600	0.563300
C12261	C1226	0.351600	0.006400	0.167800
C12271	C1227	0.328100	0.086200	0.134600
C12281	C1228	0.333600	0.280500	0.869600
C12291	C1229	0.179700	0.285800	0.838100
C12301	C1230	0.209900	0.175300	0.053000
C12311	C1231	0.416500	0.237900	0.077200
C12321	C1232	0.271500	0.206600	0.031100
C12331	C1233	0.011500	0.176900	0.603300
C12341	C1234	0.306000	0.108600	0.591800
C12351	C1235	0.398900	0.261200	0.051900
C12361	C1236	0.180200	0.261900	0.816700
C12371	C1237	0.336700	0.098300	0.560400
C12381	C1238	0.237100	0.286600	0.795200
C12391	C1239	0.981400	0.243300	0.561100
C12401	C1240	0.234600	0.153400	0.068200
C12411	C1241	0.289300	0.994700	0.089700
C12421	C1242	0.184600	0.346400	0.609000
C12431	C1243	0.137400	0.306600	0.756900
C12441	C1244	0.966100	0.142000	0.551200
C12451	C1245	0.548300	0.183100	0.109500
C12461	C1246	0.299900	0.997100	0.062900
C12471	C1247	0.319900	0.085100	0.617700
C12481	C1248	0.084800	0.117300	0.751900
C12491	C1249	0.300500	0.212300	0.984300
C12501	C1250	0.971200	0.144700	0.449200
C12511	C1251	0.136400	0.281900	0.733500
C12521	C1252	0.039300	0.158100	0.615800
C12531	C1253	0.036400	0.135100	0.502800
C12541	C1254	0.995000	0.235200	0.540000
C12551	C1255	0.159500	0.308300	0.808600
C12561	C1256	0.525000	0.195200	0.063000
C12571	C1257	0.033300	0.232900	0.568300
C12581	C1258	0.409600	0.213300	0.051700
C12591	C1259	0.285800	0.187900	0.982200
C12601	C1260	0.198000	0.109300	0.129200
C12611	C1261	0.295900	0.079200	0.047200
C12621	C1262	0.487200	0.190700	0.030900
C12631	C1263	0.009900	0.152700	0.480900
C12641	C1264	0.240600	0.288400	0.760400
C12651	C1265	0.302200	0.234400	0.010900
C12661	C1266	0.057300	0.239300	0.618100
C12671	C1267	0.362800	0.264500	0.882100
C12681	C1268	0.140000	0.331200	0.614900
C12691	C1269	0.044200	0.247600	0.641700
C12701	C1270	0.172700	0.164700	0.957500
C12711	C1271	0.202500	0.055700	0.165300
C12721	C1272	0.515400	0.119400	0.985000
C12731	C1273	0.352500	0.075000	0.586600
C12741	C1274	0.306500	0.068400	0.090400
C12751	C1275	0.194500	0.320000	0.610300
C12761	C1276	0.342900	0.306200	0.894400
C12771	C1277	0.337300	0.112900	0.133000
C12781	C1278	0.227300	0.137800	0.028500
C12791	C1279	0.030800	0.131500	0.597900
C12801	C1280	0.222900	0.061400	0.155000
C12811	C1281	0.221300	0.087100	0.134100
C12821	C1282	0.495300	0.163400	0.093100
C12831	C1283	0.344400	0.067200	0.618100
C12841	C1284	0.471800	0.175300	0.045700
C12851	C1285	0.572200	0.098700	0.069600
C12861	C1286	0.059200	0.946900	0.489100
C12871	C1287	0.094800	0.927500	0.516400
C12881	C1288	0.231000	0.246100	0.591400
C12891	C1289	0.418500	0.283000	0.808400
C12901	C1290	0.208000	0.256100	0.548800
C12911	C1291	0.069600	0.019700	0.982000
C12921	C1292	0.420300	0.254000	0.805600
C12931	C1293	0.467000	0.283500	0.900400
C12941	C1294	0.440800	0.298000	0.856400
C12951	C1295	0.467700	0.252800	0.897300
C12961	C1296	0.080600	0.218200	0.788300
C12971	C1297	0.108300	0.223700	0.837800
C12981	C1298	0.146200	0.214500	0.865300
C12991	C1299	0.085100	0.203800	0.757400
C13001	C1300	0.123300	0.194800	0.785200
C13011	C1301	0.443400	0.240300	0.851800
C13021	C1302	0.151800	0.199700	0.834600
C13031	C1303	0.201400	0.098000	0.502700
C13041	C1304	0.226800	0.090500	0.460100
S2611	S261	0.158250	0.198720	0.638380
S2621	S262	0.302010	0.131170	0.863250
S2631	S263	0.268970	0.180910	0.745670
S2641	S264	0.304460	0.101200	0.756070
S2651	S265	0.192480	0.152550	0.754540
S2661	S266	0.227540	0.072680	0.761740
S2671	S267	0.193450	0.122310	0.645440
S2681	S268	0.048810	0.221680	0.537700
S2691	S269	0.230070	0.044610	0.655280
S2701	S270	0.376040	0.159980	0.854290
S2711	S271	0.157150	0.229940	0.735200
S2721	S272	0.410740	0.113950	0.960490
S2731	S273	0.269480	0.215660	0.855110
S2741	S274	0.224230	0.100050	0.865270
S2751	S275	0.339490	0.089650	0.981500
S2761	S276	0.286530	0.158130	0.954330
S2771	S277	0.130220	0.279830	0.628530
S2781	S278	0.459040	0.206870	0.972060
S2791	S279	0.241590	0.258490	0.732390
S2801	S280	0.326580	0.022140	0.754030
S2811	S281	0.351920	0.232280	0.851250
S2821	S282	0.338800	0.048690	0.876760
S2831	S283	0.374460	0.182100	0.968760
S2841	S284	0.085420	0.170790	0.656500
S2851	S285	0.269540	0.057110	0.996540
S2861	S286	0.271030	0.151660	0.635210
S2871	S287	0.084570	0.146040	0.540750
S2881	S288	0.119690	0.244310	0.514100
S2891	S289	0.197490	0.191340	0.865470
S2901	S290	0.114100	0.091360	0.651190
S2911	S291	0.336240	0.216440	0.730740
S2921	S292	0.446220	0.204040	0.846410
S2931	S293	0.242280	0.985240	0.058060
S2941	S294	0.225290	0.227620	0.628380
S2951	S295	0.314700	0.073770	0.660860
S2961	S296	0.149710	0.035690	0.759340
S2971	S297	0.253600	0.993200	0.772900
S2981	S298	0.252910	0.037680	0.160880
S2991	S299	0.251860	0.030150	0.874370
S3001	S300	0.153890	0.163460	0.526080
S3011	S301	0.382820	0.135350	0.767140
S3021	S302	0.131010	0.119420	0.778550
S3031	S303	0.118860	0.069910	0.541380
S3041	S304	0.192030	0.123750	0.933480
S3051	S305	0.151810	0.004160	0.035550
S3061	S306	0.480280	0.134750	0.926560
S3071	S307	0.164610	0.015900	0.663540
S3081	S308	0.197320	0.088500	0.544540
S3091	S309	0.155600	0.053450	0.873410
S3101	S310	0.408440	0.075450	0.855000
S3111	S311	0.551450	0.196920	0.990130
S3121	S312	0.200160	0.066600	0.021920
Cd1611	Cd161	0.310780	0.142580	0.803040
Cd1621	Cd162	0.236760	0.114530	0.809710
Cd1631	Cd163	0.238700	0.085920	0.704680
Cd1641	Cd164	0.282990	0.221750	0.800240
Cd1651	Cd165	0.347570	0.092780	0.917280
Cd1661	Cd166	0.204820	0.162630	0.697940
Cd1671	Cd167	0.129290	0.130370	0.706070
Cd1681	Cd168	0.127560	0.106950	0.599050
Cd1691	Cd169	0.343170	0.061040	0.813500
Cd1701	Cd170	0.272780	0.036890	0.825080
Cd1711	Cd171	0.390930	0.194680	0.917390
Cd1721	Cd172	0.176940	0.242910	0.686740
Cd1731	Cd173	0.304300	0.174420	0.904690
Cd1741	Cd174	0.161590	0.056470	0.706000
Cd1751	Cd175	0.419340	0.119540	0.897370
Cd1761	Cd176	0.208940	0.132810	0.591590
Cd1771	Cd177	0.161980	0.205860	0.572000
Cd1781	Cd178	0.483230	0.186150	0.934170
Cd1791	Cd179	0.206120	0.196750	0.802500
Cd1801	Cd180	0.093840	0.183740	0.596720
Cd1811	Cd181	0.217350	0.143210	0.896450
Cd1821	Cd182	0.212790	0.023230	0.069540
Cd1831	Cd183	0.274770	0.190960	0.681630
Cd1841	Cd184	0.262710	0.003600	0.712720
Cd1851	Cd185	0.276270	0.070060	0.934430
Cd1861	Cd186	0.316090	0.117780	0.700110
Cd1871	Cd187	0.249810	0.056360	0.607210
Cd1881	Cd188	0.382460	0.182730	0.797050
Cd1891	Cd189	0.162780	0.031780	0.594490
Cd1901	Cd190	0.206550	0.074140	0.957900
Cd1911	Cd191	0.085590	0.259860	0.541010
Cd1921	Cd192	0.164320	0.073890	0.816670
C13051	C1305	0.200100	0.122800	0.475000
C13061	C1306	0.033000	0.022500	0.647000
C13071	C1307	0.540800	0.124600	0.043100
C13081	C1308	0.123500	0.940500	0.540000
C13091	C1309	0.241000	0.121300	0.457000
C13101	C1310	0.464100	0.050900	0.058000
C13111	C1311	0.115200	0.025100	0.017700
C13121	C1312	0.020600	0.131800	0.698600
C13131	C1313	0.506400	0.083000	0.096000
C13141	C1314	0.264500	0.269900	0.641300
C13151	C1315	0.085100	0.092600	0.783000
C13161	C1316	0.279300	0.293800	0.636000
C13171	C1317	0.249700	0.288700	0.572400
C13181	C1318	0.060900	0.130100	0.721200
C13191	C1319	0.010900	0.111900	0.707800
C13201	C1320	0.211400	0.278500	0.527800
C13211	C1321	0.665800	0.483100	0.376900
C13221	C1322	0.693700	0.497600	0.419500
C13231	C1323	0.696700	0.525700	0.416900
C13241	C1324	0.671800	0.539200	0.371600
C13251	C1325	0.643900	0.524600	0.329000
C13261	C1326	0.640900	0.496600	0.331600
C13271	C1327	0.944000	0.443700	0.397500
C13281	C1328	0.973100	0.453300	0.401900
C13291	C1329	0.000400	0.469400	0.442400
C13301	C1330	0.998700	0.475900	0.478600
C13311	C1331	0.969600	0.466300	0.474200
C13321	C1332	0.942300	0.450200	0.433700
C13331	C1333	0.907500	0.363700	0.247800
C13341	C1334	0.943700	0.354400	0.281400
C13351	C1335	0.964400	0.352900	0.267300
C13361	C1336	0.948800	0.360700	0.219600
C13371	C1337	0.912700	0.370000	0.186000
C13381	C1338	0.892000	0.371500	0.200100
C13391	C1339	0.865400	0.436690	0.524200
C13401	C1340	0.883100	0.432500	0.573900
C13411	C1341	0.906700	0.452300	0.609200
C13421	C1342	0.912700	0.476340	0.594700
C13431	C1343	0.895100	0.480530	0.545000
C13441	C1344	0.871400	0.460700	0.509700
C13451	C1345	0.584100	0.272400	0.957100
C13461	C1346	0.571600	0.260100	0.913300
C13471	C1347	0.543200	0.272100	0.867600
C13481	C1348	0.527400	0.296400	0.865700
C13491	C1349	0.539900	0.308700	0.909500
C13501	C1350	0.568300	0.296700	0.955200
C13511	C1351	0.786700	0.532800	0.309400
C13521	C1352	0.775100	0.559000	0.308400
C13531	C1353	0.800900	0.579000	0.340200
C13541	C1354	0.838300	0.572800	0.373000
C13551	C1355	0.849900	0.546600	0.374000
C13561	C1356	0.824100	0.526600	0.342200
C13571	C1357	0.656600	0.422000	0.486500
C13581	C1358	0.626700	0.438200	0.449700
C13591	C1359	0.591000	0.428300	0.422300
C13601	C1360	0.585300	0.402400	0.431800
C13611	C1361	0.615200	0.386200	0.468700
C13621	C1362	0.650900	0.396100	0.496000
C13631	C1363	0.860000	0.504000	0.293900
C13641	C1364	0.856100	0.528500	0.271200
C13651	C1365	0.884400	0.547700	0.297100
C13661	C1366	0.916500	0.542300	0.345700
C13671	C1367	0.920400	0.517800	0.368400
C13681	C1368	0.892100	0.498700	0.342500
C13691	C1369	0.636000	0.511500	0.155300
C13701	C1370	0.605200	0.519200	0.107200
C13711	C1371	0.582200	0.539800	0.099800
C13721	C1372	0.590100	0.552700	0.140400
C13731	C1373	0.620900	0.545000	0.188500
C13741	C1374	0.643900	0.524400	0.196000
C13751	C1375	0.844600	0.284000	0.189800
C13761	C1376	0.845800	0.307200	0.168600
C13771	C1377	0.854300	0.304900	0.138500
C13781	C1378	0.861500	0.279400	0.129600
C13791	C1379	0.860400	0.256100	0.150900
C13801	C1380	0.851900	0.258400	0.181000
C13811	C1381	0.942000	0.409200	0.509100
C13821	C1382	0.974300	0.398100	0.545000
C13831	C1383	0.991100	0.438100	0.592500
C13841	C1384	0.936200	0.431300	0.523500
C13851	C1385	0.767700	0.501300	0.406000
C13861	C1386	0.798400	0.507100	0.455300
C13871	C1387	0.807100	0.534100	0.471600
C13881	C1388	0.785100	0.555200	0.438500
C13891	C1389	0.754500	0.549400	0.389200
C13901	C1390	0.745800	0.522400	0.373000
C13911	C1391	0.599100	0.466800	0.212000
C13921	C1392	0.575700	0.441800	0.196500
C13931	C1393	0.533700	0.450300	0.149300
C13941	C1394	0.574500	0.486300	0.168000
C13951	C1395	0.668400	0.317700	0.991600
C13961	C1396	0.705100	0.315500	0.004900
C13971	C1397	0.701200	0.294200	0.971000
C13981	C1398	0.658600	0.300200	0.922400
C13991	C1399	0.635200	0.314100	0.939000
C14001	C1400	0.576100	0.447400	0.016100
C14011	C1401	0.551900	0.449800	0.962700
C14021	C1402	0.515500	0.463500	0.941200
C14031	C1403	0.509800	0.471200	0.972900
C14041	C1404	0.531200	0.468600	0.022500
C14051	C1405	0.569500	0.456700	0.044800
C14061	C1406	0.066200	0.310700	0.457600
C14071	C1407	0.042700	0.308300	0.405100
C14081	C1408	0.055300	0.316400	0.381800
C14091	C1409	0.092700	0.325000	0.408000
C14101	C1410	0.121100	0.324000	0.464400
C14111	C1411	0.104000	0.316800	0.486500
C14121	C1412	0.658900	0.240300	0.264800
C14131	C1413	0.744700	0.161600	0.269400
C14141	C1414	0.699700	0.356800	0.475700
C14151	C1415	0.740800	0.164700	0.304600
C14161	C1416	0.879100	0.184100	0.427600
C14171	C1417	0.473500	0.332200	0.072300
C14181	C1418	0.861100	0.491700	0.639600
C14191	C1419	0.865700	0.262500	0.473300
C14201	C1420	0.874000	0.238200	0.500700
C14211	C1421	0.723100	0.419500	0.993700
C14221	C1422	0.746100	0.187000	0.245100
C14231	C1423	0.735900	0.189100	0.316500
C14241	C1424	0.655600	0.147000	0.107600
C14251	C1425	0.771500	0.315200	0.506300
C14261	C1426	0.813400	0.500900	0.641400
C14271	C1427	0.461700	0.383100	0.951000
C14281	C1428	0.531500	0.393600	0.007300
C14291	C1429	0.834700	0.495400	0.587500
C14301	C1430	0.906300	0.201400	0.439000
C14311	C1431	0.804400	0.394000	0.544400
C14321	C1432	0.034100	0.332600	0.625200
C14331	C1433	0.825900	0.377100	0.586900
C14341	C1434	0.490700	0.404600	0.979300
C14351	C1435	0.651500	0.194800	0.119300
C14361	C1436	0.897700	0.226200	0.416200
C14371	C1437	0.786800	0.268900	0.533900
C14381	C1438	0.492600	0.377800	0.064600
C14391	C1439	0.679300	0.396400	0.644800
C14401	C1440	0.505600	0.250900	0.113500
C14411	C1441	0.679000	0.201800	0.118200
C14421	C1442	0.680800	0.316600	0.500900
C14431	C1443	0.884200	0.285900	0.500400
C14441	C1444	0.678300	0.423800	0.661400
C14451	C1445	0.814600	0.382400	0.063300
C14461	C1446	0.851600	0.493600	0.667800
C14471	C1447	0.828100	0.413800	0.634600
C14481	C1448	0.833600	0.219500	0.369600
C14491	C1449	0.679700	0.214200	0.338100
C14501	C1450	0.709900	0.324700	0.553000
C14511	C1451	0.916500	0.262100	0.577200
C14521	C1452	0.771500	0.293400	0.531100
C14531	C1453	0.511500	0.323100	0.103300
C14541	C1454	0.806000	0.391400	0.091800
C14551	C1455	0.898900	0.238800	0.551900
C14561	C1456	0.680200	0.238100	0.316700
C14571	C1457	0.836700	0.401700	0.060400
C14581	C1458	0.737100	0.213400	0.295200
C14591	C1459	0.481400	0.256700	0.061100
C14601	C1460	0.734600	0.346600	0.568200
C14611	C1461	0.789300	0.505300	0.589700
C14621	C1462	0.684600	0.153600	0.109000
C14631	C1463	0.637400	0.193400	0.256900
C14641	C1464	0.466100	0.358000	0.051200
C14651	C1465	0.048300	0.316900	0.609500
C14661	C1466	0.799900	0.502900	0.562900
C14671	C1467	0.819900	0.414900	0.117700
C14681	C1468	0.584800	0.382700	0.251900
C14691	C1469	0.800500	0.287700	0.484300
C14701	C1470	0.471200	0.355300	0.949200
C14711	C1471	0.636400	0.218100	0.233500
C14721	C1472	0.539300	0.341900	0.115800
C14731	C1473	0.536400	0.364900	0.002800
C14741	C1474	0.495000	0.264800	0.040000
C14751	C1475	0.659500	0.191700	0.308600
C14761	C1476	0.025000	0.304800	0.563000
C14771	C1477	0.533300	0.267100	0.068300
C14781	C1478	0.909600	0.286700	0.551700
C14791	C1479	0.785800	0.312100	0.482200
C14801	C1480	0.698000	0.390700	0.629200
C14811	C1481	0.795900	0.420800	0.547200
C14821	C1482	0.987200	0.309300	0.530900
C14831	C1483	0.509900	0.347300	0.980900
C14841	C1484	0.740600	0.211600	0.260400
C14851	C1485	0.802200	0.265600	0.510900
C14861	C1486	0.557300	0.260700	0.118100
C14871	C1487	0.862800	0.235500	0.382100
C14881	C1488	0.640000	0.168800	0.114900
C14891	C1489	0.544200	0.252400	0.141700
C14901	C1490	0.672700	0.335300	0.457500
C14911	C1491	0.702500	0.444300	0.665300
C14921	C1492	0.015400	0.380600	0.485000
C14931	C1493	0.852500	0.425000	0.086600
C14941	C1494	0.806500	0.431600	0.590400
C14951	C1495	0.694500	0.180000	0.110300
C14961	C1496	0.842900	0.193800	0.394400
C14971	C1497	0.837300	0.387100	0.633000
C14981	C1498	0.727300	0.362200	0.528500
C14991	C1499	0.530800	0.368500	0.097900
C15001	C1500	0.722900	0.438600	0.655000
C15011	C1501	0.721300	0.412900	0.634100
C15021	C1502	0.995300	0.336600	0.593100
C15031	C1503	0.844400	0.432800	0.118100
C15041	C1504	0.971800	0.324700	0.545700
C15051	C1505	0.072200	0.401300	0.569600
C15061	C1506	0.559200	0.553100	0.989100
C15071	C1507	0.594800	0.572500	0.016400
C15081	C1508	0.731000	0.253900	0.091400
C15091	C1509	0.918500	0.217000	0.308400
C15101	C1510	0.708000	0.243900	0.048800
C15111	C1511	0.569600	0.480300	0.482000
C15121	C1512	0.920300	0.246000	0.305600
C15131	C1513	0.967000	0.216500	0.400400
C15141	C1514	0.940800	0.202000	0.356400
C15151	C1515	0.967700	0.247200	0.397300
C15161	C1516	0.580600	0.281800	0.288300
C15171	C1517	0.608300	0.276300	0.337800
C15181	C1518	0.646200	0.285500	0.365300
C15191	C1519	0.585100	0.296200	0.257400
C15201	C1520	0.623300	0.305200	0.285200
C15211	C1521	0.943400	0.259700	0.351800
C15221	C1522	0.651800	0.300300	0.334600
C15231	C1523	0.701400	0.402000	0.002700
C15241	C1524	0.726800	0.409500	0.960100
S3131	S313	0.658250	0.301280	0.138380
S3141	S314	0.802010	0.368830	0.363250
S3151	S315	0.768970	0.319090	0.245670
S3161	S316	0.804460	0.398800	0.256070
S3171	S317	0.692480	0.347450	0.254540
S3181	S318	0.727540	0.427320	0.261740
S3191	S319	0.693450	0.377690	0.145440
S3201	S320	0.548810	0.278320	0.037700
S3211	S321	0.730070	0.455390	0.155280
S3221	S322	0.876040	0.340020	0.354290
S3231	S323	0.657150	0.270060	0.235200
S3241	S324	0.910740	0.386050	0.460490
S3251	S325	0.769480	0.284340	0.355110
S3261	S326	0.724230	0.399950	0.365270
S3271	S327	0.839490	0.410350	0.481500
S3281	S328	0.786530	0.341870	0.454330
S3291	S329	0.630220	0.220170	0.128530
S3301	S330	0.959040	0.293130	0.472060
S3311	S331	0.741590	0.241510	0.232390
S3321	S332	0.826580	0.477860	0.254030
S3331	S333	0.851920	0.267720	0.351250
S3341	S334	0.838800	0.451310	0.376760
S3351	S335	0.874460	0.317900	0.468760
S3361	S336	0.585420	0.329210	0.156500
S3371	S337	0.769540	0.442890	0.496540
S3381	S338	0.771030	0.348340	0.135210
S3391	S339	0.584570	0.353960	0.040750
S3401	S340	0.619690	0.255690	0.014100
S3411	S341	0.697490	0.308660	0.365470
S3421	S342	0.614100	0.408640	0.151190
S3431	S343	0.836240	0.283560	0.230740
S3441	S344	0.946220	0.295960	0.346410
S3451	S345	0.742280	0.514760	0.558060
S3461	S346	0.725290	0.272380	0.128380
S3471	S347	0.814700	0.426230	0.160860
S3481	S348	0.649710	0.464310	0.259340
S3491	S349	0.753600	0.506800	0.272900
S3501	S350	0.752910	0.462320	0.660880
S3511	S351	0.751860	0.469850	0.374370
S3521	S352	0.653890	0.336540	0.026080
S3531	S353	0.882820	0.364650	0.267140
S3541	S354	0.631010	0.380580	0.278550
S3551	S355	0.618860	0.430090	0.041380
S3561	S356	0.692030	0.376250	0.433480
S3571	S357	0.651810	0.495840	0.535550
S3581	S358	0.980280	0.365250	0.426560
S3591	S359	0.664610	0.484100	0.163540
S3601	S360	0.697320	0.411500	0.044540
S3611	S361	0.655600	0.446550	0.373410
S3621	S362	0.908440	0.424550	0.355000
S3631	S363	0.051450	0.303080	0.490130
S3641	S364	0.700160	0.433400	0.521920
Cd1931	Cd193	0.810780	0.357420	0.303040
Cd1941	Cd194	0.736760	0.385470	0.309710
Cd1951	Cd195	0.738700	0.414080	0.204680
Cd1961	Cd196	0.782990	0.278250	0.300240
Cd1971	Cd197	0.847570	0.407220	0.417280
Cd1981	Cd198	0.704820	0.337370	0.197940
Cd1991	Cd199	0.629290	0.369630	0.206070
Cd2001	Cd200	0.627560	0.393050	0.099050
Cd2011	Cd201	0.843170	0.438960	0.313500
Cd2021	Cd202	0.772780	0.463110	0.325080
Cd2031	Cd203	0.890930	0.305320	0.417390
Cd2041	Cd204	0.676940	0.257090	0.186740
Cd2051	Cd205	0.804300	0.325580	0.404690
Cd2061	Cd206	0.661590	0.443530	0.206000
Cd2071	Cd207	0.919340	0.380460	0.397370
Cd2081	Cd208	0.708940	0.367190	0.091590
Cd2091	Cd209	0.661980	0.294140	0.072000
Cd2101	Cd210	0.983230	0.313850	0.434170
Cd2111	Cd211	0.706120	0.303250	0.302500
Cd2121	Cd212	0.593840	0.316260	0.096720
Cd2131	Cd213	0.717350	0.356790	0.396450
Cd2141	Cd214	0.712790	0.476770	0.569540
Cd2151	Cd215	0.774770	0.309040	0.181630
Cd2161	Cd216	0.762710	0.496400	0.212720
Cd2171	Cd217	0.776270	0.429940	0.434430
Cd2181	Cd218	0.816090	0.382220	0.200110
Cd2191	Cd219	0.749810	0.443640	0.107210
Cd2201	Cd220	0.882460	0.317270	0.297050
Cd2211	Cd221	0.662780	0.468220	0.094490
Cd2221	Cd222	0.706550	0.425860	0.457900
Cd2231	Cd223	0.585590	0.240140	0.041010
Cd2241	Cd224	0.664320	0.426110	0.316670
C15251	C1525	0.700100	0.377200	0.975000
C15261	C1526	0.533000	0.477500	0.147000
C15271	C1527	0.040800	0.375400	0.543100
C15281	C1528	0.623500	0.559500	0.040000
C15291	C1529	0.741000	0.378700	0.957000
C15301	C1530	0.964100	0.449100	0.558000
C15311	C1531	0.615200	0.474900	0.517700
C15321	C1532	0.520600	0.368200	0.198600
C15331	C1533	0.006400	0.417000	0.596000
C15341	C1534	0.764500	0.230100	0.141300
C15351	C1535	0.585100	0.407400	0.283000
C15361	C1536	0.779300	0.206200	0.136000
C15371	C1537	0.749700	0.211300	0.072400
C15381	C1538	0.560900	0.369900	0.221200
C15391	C1539	0.510900	0.388100	0.207800
C15401	C1540	0.711400	0.221500	0.027800
C15411	C1541	0.165800	0.983100	0.376900
C15421	C1542	0.193700	0.997600	0.419500
C15431	C1543	0.196700	0.025700	0.416900
C15441	C1544	0.171800	0.039200	0.371600
C15451	C1545	0.143900	0.024600	0.329000
C15461	C1546	0.140900	0.996600	0.331600
C15471	C1547	0.444000	0.943700	0.397500
C15481	C1548	0.473100	0.953300	0.401900
C15491	C1549	0.500400	0.969400	0.442400
C15501	C1550	0.498700	0.975900	0.478600
C15511	C1551	0.469600	0.966300	0.474200
C15521	C1552	0.442300	0.950200	0.433700
C15531	C1553	0.407500	0.863700	0.247800
C15541	C1554	0.443700	0.854400	0.281400
C15551	C1555	0.464400	0.852900	0.267300
C15561	C1556	0.448800	0.860700	0.219600
C15571	C1557	0.412700	0.870000	0.186000
C15581	C1558	0.392000	0.871500	0.200100
C15591	C1559	0.365400	0.936690	0.524200
C15601	C1560	0.383100	0.932500	0.573900
C15611	C1561	0.406700	0.952300	0.609200
C15621	C1562	0.412700	0.976340	0.594700
C15631	C1563	0.395100	0.980530	0.545000
C15641	C1564	0.371400	0.960700	0.509700
C15651	C1565	0.084100	0.772400	0.957100
C15661	C1566	0.071600	0.760100	0.913300
C15671	C1567	0.043200	0.772100	0.867600
C15681	C1568	0.027400	0.796400	0.865700
C15691	C1569	0.039900	0.808700	0.909500
C15701	C1570	0.068300	0.796700	0.955200
C15711	C1571	0.286700	0.032800	0.309400
C15721	C1572	0.275100	0.059000	0.308400
C15731	C1573	0.300900	0.079000	0.340200
C15741	C1574	0.338300	0.072800	0.373000
C15751	C1575	0.349900	0.046600	0.374000
C15761	C1576	0.324100	0.026600	0.342200
C15771	C1577	0.156600	0.922000	0.486500
C15781	C1578	0.126700	0.938200	0.449700
C15791	C1579	0.091000	0.928300	0.422300
C15801	C1580	0.085300	0.902400	0.431800
C15811	C1581	0.115200	0.886200	0.468700
C15821	C1582	0.150900	0.896100	0.496000
C15831	C1583	0.360000	0.004000	0.293900
C15841	C1584	0.356100	0.028500	0.271200
C15851	C1585	0.384400	0.047700	0.297100
C15861	C1586	0.416500	0.042300	0.345700
C15871	C1587	0.420400	0.017800	0.368400
C15881	C1588	0.392100	0.998700	0.342500
C15891	C1589	0.136000	0.011500	0.155300
C15901	C1590	0.105200	0.019200	0.107200
C15911	C1591	0.082200	0.039800	0.099800
C15921	C1592	0.090100	0.052700	0.140400
C15931	C1593	0.120900	0.045000	0.188500
C15941	C1594	0.143900	0.024400	0.196000
C15951	C1595	0.344600	0.784000	0.189800
C15961	C1596	0.345800	0.807200	0.168600
C15971	C1597	0.354300	0.804900	0.138500
C15981	C1598	0.361500	0.779400	0.129600
C15991	C1599	0.360400	0.756100	0.150900
C16001	C1600	0.351900	0.758400	0.181000
C16011	C1601	0.442000	0.909200	0.509100
C16021	C1602	0.474300	0.898100	0.545000
C16031	C1603	0.491100	0.938100	0.592500
C16041	C1604	0.436200	0.931300	0.523500
C16051	C1605	0.267700	0.001300	0.406000
C16061	C1606	0.298400	0.007100	0.455300
C16071	C1607	0.307100	0.034100	0.471600
C16081	C1608	0.285100	0.055200	0.438500
C16091	C1609	0.254500	0.049400	0.389200
C16101	C1610	0.245800	0.022400	0.373000
C16111	C1611	0.099100	0.966800	0.212000
C16121	C1612	0.075700	0.941800	0.196500
C16131	C1613	0.033700	0.950300	0.149300
C16141	C1614	0.074500	0.986300	0.168000
C16151	C1615	0.168400	0.817700	0.991600
C16161	C1616	0.205100	0.815500	0.004900
C16171	C1617	0.201200	0.794200	0.971000
C16181	C1618	0.158600	0.800200	0.922400
C16191	C1619	0.135200	0.814100	0.939000
C16201	C1620	0.076100	0.947400	0.016100
C16211	C1621	0.051900	0.949800	0.962700
C16221	C1622	0.015500	0.963500	0.941200
C16231	C1623	0.009800	0.971200	0.972900
C16241	C1624	0.031200	0.968600	0.022500
C16251	C1625	0.069500	0.956700	0.044800
C16261	C1626	0.566200	0.810700	0.457600
C16271	C1627	0.542700	0.808300	0.405100
C16281	C1628	0.555300	0.816400	0.381800
C16291	C1629	0.592700	0.825000	0.408000
C16301	C1630	0.621100	0.824000	0.464400
C16311	C1631	0.604000	0.816800	0.486500
C16321	C1632	0.158900	0.740300	0.264800
C16331	C1633	0.244700	0.661600	0.269400
C16341	C1634	0.199700	0.856800	0.475700
C16351	C1635	0.240800	0.664700	0.304600
C16361	C1636	0.379100	0.684100	0.427600
C16371	C1637	0.973500	0.832200	0.072300
C16381	C1638	0.361100	0.991700	0.639600
C16391	C1639	0.365700	0.762500	0.473300
C16401	C1640	0.374000	0.738200	0.500700
C16411	C1641	0.223100	0.919500	0.993700
C16421	C1642	0.246100	0.687000	0.245100
C16431	C1643	0.235900	0.689100	0.316500
C16441	C1644	0.155600	0.647000	0.107600
C16451	C1645	0.271500	0.815200	0.506300
C16461	C1646	0.313400	0.000900	0.641400
C16471	C1647	0.961700	0.883100	0.951000
C16481	C1648	0.031500	0.893600	0.007300
C16491	C1649	0.334700	0.995400	0.587500
C16501	C1650	0.406300	0.701400	0.439000
C16511	C1651	0.304400	0.894000	0.544400
C16521	C1652	0.534100	0.832600	0.625200
C16531	C1653	0.325900	0.877100	0.586900
C16541	C1654	0.990700	0.904600	0.979300
C16551	C1655	0.151500	0.694800	0.119300
C16561	C1656	0.397700	0.726200	0.416200
C16571	C1657	0.286800	0.768900	0.533900
C16581	C1658	0.992600	0.877800	0.064600
C16591	C1659	0.179300	0.896400	0.644800
C16601	C1660	0.005600	0.750900	0.113500
C16611	C1661	0.179000	0.701800	0.118200
C16621	C1662	0.180800	0.816600	0.500900
C16631	C1663	0.384200	0.785900	0.500400
C16641	C1664	0.178300	0.923800	0.661400
C16651	C1665	0.314600	0.882400	0.063300
C16661	C1666	0.351600	0.993600	0.667800
C16671	C1667	0.328100	0.913800	0.634600
C16681	C1668	0.333600	0.719500	0.369600
C16691	C1669	0.179700	0.714200	0.338100
C16701	C1670	0.209900	0.824700	0.553000
C16711	C1671	0.416500	0.762100	0.577200
C16721	C1672	0.271500	0.793400	0.531100
C16731	C1673	0.011500	0.823100	0.103300
C16741	C1674	0.306000	0.891400	0.091800
C16751	C1675	0.398900	0.738800	0.551900
C16761	C1676	0.180200	0.738100	0.316700
C16771	C1677	0.336700	0.901700	0.060400
C16781	C1678	0.237100	0.713400	0.295200
C16791	C1679	0.981400	0.756700	0.061100
C16801	C1680	0.234600	0.846600	0.568200
C16811	C1681	0.289300	0.005300	0.589700
C16821	C1682	0.184600	0.653600	0.109000
C16831	C1683	0.137400	0.693400	0.256900
C16841	C1684	0.966100	0.858000	0.051200
C16851	C1685	0.548300	0.816900	0.609500
C16861	C1686	0.299900	0.002900	0.562900
C16871	C1687	0.319900	0.914900	0.117700
C16881	C1688	0.084800	0.882700	0.251900
C16891	C1689	0.300500	0.787700	0.484300
C16901	C1690	0.971200	0.855300	0.949200
C16911	C1691	0.136400	0.718100	0.233500
C16921	C1692	0.039300	0.841900	0.115800
C16931	C1693	0.036400	0.864900	0.002800
C16941	C1694	0.995000	0.764800	0.040000
C16951	C1695	0.159500	0.691700	0.308600
C16961	C1696	0.525000	0.804800	0.563000
C16971	C1697	0.033300	0.767100	0.068300
C16981	C1698	0.409600	0.786700	0.551700
C16991	C1699	0.285800	0.812100	0.482200
C17001	C1700	0.198000	0.890700	0.629200
C17011	C1701	0.295900	0.920800	0.547200
C17021	C1702	0.487200	0.809300	0.530900
C17031	C1703	0.009900	0.847300	0.980900
C17041	C1704	0.240600	0.711600	0.260400
C17051	C1705	0.302200	0.765600	0.510900
C17061	C1706	0.057300	0.760700	0.118100
C17071	C1707	0.362800	0.735500	0.382100
C17081	C1708	0.140000	0.668800	0.114900
C17091	C1709	0.044200	0.752400	0.141700
C17101	C1710	0.172700	0.835300	0.457500
C17111	C1711	0.202500	0.944300	0.665300
C17121	C1712	0.515400	0.880600	0.485000
C17131	C1713	0.352500	0.925000	0.086600
C17141	C1714	0.306500	0.931600	0.590400
C17151	C1715	0.194500	0.680000	0.110300
C17161	C1716	0.342900	0.693800	0.394400
C17171	C1717	0.337300	0.887100	0.633000
C17181	C1718	0.227300	0.862200	0.528500
C17191	C1719	0.030800	0.868500	0.097900
C17201	C1720	0.222900	0.938600	0.655000
C17211	C1721	0.221300	0.912900	0.634100
C17221	C1722	0.495300	0.836600	0.593100
C17231	C1723	0.344400	0.932800	0.118100
C17241	C1724	0.471800	0.824700	0.545700
C17251	C1725	0.572200	0.901300	0.569600
C17261	C1726	0.059200	0.053100	0.989100
C17271	C1727	0.094800	0.072500	0.016400
C17281	C1728	0.231000	0.753900	0.091400
C17291	C1729	0.418500	0.717000	0.308400
C17301	C1730	0.208000	0.743900	0.048800
C17311	C1731	0.069600	0.980300	0.482000
C17321	C1732	0.420300	0.746000	0.305600
C17331	C1733	0.467000	0.716500	0.400400
C17341	C1734	0.440800	0.702000	0.356400
C17351	C1735	0.467700	0.747200	0.397300
C17361	C1736	0.080600	0.781800	0.288300
C17371	C1737	0.108300	0.776300	0.337800
C17381	C1738	0.146200	0.785500	0.365300
C17391	C1739	0.085100	0.796200	0.257400
C17401	C1740	0.123300	0.805200	0.285200
C17411	C1741	0.443400	0.759700	0.351800
C17421	C1742	0.151800	0.800300	0.334600
C17431	C1743	0.201400	0.902000	0.002700
C17441	C1744	0.226800	0.909500	0.960100
S3651	S365	0.158250	0.801280	0.138380
S3661	S366	0.302010	0.868830	0.363250
S3671	S367	0.268970	0.819090	0.245670
S3681	S368	0.304460	0.898800	0.256070
S3691	S369	0.192480	0.847450	0.254540
S3701	S370	0.227540	0.927320	0.261740
S3711	S371	0.193450	0.877690	0.145440
S3721	S372	0.048810	0.778320	0.037700
S3731	S373	0.230070	0.955390	0.155280
S3741	S374	0.376040	0.840020	0.354290
S3751	S375	0.157150	0.770060	0.235200
S3761	S376	0.410740	0.886050	0.460490
S3771	S377	0.269480	0.784340	0.355110
S3781	S378	0.224230	0.899950	0.365270
S3791	S379	0.339490	0.910350	0.481500
S3801	S380	0.286530	0.841870	0.454330
S3811	S381	0.130220	0.720170	0.128530
S3821	S382	0.459040	0.793130	0.472060
S3831	S383	0.241590	0.741510	0.232390
S3841	S384	0.326580	0.977860	0.254030
S3851	S385	0.351920	0.767720	0.351250
S3861	S386	0.338800	0.951310	0.376760
S3871	S387	0.374460	0.817900	0.468760
S3881	S388	0.085420	0.829210	0.156500
S3891	S389	0.269540	0.942890	0.496540
S3901	S390	0.271030	0.848340	0.135210
S3911	S391	0.084570	0.853960	0.040750
S3921	S392	0.119690	0.755690	0.014100
S3931	S393	0.197490	0.808660	0.365470
S3941	S394	0.114100	0.908640	0.151190
S3951	S395	0.336240	0.783560	0.230740
S3961	S396	0.446220	0.795960	0.346410
S3971	S397	0.242280	0.014760	0.558060
S3981	S398	0.225290	0.772380	0.128380
S3991	S399	0.314700	0.926230	0.160860
S4001	S400	0.149710	0.964310	0.259340
S4011	S401	0.253600	0.006800	0.272900
S4021	S402	0.252910	0.962320	0.660880
S4031	S403	0.251860	0.969850	0.374370
S4041	S404	0.153890	0.836540	0.026080
S4051	S405	0.382820	0.864650	0.267140
S4061	S406	0.131010	0.880580	0.278550
S4071	S407	0.118860	0.930090	0.041380
S4081	S408	0.192030	0.876250	0.433480
S4091	S409	0.151810	0.995840	0.535550
S4101	S410	0.480280	0.865250	0.426560
S4111	S411	0.164610	0.984100	0.163540
S4121	S412	0.197320	0.911500	0.044540
S4131	S413	0.155600	0.946550	0.373410
S4141	S414	0.408440	0.924550	0.355000
S4151	S415	0.551450	0.803080	0.490130
S4161	S416	0.200160	0.933400	0.521920
Cd2251	Cd225	0.310780	0.857420	0.303040
Cd2261	Cd226	0.236760	0.885470	0.309710
Cd2271	Cd227	0.238700	0.914080	0.204680
Cd2281	Cd228	0.282990	0.778250	0.300240
Cd2291	Cd229	0.347570	0.907220	0.417280
Cd2301	Cd230	0.204820	0.837370	0.197940
Cd2311	Cd231	0.129290	0.869630	0.206070
Cd2321	Cd232	0.127560	0.893050	0.099050
Cd2331	Cd233	0.343170	0.938960	0.313500
Cd2341	Cd234	0.272780	0.963110	0.325080
Cd2351	Cd235	0.390930	0.805320	0.417390
Cd2361	Cd236	0.176940	0.757090	0.186740
Cd2371	Cd237	0.304300	0.825580	0.404690
Cd2381	Cd238	0.161590	0.943520	0.206000
Cd2391	Cd239	0.419340	0.880460	0.397370
Cd2401	Cd240	0.208940	0.867190	0.091590
Cd2411	Cd241	0.161980	0.794140	0.072000
Cd2421	Cd242	0.483230	0.813850	0.434170
Cd2431	Cd243	0.206120	0.803250	0.302500
Cd2441	Cd244	0.093840	0.816250	0.096720
Cd2451	Cd245	0.217350	0.856790	0.396450
Cd2461	Cd246	0.212790	0.976770	0.569540
Cd2471	Cd247	0.274770	0.809040	0.181630
Cd2481	Cd248	0.262710	0.996400	0.212720
Cd2491	Cd249	0.276270	0.929930	0.434430
Cd2501	Cd250	0.316090	0.882220	0.200110
Cd2511	Cd251	0.249810	0.943640	0.107210
Cd2521	Cd252	0.382460	0.817270	0.297050
Cd2531	Cd253	0.162780	0.968220	0.094490
Cd2541	Cd254	0.206550	0.925860	0.457900
Cd2551	Cd255	0.085590	0.740140	0.041010
Cd2561	Cd256	0.164320	0.926110	0.316670
C17451	C1745	0.200100	0.877200	0.975000
C17461	C1746	0.033000	0.977500	0.147000
C17471	C1747	0.540800	0.875400	0.543100
C17481	C1748	0.123500	0.059500	0.040000
C17491	C1749	0.241000	0.878700	0.957000
C17501	C1750	0.464100	0.949100	0.558000
C17511	C1751	0.115200	0.974900	0.517700
C17521	C1752	0.020600	0.868200	0.198600
C17531	C1753	0.506400	0.917000	0.596000
C17541	C1754	0.264500	0.730100	0.141300
C17551	C1755	0.085100	0.907400	0.283000
C17561	C1756	0.279300	0.706200	0.136000
C17571	C1757	0.249700	0.711300	0.072400
C17581	C1758	0.060900	0.869900	0.221200
C17591	C1759	0.010900	0.888100	0.207800
C17601	C1760	0.211400	0.721500	0.027800
