data_IDAGEA_charged_PM
_symmetry_space_group_name_H-M	'P1'
_cell_length_a	9.051800
_cell_length_b	16.884600
_cell_length_c	16.884600
_cell_angle_alpha	94.607800
_cell_angle_beta	92.917800
_cell_angle_gamma	92.917800
_symmetry_Int_Tables_number 1

loop_
_symmetry_equiv_pos_as_xyz
'x,y,z'

loop_
_atom_site_label
_atom_site_type_symbol
_atom_site_fract_x
_atom_site_fract_y
_atom_site_fract_z
Cu11	Cu1	0.126840	0.832660	0.687600
Cu21	Cu2	0.373160	0.312400	0.167340
Cu31	Cu3	0.873160	0.167340	0.312400
Cu41	Cu4	0.626840	0.687600	0.832660
H11	H1	0.087700	0.721300	0.582900
H21	H2	0.020300	0.792100	0.551700
H31	H3	0.863800	0.676700	0.593700
H41	H4	0.661000	0.759100	0.598300
H51	H5	0.759700	0.781700	0.526700
H61	H6	0.906300	0.911100	0.537700
H71	H7	0.914400	0.044400	0.589200
H81	H8	0.781500	0.081300	0.696700
H91	H9	0.643400	0.988000	0.757400
H101	H10	0.636900	0.855400	0.711200
H111	H11	0.220000	0.003500	0.664700
H121	H12	0.377100	0.073900	0.589100
H131	H13	0.329200	0.800700	0.559300
H141	H14	0.487300	0.866200	0.480600
H151	H15	0.970400	0.940600	0.792000
H161	H16	0.011400	0.034600	0.896000
H171	H17	0.391800	0.892100	0.797300
H181	H18	0.444900	0.990000	0.900600
H191	H19	0.412300	0.417100	0.278700
H201	H20	0.479700	0.448300	0.207900
H211	H21	0.636200	0.406300	0.323300
H221	H22	0.839000	0.401700	0.240900
H231	H23	0.740300	0.473300	0.218300
H241	H24	0.593700	0.462300	0.088900
H251	H25	0.585600	0.410800	0.955600
H261	H26	0.718500	0.303300	0.918700
H271	H27	0.856600	0.242600	0.012000
H281	H28	0.863100	0.288800	0.144600
H291	H29	0.280000	0.335300	0.996500
H301	H30	0.122900	0.410900	0.926100
H311	H31	0.170800	0.440700	0.199300
H321	H32	0.012700	0.519400	0.133800
H331	H33	0.529600	0.208000	0.059400
H341	H34	0.488600	0.104000	0.965400
H351	H35	0.108200	0.202700	0.107900
H361	H36	0.055100	0.099400	0.010000
H371	H37	0.912300	0.278700	0.417100
H381	H38	0.979700	0.207900	0.448300
H391	H39	0.136200	0.323300	0.406300
H401	H40	0.339000	0.240900	0.401700
H411	H41	0.240300	0.218300	0.473300
H421	H42	0.093700	0.088900	0.462300
H431	H43	0.085600	0.955600	0.410800
H441	H44	0.218500	0.918700	0.303300
H451	H45	0.356600	0.012000	0.242600
H461	H46	0.363100	0.144600	0.288800
H471	H47	0.780000	0.996500	0.335300
H481	H48	0.622900	0.926100	0.410900
H491	H49	0.670800	0.199300	0.440700
H501	H50	0.512700	0.133800	0.519400
H511	H51	0.029600	0.059400	0.208000
H521	H52	0.988600	0.965400	0.104000
H531	H53	0.608200	0.107900	0.202700
H541	H54	0.555100	0.010000	0.099400
H551	H55	0.587700	0.582900	0.721300
H561	H56	0.520300	0.551700	0.792100
H571	H57	0.363800	0.593700	0.676700
H581	H58	0.161000	0.598300	0.759100
H591	H59	0.259700	0.526700	0.781700
H601	H60	0.406300	0.537700	0.911100
H611	H61	0.414400	0.589200	0.044400
H621	H62	0.281500	0.696700	0.081300
H631	H63	0.143400	0.757400	0.988000
H641	H64	0.136900	0.711200	0.855400
H651	H65	0.720000	0.664700	0.003500
H661	H66	0.877100	0.589100	0.073900
H671	H67	0.829200	0.559300	0.800700
H681	H68	0.987300	0.480600	0.866200
H691	H69	0.470400	0.792000	0.940600
H701	H70	0.511400	0.896000	0.034600
H711	H71	0.891800	0.797300	0.892100
H721	H72	0.944900	0.900600	0.990000
C11	C1	0.879200	0.735260	0.706740
C21	C2	0.882000	0.732940	0.616860
C31	C3	0.757700	0.783500	0.585300
C41	C4	0.768300	0.869200	0.618400
C51	C5	0.852100	0.926100	0.582700
C61	C6	0.856500	0.005400	0.613200
C71	C7	0.779100	0.027000	0.676800
C81	C8	0.697400	0.971800	0.712600
C91	C9	0.692500	0.893600	0.684800
C101	C10	0.275600	0.974940	0.626860
C111	C11	0.368700	0.017470	0.581530
C121	C12	0.338800	0.857230	0.565570
C131	C13	0.433100	0.895930	0.518270
C141	C14	0.449000	0.978350	0.525490
C151	C15	0.068400	0.950700	0.814700
C161	C16	0.092600	0.007200	0.876000
C171	C17	0.314100	0.922500	0.817100
C181	C18	0.345900	0.980900	0.879100
C191	C19	0.235200	0.026230	0.910510
C201	C20	0.620800	0.293260	0.264740
C211	C21	0.618000	0.383140	0.267060
C221	C22	0.742300	0.414700	0.216500
C231	C23	0.731700	0.381600	0.130800
C241	C24	0.647900	0.417300	0.073900
C251	C25	0.643500	0.386800	0.994600
C261	C26	0.720900	0.323200	0.973000
C271	C27	0.802600	0.287400	0.028200
C281	C28	0.807500	0.315200	0.106400
C291	C29	0.224400	0.373140	0.025060
C301	C30	0.131300	0.418470	0.982530
C311	C31	0.161200	0.434430	0.142770
C321	C32	0.066900	0.481730	0.104070
C331	C33	0.051000	0.474510	0.021650
C341	C34	0.431600	0.185300	0.049300
C351	C35	0.407400	0.124000	0.992800
C361	C36	0.185900	0.182900	0.077500
C371	C37	0.154100	0.120900	0.019100
C381	C38	0.264800	0.089490	0.973770
C391	C39	0.120800	0.264740	0.293260
C401	C40	0.118000	0.267060	0.383140
C411	C41	0.242300	0.216500	0.414700
C421	C42	0.231700	0.130800	0.381600
C431	C43	0.147900	0.073900	0.417300
C441	C44	0.143500	0.994600	0.386800
C451	C45	0.220900	0.973000	0.323200
C461	C46	0.302600	0.028200	0.287400
C471	C47	0.307500	0.106400	0.315200
C481	C48	0.724400	0.025060	0.373140
C491	C49	0.631300	0.982530	0.418470
C501	C50	0.661200	0.142770	0.434430
C511	C51	0.566900	0.104070	0.481730
C521	C52	0.551000	0.021650	0.474510
C531	C53	0.931600	0.049300	0.185300
C541	C54	0.907400	0.992800	0.124000
C551	C55	0.685900	0.077500	0.182900
C561	C56	0.654100	0.019100	0.120900
C571	C57	0.764800	0.973770	0.089490
C581	C58	0.379200	0.706740	0.735260
C591	C59	0.382000	0.616860	0.732940
C601	C60	0.257700	0.585300	0.783500
C611	C61	0.268300	0.618400	0.869200
C621	C62	0.352100	0.582700	0.926100
C631	C63	0.356500	0.613200	0.005400
C641	C64	0.279100	0.676800	0.027000
C651	C65	0.197400	0.712600	0.971800
C661	C66	0.192500	0.684800	0.893600
C671	C67	0.775600	0.626860	0.974940
C681	C68	0.868700	0.581530	0.017470
C691	C69	0.838800	0.565570	0.857230
C701	C70	0.933100	0.518270	0.895930
C711	C71	0.949000	0.525490	0.978350
C721	C72	0.568400	0.814700	0.950700
C731	C73	0.592600	0.876000	0.007200
C741	C74	0.814100	0.817100	0.922500
C751	C75	0.845900	0.879100	0.980900
C761	C76	0.735200	0.910510	0.026230
N11	N1	0.029900	0.763240	0.595480
N21	N2	0.259900	0.895270	0.619970
N31	N3	0.176400	0.908240	0.784340
N41	N4	0.470100	0.404520	0.236760
N51	N5	0.240100	0.380030	0.104730
N61	N6	0.323600	0.215660	0.091760
N71	N7	0.970100	0.236760	0.404520
N81	N8	0.740100	0.104730	0.380030
N91	N9	0.823600	0.091760	0.215660
N101	N10	0.529900	0.595480	0.763240
N111	N11	0.759900	0.619970	0.895270
N121	N12	0.676400	0.784340	0.908240
O11	O1	0.976900	0.780090	0.747550
O21	O2	0.780300	0.695550	0.735070
O31	O3	0.523100	0.252450	0.219910
O41	O4	0.719700	0.264930	0.304450
O51	O5	0.023100	0.219910	0.252450
O61	O6	0.219700	0.304450	0.264930
O71	O7	0.476900	0.747550	0.780090
O81	O8	0.280300	0.735070	0.695550
N131	N13	0.750000	0.123800	0.876200
O91	O9	0.863700	0.159900	0.861300
O101	O10	0.636300	0.138700	0.840100
O111	O11	0.750000	0.076800	0.923200
N141	N14	0.250000	0.876200	0.123800
O121	O12	0.136300	0.840100	0.138700
O131	O13	0.363700	0.861300	0.159900
O141	O14	0.250000	0.923200	0.076800
